# generated using pymatgen
data_Cu6Ni2C21
_symmetry_space_group_name_H-M   'P 1'
_cell_length_a   13.06563937
_cell_length_b   13.06563937
_cell_length_c   21.18061413
_cell_angle_alpha   90.00000000
_cell_angle_beta   90.00000000
_cell_angle_gamma   90.00000000
_symmetry_Int_Tables_number   1
_chemical_formula_structural   Cu6Ni2C21
_chemical_formula_sum   'Cu48 Ni16 C168'
_cell_volume   3615.76238158
_cell_formula_units_Z   8
loop_
 _symmetry_equiv_pos_site_id
 _symmetry_equiv_pos_as_xyz
  1  'x, y, z'
loop_
 _atom_site_type_symbol
 _atom_site_label
 _atom_site_symmetry_multiplicity
 _atom_site_fract_x
 _atom_site_fract_y
 _atom_site_fract_z
 _atom_site_occupancy
  C  C0  1  0.24721208  0.32189399  0.23620374  1
  C  C1  1  0.75278792  0.67810601  0.73620374  1
  C  C2  1  0.82189399  0.25278792  0.48620374  1
  C  C3  1  0.17810601  0.74721208  0.98620374  1
  C  C4  1  0.67810601  0.75278792  0.26379626  1
  C  C5  1  0.32189399  0.24721208  0.76379626  1
  C  C6  1  0.25278792  0.82189399  0.51379626  1
  C  C7  1  0.74721208  0.17810601  0.01379626  1
  Ni  Ni8  1  0.12390353  0.21080411  0.17481420  1
  Ni  Ni9  1  0.87609647  0.78919589  0.67481420  1
  Ni  Ni10  1  0.71080411  0.37609647  0.42481420  1
  Ni  Ni11  1  0.28919589  0.62390353  0.92481420  1
  Ni  Ni12  1  0.78919589  0.87609647  0.32518580  1
  Ni  Ni13  1  0.21080411  0.12390353  0.82518580  1
  Ni  Ni14  1  0.37609647  0.71080411  0.57518580  1
  Ni  Ni15  1  0.62390353  0.28919589  0.07518580  1
  Ni  Ni16  1  0.21991401  0.43750350  0.33032018  1
  Ni  Ni17  1  0.78008599  0.56249650  0.83032018  1
  Ni  Ni18  1  0.93750350  0.28008599  0.58032018  1
  Ni  Ni19  1  0.06249650  0.71991401  0.08032018  1
  Ni  Ni20  1  0.56249650  0.78008599  0.16967982  1
  Ni  Ni21  1  0.43750350  0.21991401  0.66967982  1
  Ni  Ni22  1  0.28008599  0.93750350  0.41967982  1
  Ni  Ni23  1  0.71991401  0.06249650  0.91967982  1
  C  C24  1  0.20764797  0.19478214  0.07247184  1
  C  C25  1  0.79235203  0.80521786  0.57247184  1
  C  C26  1  0.69478214  0.29235203  0.32247184  1
  C  C27  1  0.30521786  0.70764797  0.82247184  1
  C  C28  1  0.80521786  0.79235203  0.42752816  1
  C  C29  1  0.19478214  0.20764797  0.92752816  1
  C  C30  1  0.29235203  0.69478214  0.67752816  1
  C  C31  1  0.70764797  0.30521786  0.17752816  1
  C  C32  1  0.09282736  0.26788474  0.06709904  1
  C  C33  1  0.90717264  0.73211526  0.56709904  1
  C  C34  1  0.76788474  0.40717264  0.31709904  1
  C  C35  1  0.23211526  0.59282736  0.81709904  1
  C  C36  1  0.73211526  0.90717264  0.43290096  1
  C  C37  1  0.26788474  0.09282736  0.93290096  1
  C  C38  1  0.40717264  0.76788474  0.68290096  1
  C  C39  1  0.59282736  0.23211526  0.18290096  1
  C  C40  1  0.08603795  0.13138051  0.07168636  1
  C  C41  1  0.91396205  0.86861949  0.57168636  1
  C  C42  1  0.63138051  0.41396205  0.32168636  1
  C  C43  1  0.36861949  0.58603795  0.82168636  1
  C  C44  1  0.86861949  0.91396205  0.42831364  1
  C  C45  1  0.13138051  0.08603795  0.92831364  1
  C  C46  1  0.41396205  0.63138051  0.67831364  1
  C  C47  1  0.58603795  0.36861949  0.17831364  1
  C  C48  1  0.99913601  0.33899476  0.20921987  1
  C  C49  1  0.00086399  0.66100524  0.70921987  1
  C  C50  1  0.83899476  0.50086399  0.45921987  1
  C  C51  1  0.16100524  0.49913601  0.95921987  1
  C  C52  1  0.66100524  0.00086399  0.29078013  1
  C  C53  1  0.33899476  0.99913601  0.79078013  1
  C  C54  1  0.50086399  0.83899476  0.54078013  1
  C  C55  1  0.49913601  0.16100524  0.04078013  1
  C  C56  1  0.95379001  0.21321113  0.22484473  1
  C  C57  1  0.04620999  0.78678887  0.72484473  1
  C  C58  1  0.71321113  0.54620999  0.47484473  1
  C  C59  1  0.28678887  0.45379001  0.97484473  1
  C  C60  1  0.78678887  0.04620999  0.27515527  1
  C  C61  1  0.21321113  0.95379001  0.77515527  1
  C  C62  1  0.54620999  0.71321113  0.52515527  1
  C  C63  1  0.45379001  0.28678887  0.02515527  1
  C  C64  1  0.94811179  0.26353509  0.14648091  1
  C  C65  1  0.05188821  0.73646491  0.64648091  1
  C  C66  1  0.76353509  0.55188821  0.39648091  1
  C  C67  1  0.23646491  0.44811179  0.89648091  1
  C  C68  1  0.73646491  0.05188821  0.35351909  1
  C  C69  1  0.26353509  0.94811179  0.85351909  1
  C  C70  1  0.55188821  0.76353509  0.60351909  1
  C  C71  1  0.44811179  0.23646491  0.10351909  1
  C  C72  1  0.12558586  0.07769572  0.25379145  1
  C  C73  1  0.87441414  0.92230428  0.75379145  1
  C  C74  1  0.57769572  0.37441414  0.50379145  1
  C  C75  1  0.42230428  0.62558586  0.00379145  1
  C  C76  1  0.92230428  0.87441414  0.24620855  1
  C  C77  1  0.07769572  0.12558586  0.74620855  1
  C  C78  1  0.37441414  0.57769572  0.49620855  1
  C  C79  1  0.62558586  0.42230428  0.99620855  1
  C  C80  1  0.17884094  0.03303039  0.18174370  1
  C  C81  1  0.82115906  0.96696961  0.68174370  1
  C  C82  1  0.53303039  0.32115906  0.43174370  1
  C  C83  1  0.46696961  0.67884094  0.93174370  1
  C  C84  1  0.96696961  0.82115906  0.31825630  1
  C  C85  1  0.03303039  0.17884094  0.81825630  1
  C  C86  1  0.32115906  0.53303039  0.56825630  1
  C  C87  1  0.67884094  0.46696961  0.06825630  1
  C  C88  1  0.04220877  0.04234889  0.18990720  1
  C  C89  1  0.95779123  0.95765111  0.68990720  1
  C  C90  1  0.54234889  0.45779123  0.43990720  1
  C  C91  1  0.45765111  0.54220877  0.93990720  1
  C  C92  1  0.95765111  0.95779123  0.31009280  1
  C  C93  1  0.04234889  0.04220877  0.81009280  1
  C  C94  1  0.45779123  0.54234889  0.56009280  1
  C  C95  1  0.54220877  0.45765111  0.06009280  1
  C  C96  1  0.30806664  0.38302092  0.42624336  1
  C  C97  1  0.69193336  0.61697908  0.92624336  1
  C  C98  1  0.88302092  0.19193336  0.67624336  1
  C  C99  1  0.11697908  0.80806664  0.17624336  1
  C  C100  1  0.61697908  0.69193336  0.07375664  1
  C  C101  1  0.38302092  0.30806664  0.57375664  1
  C  C102  1  0.19193336  0.88302092  0.32375664  1
  C  C103  1  0.80806664  0.11697908  0.82375664  1
  C  C104  1  0.20408613  0.30069871  0.40687115  1
  C  C105  1  0.79591387  0.69930129  0.90687115  1
  C  C106  1  0.80069871  0.29591387  0.65687115  1
  C  C107  1  0.19930129  0.70408613  0.15687115  1
  C  C108  1  0.69930129  0.79591387  0.09312885  1
  C  C109  1  0.30069871  0.20408613  0.59312885  1
  C  C110  1  0.29591387  0.80069871  0.34312885  1
  C  C111  1  0.70408613  0.19930129  0.84312885  1
  C  C112  1  0.17934327  0.42151338  0.44314277  1
  C  C113  1  0.82065673  0.57848662  0.94314277  1
  C  C114  1  0.92151338  0.32065673  0.69314277  1
  C  C115  1  0.07848662  0.67934327  0.19314277  1
  C  C116  1  0.57848662  0.82065673  0.05685723  1
  C  C117  1  0.42151338  0.17934327  0.55685723  1
  C  C118  1  0.32065673  0.92151338  0.30685723  1
  C  C119  1  0.67934327  0.07848662  0.80685723  1
  C  C120  1  0.03705795  0.42239918  0.34780765  1
  C  C121  1  0.96294205  0.57760082  0.84780765  1
  C  C122  1  0.92239918  0.46294205  0.59780765  1
  C  C123  1  0.07760082  0.53705795  0.09780765  1
  C  C124  1  0.57760082  0.96294205  0.15219235  1
  C  C125  1  0.42239918  0.03705795  0.65219235  1
  C  C126  1  0.46294205  0.92239918  0.40219235  1
  C  C127  1  0.53705795  0.07760082  0.90219235  1
  C  C128  1  0.06300613  0.49733987  0.27915297  1
  C  C129  1  0.93699387  0.50266013  0.77915297  1
  C  C130  1  0.99733987  0.43699387  0.52915297  1
  C  C131  1  0.00266013  0.56300613  0.02915297  1
  C  C132  1  0.50266013  0.93699387  0.22084703  1
  C  C133  1  0.49733987  0.06300613  0.72084703  1
  C  C134  1  0.43699387  0.99733987  0.47084703  1
  C  C135  1  0.56300613  0.00266013  0.97084703  1
  C  C136  1  0.07723329  0.55264055  0.35607236  1
  C  C137  1  0.92276671  0.44735945  0.85607236  1
  C  C138  1  0.05264055  0.42276671  0.60607236  1
  C  C139  1  0.94735945  0.57723329  0.10607236  1
  C  C140  1  0.44735945  0.92276671  0.14392764  1
  C  C141  1  0.55264055  0.07723329  0.64392764  1
  C  C142  1  0.42276671  0.05264055  0.39392764  1
  C  C143  1  0.57723329  0.94735945  0.89392764  1
  C  C144  1  0.29708830  0.59052467  0.28820901  1
  C  C145  1  0.70291170  0.40947533  0.78820901  1
  C  C146  1  0.09052467  0.20291170  0.53820901  1
  C  C147  1  0.90947533  0.79708830  0.03820901  1
  C  C148  1  0.40947533  0.70291170  0.21179099  1
  C  C149  1  0.59052467  0.29708830  0.71179099  1
  C  C150  1  0.20291170  0.09052467  0.46179099  1
  C  C151  1  0.79708830  0.90947533  0.96179099  1
  C  C152  1  0.37459862  0.53617516  0.34818124  1
  C  C153  1  0.62540138  0.46382484  0.84818124  1
  C  C154  1  0.03617516  0.12540138  0.59818124  1
  C  C155  1  0.96382484  0.87459862  0.09818124  1
  C  C156  1  0.46382484  0.62540138  0.15181876  1
  C  C157  1  0.53617516  0.37459862  0.65181876  1
  C  C158  1  0.12540138  0.03617516  0.40181876  1
  C  C159  1  0.87459862  0.96382484  0.90181876  1
  C  C160  1  0.26349387  0.60888979  0.36985125  1
  C  C161  1  0.73650613  0.39111021  0.86985125  1
  C  C162  1  0.10888979  0.23650613  0.61985125  1
  C  C163  1  0.89111021  0.76349387  0.11985125  1
  C  C164  1  0.39111021  0.73650613  0.13014875  1
  C  C165  1  0.60888979  0.26349387  0.63014875  1
  C  C166  1  0.23650613  0.10888979  0.38014875  1
  C  C167  1  0.76349387  0.89111021  0.88014875  1
  Cu  Cu168  1  0.12770405  0.19936120  0.08826589  1
  Cu  Cu169  1  0.87229595  0.80063880  0.58826589  1
  Cu  Cu170  1  0.69936120  0.37229595  0.33826589  1
  Cu  Cu171  1  0.30063880  0.62770405  0.83826589  1
  Cu  Cu172  1  0.80063880  0.87229595  0.41173411  1
  Cu  Cu173  1  0.19936120  0.12770405  0.91173411  1
  Cu  Cu174  1  0.37229595  0.69936120  0.66173411  1
  Cu  Cu175  1  0.62770405  0.30063880  0.16173411  1
  Cu  Cu176  1  0.99363243  0.26116731  0.19007129  1
  Cu  Cu177  1  0.00636757  0.73883269  0.69007129  1
  Cu  Cu178  1  0.76116731  0.50636757  0.44007129  1
  Cu  Cu179  1  0.23883269  0.49363243  0.94007129  1
  Cu  Cu180  1  0.73883269  0.00636757  0.30992871  1
  Cu  Cu181  1  0.26116731  0.99363243  0.80992871  1
  Cu  Cu182  1  0.50636757  0.76116731  0.55992871  1
  Cu  Cu183  1  0.49363243  0.23883269  0.05992871  1
  Cu  Cu184  1  0.11586727  0.07784159  0.20229080  1
  Cu  Cu185  1  0.88413273  0.92215841  0.70229080  1
  Cu  Cu186  1  0.57784159  0.38413273  0.45229080  1
  Cu  Cu187  1  0.42215841  0.61586727  0.95229080  1
  Cu  Cu188  1  0.92215841  0.88413273  0.29770920  1
  Cu  Cu189  1  0.07784159  0.11586727  0.79770920  1
  Cu  Cu190  1  0.38413273  0.57784159  0.54770920  1
  Cu  Cu191  1  0.61586727  0.42215841  0.04770920  1
  Cu  Cu192  1  0.22868975  0.38069501  0.40960639  1
  Cu  Cu193  1  0.77131025  0.61930499  0.90960639  1
  Cu  Cu194  1  0.88069501  0.27131025  0.65960639  1
  Cu  Cu195  1  0.11930499  0.72868975  0.15960639  1
  Cu  Cu196  1  0.61930499  0.77131025  0.09039361  1
  Cu  Cu197  1  0.38069501  0.22868975  0.59039361  1
  Cu  Cu198  1  0.27131025  0.88069501  0.34039361  1
  Cu  Cu199  1  0.72868975  0.11930499  0.84039361  1
  Cu  Cu200  1  0.08624366  0.48245578  0.32795147  1
  Cu  Cu201  1  0.91375634  0.51754422  0.82795147  1
  Cu  Cu202  1  0.98245578  0.41375634  0.57795147  1
  Cu  Cu203  1  0.01754422  0.58624366  0.07795147  1
  Cu  Cu204  1  0.51754422  0.91375634  0.17204853  1
  Cu  Cu205  1  0.48245578  0.08624366  0.67204853  1
  Cu  Cu206  1  0.41375634  0.98245578  0.42204853  1
  Cu  Cu207  1  0.58624366  0.01754422  0.92204853  1
  Cu  Cu208  1  0.29571387  0.55522084  0.33510382  1
  Cu  Cu209  1  0.70428613  0.44477916  0.83510382  1
  Cu  Cu210  1  0.05522084  0.20428613  0.58510382  1
  Cu  Cu211  1  0.94477916  0.79571387  0.08510382  1
  Cu  Cu212  1  0.44477916  0.70428613  0.16489618  1
  Cu  Cu213  1  0.55522084  0.29571387  0.66489618  1
  Cu  Cu214  1  0.20428613  0.05522084  0.41489618  1
  Cu  Cu215  1  0.79571387  0.94477916  0.91489618  1
  C  C216  1  0.34373610  0.18873815  0.28630061  1
  C  C217  1  0.65626390  0.81126185  0.78630061  1
  C  C218  1  0.68873815  0.15626390  0.53630061  1
  C  C219  1  0.31126185  0.84373610  0.03630061  1
  C  C220  1  0.81126185  0.65626390  0.21369939  1
  C  C221  1  0.18873815  0.34373610  0.71369939  1
  C  C222  1  0.15626390  0.68873815  0.46369939  1
  C  C223  1  0.84373610  0.31126185  0.96369939  1
  C  C224  1  0.24578525  0.45950333  0.16143106  1
  C  C225  1  0.75421475  0.54049667  0.66143106  1
  C  C226  1  0.95950333  0.25421475  0.41143106  1
  C  C227  1  0.04049667  0.74578525  0.91143106  1
  C  C228  1  0.54049667  0.75421475  0.33856894  1
  C  C229  1  0.45950333  0.24578525  0.83856894  1
  C  C230  1  0.25421475  0.95950333  0.58856894  1
  C  C231  1  0.74578525  0.04049667  0.08856894  1
