# generated using pymatgen
data_CuNi14C17
_symmetry_space_group_name_H-M   'P 1'
_cell_length_a   8.57975786
_cell_length_b   8.60351740
_cell_length_c   4.24749265
_cell_angle_alpha   90.00000000
_cell_angle_beta   90.00000000
_cell_angle_gamma   90.00000000
_symmetry_Int_Tables_number   1
_chemical_formula_structural   CuNi14C17
_chemical_formula_sum   'Cu1 Ni14 C17'
_cell_volume   313.53332537
_cell_formula_units_Z   1
loop_
 _symmetry_equiv_pos_site_id
 _symmetry_equiv_pos_as_xyz
  1  'x, y, z'
loop_
 _atom_site_type_symbol
 _atom_site_label
 _atom_site_symmetry_multiplicity
 _atom_site_fract_x
 _atom_site_fract_y
 _atom_site_fract_z
 _atom_site_occupancy
  Ni  Ni0  1  0.50000000  0.00000000  -0.00000000  1
  Ni  Ni1  1  0.50000000  0.50000000  -0.00000000  1
  Ni  Ni2  1  -0.00000000  0.25985719  0.50000000  1
  Ni  Ni3  1  -0.00000000  0.74014281  0.50000000  1
  Ni  Ni4  1  0.50000000  0.25229649  0.50000000  1
  Ni  Ni5  1  0.50000000  0.74770351  0.50000000  1
  Ni  Ni6  1  0.25269059  0.00000000  0.50000000  1
  Ni  Ni7  1  0.24648321  0.50000000  0.50000000  1
  Ni  Ni8  1  0.74730941  0.00000000  0.50000000  1
  Ni  Ni9  1  0.75351679  0.50000000  0.50000000  1
  Ni  Ni10  1  0.25021047  0.25742520  -0.00000000  1
  Ni  Ni11  1  0.25021047  0.74257480  0.00000000  1
  Ni  Ni12  1  0.74978953  0.25742520  -0.00000000  1
  Ni  Ni13  1  0.74978953  0.74257480  0.00000000  1
  Cu  Cu14  1  -0.00000000  0.00000000  -0.00000000  1
  C  C15  1  -0.00000000  0.50000000  -0.00000000  1
  C  C16  1  0.24762380  0.00000000  -0.00000000  1
  C  C17  1  0.26499505  0.50000000  -0.00000000  1
  C  C18  1  0.75237620  0.00000000  0.00000000  1
  C  C19  1  0.73500495  0.50000000  0.00000000  1
  C  C20  1  0.24804538  0.24928039  0.50000000  1
  C  C21  1  0.24804538  0.75071961  0.50000000  1
  C  C22  1  0.75195462  0.24928039  0.50000000  1
  C  C23  1  0.75195462  0.75071961  0.50000000  1
  C  C24  1  -0.00000000  0.00000000  0.50000000  1
  C  C25  1  -0.00000000  0.50000000  0.50000000  1
  C  C26  1  0.50000000  0.00000000  0.50000000  1
  C  C27  1  0.50000000  0.50000000  0.50000000  1
  C  C28  1  -0.00000000  0.23088364  -0.00000000  1
  C  C29  1  -0.00000000  0.76911636  -0.00000000  1
  C  C30  1  0.50000000  0.24565959  -0.00000000  1
  C  C31  1  0.50000000  0.75434041  -0.00000000  1
