# generated using pymatgen
data_Cu(Ni2C)3
_symmetry_space_group_name_H-M   'P 1'
_cell_length_a   10.12907392
_cell_length_b   10.12907392
_cell_length_c   10.12907368
_cell_angle_alpha   109.63060395
_cell_angle_beta   109.63060395
_cell_angle_gamma   109.63060140
_symmetry_Int_Tables_number   1
_chemical_formula_structural   Cu(Ni2C)3
_chemical_formula_sum   'Cu2 Ni12 C6'
_cell_volume   795.23930902
_cell_formula_units_Z   2
loop_
 _symmetry_equiv_pos_site_id
 _symmetry_equiv_pos_as_xyz
  1  'x, y, z'
loop_
 _atom_site_type_symbol
 _atom_site_label
 _atom_site_symmetry_multiplicity
 _atom_site_fract_x
 _atom_site_fract_y
 _atom_site_fract_z
 _atom_site_occupancy
  Ni  Ni0  1  0.94326500  0.16483700  0.18092000  1
  Ni  Ni1  1  0.18092000  0.94326500  0.16483700  1
  Ni  Ni2  1  0.16483700  0.18092000  0.94326500  1
  Ni  Ni3  1  0.68092000  0.66483700  0.44326500  1
  Ni  Ni4  1  0.44326500  0.68092000  0.66483700  1
  Ni  Ni5  1  0.66483700  0.44326500  0.68092000  1
  Ni  Ni6  1  0.05673500  0.83516300  0.81908000  1
  Ni  Ni7  1  0.81908000  0.05673500  0.83516300  1
  Ni  Ni8  1  0.83516300  0.81908000  0.05673500  1
  Ni  Ni9  1  0.31908000  0.33516300  0.55673500  1
  Ni  Ni10  1  0.55673500  0.31908000  0.33516300  1
  Ni  Ni11  1  0.33516300  0.55673500  0.31908000  1
  Cu  Cu12  1  0.25000000  0.25000000  0.25000000  1
  Cu  Cu13  1  0.75000000  0.75000000  0.75000000  1
  C  C14  1  0.99301300  0.50698700  0.25000000  1
  C  C15  1  0.25000000  0.99301300  0.50698700  1
  C  C16  1  0.50698700  0.25000000  0.99301300  1
  C  C17  1  0.75000000  0.00698700  0.49301300  1
  C  C18  1  0.49301300  0.75000000  0.00698700  1
  C  C19  1  0.00698700  0.49301300  0.75000000  1
