# generated using pymatgen
data_Cu10Ni2C19
_symmetry_space_group_name_H-M   'P 1'
_cell_length_a   3.30593000
_cell_length_b   17.42811814
_cell_length_c   17.42957232
_cell_angle_alpha   60.04632904
_cell_angle_beta   89.92269973
_cell_angle_gamma   89.93522871
_symmetry_Int_Tables_number   1
_chemical_formula_structural   Cu10Ni2C19
_chemical_formula_sum   'Cu20 Ni4 C38'
_cell_volume   870.08886955
_cell_formula_units_Z   2
loop_
 _symmetry_equiv_pos_site_id
 _symmetry_equiv_pos_as_xyz
  1  'x, y, z'
loop_
 _atom_site_type_symbol
 _atom_site_label
 _atom_site_symmetry_multiplicity
 _atom_site_fract_x
 _atom_site_fract_y
 _atom_site_fract_z
 _atom_site_occupancy
  C  C0  1  0.46372500  0.66675200  0.65970500  1
  C  C1  1  0.96558800  0.33857400  0.33131600  1
  Ni  Ni2  1  0.75103600  0.32740500  0.66898900  1
  Ni  Ni3  1  0.75093300  0.00205900  0.32679800  1
  Ni  Ni4  1  0.75154200  0.67036200  0.00241300  1
  Ni  Ni5  1  0.25138500  0.67318300  0.32814400  1
  Cu  Cu6  1  0.24096200  0.89679500  0.55234500  1
  Cu  Cu7  1  0.24205700  0.55082600  0.89562900  1
  Cu  Cu8  1  0.24242300  0.55310600  0.54845400  1
  Cu  Cu9  1  0.74416100  0.10333200  0.44684900  1
  Cu  Cu10  1  0.74193100  0.45018800  0.10248000  1
  Cu  Cu11  1  0.74373400  0.44765600  0.45065900  1
  Cu  Cu12  1  0.25066500  0.23030900  0.88214800  1
  Cu  Cu13  1  0.25153900  0.88452300  0.23134200  1
  Cu  Cu14  1  0.25115200  0.88150300  0.88790300  1
  Cu  Cu15  1  0.75164200  0.76787300  0.11714300  1
  Cu  Cu16  1  0.75074000  0.11495600  0.76806700  1
  Cu  Cu17  1  0.75101300  0.11616900  0.11596400  1
  Cu  Cu18  1  0.25118300  0.99698800  0.67480300  1
  Cu  Cu19  1  0.25081800  0.32750000  0.99756500  1
  Cu  Cu20  1  0.25866500  0.56395200  0.22032000  1
  Cu  Cu21  1  0.26006400  0.21739800  0.56178700  1
  Cu  Cu22  1  0.25914200  0.22100100  0.21751200  1
  Cu  Cu23  1  0.75848100  0.43613700  0.77933400  1
  Cu  Cu24  1  0.75829900  0.78448400  0.43514400  1
  Cu  Cu25  1  0.75645800  0.77951200  0.78364400  1
  C  C26  1  0.25321200  0.88615700  0.36435200  1
  C  C27  1  0.25319200  0.75472700  0.88440700  1
  C  C28  1  0.25437200  0.35948500  0.75481800  1
  C  C29  1  0.75183200  0.10588200  0.63882300  1
  C  C30  1  0.75116200  0.25602500  0.10602100  1
  C  C31  1  0.75364100  0.63528000  0.24968500  1
  C  C32  1  0.25157400  0.21711800  0.68835900  1
  C  C33  1  0.25128500  0.09555600  0.21778100  1
  C  C34  1  0.25218300  0.68699800  0.09137000  1
  C  C35  1  0.75193400  0.77941500  0.31319300  1
  C  C36  1  0.75198600  0.91334100  0.77106300  1
  C  C37  1  0.75231100  0.31477000  0.91326200  1
  C  C38  1  0.25086700  0.02459400  0.80716100  1
  C  C39  1  0.25127300  0.16915300  0.02463300  1
  C  C40  1  0.25097500  0.81722400  0.15635800  1
  C  C41  1  0.75116600  0.97506500  0.18126400  1
  C  C42  1  0.75073200  0.84669700  0.97285900  1
  C  C43  1  0.75119500  0.17771100  0.84827300  1
  C  C44  1  0.24442200  0.36143900  0.17810700  1
  C  C45  1  0.24937900  0.45617500  0.36260600  1
  C  C46  1  0.24550000  0.17869300  0.46008500  1
  C  C47  1  0.74499700  0.63787600  0.82013900  1
  C  C48  1  0.74749200  0.54129000  0.64000300  1
  C  C49  1  0.74557000  0.82046800  0.54352200  1
  C  C50  1  0.25669600  0.69455800  0.50766900  1
  C  C51  1  0.25685900  0.80943000  0.69382600  1
  C  C52  1  0.25779200  0.49681400  0.80863500  1
  C  C53  1  0.75894000  0.30398500  0.49867900  1
  C  C54  1  0.75764900  0.19780800  0.30456900  1
  C  C55  1  0.75814700  0.49402300  0.19913300  1
  C  C56  1  0.24733400  0.54964800  0.02341500  1
  C  C57  1  0.24858100  0.42177700  0.55249100  1
  C  C58  1  0.24818400  0.02504300  0.42617200  1
  C  C59  1  0.75027400  0.43828100  0.97675300  1
  C  C60  1  0.74784300  0.57688200  0.44999900  1
  C  C61  1  0.75011300  0.97806700  0.58406100  1
