# generated using pymatgen
data_Cu4NiC11
_symmetry_space_group_name_H-M   'P 1'
_cell_length_a   7.45285300
_cell_length_b   7.45285300
_cell_length_c   15.01101700
_cell_angle_alpha   90.00000000
_cell_angle_beta   90.00000000
_cell_angle_gamma   90.00000000
_symmetry_Int_Tables_number   1
_chemical_formula_structural   Cu4NiC11
_chemical_formula_sum   'Cu16 Ni4 C44'
_cell_volume   833.78720706
_cell_formula_units_Z   4
loop_
 _symmetry_equiv_pos_site_id
 _symmetry_equiv_pos_as_xyz
  1  'x, y, z'
loop_
 _atom_site_type_symbol
 _atom_site_label
 _atom_site_symmetry_multiplicity
 _atom_site_fract_x
 _atom_site_fract_y
 _atom_site_fract_z
 _atom_site_occupancy
  Ni  Ni0  1  0.25000000  0.75000000  0.50000000  1
  Ni  Ni1  1  0.75000000  0.25000000  0.50000000  1
  Ni  Ni2  1  0.75000000  0.25000000  0.00000000  1
  Ni  Ni3  1  0.25000000  0.75000000  0.00000000  1
  Cu  Cu4  1  0.90262200  0.49140600  0.64673000  1
  Cu  Cu5  1  0.59737800  0.00859400  0.64673000  1
  Cu  Cu6  1  0.99140600  0.40262200  0.85327000  1
  Cu  Cu7  1  0.49140600  0.59737800  0.64673000  1
  Cu  Cu8  1  0.00859400  0.90262200  0.64673000  1
  Cu  Cu9  1  0.09737800  0.99140600  0.85327000  1
  Cu  Cu10  1  0.40262200  0.50859400  0.85327000  1
  Cu  Cu11  1  0.50859400  0.09737800  0.85327000  1
  Cu  Cu12  1  0.09737800  0.50859400  0.35327000  1
  Cu  Cu13  1  0.40262200  0.99140600  0.35327000  1
  Cu  Cu14  1  0.00859400  0.59737800  0.14673000  1
  Cu  Cu15  1  0.50859400  0.40262200  0.35327000  1
  Cu  Cu16  1  0.99140600  0.09737800  0.35327000  1
  Cu  Cu17  1  0.90262200  0.00859400  0.14673000  1
  Cu  Cu18  1  0.59737800  0.49140600  0.14673000  1
  Cu  Cu19  1  0.49140600  0.90262200  0.14673000  1
  C  C20  1  0.25000000  0.25000000  0.57395000  1
  C  C21  1  0.75000000  0.75000000  0.92605000  1
  C  C22  1  0.75000000  0.75000000  0.42605000  1
  C  C23  1  0.25000000  0.25000000  0.07395000  1
  C  C24  1  0.96834500  0.34146500  0.57540900  1
  C  C25  1  0.53165500  0.15853500  0.57540900  1
  C  C26  1  0.84146500  0.46834500  0.92459100  1
  C  C27  1  0.34146500  0.53165500  0.57540900  1
  C  C28  1  0.15853500  0.96834500  0.57540900  1
  C  C29  1  0.03165500  0.84146500  0.92459100  1
  C  C30  1  0.46834500  0.65853500  0.92459100  1
  C  C31  1  0.65853500  0.03165500  0.92459100  1
  C  C32  1  0.03165500  0.65853500  0.42459100  1
  C  C33  1  0.46834500  0.84146500  0.42459100  1
  C  C34  1  0.15853500  0.53165500  0.07540900  1
  C  C35  1  0.65853500  0.46834500  0.42459100  1
  C  C36  1  0.84146500  0.03165500  0.42459100  1
  C  C37  1  0.96834500  0.15853500  0.07540900  1
  C  C38  1  0.53165500  0.34146500  0.07540900  1
  C  C39  1  0.00595400  0.31327900  0.37123600  1
  C  C40  1  0.34146500  0.96834500  0.07540900  1
  C  C41  1  0.50595400  0.81327900  0.62876400  1
  C  C42  1  0.18672100  0.49404600  0.87123600  1
  C  C43  1  0.68672100  0.50595400  0.62876400  1
  C  C44  1  0.81327900  0.99404600  0.62876400  1
  C  C45  1  0.00595400  0.18672100  0.87123600  1
  C  C46  1  0.49404600  0.31327900  0.87123600  1
  C  C47  1  0.31327900  0.00595400  0.87123600  1
  C  C48  1  0.43844700  0.93844700  0.25000000  1
  C  C49  1  0.56155300  0.43844700  0.25000000  1
  C  C50  1  0.93844700  0.06155400  0.25000000  1
  C  C51  1  0.06155400  0.56155300  0.25000000  1
  C  C52  1  0.56155300  0.06155400  0.75000000  1
  C  C53  1  0.43844700  0.56155300  0.75000000  1
  C  C54  1  0.06155400  0.93844700  0.75000000  1
  C  C55  1  0.93844700  0.43844700  0.75000000  1
  C  C56  1  0.68672100  0.99404600  0.12876400  1
  C  C57  1  0.50595400  0.68672100  0.12876400  1
  C  C58  1  0.99404600  0.81327900  0.12876400  1
  C  C59  1  0.18672100  0.00595400  0.37123600  1
  C  C60  1  0.31327900  0.49404600  0.37123600  1
  C  C61  1  0.81327900  0.50595400  0.12876400  1
  C  C62  1  0.49404600  0.18672100  0.37123600  1
  C  C63  1  0.99404600  0.68672100  0.62876400  1
