# generated using pymatgen
data_Cu6Ni2C
_symmetry_space_group_name_H-M   'P 1'
_cell_length_a   13.92749433
_cell_length_b   13.92749433
_cell_length_c   6.77078500
_cell_angle_alpha   90.00000000
_cell_angle_beta   90.00000000
_cell_angle_gamma   120.00000158
_symmetry_Int_Tables_number   1
_chemical_formula_structural   Cu6Ni2C
_chemical_formula_sum   'Cu54 Ni18 C9'
_cell_volume   1137.40629891
_cell_formula_units_Z   9
loop_
 _symmetry_equiv_pos_site_id
 _symmetry_equiv_pos_as_xyz
  1  'x, y, z'
loop_
 _atom_site_type_symbol
 _atom_site_label
 _atom_site_symmetry_multiplicity
 _atom_site_fract_x
 _atom_site_fract_y
 _atom_site_fract_z
 _atom_site_occupancy
  C  C0  1  0.32503400  0.31783200  0.21919800  1
  C  C1  1  0.67496600  0.68216800  0.78080200  1
  C  C2  1  0.68216800  0.00720200  0.21919800  1
  C  C3  1  0.31783200  0.99279800  0.78080200  1
  C  C4  1  0.99279800  0.67496600  0.21919800  1
  C  C5  1  0.00720200  0.32503400  0.78080200  1
  C  C6  1  0.00000000  0.00000000  0.00000000  1
  C  C7  1  0.33333300  0.66666700  0.49423200  1
  C  C8  1  0.66666700  0.33333300  0.50576800  1
  Ni  Ni9  1  0.17888700  0.00642500  0.27202700  1
  Ni  Ni10  1  0.82111300  0.99357500  0.72797300  1
  Ni  Ni11  1  0.99357500  0.17246100  0.27202700  1
  Ni  Ni12  1  0.00642500  0.82753900  0.72797300  1
  Ni  Ni13  1  0.82753900  0.82111300  0.27202700  1
  Ni  Ni14  1  0.17246100  0.17888700  0.72797300  1
  Ni  Ni15  1  0.19851000  0.47043600  0.22250300  1
  Ni  Ni16  1  0.80149000  0.52956400  0.77749700  1
  Ni  Ni17  1  0.52956400  0.72807400  0.22250300  1
  Ni  Ni18  1  0.47043600  0.27192600  0.77749700  1
  Ni  Ni19  1  0.27192600  0.80149000  0.22250300  1
  Ni  Ni20  1  0.72807400  0.19851000  0.77749700  1
  Ni  Ni21  1  0.52043200  0.13566000  0.24390700  1
  Ni  Ni22  1  0.47956800  0.86434000  0.75609300  1
  Ni  Ni23  1  0.86434000  0.38477200  0.24390700  1
  Ni  Ni24  1  0.13566000  0.61522800  0.75609300  1
  Ni  Ni25  1  0.61522800  0.47956800  0.24390700  1
  Ni  Ni26  1  0.38477200  0.52043200  0.75609300  1
  Cu  Cu27  1  0.57762400  0.12717500  0.38723300  1
  Cu  Cu28  1  0.42237600  0.87282500  0.61276700  1
  Cu  Cu29  1  0.87282500  0.45044800  0.38723300  1
  Cu  Cu30  1  0.12717500  0.54955200  0.61276700  1
  Cu  Cu31  1  0.54955200  0.42237600  0.38723300  1
  Cu  Cu32  1  0.45044800  0.57762400  0.61276700  1
  Cu  Cu33  1  0.20280600  0.07159100  0.12054700  1
  Cu  Cu34  1  0.79719400  0.92840900  0.87945300  1
  Cu  Cu35  1  0.92840900  0.13121500  0.12054700  1
  Cu  Cu36  1  0.07159100  0.86878500  0.87945300  1
  Cu  Cu37  1  0.86878500  0.79719400  0.12054700  1
  Cu  Cu38  1  0.13121500  0.20280600  0.87945300  1
  Cu  Cu39  1  0.06562400  0.14117700  0.29094500  1
  Cu  Cu40  1  0.93437600  0.85882300  0.70905500  1
  Cu  Cu41  1  0.85882300  0.92444700  0.29094500  1
  Cu  Cu42  1  0.14117700  0.07555300  0.70905500  1
  Cu  Cu43  1  0.07555300  0.93437600  0.29094500  1
  Cu  Cu44  1  0.92444700  0.06562400  0.70905500  1
  Cu  Cu45  1  0.53032500  0.23187400  0.22325100  1
  Cu  Cu46  1  0.46967500  0.76812600  0.77674900  1
  Cu  Cu47  1  0.76812600  0.29845200  0.22325100  1
  Cu  Cu48  1  0.23187400  0.70154800  0.77674900  1
  Cu  Cu49  1  0.70154800  0.46967500  0.22325100  1
  Cu  Cu50  1  0.29845200  0.53032500  0.77674900  1
  Cu  Cu51  1  0.20153800  0.56250800  0.19770800  1
  Cu  Cu52  1  0.79846200  0.43749200  0.80229200  1
  Cu  Cu53  1  0.43749200  0.63903000  0.19770800  1
  Cu  Cu54  1  0.56250800  0.36097000  0.80229200  1
  Cu  Cu55  1  0.36097000  0.79846200  0.19770800  1
  Cu  Cu56  1  0.63903000  0.20153800  0.80229200  1
  Cu  Cu57  1  0.24928800  0.46338100  0.37755100  1
  Cu  Cu58  1  0.75071200  0.53661900  0.62244900  1
  Cu  Cu59  1  0.53661900  0.78590700  0.37755100  1
  Cu  Cu60  1  0.46338100  0.21409300  0.62244900  1
  Cu  Cu61  1  0.21409300  0.75071200  0.37755100  1
  Cu  Cu62  1  0.78590700  0.24928800  0.62244900  1
  Cu  Cu63  1  0.15201100  0.39168100  0.10700800  1
  Cu  Cu64  1  0.84798900  0.60831900  0.89299200  1
  Cu  Cu65  1  0.60831900  0.76033000  0.10700800  1
  Cu  Cu66  1  0.39168100  0.23967000  0.89299200  1
  Cu  Cu67  1  0.23967000  0.84798900  0.10700800  1
  Cu  Cu68  1  0.76033000  0.15201100  0.89299200  1
  Cu  Cu69  1  0.25026500  0.01388900  0.38685800  1
  Cu  Cu70  1  0.74973500  0.98611100  0.61314200  1
  Cu  Cu71  1  0.98611100  0.23637600  0.38685800  1
  Cu  Cu72  1  0.01388900  0.76362400  0.61314200  1
  Cu  Cu73  1  0.76362400  0.74973500  0.38685800  1
  Cu  Cu74  1  0.23637600  0.25026500  0.61314200  1
  Cu  Cu75  1  0.46176100  0.05706000  0.13645300  1
  Cu  Cu76  1  0.53823900  0.94294000  0.86354700  1
  Cu  Cu77  1  0.94294000  0.40470200  0.13645300  1
  Cu  Cu78  1  0.05706000  0.59529800  0.86354700  1
  Cu  Cu79  1  0.59529800  0.53823900  0.13645300  1
  Cu  Cu80  1  0.40470200  0.46176100  0.86354700  1
