# generated using pymatgen
data_Cu6Ni2C5
_symmetry_space_group_name_H-M   'P 1'
_cell_length_a   6.90694338
_cell_length_b   6.90694338
_cell_length_c   7.76706885
_cell_angle_alpha   81.56825859
_cell_angle_beta   81.56825859
_cell_angle_gamma   119.56642854
_symmetry_Int_Tables_number   1
_chemical_formula_structural   Cu6Ni2C5
_chemical_formula_sum   'Cu6 Ni2 C5'
_cell_volume   308.30294299
_cell_formula_units_Z   1
loop_
 _symmetry_equiv_pos_site_id
 _symmetry_equiv_pos_as_xyz
  1  'x, y, z'
loop_
 _atom_site_type_symbol
 _atom_site_label
 _atom_site_symmetry_multiplicity
 _atom_site_fract_x
 _atom_site_fract_y
 _atom_site_fract_z
 _atom_site_occupancy
  C  C0  1  0.50220600  0.49779400  0.00000000  1
  C  C1  1  0.66781000  0.33219000  0.50000000  1
  C  C2  1  0.33164800  0.66835200  0.50000000  1
  C  C3  1  0.17440500  0.82559500  0.00000000  1
  C  C4  1  0.82965700  0.17034300  0.00000000  1
  Ni  Ni5  1  0.06071100  0.05826500  0.33643600  1
  Ni  Ni6  1  0.94173500  0.93928900  0.66356400  1
  Cu  Cu7  1  0.08766100  0.39732700  0.24591800  1
  Cu  Cu8  1  0.39727600  0.08414100  0.24955800  1
  Cu  Cu9  1  0.91585900  0.60272400  0.75044200  1
  Cu  Cu10  1  0.60267300  0.91233900  0.75408200  1
  Cu  Cu11  1  0.77956000  0.79120200  0.23516600  1
  Cu  Cu12  1  0.20879800  0.22044000  0.76483400  1
