# generated using pymatgen
data_Cu6Ni2C3
_symmetry_space_group_name_H-M   'P 1'
_cell_length_a   8.84748400
_cell_length_b   10.16712100
_cell_length_c   12.36004700
_cell_angle_alpha   90.00000000
_cell_angle_beta   90.00000000
_cell_angle_gamma   90.00000000
_symmetry_Int_Tables_number   1
_chemical_formula_structural   Cu6Ni2C3
_chemical_formula_sum   'Cu48 Ni16 C24'
_cell_volume   1111.82875083
_cell_formula_units_Z   8
loop_
 _symmetry_equiv_pos_site_id
 _symmetry_equiv_pos_as_xyz
  1  'x, y, z'
loop_
 _atom_site_type_symbol
 _atom_site_label
 _atom_site_symmetry_multiplicity
 _atom_site_fract_x
 _atom_site_fract_y
 _atom_site_fract_z
 _atom_site_occupancy
  C  C0  1  0.06039900  0.39489000  0.58252600  1
  C  C1  1  0.43960100  0.89489000  0.41747400  1
  C  C2  1  0.06039900  0.89489000  0.91747400  1
  C  C3  1  0.43960100  0.39489000  0.08252600  1
  C  C4  1  0.05813700  0.85074300  0.61307400  1
  C  C5  1  0.44186300  0.35074300  0.38692600  1
  C  C6  1  0.05813700  0.35074300  0.88692600  1
  C  C7  1  0.44186300  0.85074300  0.11307400  1
  C  C8  1  0.56039900  0.10511000  0.58252600  1
  C  C9  1  0.93960100  0.60511000  0.41747400  1
  C  C10  1  0.56039900  0.60511000  0.91747400  1
  C  C11  1  0.93960100  0.10511000  0.08252600  1
  C  C12  1  0.55813700  0.64925700  0.61307400  1
  C  C13  1  0.94186300  0.14925700  0.38692600  1
  C  C14  1  0.55813700  0.14925700  0.88692600  1
  C  C15  1  0.94186300  0.64925700  0.11307400  1
  C  C16  1  0.20310100  0.12122700  0.72296200  1
  C  C17  1  0.29689900  0.62122700  0.27703800  1
  C  C18  1  0.20310100  0.62122700  0.77703800  1
  C  C19  1  0.29689900  0.12122700  0.22296200  1
  C  C20  1  0.70310100  0.37877300  0.72296200  1
  C  C21  1  0.79689900  0.87877300  0.27703800  1
  C  C22  1  0.70310100  0.87877300  0.77703800  1
  C  C23  1  0.79689900  0.37877300  0.22296200  1
  Ni  Ni24  1  0.37222700  0.37330000  0.72217400  1
  Ni  Ni25  1  0.12777300  0.87330000  0.27782600  1
  Ni  Ni26  1  0.37222700  0.87330000  0.77782600  1
  Ni  Ni27  1  0.12777300  0.37330000  0.22217400  1
  Ni  Ni28  1  0.87222700  0.12670000  0.72217400  1
  Ni  Ni29  1  0.62777300  0.62670000  0.27782600  1
  Ni  Ni30  1  0.87222700  0.62670000  0.77782600  1
  Ni  Ni31  1  0.62777300  0.12670000  0.22217400  1
  Ni  Ni32  1  0.74722200  0.88525800  0.50606900  1
  Ni  Ni33  1  0.75277800  0.38525800  0.49393100  1
  Ni  Ni34  1  0.74722200  0.38525800  0.99393100  1
  Ni  Ni35  1  0.75277800  0.88525800  0.00606900  1
  Ni  Ni36  1  0.24722200  0.61474200  0.50606900  1
  Ni  Ni37  1  0.25277800  0.11474200  0.49393100  1
  Ni  Ni38  1  0.24722200  0.11474200  0.99393100  1
  Ni  Ni39  1  0.25277800  0.61474200  0.00606900  1
  Cu  Cu40  1  0.94797000  0.01812400  0.71568800  1
  Cu  Cu41  1  0.55203000  0.51812400  0.28431200  1
  Cu  Cu42  1  0.94797000  0.51812400  0.78431200  1
  Cu  Cu43  1  0.55203000  0.01812400  0.21568800  1
  Cu  Cu44  1  0.94151000  0.23968300  0.71802300  1
  Cu  Cu45  1  0.55849000  0.73968300  0.28197700  1
  Cu  Cu46  1  0.94151000  0.73968300  0.78197700  1
  Cu  Cu47  1  0.55849000  0.23968300  0.21802300  1
  Cu  Cu48  1  0.22548100  0.37712900  0.72923200  1
  Cu  Cu49  1  0.27451900  0.87712900  0.27076800  1
  Cu  Cu50  1  0.22548100  0.87712900  0.77076800  1
  Cu  Cu51  1  0.27451900  0.37712900  0.22923200  1
  Cu  Cu52  1  0.44151000  0.26031700  0.71802300  1
  Cu  Cu53  1  0.05849000  0.76031700  0.28197700  1
  Cu  Cu54  1  0.44151000  0.76031700  0.78197700  1
  Cu  Cu55  1  0.05849000  0.26031700  0.21802300  1
  Cu  Cu56  1  0.13508500  0.18147400  0.52082300  1
  Cu  Cu57  1  0.36491500  0.68147400  0.47917700  1
  Cu  Cu58  1  0.13508500  0.68147400  0.97917700  1
  Cu  Cu59  1  0.36491500  0.18147400  0.02082300  1
  Cu  Cu60  1  0.44797000  0.48187600  0.71568800  1
  Cu  Cu61  1  0.05203000  0.98187600  0.28431200  1
  Cu  Cu62  1  0.44797000  0.98187600  0.78431200  1
  Cu  Cu63  1  0.05203000  0.48187600  0.21568800  1
  Cu  Cu64  1  0.72548100  0.12287100  0.72923200  1
  Cu  Cu65  1  0.77451900  0.62287100  0.27076800  1
  Cu  Cu66  1  0.72548100  0.62287100  0.77076800  1
  Cu  Cu67  1  0.77451900  0.12287100  0.22923200  1
  Cu  Cu68  1  0.67080500  0.85911100  0.59309500  1
  Cu  Cu69  1  0.82919500  0.35911100  0.40690500  1
  Cu  Cu70  1  0.67080500  0.35911100  0.90690500  1
  Cu  Cu71  1  0.82919500  0.85911100  0.09309500  1
  Cu  Cu72  1  0.63508500  0.31852600  0.52082300  1
  Cu  Cu73  1  0.86491500  0.81852600  0.47917700  1
  Cu  Cu74  1  0.63508500  0.81852600  0.97917700  1
  Cu  Cu75  1  0.86491500  0.31852600  0.02082300  1
  Cu  Cu76  1  0.79824300  0.48202800  0.55603200  1
  Cu  Cu77  1  0.70175700  0.98202800  0.44396800  1
  Cu  Cu78  1  0.79824300  0.98202800  0.94396800  1
  Cu  Cu79  1  0.70175700  0.48202800  0.05603200  1
  Cu  Cu80  1  0.17080500  0.64088900  0.59309500  1
  Cu  Cu81  1  0.32919500  0.14088900  0.40690500  1
  Cu  Cu82  1  0.17080500  0.14088900  0.90690500  1
  Cu  Cu83  1  0.32919500  0.64088900  0.09309500  1
  Cu  Cu84  1  0.29824300  0.01797200  0.55603200  1
  Cu  Cu85  1  0.20175700  0.51797200  0.44396800  1
  Cu  Cu86  1  0.29824300  0.51797200  0.94396800  1
  Cu  Cu87  1  0.20175700  0.01797200  0.05603200  1
