# generated using pymatgen
data_Cu6Ni4C9
_symmetry_space_group_name_H-M   'P 1'
_cell_length_a   16.98819700
_cell_length_b   7.01056000
_cell_length_c   7.14568368
_cell_angle_alpha   79.25314835
_cell_angle_beta   90.00000000
_cell_angle_gamma   90.00000000
_symmetry_Int_Tables_number   1
_chemical_formula_structural   Cu6Ni4C9
_chemical_formula_sum   'Cu24 Ni16 C36'
_cell_volume   836.10139717
_cell_formula_units_Z   4
loop_
 _symmetry_equiv_pos_site_id
 _symmetry_equiv_pos_as_xyz
  1  'x, y, z'
loop_
 _atom_site_type_symbol
 _atom_site_label
 _atom_site_symmetry_multiplicity
 _atom_site_fract_x
 _atom_site_fract_y
 _atom_site_fract_z
 _atom_site_occupancy
  C  C0  1  0.41986900  0.98889900  0.26011800  1
  C  C1  1  0.58013100  0.01110100  0.73988200  1
  C  C2  1  0.91986900  0.51110100  0.73988200  1
  C  C3  1  0.08013100  0.48889900  0.26011800  1
  Ni  Ni4  1  0.31617300  0.73482000  0.02185900  1
  Ni  Ni5  1  0.68382700  0.26518000  0.97814100  1
  Ni  Ni6  1  0.81617300  0.76518000  0.97814100  1
  Ni  Ni7  1  0.18382700  0.23482000  0.02185900  1
  Ni  Ni8  1  0.88177200  0.84351600  0.40911100  1
  Ni  Ni9  1  0.11822800  0.15648400  0.59088900  1
  Ni  Ni10  1  0.38177200  0.65648400  0.59088900  1
  Ni  Ni11  1  0.61822800  0.34351600  0.40911100  1
  Ni  Ni12  1  0.91212200  0.94730100  0.57994900  1
  Ni  Ni13  1  0.08787800  0.05269900  0.42005100  1
  Ni  Ni14  1  0.41212200  0.55269900  0.42005100  1
  Ni  Ni15  1  0.58787800  0.44730100  0.57994900  1
  Ni  Ni16  1  0.28257900  0.69253200  0.23327900  1
  Ni  Ni17  1  0.71742100  0.30746800  0.76672100  1
  Ni  Ni18  1  0.78257900  0.80746800  0.76672100  1
  Ni  Ni19  1  0.21742100  0.19253200  0.23327900  1
  Cu  Cu20  1  0.46802600  0.44074300  0.12222500  1
  Cu  Cu21  1  0.53197400  0.55925700  0.87777500  1
  Cu  Cu22  1  0.96802600  0.05925700  0.87777500  1
  Cu  Cu23  1  0.03197400  0.94074300  0.12222500  1
  Cu  Cu24  1  0.74235400  0.85894700  0.27132900  1
  Cu  Cu25  1  0.25764600  0.14105300  0.72867100  1
  Cu  Cu26  1  0.24235400  0.64105300  0.72867100  1
  Cu  Cu27  1  0.75764600  0.35894700  0.27132900  1
  Cu  Cu28  1  0.48953600  0.63752600  0.02491600  1
  Cu  Cu29  1  0.51046400  0.36247400  0.97508400  1
  Cu  Cu30  1  0.98953600  0.86247400  0.97508400  1
  Cu  Cu31  1  0.01046400  0.13752600  0.02491600  1
  Cu  Cu32  1  0.62512800  0.91372900  0.32776100  1
  Cu  Cu33  1  0.37487200  0.08627100  0.67223900  1
  Cu  Cu34  1  0.12512800  0.58627100  0.67223900  1
  Cu  Cu35  1  0.87487200  0.41372900  0.32776100  1
  Cu  Cu36  1  0.69788300  0.90791100  0.43379600  1
  Cu  Cu37  1  0.30211700  0.09208900  0.56620400  1
  Cu  Cu38  1  0.19788300  0.59208900  0.56620400  1
  Cu  Cu39  1  0.80211700  0.40791100  0.43379600  1
  Cu  Cu40  1  0.66674200  0.85997800  0.16566700  1
  Cu  Cu41  1  0.33325800  0.14002200  0.83433300  1
  Cu  Cu42  1  0.16674200  0.64002200  0.83433300  1
  Cu  Cu43  1  0.83325800  0.35997800  0.16566700  1
  C  C44  1  0.48142300  0.81390800  0.03848500  1
  C  C45  1  0.51857700  0.18609200  0.96151500  1
  C  C46  1  0.98142300  0.68609200  0.96151500  1
  C  C47  1  0.01857700  0.31390800  0.03848500  1
  C  C48  1  0.43138000  0.35433900  0.26719000  1
  C  C49  1  0.56862000  0.64566100  0.73281000  1
  C  C50  1  0.93138000  0.14566100  0.73281000  1
  C  C51  1  0.06862000  0.85433900  0.26719000  1
  C  C52  1  0.32239700  0.76747200  0.14956000  1
  C  C53  1  0.67760300  0.23252800  0.85044000  1
  C  C54  1  0.82239700  0.73252800  0.85044000  1
  C  C55  1  0.17760300  0.26747200  0.14956000  1
  C  C56  1  0.91635600  0.82887600  0.52399200  1
  C  C57  1  0.08364400  0.17112400  0.47600800  1
  C  C58  1  0.41635600  0.67112400  0.47600800  1
  C  C59  1  0.58364400  0.32887600  0.52399200  1
  C  C60  1  0.55683400  0.96088700  0.37900200  1
  C  C61  1  0.44316600  0.03911300  0.62099800  1
  C  C62  1  0.05683400  0.53911300  0.62099800  1
  C  C63  1  0.94316600  0.46088700  0.37900200  1
  C  C64  1  0.81273900  0.83610800  0.22756000  1
  C  C65  1  0.18726100  0.16389200  0.77244000  1
  C  C66  1  0.31273900  0.66389200  0.77244000  1
  C  C67  1  0.68726100  0.33610800  0.22756000  1
  C  C68  1  0.70934400  0.94602500  0.59859900  1
  C  C69  1  0.29065600  0.05397500  0.40140100  1
  C  C70  1  0.20934400  0.55397500  0.40140100  1
  C  C71  1  0.79065600  0.44602500  0.59859900  1
  C  C72  1  0.65049000  0.83243400  0.00170000  1
  C  C73  1  0.34951000  0.16756600  0.99830000  1
  C  C74  1  0.15049000  0.66756600  0.99830000  1
  C  C75  1  0.84951000  0.33243400  0.00170000  1
