# generated using pymatgen
data_Cu2(NiC5)3
_symmetry_space_group_name_H-M   'P 1'
_cell_length_a   11.40060016
_cell_length_b   11.40060016
_cell_length_c   11.40060016
_cell_angle_alpha   109.47122063
_cell_angle_beta   109.47122063
_cell_angle_gamma   109.47122063
_symmetry_Int_Tables_number   1
_chemical_formula_structural   Cu2(NiC5)3
_chemical_formula_sum   'Cu8 Ni12 C60'
_cell_volume   1140.67323764
_cell_formula_units_Z   4
loop_
 _symmetry_equiv_pos_site_id
 _symmetry_equiv_pos_as_xyz
  1  'x, y, z'
loop_
 _atom_site_type_symbol
 _atom_site_label
 _atom_site_symmetry_multiplicity
 _atom_site_fract_x
 _atom_site_fract_y
 _atom_site_fract_z
 _atom_site_occupancy
  Ni  Ni0  1  0.87500000  0.62500000  0.75000000  1
  Ni  Ni1  1  0.12500000  0.37500000  0.25000000  1
  Ni  Ni2  1  0.62500000  0.87500000  0.25000000  1
  Ni  Ni3  1  0.62500000  0.75000000  0.87500000  1
  Ni  Ni4  1  0.87500000  0.25000000  0.62500000  1
  Ni  Ni5  1  0.37500000  0.12500000  0.75000000  1
  Ni  Ni6  1  0.37500000  0.25000000  0.12500000  1
  Ni  Ni7  1  0.12500000  0.75000000  0.37500000  1
  Ni  Ni8  1  0.75000000  0.87500000  0.62500000  1
  Ni  Ni9  1  0.25000000  0.12500000  0.37500000  1
  Ni  Ni10  1  0.25000000  0.62500000  0.87500000  1
  Ni  Ni11  1  0.75000000  0.37500000  0.12500000  1
  Cu  Cu12  1  0.00000000  0.00000000  -0.00000000  1
  Cu  Cu13  1  0.50000000  -0.00000000  0.50000000  1
  Cu  Cu14  1  0.50000000  0.50000000  -0.00000000  1
  Cu  Cu15  1  0.00000000  -0.00000000  0.50000000  1
  Cu  Cu16  1  0.00000000  0.50000000  0.50000000  1
  Cu  Cu17  1  0.50000000  0.50000000  0.50000000  1
  Cu  Cu18  1  0.50000000  0.00000000  -0.00000000  1
  Cu  Cu19  1  0.00000000  0.50000000  -0.00000000  1
  C  C20  1  0.62500000  0.37500000  0.75000000  1
  C  C21  1  0.37500000  0.62500000  0.25000000  1
  C  C22  1  0.87500000  0.12500000  0.25000000  1
  C  C23  1  0.37500000  0.75000000  0.62500000  1
  C  C24  1  0.62500000  0.25000000  0.37500000  1
  C  C25  1  0.12500000  0.87500000  0.75000000  1
  C  C26  1  0.12500000  0.25000000  0.87500000  1
  C  C27  1  0.87500000  0.75000000  0.12500000  1
  C  C28  1  0.75000000  0.62500000  0.37500000  1
  C  C29  1  0.25000000  0.37500000  0.62500000  1
  C  C30  1  0.25000000  0.87500000  0.12500000  1
  C  C31  1  0.75000000  0.12500000  0.87500000  1
  C  C32  1  0.70678365  0.61889455  0.51083967  1
  C  C33  1  0.29321635  0.38110545  0.48916033  1
  C  C34  1  0.79321635  0.80405603  0.41211090  1
  C  C35  1  0.39194513  0.88110545  0.08788910  1
  C  C36  1  0.61889455  0.51083967  0.70678365  1
  C  C37  1  0.70678365  0.08788910  0.69594397  1
  C  C38  1  0.20678365  0.19594397  0.58788910  1
  C  C39  1  0.60805487  0.11889455  0.91211090  1
  C  C40  1  0.38110545  0.48916033  0.29321635  1
  C  C41  1  0.29321635  0.91211090  0.30405603  1
  C  C42  1  0.10805487  0.69594397  0.98916033  1
  C  C43  1  0.80405603  0.41211090  0.79321635  1
  C  C44  1  0.79321635  0.98916033  0.88110545  1
  C  C45  1  0.89194513  0.30405603  0.01083967  1
  C  C46  1  0.19594397  0.58788910  0.20678365  1
  C  C47  1  0.20678365  0.01083967  0.11889455  1
  C  C48  1  0.88110545  0.08788910  0.39194513  1
  C  C49  1  0.39194513  0.51083967  0.80405603  1
  C  C50  1  0.11889455  0.91211090  0.60805487  1
  C  C51  1  0.60805487  0.48916033  0.19594397  1
  C  C52  1  0.69594397  0.98916033  0.10805487  1
  C  C53  1  0.10805487  0.41211090  0.61889455  1
  C  C54  1  0.30405603  0.01083967  0.89194513  1
  C  C55  1  0.89194513  0.58788910  0.38110545  1
  C  C56  1  0.51083967  0.70678365  0.61889455  1
  C  C57  1  0.61889455  0.10805487  0.41211090  1
  C  C58  1  0.48916033  0.29321635  0.38110545  1
  C  C59  1  0.38110545  0.89194513  0.58788910  1
  C  C60  1  0.08788910  0.39194513  0.88110545  1
  C  C61  1  0.88110545  0.79321635  0.98916033  1
  C  C62  1  0.91211090  0.60805487  0.11889455  1
  C  C63  1  0.11889455  0.20678365  0.01083967  1
  C  C64  1  0.98916033  0.10805487  0.69594397  1
  C  C65  1  0.69594397  0.70678365  0.08788910  1
  C  C66  1  0.01083967  0.89194513  0.30405603  1
  C  C67  1  0.30405603  0.29321635  0.91211090  1
  C  C68  1  0.41211090  0.79321635  0.80405603  1
  C  C69  1  0.80405603  0.39194513  0.51083967  1
  C  C70  1  0.58788910  0.20678365  0.19594397  1
  C  C71  1  0.19594397  0.60805487  0.48916033  1
  C  C72  1  0.08788910  0.69594397  0.70678365  1
  C  C73  1  0.91211090  0.30405603  0.29321635  1
  C  C74  1  0.98916033  0.88110545  0.79321635  1
  C  C75  1  0.01083967  0.11889455  0.20678365  1
  C  C76  1  0.41211090  0.61889455  0.10805487  1
  C  C77  1  0.58788910  0.38110545  0.89194513  1
  C  C78  1  0.51083967  0.80405603  0.39194513  1
  C  C79  1  0.48916033  0.19594397  0.60805487  1
