# generated using pymatgen
data_Cu3(Ni2C)2
_symmetry_space_group_name_H-M   'P 1'
_cell_length_a   6.37351300
_cell_length_b   11.34036400
_cell_length_c   11.99517500
_cell_angle_alpha   90.00001488
_cell_angle_beta   90.00000000
_cell_angle_gamma   90.00000000
_symmetry_Int_Tables_number   1
_chemical_formula_structural   Cu3(Ni2C)2
_chemical_formula_sum   'Cu12 Ni16 C8'
_cell_volume   866.98674740
_cell_formula_units_Z   4
loop_
 _symmetry_equiv_pos_site_id
 _symmetry_equiv_pos_as_xyz
  1  'x, y, z'
loop_
 _atom_site_type_symbol
 _atom_site_label
 _atom_site_symmetry_multiplicity
 _atom_site_fract_x
 _atom_site_fract_y
 _atom_site_fract_z
 _atom_site_occupancy
  Ni  Ni0  1  0.56751400  0.25000000  0.88257800  1
  Ni  Ni1  1  0.06751500  0.25000000  0.61742200  1
  Ni  Ni2  1  0.43248600  0.75000000  0.11742200  1
  Ni  Ni3  1  0.93248500  0.75000000  0.38257800  1
  Ni  Ni4  1  0.94370600  0.25000000  0.38366700  1
  Ni  Ni5  1  0.44370600  0.25000000  0.11633300  1
  Ni  Ni6  1  0.05629400  0.75000000  0.61633300  1
  Ni  Ni7  1  0.55629400  0.75000000  0.88366700  1
  Ni  Ni8  1  0.71402800  0.50001400  0.00941800  1
  Ni  Ni9  1  0.21402800  0.99998600  0.49058200  1
  Ni  Ni10  1  0.28597100  0.00001400  0.99058200  1
  Ni  Ni11  1  0.78597100  0.49998600  0.50941800  1
  Ni  Ni12  1  0.28597200  0.49998600  0.99058200  1
  Ni  Ni13  1  0.78597200  0.00001400  0.50941800  1
  Ni  Ni14  1  0.71402900  0.99998600  0.00941800  1
  Ni  Ni15  1  0.21402900  0.50001400  0.49058200  1
  Cu  Cu16  1  0.01650200  0.25000000  0.15786300  1
  Cu  Cu17  1  0.51650200  0.25000000  0.34213700  1
  Cu  Cu18  1  0.98349800  0.75000000  0.84213700  1
  Cu  Cu19  1  0.48349800  0.75000000  0.65786300  1
  Cu  Cu20  1  0.51362600  0.52196500  0.33584300  1
  Cu  Cu21  1  0.01362600  0.97803500  0.16415700  1
  Cu  Cu22  1  0.48637400  0.02196500  0.66415700  1
  Cu  Cu23  1  0.98637400  0.47803500  0.83584300  1
  Cu  Cu24  1  0.48637400  0.47803500  0.66415700  1
  Cu  Cu25  1  0.98637400  0.02196500  0.83584300  1
  Cu  Cu26  1  0.51362600  0.97803500  0.33584300  1
  Cu  Cu27  1  0.01362600  0.52196500  0.16415700  1
  C  C28  1  0.50192700  0.62302500  0.98533100  1
  C  C29  1  0.00192700  0.87697500  0.51466900  1
  C  C30  1  0.49807300  0.12302500  0.01466900  1
  C  C31  1  0.99807300  0.37697500  0.48533100  1
  C  C32  1  0.49807300  0.37697500  0.01466900  1
  C  C33  1  0.99807300  0.12302500  0.48533100  1
  C  C34  1  0.50192700  0.87697500  0.98533100  1
  C  C35  1  0.00192700  0.62302500  0.51466900  1
