# generated using pymatgen
data_Cu5Ni2C
_symmetry_space_group_name_H-M   'P 1'
_cell_length_a   7.08222800
_cell_length_b   9.22043600
_cell_length_c   15.61083200
_cell_angle_alpha   90.00000000
_cell_angle_beta   90.00000000
_cell_angle_gamma   90.00000000
_symmetry_Int_Tables_number   1
_chemical_formula_structural   Cu5Ni2C
_chemical_formula_sum   'Cu40 Ni16 C8'
_cell_volume   1019.40653110
_cell_formula_units_Z   8
loop_
 _symmetry_equiv_pos_site_id
 _symmetry_equiv_pos_as_xyz
  1  'x, y, z'
loop_
 _atom_site_type_symbol
 _atom_site_label
 _atom_site_symmetry_multiplicity
 _atom_site_fract_x
 _atom_site_fract_y
 _atom_site_fract_z
 _atom_site_occupancy
  C  C0  1  0.15539600  0.93153800  0.09405400  1
  C  C1  1  0.84460400  0.06846200  0.90594600  1
  C  C2  1  0.34460400  0.43153800  0.40594600  1
  C  C3  1  0.84460400  0.56846200  0.09405400  1
  C  C4  1  0.65539600  0.56846200  0.59405400  1
  C  C5  1  0.15539600  0.43153800  0.90594600  1
  C  C6  1  0.65539600  0.06846200  0.40594600  1
  C  C7  1  0.34460400  0.93153800  0.59405400  1
  Ni  Ni8  1  0.34108600  0.56389600  0.15630200  1
  Ni  Ni9  1  0.65891400  0.43610400  0.84369800  1
  Ni  Ni10  1  0.15891400  0.06389600  0.34369800  1
  Ni  Ni11  1  0.65891400  0.93610400  0.15630200  1
  Ni  Ni12  1  0.84108600  0.93610400  0.65630200  1
  Ni  Ni13  1  0.34108600  0.06389600  0.84369800  1
  Ni  Ni14  1  0.84108600  0.43610400  0.34369800  1
  Ni  Ni15  1  0.15891400  0.56389600  0.65630200  1
  Ni  Ni16  1  0.00000000  0.75000000  0.39507500  1
  Ni  Ni17  1  0.00000000  0.25000000  0.60492500  1
  Ni  Ni18  1  0.50000000  0.25000000  0.10492500  1
  Ni  Ni19  1  0.50000000  0.75000000  0.89507500  1
  Ni  Ni20  1  0.00000000  0.75000000  0.87086900  1
  Ni  Ni21  1  0.00000000  0.25000000  0.12913100  1
  Ni  Ni22  1  0.50000000  0.25000000  0.62913100  1
  Ni  Ni23  1  0.50000000  0.75000000  0.37086900  1
  Cu  Cu24  1  0.13625900  0.84409900  0.55363400  1
  Cu  Cu25  1  0.86374100  0.15590100  0.44636600  1
  Cu  Cu26  1  0.36374100  0.34409900  0.94636600  1
  Cu  Cu27  1  0.86374100  0.65590100  0.55363400  1
  Cu  Cu28  1  0.63625900  0.65590100  0.05363400  1
  Cu  Cu29  1  0.13625900  0.34409900  0.44636600  1
  Cu  Cu30  1  0.63625900  0.15590100  0.94636600  1
  Cu  Cu31  1  0.36374100  0.84409900  0.05363400  1
  Cu  Cu32  1  0.19106600  0.62577300  0.39908900  1
  Cu  Cu33  1  0.80893400  0.37422700  0.60091100  1
  Cu  Cu34  1  0.30893400  0.12577300  0.10091100  1
  Cu  Cu35  1  0.80893400  0.87422700  0.39908900  1
  Cu  Cu36  1  0.69106600  0.87422700  0.89908900  1
  Cu  Cu37  1  0.19106600  0.12577300  0.60091100  1
  Cu  Cu38  1  0.69106600  0.37422700  0.10091100  1
  Cu  Cu39  1  0.30893400  0.62577300  0.89908900  1
  Cu  Cu40  1  0.31637000  0.68112400  0.20124100  1
  Cu  Cu41  1  0.68363000  0.31887600  0.79875900  1
  Cu  Cu42  1  0.18363000  0.18112400  0.29875900  1
  Cu  Cu43  1  0.68363000  0.81887600  0.20124100  1
  Cu  Cu44  1  0.81637000  0.81887600  0.70124100  1
  Cu  Cu45  1  0.31637000  0.18112400  0.79875900  1
  Cu  Cu46  1  0.81637000  0.31887600  0.29875900  1
  Cu  Cu47  1  0.18363000  0.68112400  0.70124100  1
  Cu  Cu48  1  0.00000000  0.50000000  0.00000000  1
  Cu  Cu49  1  0.50000000  0.00000000  0.50000000  1
  Cu  Cu50  1  0.00000000  0.00000000  0.00000000  1
  Cu  Cu51  1  0.50000000  0.50000000  0.50000000  1
  Cu  Cu52  1  0.91116500  0.54785600  0.20683300  1
  Cu  Cu53  1  0.08883500  0.45214400  0.79316700  1
  Cu  Cu54  1  0.58883500  0.04785600  0.29316700  1
  Cu  Cu55  1  0.08883500  0.95214400  0.20683300  1
  Cu  Cu56  1  0.41116500  0.95214400  0.70683300  1
  Cu  Cu57  1  0.91116500  0.04785600  0.79316700  1
  Cu  Cu58  1  0.41116500  0.45214400  0.29316700  1
  Cu  Cu59  1  0.58883500  0.54785600  0.70683300  1
  Cu  Cu60  1  0.00000000  0.75000000  0.08836100  1
  Cu  Cu61  1  0.00000000  0.25000000  0.91163900  1
  Cu  Cu62  1  0.50000000  0.25000000  0.41163900  1
  Cu  Cu63  1  0.50000000  0.75000000  0.58836100  1
