# generated using pymatgen
data_Cu2NiC7
_symmetry_space_group_name_H-M   'P 1'
_cell_length_a   8.38956900
_cell_length_b   10.48846600
_cell_length_c   12.19492900
_cell_angle_alpha   90.00000000
_cell_angle_beta   90.00000000
_cell_angle_gamma   90.00000000
_symmetry_Int_Tables_number   1
_chemical_formula_structural   Cu2NiC7
_chemical_formula_sum   'Cu16 Ni8 C56'
_cell_volume   1073.07703628
_cell_formula_units_Z   8
loop_
 _symmetry_equiv_pos_site_id
 _symmetry_equiv_pos_as_xyz
  1  'x, y, z'
loop_
 _atom_site_type_symbol
 _atom_site_label
 _atom_site_symmetry_multiplicity
 _atom_site_fract_x
 _atom_site_fract_y
 _atom_site_fract_z
 _atom_site_occupancy
  C  C0  1  0.64466200  0.05456700  0.43996600  1
  C  C1  1  0.14466200  0.44543300  0.56003400  1
  C  C2  1  0.35533800  0.55456700  0.06003400  1
  C  C3  1  0.85533800  0.94543300  0.93996600  1
  C  C4  1  0.35533800  0.94543300  0.56003400  1
  C  C5  1  0.85533800  0.55456700  0.43996600  1
  C  C6  1  0.64466200  0.44543300  0.93996600  1
  C  C7  1  0.14466200  0.05456700  0.06003400  1
  Ni  Ni8  1  0.77341100  0.30945900  0.56704900  1
  Ni  Ni9  1  0.27341100  0.19054100  0.43295100  1
  Ni  Ni10  1  0.22658900  0.80945900  0.93295100  1
  Ni  Ni11  1  0.72658900  0.69054100  0.06704900  1
  Ni  Ni12  1  0.22658900  0.69054100  0.43295100  1
  Ni  Ni13  1  0.72658900  0.80945900  0.56704900  1
  Ni  Ni14  1  0.77341100  0.19054100  0.06704900  1
  Ni  Ni15  1  0.27341100  0.30945900  0.93295100  1
  Cu  Cu16  1  0.80463000  0.17347100  0.22502900  1
  Cu  Cu17  1  0.30463000  0.32652900  0.77497100  1
  Cu  Cu18  1  0.19537000  0.67347100  0.27497100  1
  Cu  Cu19  1  0.69537000  0.82652900  0.72502900  1
  Cu  Cu20  1  0.19537000  0.82652900  0.77497100  1
  Cu  Cu21  1  0.69537000  0.67347100  0.22502900  1
  Cu  Cu22  1  0.80463000  0.32652900  0.72502900  1
  Cu  Cu23  1  0.30463000  0.17347100  0.27497100  1
  Cu  Cu24  1  0.89970300  0.03432000  0.26471800  1
  Cu  Cu25  1  0.39970300  0.46568000  0.73528200  1
  Cu  Cu26  1  0.10029700  0.53432000  0.23528200  1
  Cu  Cu27  1  0.60029700  0.96568000  0.76471800  1
  Cu  Cu28  1  0.10029700  0.96568000  0.73528200  1
  Cu  Cu29  1  0.60029700  0.53432000  0.26471800  1
  Cu  Cu30  1  0.89970300  0.46568000  0.76471800  1
  Cu  Cu31  1  0.39970300  0.03432000  0.23528200  1
  C  C32  1  0.91532000  0.38465200  0.51663800  1
  C  C33  1  0.41532000  0.11534800  0.48336200  1
  C  C34  1  0.08468000  0.88465200  0.98336200  1
  C  C35  1  0.58468000  0.61534800  0.01663800  1
  C  C36  1  0.08468000  0.61534800  0.48336200  1
  C  C37  1  0.58468000  0.88465200  0.51663800  1
  C  C38  1  0.91532000  0.11534800  0.01663800  1
  C  C39  1  0.41532000  0.38465200  0.98336200  1
  C  C40  1  0.62182700  0.38406700  0.57624100  1
  C  C41  1  0.12182700  0.11593300  0.42375900  1
  C  C42  1  0.37817300  0.88406700  0.92375900  1
  C  C43  1  0.87817300  0.61593300  0.07624100  1
  C  C44  1  0.37817300  0.61593300  0.42375900  1
  C  C45  1  0.87817300  0.88406700  0.57624100  1
  C  C46  1  0.62182700  0.11593300  0.07624100  1
  C  C47  1  0.12182700  0.38406700  0.92375900  1
  C  C48  1  0.76856800  0.16989900  0.53851100  1
  C  C49  1  0.26856800  0.33010100  0.46148900  1
  C  C50  1  0.23143200  0.66989900  0.96148900  1
  C  C51  1  0.73143200  0.83010100  0.03851100  1
  C  C52  1  0.23143200  0.83010100  0.46148900  1
  C  C53  1  0.73143200  0.66989900  0.53851100  1
  C  C54  1  0.76856800  0.33010100  0.03851100  1
  C  C55  1  0.26856800  0.16989900  0.96148900  1
  C  C56  1  0.51402600  0.00360300  0.29290200  1
  C  C57  1  0.01402600  0.49639700  0.70709800  1
  C  C58  1  0.48597400  0.50360300  0.20709800  1
  C  C59  1  0.98597400  0.99639700  0.79290200  1
  C  C60  1  0.48597400  0.99639700  0.70709800  1
  C  C61  1  0.98597400  0.50360300  0.29290200  1
  C  C62  1  0.51402600  0.49639700  0.79290200  1
  C  C63  1  0.01402600  0.00360300  0.20709800  1
  C  C64  1  0.83087300  0.98932100  0.34507000  1
  C  C65  1  0.33087300  0.51067900  0.65493000  1
  C  C66  1  0.16912700  0.48932100  0.15493000  1
  C  C67  1  0.66912700  0.01067900  0.84507000  1
  C  C68  1  0.16912700  0.01067900  0.65493000  1
  C  C69  1  0.66912700  0.48932100  0.34507000  1
  C  C70  1  0.83087300  0.51067900  0.84507000  1
  C  C71  1  0.33087300  0.98932100  0.15493000  1
  C  C72  1  0.73547800  0.23171100  0.29430900  1
  C  C73  1  0.23547800  0.26828900  0.70569100  1
  C  C74  1  0.26452200  0.73171100  0.20569100  1
  C  C75  1  0.76452200  0.76828900  0.79430900  1
  C  C76  1  0.26452200  0.76828900  0.70569100  1
  C  C77  1  0.76452200  0.73171100  0.29430900  1
  C  C78  1  0.73547800  0.26828900  0.79430900  1
  C  C79  1  0.23547800  0.23171100  0.20569100  1
