# generated using pymatgen
data_CuNiC12
_symmetry_space_group_name_H-M   'P 1'
_cell_length_a   6.01153122
_cell_length_b   6.01153122
_cell_length_c   6.01153209
_cell_angle_alpha   60.29081072
_cell_angle_beta   60.29081072
_cell_angle_gamma   60.29080919
_symmetry_Int_Tables_number   1
_chemical_formula_structural   CuNiC12
_chemical_formula_sum   'Cu1 Ni1 C12'
_cell_volume   154.62837801
_cell_formula_units_Z   1
loop_
 _symmetry_equiv_pos_site_id
 _symmetry_equiv_pos_as_xyz
  1  'x, y, z'
loop_
 _atom_site_type_symbol
 _atom_site_label
 _atom_site_symmetry_multiplicity
 _atom_site_fract_x
 _atom_site_fract_y
 _atom_site_fract_z
 _atom_site_occupancy
  Ni  Ni0  1  0.99856400  0.99856400  0.99856400  1
  C  C1  1  0.37387700  0.37387700  0.87844600  1
  C  C2  1  0.87844600  0.37387700  0.37387700  1
  C  C3  1  0.37387700  0.87844600  0.37387700  1
  C  C4  1  0.75172400  0.75172400  0.75172400  1
  Cu  Cu5  1  0.37379000  0.37379000  0.37379000  1
  C  C6  1  0.13464200  0.13464200  0.13464200  1
  C  C7  1  0.13043300  0.13043300  0.59488600  1
  C  C8  1  0.59488600  0.13043300  0.13043300  1
  C  C9  1  0.13043300  0.59488600  0.13043300  1
  C  C10  1  0.61845100  0.61845100  0.61845100  1
  C  C11  1  0.62328500  0.62328500  0.14430800  1
  C  C12  1  0.14430800  0.62328500  0.62328500  1
  C  C13  1  0.62328500  0.14430800  0.62328500  1
