# generated using pymatgen
data_Cu3NiC2
_symmetry_space_group_name_H-M   'P 1'
_cell_length_a   9.12611887
_cell_length_b   9.12611887
_cell_length_c   24.84688069
_cell_angle_alpha   84.74705676
_cell_angle_beta   84.74705676
_cell_angle_gamma   89.98748985
_symmetry_Int_Tables_number   1
_chemical_formula_structural   Cu3NiC2
_chemical_formula_sum   'Cu24 Ni8 C16'
_cell_volume   2051.98338667
_cell_formula_units_Z   8
loop_
 _symmetry_equiv_pos_site_id
 _symmetry_equiv_pos_as_xyz
  1  'x, y, z'
loop_
 _atom_site_type_symbol
 _atom_site_label
 _atom_site_symmetry_multiplicity
 _atom_site_fract_x
 _atom_site_fract_y
 _atom_site_fract_z
 _atom_site_occupancy
  C  C0  1  0.73077100  0.10648800  0.07644600  1
  C  C1  1  0.89351200  0.26922900  0.42355400  1
  C  C2  1  0.26922900  0.89351200  0.92355400  1
  C  C3  1  0.10648800  0.73077100  0.57644600  1
  C  C4  1  0.73084200  0.60529700  0.07642300  1
  C  C5  1  0.39470300  0.26915800  0.42357700  1
  C  C6  1  0.26915800  0.39470300  0.92357700  1
  C  C7  1  0.60529700  0.73084200  0.57642300  1
  C  C8  1  0.93975800  0.06024200  0.25000000  1
  C  C9  1  0.06024200  0.93975800  0.75000000  1
  C  C10  1  0.43539200  0.56460800  0.25000000  1
  C  C11  1  0.56460800  0.43539200  0.75000000  1
  C  C12  1  0.93968100  0.56492500  0.24998400  1
  C  C13  1  0.43507500  0.06031900  0.25001600  1
  C  C14  1  0.06031900  0.43507500  0.75001600  1
  C  C15  1  0.56492500  0.93968100  0.74998400  1
  Ni  Ni16  1  0.21961500  0.84448800  0.12240700  1
  Ni  Ni17  1  0.15551200  0.78038500  0.37759300  1
  Ni  Ni18  1  0.78038500  0.15551200  0.87759300  1
  Ni  Ni19  1  0.84448800  0.21961500  0.62240700  1
  Ni  Ni20  1  0.21947100  0.34438700  0.12249300  1
  Ni  Ni21  1  0.65561300  0.78052900  0.37750700  1
  Ni  Ni22  1  0.78052900  0.65561300  0.87750700  1
  Ni  Ni23  1  0.34438700  0.21947100  0.62249300  1
  Cu  Cu24  1  0.23713900  0.11186600  0.05249900  1
  Cu  Cu25  1  0.88813400  0.76286100  0.44750100  1
  Cu  Cu26  1  0.76286100  0.88813400  0.94750100  1
  Cu  Cu27  1  0.11186600  0.23713900  0.55249900  1
  Cu  Cu28  1  0.93783000  0.33012500  0.17986000  1
  Cu  Cu29  1  0.66987500  0.06217000  0.32014000  1
  Cu  Cu30  1  0.06217000  0.66987500  0.82014000  1
  Cu  Cu31  1  0.33012500  0.93783000  0.67986000  1
  Cu  Cu32  1  0.23673900  0.61190300  0.05250200  1
  Cu  Cu33  1  0.38809700  0.76326100  0.44749800  1
  Cu  Cu34  1  0.76326100  0.38809700  0.94749800  1
  Cu  Cu35  1  0.61190300  0.23673900  0.55250200  1
  Cu  Cu36  1  0.47300300  0.83003700  0.17952300  1
  Cu  Cu37  1  0.16996300  0.52699700  0.32047700  1
  Cu  Cu38  1  0.52699700  0.16996300  0.82047700  1
  Cu  Cu39  1  0.83003700  0.47300300  0.67952300  1
  Cu  Cu40  1  0.47244100  0.33000400  0.17981500  1
  Cu  Cu41  1  0.66999600  0.52755900  0.32018500  1
  Cu  Cu42  1  0.52755900  0.66999600  0.82018500  1
  Cu  Cu43  1  0.33000400  0.47244100  0.67981500  1
  Cu  Cu44  1  0.93732000  0.83028200  0.17943400  1
  Cu  Cu45  1  0.16971800  0.06268000  0.32056600  1
  Cu  Cu46  1  0.06268000  0.16971800  0.82056600  1
  Cu  Cu47  1  0.83028200  0.93732000  0.67943400  1
