# generated using pymatgen
data_Cu2Ni5C18
_symmetry_space_group_name_H-M   'P 1'
_cell_length_a   15.14327604
_cell_length_b   15.14327604
_cell_length_c   9.29278955
_cell_angle_alpha   76.71171756
_cell_angle_beta   76.71171756
_cell_angle_gamma   22.06998234
_symmetry_Int_Tables_number   1
_chemical_formula_structural   Cu2Ni5C18
_chemical_formula_sum   'Cu4 Ni10 C36'
_cell_volume   778.43859502
_cell_formula_units_Z   2
loop_
 _symmetry_equiv_pos_site_id
 _symmetry_equiv_pos_as_xyz
  1  'x, y, z'
loop_
 _atom_site_type_symbol
 _atom_site_label
 _atom_site_symmetry_multiplicity
 _atom_site_fract_x
 _atom_site_fract_y
 _atom_site_fract_z
 _atom_site_occupancy
  Ni  Ni0  1  0.74470600  0.83893400  0.82570300  1
  Ni  Ni1  1  0.16106600  0.25529400  0.67429700  1
  Ni  Ni2  1  0.25529400  0.16106600  0.17429700  1
  Ni  Ni3  1  0.83893400  0.74470600  0.32570300  1
  Ni  Ni4  1  0.67954100  0.32045900  0.25000000  1
  Ni  Ni5  1  0.32045900  0.67954100  0.75000000  1
  Ni  Ni6  1  0.48135400  0.68286500  0.22066700  1
  Ni  Ni7  1  0.31713500  0.51864600  0.27933300  1
  Ni  Ni8  1  0.51864600  0.31713500  0.77933300  1
  Ni  Ni9  1  0.68286500  0.48135400  0.72066700  1
  Cu  Cu10  1  0.05653800  0.65582600  0.00982600  1
  Cu  Cu11  1  0.34417400  0.94346200  0.49017400  1
  Cu  Cu12  1  0.94346200  0.34417400  0.99017400  1
  Cu  Cu13  1  0.65582600  0.05653800  0.50982600  1
  C  C14  1  0.97823200  0.62465000  0.91827100  1
  C  C15  1  0.37535000  0.02176800  0.58172900  1
  C  C16  1  0.02176800  0.37535000  0.08172900  1
  C  C17  1  0.62465000  0.97823200  0.41827100  1
  C  C18  1  0.31029300  0.86994700  0.32363100  1
  C  C19  1  0.13005300  0.68970700  0.17636900  1
  C  C20  1  0.68970700  0.13005300  0.67636900  1
  C  C21  1  0.86994700  0.31029300  0.82363100  1
  C  C22  1  0.82500300  0.23256600  0.12765900  1
  C  C23  1  0.76743400  0.17499700  0.37234100  1
  C  C24  1  0.17499700  0.76743400  0.87234100  1
  C  C25  1  0.23256600  0.82500300  0.62765900  1
  C  C26  1  0.55800100  0.06129000  0.87821700  1
  C  C27  1  0.93871000  0.44199900  0.62178300  1
  C  C28  1  0.44199900  0.93871000  0.12178300  1
  C  C29  1  0.06129000  0.55800100  0.37821700  1
  C  C30  1  0.39849000  0.75295000  0.08070500  1
  C  C31  1  0.24705000  0.60151000  0.41929500  1
  C  C32  1  0.60151000  0.24705000  0.91929500  1
  C  C33  1  0.75295000  0.39849000  0.58070500  1
  C  C34  1  0.85009400  0.79738100  0.66764500  1
  C  C35  1  0.20261900  0.14990600  0.83235500  1
  C  C36  1  0.14990600  0.20261900  0.33235500  1
  C  C37  1  0.79738100  0.85009400  0.16764500  1
  C  C38  1  0.46895200  0.46957000  0.17898400  1
  C  C39  1  0.53043000  0.53104800  0.32101600  1
  C  C40  1  0.53104800  0.53043000  0.82101600  1
  C  C41  1  0.46957000  0.46895200  0.67898400  1
  C  C42  1  0.71388600  0.51397400  0.21465900  1
  C  C43  1  0.48602600  0.28611400  0.28534100  1
  C  C44  1  0.28611400  0.48602600  0.78534100  1
  C  C45  1  0.51397400  0.71388600  0.71465900  1
  C  C46  1  0.72333600  0.76524900  0.82272700  1
  C  C47  1  0.23475100  0.27666400  0.67727300  1
  C  C48  1  0.27666400  0.23475100  0.17727300  1
  C  C49  1  0.76524900  0.72333600  0.32272700  1
