# generated using pymatgen
data_Cu(NiC3)2
_symmetry_space_group_name_H-M   'P 1'
_cell_length_a   8.06731900
_cell_length_b   9.71663100
_cell_length_c   14.91244400
_cell_angle_alpha   90.00000000
_cell_angle_beta   90.00000000
_cell_angle_gamma   90.00000000
_symmetry_Int_Tables_number   1
_chemical_formula_structural   Cu(NiC3)2
_chemical_formula_sum   'Cu8 Ni16 C48'
_cell_volume   1168.94416189
_cell_formula_units_Z   8
loop_
 _symmetry_equiv_pos_site_id
 _symmetry_equiv_pos_as_xyz
  1  'x, y, z'
loop_
 _atom_site_type_symbol
 _atom_site_label
 _atom_site_symmetry_multiplicity
 _atom_site_fract_x
 _atom_site_fract_y
 _atom_site_fract_z
 _atom_site_occupancy
  Ni  Ni0  1  0.35225000  0.72801000  0.38447500  1
  Ni  Ni1  1  0.64775000  0.22801000  0.11552500  1
  Ni  Ni2  1  0.14775000  0.27199000  0.88447500  1
  Ni  Ni3  1  0.85225000  0.77199000  0.61552500  1
  Ni  Ni4  1  0.64775000  0.27199000  0.61552500  1
  Ni  Ni5  1  0.35225000  0.77199000  0.88447500  1
  Ni  Ni6  1  0.85225000  0.72801000  0.11552500  1
  Ni  Ni7  1  0.14775000  0.22801000  0.38447500  1
  Ni  Ni8  1  0.93916100  0.79966100  0.39294100  1
  Ni  Ni9  1  0.06083900  0.29966100  0.10705900  1
  Ni  Ni10  1  0.56083900  0.20033900  0.89294200  1
  Ni  Ni11  1  0.43916100  0.70033900  0.60705800  1
  Ni  Ni12  1  0.06083900  0.20033900  0.60705800  1
  Ni  Ni13  1  0.93916100  0.70033900  0.89294200  1
  Ni  Ni14  1  0.43916100  0.79966100  0.10705900  1
  Ni  Ni15  1  0.56083900  0.29966100  0.39294100  1
  Cu  Cu16  1  0.37739000  0.47722900  0.20864400  1
  Cu  Cu17  1  0.62261000  0.97722900  0.29135600  1
  Cu  Cu18  1  0.12261000  0.52277100  0.70864400  1
  Cu  Cu19  1  0.87739000  0.02277100  0.79135600  1
  Cu  Cu20  1  0.62261000  0.52277100  0.79135600  1
  Cu  Cu21  1  0.37739000  0.02277100  0.70864400  1
  Cu  Cu22  1  0.87739000  0.47722900  0.29135600  1
  Cu  Cu23  1  0.12261000  0.97722900  0.20864400  1
  C  C24  1  0.51051600  0.83569200  0.36154400  1
  C  C25  1  0.48948400  0.33569200  0.13845600  1
  C  C26  1  0.98948400  0.16430800  0.86154400  1
  C  C27  1  0.01051600  0.66430800  0.63845600  1
  C  C28  1  0.48948400  0.16430800  0.63845600  1
  C  C29  1  0.51051600  0.66430800  0.86154400  1
  C  C30  1  0.01051600  0.83569200  0.13845600  1
  C  C31  1  0.98948400  0.33569200  0.36154400  1
  C  C32  1  0.34076700  0.59895700  0.30985500  1
  C  C33  1  0.65923300  0.09895700  0.19014500  1
  C  C34  1  0.15923300  0.40104300  0.80985500  1
  C  C35  1  0.84076700  0.90104300  0.69014500  1
  C  C36  1  0.65923300  0.40104300  0.69014500  1
  C  C37  1  0.34076700  0.90104300  0.80985500  1
  C  C38  1  0.84076700  0.59895700  0.19014500  1
  C  C39  1  0.15923300  0.09895700  0.30985500  1
  C  C40  1  0.84740900  0.90262100  0.31448000  1
  C  C41  1  0.15259100  0.40262100  0.18552000  1
  C  C42  1  0.65259100  0.09737900  0.81448000  1
  C  C43  1  0.34740900  0.59737900  0.68552000  1
  C  C44  1  0.15259100  0.09737900  0.68552000  1
  C  C45  1  0.84740900  0.59737900  0.81448000  1
  C  C46  1  0.34740900  0.90262100  0.18552000  1
  C  C47  1  0.65259100  0.40262100  0.31448000  1
  C  C48  1  0.89829500  0.63227300  0.37581000  1
  C  C49  1  0.10170500  0.13227300  0.12419000  1
  C  C50  1  0.60170500  0.36772700  0.87581000  1
  C  C51  1  0.39829500  0.86772700  0.62419000  1
  C  C52  1  0.10170500  0.36772700  0.62419000  1
  C  C53  1  0.89829500  0.86772700  0.87581000  1
  C  C54  1  0.39829500  0.63227300  0.12419000  1
  C  C55  1  0.60170500  0.13227300  0.37581000  1
  C  C56  1  0.15938600  0.82317600  0.37938100  1
  C  C57  1  0.84061400  0.32317600  0.12061900  1
  C  C58  1  0.34061400  0.17682400  0.87938100  1
  C  C59  1  0.65938600  0.67682400  0.62061900  1
  C  C60  1  0.84061400  0.17682400  0.62061900  1
  C  C61  1  0.15938600  0.67682400  0.87938100  1
  C  C62  1  0.65938600  0.82317600  0.12061900  1
  C  C63  1  0.34061400  0.32317600  0.37938100  1
  C  C64  1  0.37689500  0.65386400  0.49509400  1
  C  C65  1  0.62310500  0.15386400  0.00490600  1
  C  C66  1  0.12310500  0.34613600  0.99509400  1
  C  C67  1  0.87689500  0.84613600  0.50490600  1
  C  C68  1  0.62310500  0.34613600  0.50490600  1
  C  C69  1  0.37689500  0.84613600  0.99509400  1
  C  C70  1  0.87689500  0.65386400  0.00490600  1
  C  C71  1  0.12310500  0.15386400  0.49509400  1
