# generated using pymatgen
data_CuNi11C4
_symmetry_space_group_name_H-M   'P 1'
_cell_length_a   3.98449200
_cell_length_b   4.01915900
_cell_length_c   17.23226000
_cell_angle_alpha   90.00000000
_cell_angle_beta   90.00000000
_cell_angle_gamma   90.00000000
_symmetry_Int_Tables_number   1
_chemical_formula_structural   CuNi11C4
_chemical_formula_sum   'Cu1 Ni11 C4'
_cell_volume   275.96269991
_cell_formula_units_Z   1
loop_
 _symmetry_equiv_pos_site_id
 _symmetry_equiv_pos_as_xyz
  1  'x, y, z'
loop_
 _atom_site_type_symbol
 _atom_site_label
 _atom_site_symmetry_multiplicity
 _atom_site_fract_x
 _atom_site_fract_y
 _atom_site_fract_z
 _atom_site_occupancy
  C  C0  1  0.50000000  0.50000000  0.38007300  1
  C  C1  1  0.00000000  0.00000000  0.88508200  1
  C  C2  1  0.00000000  0.00000000  0.11491800  1
  C  C3  1  0.50000000  0.50000000  0.61992700  1
  Ni  Ni4  1  0.50000000  0.50000000  0.12626400  1
  Ni  Ni5  1  0.00000000  0.00000000  0.62488400  1
  Ni  Ni6  1  0.00000000  0.00000000  0.37511600  1
  Ni  Ni7  1  0.50000000  0.50000000  0.87373600  1
  Ni  Ni8  1  0.00000000  0.50000000  0.24973500  1
  Ni  Ni9  1  0.50000000  0.00000000  0.75001400  1
  Ni  Ni10  1  0.50000000  0.00000000  0.24998600  1
  Ni  Ni11  1  0.00000000  0.50000000  0.75026500  1
  Ni  Ni12  1  0.00000000  0.50000000  0.50000000  1
  Ni  Ni13  1  0.00000000  0.50000000  0.00000000  1
  Ni  Ni14  1  0.50000000  0.00000000  0.50000000  1
  Cu  Cu15  1  0.50000000  0.00000000  0.00000000  1
