# generated using pymatgen
data_Cu3Ni4C17
_symmetry_space_group_name_H-M   'P 1'
_cell_length_a   8.18879500
_cell_length_b   12.82874900
_cell_length_c   16.85204355
_cell_angle_alpha   90.00000000
_cell_angle_beta   108.64696722
_cell_angle_gamma   90.00000000
_symmetry_Int_Tables_number   1
_chemical_formula_structural   Cu3Ni4C17
_chemical_formula_sum   'Cu12 Ni16 C68'
_cell_volume   1677.40965182
_cell_formula_units_Z   4
loop_
 _symmetry_equiv_pos_site_id
 _symmetry_equiv_pos_as_xyz
  1  'x, y, z'
loop_
 _atom_site_type_symbol
 _atom_site_label
 _atom_site_symmetry_multiplicity
 _atom_site_fract_x
 _atom_site_fract_y
 _atom_site_fract_z
 _atom_site_occupancy
  C  C0  1  0.97552800  0.12197500  0.92865800  1
  C  C1  1  0.97552800  0.37802500  0.42865800  1
  C  C2  1  0.02447200  0.87802500  0.07134200  1
  C  C3  1  0.02447200  0.62197500  0.57134200  1
  C  C4  1  0.22973100  0.98609900  0.00366400  1
  C  C5  1  0.22973100  0.51390100  0.50366400  1
  C  C6  1  0.77026900  0.01390100  0.99633600  1
  C  C7  1  0.77026900  0.48609900  0.49633600  1
  Ni  Ni8  1  0.38307700  0.59912300  0.25861200  1
  Ni  Ni9  1  0.38307700  0.90087700  0.75861200  1
  Ni  Ni10  1  0.61692300  0.40087700  0.74138800  1
  Ni  Ni11  1  0.61692300  0.09912300  0.24138800  1
  Ni  Ni12  1  0.63562300  0.74078100  0.22898000  1
  Ni  Ni13  1  0.63562300  0.75921900  0.72898000  1
  Ni  Ni14  1  0.36437700  0.25921900  0.77102000  1
  Ni  Ni15  1  0.36437700  0.24078100  0.27102000  1
  Ni  Ni16  1  0.59923400  0.63853300  0.06720900  1
  Ni  Ni17  1  0.59923400  0.86146700  0.56720900  1
  Ni  Ni18  1  0.40076600  0.36146700  0.93279100  1
  Ni  Ni19  1  0.40076600  0.13853300  0.43279100  1
  Ni  Ni20  1  0.95797900  0.83396000  0.33521700  1
  Ni  Ni21  1  0.95797900  0.66604000  0.83521700  1
  Ni  Ni22  1  0.04202100  0.16604000  0.66478300  1
  Ni  Ni23  1  0.04202100  0.33396000  0.16478300  1
  Cu  Cu24  1  0.56929200  0.76594600  0.12285900  1
  Cu  Cu25  1  0.56929200  0.73405400  0.62285900  1
  Cu  Cu26  1  0.43070800  0.23405400  0.87714100  1
  Cu  Cu27  1  0.43070800  0.26594600  0.37714100  1
  Cu  Cu28  1  0.85219800  0.71305700  0.27579700  1
  Cu  Cu29  1  0.85219800  0.78694300  0.77579700  1
  Cu  Cu30  1  0.14780200  0.28694300  0.72420300  1
  Cu  Cu31  1  0.14780200  0.21305700  0.22420300  1
  Cu  Cu32  1  0.48855200  0.73147600  0.28378100  1
  Cu  Cu33  1  0.48855200  0.76852400  0.78378100  1
  Cu  Cu34  1  0.51144800  0.26852400  0.71621900  1
  Cu  Cu35  1  0.51144800  0.23147600  0.21621900  1
  C  C36  1  0.92833600  0.70289000  0.20973000  1
  C  C37  1  0.92833600  0.79711000  0.70973000  1
  C  C38  1  0.07166400  0.29711000  0.79027000  1
  C  C39  1  0.07166400  0.20289000  0.29027000  1
  C  C40  1  0.67667100  0.84261000  0.09938100  1
  C  C41  1  0.67667100  0.65739000  0.59938100  1
  C  C42  1  0.32332900  0.15739000  0.90061900  1
  C  C43  1  0.32332900  0.34261000  0.40061900  1
  C  C44  1  0.38397300  0.78257300  0.09299400  1
  C  C45  1  0.38397300  0.71742700  0.59299400  1
  C  C46  1  0.61602700  0.21742700  0.90700600  1
  C  C47  1  0.61602700  0.28257300  0.40700600  1
  C  C48  1  0.58298400  0.72506100  0.37203600  1
  C  C49  1  0.58298400  0.77493900  0.87203600  1
  C  C50  1  0.41701600  0.27493900  0.62796400  1
  C  C51  1  0.41701600  0.22506100  0.12796400  1
  C  C52  1  0.34859800  0.80409900  0.25244700  1
  C  C53  1  0.34859800  0.69590100  0.75244700  1
  C  C54  1  0.65140200  0.19590100  0.74755300  1
  C  C55  1  0.65140200  0.30409900  0.24755300  1
  C  C56  1  0.88009900  0.63454000  0.34002700  1
  C  C57  1  0.88009900  0.86546000  0.84002700  1
  C  C58  1  0.11990100  0.36546000  0.65997300  1
  C  C59  1  0.11990100  0.13454000  0.15997300  1
  C  C60  1  0.61873200  0.55699800  0.11987800  1
  C  C61  1  0.61873200  0.94300200  0.61987800  1
  C  C62  1  0.38126800  0.44300200  0.88012200  1
  C  C63  1  0.38126800  0.05699800  0.38012200  1
  C  C64  1  0.50297200  0.52250100  0.27691100  1
  C  C65  1  0.50297200  0.97749900  0.77691100  1
  C  C66  1  0.49702800  0.47749900  0.72308900  1
  C  C67  1  0.49702800  0.02250100  0.22308900  1
  C  C68  1  0.27981200  0.58563100  0.30653300  1
  C  C69  1  0.27981200  0.91436900  0.80653300  1
  C  C70  1  0.72018800  0.41436900  0.69346700  1
  C  C71  1  0.72018800  0.08563100  0.19346700  1
  C  C72  1  0.45629900  0.62446100  0.00110200  1
  C  C73  1  0.45629900  0.87553900  0.50110200  1
  C  C74  1  0.54370100  0.37553900  0.99889800  1
  C  C75  1  0.54370100  0.12446100  0.49889800  1
  C  C76  1  0.73636800  0.64558800  0.04027800  1
  C  C77  1  0.73636800  0.85441200  0.54027800  1
  C  C78  1  0.26363200  0.35441200  0.95972200  1
  C  C79  1  0.26363200  0.14558800  0.45972200  1
  C  C80  1  0.95821200  0.91152400  0.28107900  1
  C  C81  1  0.95821200  0.58847600  0.78107900  1
  C  C82  1  0.04178800  0.08847600  0.71892100  1
  C  C83  1  0.04178800  0.41152400  0.21892100  1
  C  C84  1  0.28725800  0.59230500  0.17716100  1
  C  C85  1  0.28725800  0.90769500  0.67716100  1
  C  C86  1  0.71274200  0.40769500  0.82283900  1
  C  C87  1  0.71274200  0.09230500  0.32283900  1
  C  C88  1  0.12241200  0.80944600  0.37933700  1
  C  C89  1  0.12241200  0.69055400  0.87933700  1
  C  C90  1  0.87758800  0.19055400  0.62066300  1
  C  C91  1  0.87758800  0.30944600  0.12066300  1
  C  C92  1  0.87648500  0.86654800  0.38876800  1
  C  C93  1  0.87648500  0.63345200  0.88876800  1
  C  C94  1  0.12351500  0.13345200  0.61123200  1
  C  C95  1  0.12351500  0.36654800  0.11123200  1
