# generated using pymatgen
data_Cu6Ni4C
_symmetry_space_group_name_H-M   'P 1'
_cell_length_a   6.74886900
_cell_length_b   7.21005900
_cell_length_c   7.46480900
_cell_angle_alpha   90.00000000
_cell_angle_beta   90.00000000
_cell_angle_gamma   90.00000000
_symmetry_Int_Tables_number   1
_chemical_formula_structural   Cu6Ni4C
_chemical_formula_sum   'Cu12 Ni8 C2'
_cell_volume   363.23569251
_cell_formula_units_Z   2
loop_
 _symmetry_equiv_pos_site_id
 _symmetry_equiv_pos_as_xyz
  1  'x, y, z'
loop_
 _atom_site_type_symbol
 _atom_site_label
 _atom_site_symmetry_multiplicity
 _atom_site_fract_x
 _atom_site_fract_y
 _atom_site_fract_z
 _atom_site_occupancy
  C  C0  1  0.50000000  0.50000000  0.50000000  1
  C  C1  1  0.00000000  0.00000000  0.00000000  1
  Ni  Ni2  1  0.77693600  0.17926700  0.65139000  1
  Ni  Ni3  1  0.27693600  0.32073300  0.84861000  1
  Ni  Ni4  1  0.77693600  0.17926700  0.34861000  1
  Ni  Ni5  1  0.27693600  0.32073300  0.15139000  1
  Ni  Ni6  1  0.72306400  0.67926700  0.15139000  1
  Ni  Ni7  1  0.22306400  0.82073300  0.34861000  1
  Ni  Ni8  1  0.22306400  0.82073300  0.65139000  1
  Ni  Ni9  1  0.72306400  0.67926700  0.84861000  1
  Cu  Cu10  1  0.78975700  0.74660900  0.00000000  1
  Cu  Cu11  1  0.28975700  0.75339100  0.50000000  1
  Cu  Cu12  1  0.83029300  0.12591500  0.20819200  1
  Cu  Cu13  1  0.33029300  0.37408500  0.29180800  1
  Cu  Cu14  1  0.66970700  0.62591500  0.29180800  1
  Cu  Cu15  1  0.16970700  0.87408500  0.20819200  1
  Cu  Cu16  1  0.16970700  0.87408500  0.79180800  1
  Cu  Cu17  1  0.66970700  0.62591500  0.70819200  1
  Cu  Cu18  1  0.33029300  0.37408500  0.70819200  1
  Cu  Cu19  1  0.83029300  0.12591500  0.79180800  1
  Cu  Cu20  1  0.71024300  0.24660900  0.50000000  1
  Cu  Cu21  1  0.21024300  0.25339100  0.00000000  1
