# generated using pymatgen
data_Cu7(NiC)6
_symmetry_space_group_name_H-M   'P 1'
_cell_length_a   8.28428800
_cell_length_b   8.36436800
_cell_length_c   11.74267519
_cell_angle_alpha   90.00000000
_cell_angle_beta   134.47223372
_cell_angle_gamma   90.00000000
_symmetry_Int_Tables_number   1
_chemical_formula_structural   Cu7(NiC)6
_chemical_formula_sum   'Cu28 Ni24 C24'
_cell_volume   580.63624901
_cell_formula_units_Z   4
loop_
 _symmetry_equiv_pos_site_id
 _symmetry_equiv_pos_as_xyz
  1  'x, y, z'
loop_
 _atom_site_type_symbol
 _atom_site_label
 _atom_site_symmetry_multiplicity
 _atom_site_fract_x
 _atom_site_fract_y
 _atom_site_fract_z
 _atom_site_occupancy
  Ni  Ni0  1  0.55872200  0.50397700  0.88861300  1
  Ni  Ni1  1  0.55872200  0.99602300  0.38861300  1
  Ni  Ni2  1  0.44127800  0.49602300  0.11138700  1
  Ni  Ni3  1  0.44127800  0.00397700  0.61138700  1
  Ni  Ni4  1  0.35448300  0.36885300  0.84343200  1
  Ni  Ni5  1  0.35448300  0.13114700  0.34343200  1
  Ni  Ni6  1  0.64551700  0.63114700  0.15656800  1
  Ni  Ni7  1  0.64551700  0.86885300  0.65656800  1
  Ni  Ni8  1  0.22405100  0.46600900  0.89828900  1
  Ni  Ni9  1  0.22405100  0.03399100  0.39828900  1
  Ni  Ni10  1  0.77594900  0.53399100  0.10171100  1
  Ni  Ni11  1  0.77594900  0.96600900  0.60171100  1
  Ni  Ni12  1  0.35201800  0.66007400  0.98015500  1
  Ni  Ni13  1  0.35201800  0.83992600  0.48015500  1
  Ni  Ni14  1  0.64798200  0.33992600  0.01984500  1
  Ni  Ni15  1  0.64798200  0.16007400  0.51984500  1
  Ni  Ni16  1  0.56070400  0.68344900  0.97349000  1
  Ni  Ni17  1  0.56070400  0.81655100  0.47349000  1
  Ni  Ni18  1  0.43929600  0.31655100  0.02651000  1
  Ni  Ni19  1  0.43929600  0.18344900  0.52651000  1
  Ni  Ni20  1  0.29846700  0.58232700  0.81253400  1
  Ni  Ni21  1  0.29846700  0.91767300  0.31253400  1
  Ni  Ni22  1  0.70153300  0.41767300  0.18746600  1
  Ni  Ni23  1  0.70153300  0.08232700  0.68746600  1
  Cu  Cu24  1  0.67548200  0.61624500  0.78629200  1
  Cu  Cu25  1  0.67548200  0.88375500  0.28629200  1
  Cu  Cu26  1  0.32451800  0.38375500  0.21370800  1
  Cu  Cu27  1  0.32451800  0.11624500  0.71370800  1
  Cu  Cu28  1  0.52014300  0.43422200  0.69251200  1
  Cu  Cu29  1  0.52014300  0.06577800  0.19251200  1
  Cu  Cu30  1  0.47985700  0.56577800  0.30748800  1
  Cu  Cu31  1  0.47985700  0.93422200  0.80748800  1
  Cu  Cu32  1  0.07358600  0.24218300  0.65447100  1
  Cu  Cu33  1  0.07358600  0.25781700  0.15447100  1
  Cu  Cu34  1  0.92641400  0.75781700  0.34552900  1
  Cu  Cu35  1  0.92641400  0.74218300  0.84552900  1
  Cu  Cu36  1  0.95725900  0.35276700  0.84210200  1
  Cu  Cu37  1  0.95725900  0.14723300  0.34210200  1
  Cu  Cu38  1  0.04274100  0.64723300  0.15789800  1
  Cu  Cu39  1  0.04274100  0.85276700  0.65789800  1
  Cu  Cu40  1  0.17071800  0.86676900  0.88280500  1
  Cu  Cu41  1  0.17071800  0.63323100  0.38280500  1
  Cu  Cu42  1  0.82928200  0.13323100  0.11719500  1
  Cu  Cu43  1  0.82928200  0.36676900  0.61719500  1
  Cu  Cu44  1  0.77479500  0.85392000  0.01529200  1
  Cu  Cu45  1  0.77479500  0.64608000  0.51529200  1
  Cu  Cu46  1  0.22520500  0.14608000  0.98470800  1
  Cu  Cu47  1  0.22520500  0.35392000  0.48470800  1
  Cu  Cu48  1  0.16525600  0.66106000  0.59549900  1
  Cu  Cu49  1  0.16525600  0.83894000  0.09549900  1
  Cu  Cu50  1  0.83474400  0.33894000  0.40450100  1
  Cu  Cu51  1  0.83474400  0.16106000  0.90450100  1
  C  C52  1  0.61425300  0.50705300  0.79477800  1
  C  C53  1  0.61425300  0.99294700  0.29477800  1
  C  C54  1  0.38574700  0.49294700  0.20522200  1
  C  C55  1  0.38574700  0.00705300  0.70522200  1
  C  C56  1  0.23550300  0.25602300  0.71317300  1
  C  C57  1  0.23550300  0.24397700  0.21317300  1
  C  C58  1  0.76449700  0.74397700  0.28682700  1
  C  C59  1  0.76449700  0.75602300  0.78682700  1
  C  C60  1  0.98869600  0.44625700  0.80849200  1
  C  C61  1  0.98869600  0.05374300  0.30849200  1
  C  C62  1  0.01130400  0.55374300  0.19150800  1
  C  C63  1  0.01130400  0.94625700  0.69150800  1
  C  C64  1  0.22036400  0.78733300  0.96575000  1
  C  C65  1  0.22036400  0.71266700  0.46575000  1
  C  C66  1  0.77963600  0.21266700  0.03425000  1
  C  C67  1  0.77963600  0.28733300  0.53425000  1
  C  C68  1  0.61297600  0.83913500  0.95184700  1
  C  C69  1  0.61297600  0.66086500  0.45184700  1
  C  C70  1  0.38702400  0.16086500  0.04815300  1
  C  C71  1  0.38702400  0.33913500  0.54815300  1
  C  C72  1  0.12298700  0.65264800  0.65562300  1
  C  C73  1  0.12298700  0.84735200  0.15562300  1
  C  C74  1  0.87701300  0.34735200  0.34437700  1
  C  C75  1  0.87701300  0.15264800  0.84437700  1
