# generated using pymatgen
data_Cu2NiC5
_symmetry_space_group_name_H-M   'P 1'
_cell_length_a   3.49789300
_cell_length_b   11.59536600
_cell_length_c   11.69817200
_cell_angle_alpha   90.00000000
_cell_angle_beta   90.00000000
_cell_angle_gamma   90.00000000
_symmetry_Int_Tables_number   1
_chemical_formula_structural   Cu2NiC5
_chemical_formula_sum   'Cu8 Ni4 C20'
_cell_volume   474.47024741
_cell_formula_units_Z   4
loop_
 _symmetry_equiv_pos_site_id
 _symmetry_equiv_pos_as_xyz
  1  'x, y, z'
loop_
 _atom_site_type_symbol
 _atom_site_label
 _atom_site_symmetry_multiplicity
 _atom_site_fract_x
 _atom_site_fract_y
 _atom_site_fract_z
 _atom_site_occupancy
  C  C0  1  0.25000000  0.34737400  0.90952300  1
  C  C1  1  0.25000000  0.84737400  0.59047700  1
  C  C2  1  0.75000000  0.65262600  0.09047700  1
  C  C3  1  0.75000000  0.15262600  0.40952300  1
  Ni  Ni4  1  0.25000000  0.14021000  0.20396900  1
  Ni  Ni5  1  0.25000000  0.64021000  0.29603100  1
  Ni  Ni6  1  0.75000000  0.85979000  0.79603100  1
  Ni  Ni7  1  0.75000000  0.35979000  0.70396900  1
  Cu  Cu8  1  0.25000000  0.09805800  0.61441500  1
  Cu  Cu9  1  0.25000000  0.59805800  0.88558500  1
  Cu  Cu10  1  0.75000000  0.90194200  0.38558500  1
  Cu  Cu11  1  0.75000000  0.40194200  0.11441500  1
  Cu  Cu12  1  0.25000000  0.36503100  0.42529700  1
  Cu  Cu13  1  0.25000000  0.86503100  0.07470300  1
  Cu  Cu14  1  0.75000000  0.63496900  0.57470300  1
  Cu  Cu15  1  0.75000000  0.13496900  0.92529700  1
  C  C16  1  0.25000000  0.25694200  0.04338400  1
  C  C17  1  0.25000000  0.75694200  0.45661600  1
  C  C18  1  0.75000000  0.74305800  0.95661600  1
  C  C19  1  0.75000000  0.24305800  0.54338400  1
  C  C20  1  0.25000000  0.05956000  0.39167500  1
  C  C21  1  0.25000000  0.55956000  0.10832500  1
  C  C22  1  0.75000000  0.94044000  0.60832500  1
  C  C23  1  0.75000000  0.44044000  0.89167500  1
  C  C24  1  0.25000000  0.47463800  0.62685400  1
  C  C25  1  0.25000000  0.97463800  0.87314600  1
  C  C26  1  0.75000000  0.52536200  0.37314600  1
  C  C27  1  0.75000000  0.02536200  0.12685400  1
  C  C28  1  0.25000000  0.23973500  0.78026100  1
  C  C29  1  0.25000000  0.73973500  0.71973900  1
  C  C30  1  0.75000000  0.76026500  0.21973900  1
  C  C31  1  0.75000000  0.26026500  0.28026100  1
