# generated using pymatgen
data_Cu5(NiC2)6
_symmetry_space_group_name_H-M   'P 1'
_cell_length_a   6.29785800
_cell_length_b   13.29313500
_cell_length_c   16.97027100
_cell_angle_alpha   90.00000000
_cell_angle_beta   90.00000000
_cell_angle_gamma   90.00000000
_symmetry_Int_Tables_number   1
_chemical_formula_structural   Cu5(NiC2)6
_chemical_formula_sum   'Cu20 Ni24 C48'
_cell_volume   1420.72184164
_cell_formula_units_Z   4
loop_
 _symmetry_equiv_pos_site_id
 _symmetry_equiv_pos_as_xyz
  1  'x, y, z'
loop_
 _atom_site_type_symbol
 _atom_site_label
 _atom_site_symmetry_multiplicity
 _atom_site_fract_x
 _atom_site_fract_y
 _atom_site_fract_z
 _atom_site_occupancy
  C  C0  1  0.55173200  0.24455500  0.75238300  1
  C  C1  1  0.44826800  0.75544500  0.25238300  1
  C  C2  1  0.44826800  0.74455500  0.75238300  1
  C  C3  1  0.55173200  0.25544500  0.25238300  1
  C  C4  1  0.03666300  0.01571400  0.50135100  1
  C  C5  1  0.96333700  0.98428600  0.00135100  1
  C  C6  1  0.96333700  0.51571400  0.50135100  1
  C  C7  1  0.03666300  0.48428600  0.00135100  1
  C  C8  1  0.00421700  0.30836300  0.78207100  1
  C  C9  1  0.99578300  0.69163700  0.28207100  1
  C  C10  1  0.99578300  0.80836300  0.78207100  1
  C  C11  1  0.00421700  0.19163700  0.28207100  1
  C  C12  1  0.08452800  0.64397400  0.71885100  1
  C  C13  1  0.91547200  0.35602600  0.21885100  1
  C  C14  1  0.91547200  0.14397400  0.71885100  1
  C  C15  1  0.08452800  0.85602600  0.21885100  1
  C  C16  1  0.55676500  0.30169000  0.59494200  1
  C  C17  1  0.44323500  0.69831000  0.09494200  1
  C  C18  1  0.44323500  0.80169000  0.59494200  1
  C  C19  1  0.55676500  0.19831000  0.09494200  1
  C  C20  1  0.25606900  0.56762300  0.68779200  1
  C  C21  1  0.74393100  0.43237700  0.18779200  1
  C  C22  1  0.74393100  0.06762300  0.68779200  1
  C  C23  1  0.25606900  0.93237700  0.18779200  1
  C  C24  1  0.27672200  0.26579900  0.50695500  1
  C  C25  1  0.72327800  0.73420100  0.00695500  1
  C  C26  1  0.72327800  0.76579900  0.50695500  1
  C  C27  1  0.27672200  0.23420100  0.00695500  1
  C  C28  1  0.45876700  0.18797800  0.50456100  1
  C  C29  1  0.54123300  0.81202200  0.00456100  1
  C  C30  1  0.54123300  0.68797800  0.50456100  1
  C  C31  1  0.45876700  0.31202200  0.00456100  1
  C  C32  1  0.17289700  0.87943500  0.81702000  1
  C  C33  1  0.82710300  0.12056500  0.31702000  1
  C  C34  1  0.82710300  0.37943500  0.81702000  1
  C  C35  1  0.17289700  0.62056500  0.31702000  1
  C  C36  1  0.51169900  0.19633500  0.91152000  1
  C  C37  1  0.48830100  0.80366500  0.41152000  1
  C  C38  1  0.48830100  0.69633500  0.91152000  1
  C  C39  1  0.51169900  0.30366500  0.41152000  1
  C  C40  1  0.76097200  0.34957600  0.63903100  1
  C  C41  1  0.23902800  0.65042400  0.13903100  1
  C  C42  1  0.23902800  0.84957600  0.63903100  1
  C  C43  1  0.76097200  0.15042400  0.13903100  1
  C  C44  1  0.68988000  0.12889800  0.86835200  1
  C  C45  1  0.31012000  0.87110200  0.36835200  1
  C  C46  1  0.31012000  0.62889800  0.86835200  1
  C  C47  1  0.68988000  0.37110200  0.36835200  1
  Ni  Ni48  1  0.08739400  0.43139400  0.60674100  1
  Ni  Ni49  1  0.91260600  0.56860600  0.10674100  1
  Ni  Ni50  1  0.91260600  0.93139400  0.60674100  1
  Ni  Ni51  1  0.08739400  0.06860600  0.10674100  1
  Ni  Ni52  1  0.05970600  0.05933800  0.88968900  1
  Ni  Ni53  1  0.94029400  0.94066200  0.38968900  1
  Ni  Ni54  1  0.94029400  0.55933800  0.88968900  1
  Ni  Ni55  1  0.05970600  0.44066200  0.38968900  1
  Ni  Ni56  1  0.38817400  0.37966200  0.80713800  1
  Ni  Ni57  1  0.61182600  0.62033800  0.30713800  1
  Ni  Ni58  1  0.61182600  0.87966200  0.80713800  1
  Ni  Ni59  1  0.38817400  0.12033800  0.30713800  1
  Ni  Ni60  1  0.25988800  0.16559800  0.70020800  1
  Ni  Ni61  1  0.74011200  0.83440200  0.20020800  1
  Ni  Ni62  1  0.74011200  0.66559800  0.70020800  1
  Ni  Ni63  1  0.25988800  0.33440200  0.20020800  1
  Ni  Ni64  1  0.38777300  0.01198100  0.51030600  1
  Ni  Ni65  1  0.61222700  0.98801900  0.01030600  1
  Ni  Ni66  1  0.61222700  0.51198100  0.51030600  1
  Ni  Ni67  1  0.38777300  0.48801900  0.01030600  1
  Ni  Ni68  1  0.07376400  0.67454700  0.50081900  1
  Ni  Ni69  1  0.92623600  0.32545300  0.00081900  1
  Ni  Ni70  1  0.92623600  0.17454700  0.50081900  1
  Ni  Ni71  1  0.07376400  0.82545300  0.00081900  1
  Cu  Cu72  1  0.23623900  0.62632700  0.72206800  1
  Cu  Cu73  1  0.76376100  0.37367300  0.22206800  1
  Cu  Cu74  1  0.76376100  0.12632700  0.72206800  1
  Cu  Cu75  1  0.23623900  0.87367300  0.22206800  1
  Cu  Cu76  1  0.43212800  0.26092000  0.50313900  1
  Cu  Cu77  1  0.56787200  0.73908000  0.00313900  1
  Cu  Cu78  1  0.56787200  0.76092000  0.50313900  1
  Cu  Cu79  1  0.43212800  0.23908000  0.00313900  1
  Cu  Cu80  1  0.56499700  0.17101100  0.85932400  1
  Cu  Cu81  1  0.43500300  0.82898900  0.35932400  1
  Cu  Cu82  1  0.43500300  0.67101100  0.85932400  1
  Cu  Cu83  1  0.56499700  0.32898900  0.35932400  1
  Cu  Cu84  1  0.14965200  0.81855400  0.78583500  1
  Cu  Cu85  1  0.85034800  0.18144600  0.28583500  1
  Cu  Cu86  1  0.85034800  0.31855400  0.78583500  1
  Cu  Cu87  1  0.14965200  0.68144600  0.28583500  1
  Cu  Cu88  1  0.62582400  0.31420400  0.64680600  1
  Cu  Cu89  1  0.37417600  0.68579600  0.14680600  1
  Cu  Cu90  1  0.37417600  0.81420400  0.64680600  1
  Cu  Cu91  1  0.62582400  0.18579600  0.14680600  1
