# generated using pymatgen
data_Cu3(NiC10)2
_symmetry_space_group_name_H-M   'P 1'
_cell_length_a   11.57823828
_cell_length_b   11.57823828
_cell_length_c   11.57823858
_cell_angle_alpha   27.47617396
_cell_angle_beta   27.47617396
_cell_angle_gamma   27.47616924
_symmetry_Int_Tables_number   1
_chemical_formula_structural   Cu3(NiC10)2
_chemical_formula_sum   'Cu3 Ni2 C20'
_cell_volume   291.61564151
_cell_formula_units_Z   1
loop_
 _symmetry_equiv_pos_site_id
 _symmetry_equiv_pos_as_xyz
  1  'x, y, z'
loop_
 _atom_site_type_symbol
 _atom_site_label
 _atom_site_symmetry_multiplicity
 _atom_site_fract_x
 _atom_site_fract_y
 _atom_site_fract_z
 _atom_site_occupancy
  Ni  Ni0  1  0.70016300  0.70016300  0.70016300  1
  Ni  Ni1  1  0.50010000  0.50010000  0.50010000  1
  Cu  Cu2  1  0.09981300  0.09981300  0.09981300  1
  Cu  Cu3  1  0.89956400  0.89956400  0.89956400  1
  Cu  Cu4  1  0.29925700  0.29925700  0.29925700  1
  C  C5  1  0.39962700  0.39962700  0.39962700  1
  C  C6  1  0.80007000  0.80007000  0.80007000  1
  C  C7  1  0.19848100  0.19848100  0.19848100  1
  C  C8  1  0.59996600  0.59996600  0.59996600  1
  C  C9  1  0.99980100  0.99980100  0.99980100  1
  C  C10  1  0.99759000  0.99759000  0.50627200  1
  C  C11  1  0.80451900  0.80451900  0.28687400  1
  C  C12  1  0.19574700  0.19574700  0.70628500  1
  C  C13  1  0.60339500  0.60339500  0.09554200  1
  C  C14  1  0.39837100  0.39837100  0.90894200  1
  C  C15  1  0.50627200  0.99759000  0.99759000  1
  C  C16  1  0.28687400  0.80451900  0.80451900  1
  C  C17  1  0.70628500  0.19574700  0.19574700  1
  C  C18  1  0.09554200  0.60339500  0.60339500  1
  C  C19  1  0.90894200  0.39837100  0.39837100  1
  C  C20  1  0.60339500  0.09554200  0.60339500  1
  C  C21  1  0.39837100  0.90894200  0.39837100  1
  C  C22  1  0.80451900  0.28687400  0.80451900  1
  C  C23  1  0.19574700  0.70628500  0.19574700  1
  C  C24  1  0.99759000  0.50627200  0.99759000  1
