# generated using pymatgen
data_Cu6NiC
_symmetry_space_group_name_H-M   'P 1'
_cell_length_a   6.13320810
_cell_length_b   6.13320810
_cell_length_c   7.68692758
_cell_angle_alpha   79.43991665
_cell_angle_beta   79.43991665
_cell_angle_gamma   75.47691600
_symmetry_Int_Tables_number   1
_chemical_formula_structural   Cu6NiC
_chemical_formula_sum   'Cu12 Ni2 C2'
_cell_volume   272.29373574
_cell_formula_units_Z   2
loop_
 _symmetry_equiv_pos_site_id
 _symmetry_equiv_pos_as_xyz
  1  'x, y, z'
loop_
 _atom_site_type_symbol
 _atom_site_label
 _atom_site_symmetry_multiplicity
 _atom_site_fract_x
 _atom_site_fract_y
 _atom_site_fract_z
 _atom_site_occupancy
  C  C0  1  0.81280000  0.81280000  0.43145500  1
  C  C1  1  0.18720000  0.18720000  0.56854500  1
  Ni  Ni2  1  0.72153400  0.72153400  0.12660700  1
  Ni  Ni3  1  0.27846600  0.27846600  0.87339300  1
  Cu  Cu4  1  0.03773200  0.03773200  0.40047900  1
  Cu  Cu5  1  0.96226800  0.96226800  0.59952100  1
  Cu  Cu6  1  0.91021600  0.48371100  0.58222500  1
  Cu  Cu7  1  0.48371100  0.91021600  0.58222500  1
  Cu  Cu8  1  0.08978400  0.51628900  0.41777500  1
  Cu  Cu9  1  0.51628900  0.08978400  0.41777500  1
  Cu  Cu10  1  0.63503400  0.63503400  0.28345700  1
  Cu  Cu11  1  0.36496600  0.36496600  0.71654300  1
  Cu  Cu12  1  0.85578400  0.85578400  0.13299600  1
  Cu  Cu13  1  0.14421600  0.14421600  0.86700400  1
  Cu  Cu14  1  0.68322000  0.68322000  0.98740300  1
  Cu  Cu15  1  0.31678000  0.31678000  0.01259700  1
