# generated using pymatgen
data_CuNi3C2
_symmetry_space_group_name_H-M   'P 1'
_cell_length_a   9.71801600
_cell_length_b   11.22139922
_cell_length_c   11.22139894
_cell_angle_alpha   90.00000123
_cell_angle_beta   125.26439157
_cell_angle_gamma   54.73560945
_symmetry_Int_Tables_number   1
_chemical_formula_structural   CuNi3C2
_chemical_formula_sum   'Cu8 Ni24 C16'
_cell_volume   706.49806741
_cell_formula_units_Z   8
loop_
 _symmetry_equiv_pos_site_id
 _symmetry_equiv_pos_as_xyz
  1  'x, y, z'
loop_
 _atom_site_type_symbol
 _atom_site_label
 _atom_site_symmetry_multiplicity
 _atom_site_fract_x
 _atom_site_fract_y
 _atom_site_fract_z
 _atom_site_occupancy
  Ni  Ni0  1  0.20572100  0.05523200  0.97294100  1
  Ni  Ni1  1  0.79427900  0.76095200  0.52705900  1
  Ni  Ni2  1  0.79427900  0.44476800  0.76722000  1
  Ni  Ni3  1  0.20572100  0.73904800  0.73278000  1
  Ni  Ni4  1  0.25983800  0.76722000  0.28801100  1
  Ni  Ni5  1  0.74016200  0.73278000  0.02817300  1
  Ni  Ni6  1  0.25983800  0.97294100  0.47182700  1
  Ni  Ni7  1  0.74016200  0.52705900  0.21198900  1
  Ni  Ni8  1  0.68381600  0.02817300  0.73904800  1
  Ni  Ni9  1  0.68381600  0.28801100  0.44476800  1
  Ni  Ni10  1  0.31618400  0.21198900  0.76095200  1
  Ni  Ni11  1  0.31618400  0.47182700  0.05523200  1
  Ni  Ni12  1  0.79427900  0.94476800  0.02705900  1
  Ni  Ni13  1  0.20572100  0.23904800  0.47294100  1
  Ni  Ni14  1  0.20572100  0.55523200  0.23278000  1
  Ni  Ni15  1  0.79427900  0.26095200  0.26722000  1
  Ni  Ni16  1  0.74016200  0.23278000  0.71198900  1
  Ni  Ni17  1  0.25983800  0.26722000  0.97182700  1
  Ni  Ni18  1  0.74016200  0.02705900  0.52817300  1
  Ni  Ni19  1  0.25983800  0.47294100  0.78801100  1
  Ni  Ni20  1  0.31618400  0.97182700  0.26095200  1
  Ni  Ni21  1  0.31618400  0.71198900  0.55523200  1
  Ni  Ni22  1  0.68381600  0.78801100  0.23904800  1
  Ni  Ni23  1  0.68381600  0.52817300  0.94476800  1
  Cu  Cu24  1  0.22163600  0.00000000  0.72163600  1
  Cu  Cu25  1  0.77836400  0.72163600  0.77836400  1
  Cu  Cu26  1  0.77836400  0.50000000  0.50000000  1
  Cu  Cu27  1  0.22163600  0.77836400  0.00000000  1
  Cu  Cu28  1  0.77836400  0.00000000  0.27836400  1
  Cu  Cu29  1  0.22163600  0.27836400  0.22163600  1
  Cu  Cu30  1  0.22163600  0.50000000  0.50000000  1
  Cu  Cu31  1  0.77836400  0.22163600  0.00000000  1
  C  C32  1  0.00000000  0.00000000  0.50000000  1
  C  C33  1  0.00000000  0.50000000  0.00000000  1
  C  C34  1  0.00000000  0.50000000  0.50000000  1
  C  C35  1  0.00000000  0.00000000  0.00000000  1
  C  C36  1  0.50000000  0.94457200  0.75000000  1
  C  C37  1  0.50000000  0.55542800  0.25000000  1
  C  C38  1  0.00000000  0.25000000  0.69457200  1
  C  C39  1  0.00000000  0.75000000  0.80542800  1
  C  C40  1  0.61085600  0.69457200  0.55542800  1
  C  C41  1  0.38914400  0.80542800  0.94457200  1
  C  C42  1  0.50000000  0.05542800  0.25000000  1
  C  C43  1  0.50000000  0.44457200  0.75000000  1
  C  C44  1  0.00000000  0.75000000  0.30542800  1
  C  C45  1  0.00000000  0.25000000  0.19457200  1
  C  C46  1  0.38914400  0.30542800  0.44457200  1
  C  C47  1  0.61085600  0.19457200  0.05542800  1
