# generated using pymatgen
data_Cu(NiC6)2
_symmetry_space_group_name_H-M   'P 1'
_cell_length_a   5.53925649
_cell_length_b   5.53925649
_cell_length_c   13.50441192
_cell_angle_alpha   88.76048650
_cell_angle_beta   88.76048650
_cell_angle_gamma   59.05490346
_symmetry_Int_Tables_number   1
_chemical_formula_structural   Cu(NiC6)2
_chemical_formula_sum   'Cu2 Ni4 C24'
_cell_volume   355.27099649
_cell_formula_units_Z   2
loop_
 _symmetry_equiv_pos_site_id
 _symmetry_equiv_pos_as_xyz
  1  'x, y, z'
loop_
 _atom_site_type_symbol
 _atom_site_label
 _atom_site_symmetry_multiplicity
 _atom_site_fract_x
 _atom_site_fract_y
 _atom_site_fract_z
 _atom_site_occupancy
  Ni  Ni0  1  0.83136200  0.83477300  0.91720100  1
  Ni  Ni1  1  0.16522700  0.16863800  0.58279900  1
  Ni  Ni2  1  0.83477300  0.83136200  0.41720100  1
  Ni  Ni3  1  0.16863800  0.16522700  0.08279900  1
  Cu  Cu4  1  0.50464500  0.49535500  0.25000000  1
  Cu  Cu5  1  0.49535500  0.50464500  0.75000000  1
  C  C6  1  0.83282600  0.83324000  0.66603700  1
  C  C7  1  0.16717400  0.16676000  0.33396300  1
  C  C8  1  0.50000000  0.50000000  0.00000000  1
  C  C9  1  0.16676000  0.16717400  0.83396300  1
  C  C10  1  0.50000000  0.50000000  0.50000000  1
  C  C11  1  0.83324000  0.83282600  0.16603700  1
  C  C12  1  0.19933600  0.61245500  0.10040200  1
  C  C13  1  0.52286000  0.93681000  0.76157700  1
  C  C14  1  0.85596900  0.28500300  0.42753100  1
  C  C15  1  0.80066400  0.38754500  0.89959800  1
  C  C16  1  0.14403100  0.71499700  0.57246900  1
  C  C17  1  0.47714000  0.06319000  0.23842300  1
  C  C18  1  0.61245500  0.19933600  0.60040200  1
  C  C19  1  0.93681000  0.52286000  0.26157700  1
  C  C20  1  0.28500300  0.85596900  0.92753100  1
  C  C21  1  0.71499700  0.14403100  0.07246900  1
  C  C22  1  0.06319000  0.47714000  0.73842300  1
  C  C23  1  0.38754500  0.80066400  0.39959800  1
  C  C24  1  0.33693900  0.33620900  0.91149900  1
  C  C25  1  0.66379100  0.66306100  0.58850100  1
  C  C26  1  0.00704700  0.99295300  0.25000000  1
  C  C27  1  0.99295300  0.00704700  0.75000000  1
  C  C28  1  0.33620900  0.33693900  0.41149900  1
  C  C29  1  0.66306100  0.66379100  0.08850100  1
