# generated using pymatgen
data_Cu2Ni2C3
_symmetry_space_group_name_H-M   'P 1'
_cell_length_a   8.11328527
_cell_length_b   8.11328527
_cell_length_c   6.33734200
_cell_angle_alpha   90.00000000
_cell_angle_beta   90.00000000
_cell_angle_gamma   134.01552903
_symmetry_Int_Tables_number   1
_chemical_formula_structural   Cu2Ni2C3
_chemical_formula_sum   'Cu4 Ni4 C6'
_cell_volume   299.99984290
_cell_formula_units_Z   2
loop_
 _symmetry_equiv_pos_site_id
 _symmetry_equiv_pos_as_xyz
  1  'x, y, z'
loop_
 _atom_site_type_symbol
 _atom_site_label
 _atom_site_symmetry_multiplicity
 _atom_site_fract_x
 _atom_site_fract_y
 _atom_site_fract_z
 _atom_site_occupancy
  C  C0  1  0.12340400  0.87659600  0.50000000  1
  C  C1  1  0.62340400  0.37659600  0.00000000  1
  C  C2  1  0.87659600  0.12340400  0.50000000  1
  C  C3  1  0.37659600  0.62340400  0.00000000  1
  C  C4  1  0.00000000  0.00000000  0.00000000  1
  C  C5  1  0.50000000  0.50000000  0.50000000  1
  Ni  Ni6  1  0.15615700  0.84384300  0.00000000  1
  Ni  Ni7  1  0.84384300  0.15615700  0.00000000  1
  Ni  Ni8  1  0.65615700  0.34384300  0.50000000  1
  Ni  Ni9  1  0.34384300  0.65615700  0.50000000  1
  Cu  Cu10  1  0.21416500  0.21416500  0.21419700  1
  Cu  Cu11  1  0.78583500  0.78583500  0.78580300  1
  Cu  Cu12  1  0.71416500  0.71416500  0.28580300  1
  Cu  Cu13  1  0.28583500  0.28583500  0.71419700  1
