# generated using pymatgen
data_Cu(Ni2C3)3
_symmetry_space_group_name_H-M   'P 1'
_cell_length_a   5.20345506
_cell_length_b   5.20345506
_cell_length_c   14.53200000
_cell_angle_alpha   90.00000000
_cell_angle_beta   90.00000000
_cell_angle_gamma   119.99998807
_symmetry_Int_Tables_number   1
_chemical_formula_structural   Cu(Ni2C3)3
_chemical_formula_sum   'Cu2 Ni12 C18'
_cell_volume   340.75300119
_cell_formula_units_Z   2
loop_
 _symmetry_equiv_pos_site_id
 _symmetry_equiv_pos_as_xyz
  1  'x, y, z'
loop_
 _atom_site_type_symbol
 _atom_site_label
 _atom_site_symmetry_multiplicity
 _atom_site_fract_x
 _atom_site_fract_y
 _atom_site_fract_z
 _atom_site_occupancy
  C  C0  1  0.00000000  0.00000000  0.00000000  1
  C  C1  1  0.00000000  0.00000000  0.50000000  1
  C  C2  1  0.66666700  0.33333300  0.00000000  1
  C  C3  1  0.33333300  0.66666700  0.00000000  1
  C  C4  1  0.33333300  0.66666700  0.50000000  1
  C  C5  1  0.66666700  0.33333300  0.50000000  1
  Ni  Ni6  1  0.31450000  0.00000000  0.36823100  1
  Ni  Ni7  1  0.00000000  0.31450000  0.36823100  1
  Ni  Ni8  1  0.68550000  0.68550000  0.36823100  1
  Ni  Ni9  1  0.68550000  0.00000000  0.63176900  1
  Ni  Ni10  1  0.00000000  0.68550000  0.63176900  1
  Ni  Ni11  1  0.31450000  0.31450000  0.63176900  1
  Ni  Ni12  1  0.68550000  0.00000000  0.86823100  1
  Ni  Ni13  1  0.00000000  0.68550000  0.86823100  1
  Ni  Ni14  1  0.31450000  0.31450000  0.86823100  1
  Ni  Ni15  1  0.31450000  0.00000000  0.13176900  1
  Ni  Ni16  1  0.00000000  0.31450000  0.13176900  1
  Ni  Ni17  1  0.68550000  0.68550000  0.13176900  1
  Cu  Cu18  1  0.00000000  0.00000000  0.75000000  1
  Cu  Cu19  1  0.00000000  0.00000000  0.25000000  1
  C  C20  1  0.36911400  0.00000000  0.43303000  1
  C  C21  1  0.00000000  0.36911400  0.43303000  1
  C  C22  1  0.63088600  0.63088600  0.43303000  1
  C  C23  1  0.63088600  0.00000000  0.56697000  1
  C  C24  1  0.00000000  0.63088600  0.56697000  1
  C  C25  1  0.36911400  0.36911400  0.56697000  1
  C  C26  1  0.63088600  0.00000000  0.93303000  1
  C  C27  1  0.00000000  0.63088600  0.93303000  1
  C  C28  1  0.36911400  0.36911400  0.93303000  1
  C  C29  1  0.36911400  0.00000000  0.06697000  1
  C  C30  1  0.00000000  0.36911400  0.06697000  1
  C  C31  1  0.63088600  0.63088600  0.06697000  1
