# generated using pymatgen
data_CuNiC14
_symmetry_space_group_name_H-M   'P 1'
_cell_length_a   7.23679700
_cell_length_b   7.23679700
_cell_length_c   14.86892400
_cell_angle_alpha   90.00000000
_cell_angle_beta   90.00000000
_cell_angle_gamma   90.00000000
_symmetry_Int_Tables_number   1
_chemical_formula_structural   CuNiC14
_chemical_formula_sum   'Cu4 Ni4 C56'
_cell_volume   778.70385084
_cell_formula_units_Z   4
loop_
 _symmetry_equiv_pos_site_id
 _symmetry_equiv_pos_as_xyz
  1  'x, y, z'
loop_
 _atom_site_type_symbol
 _atom_site_label
 _atom_site_symmetry_multiplicity
 _atom_site_fract_x
 _atom_site_fract_y
 _atom_site_fract_z
 _atom_site_occupancy
  Ni  Ni0  1  0.50000000  0.50000000  0.50000000  1
  Ni  Ni1  1  0.00000000  0.00000000  0.50000000  1
  Ni  Ni2  1  0.00000000  0.00000000  0.00000000  1
  Ni  Ni3  1  0.50000000  0.50000000  0.00000000  1
  Cu  Cu4  1  0.50000000  0.00000000  0.57272500  1
  Cu  Cu5  1  0.00000000  0.50000000  0.92727500  1
  Cu  Cu6  1  0.00000000  0.50000000  0.42727500  1
  Cu  Cu7  1  0.50000000  0.00000000  0.07272500  1
  C  C8  1  0.16874200  0.24244900  0.64393000  1
  C  C9  1  0.83125800  0.75755100  0.64393000  1
  C  C10  1  0.24244900  0.16874200  0.85607000  1
  C  C11  1  0.74244900  0.33125800  0.64393000  1
  C  C12  1  0.25755100  0.66874200  0.64393000  1
  C  C13  1  0.33125800  0.74244900  0.85607000  1
  C  C14  1  0.66874200  0.25755100  0.85607000  1
  C  C15  1  0.75755100  0.83125800  0.85607000  1
  C  C16  1  0.33125800  0.25755100  0.35607000  1
  C  C17  1  0.66874200  0.74244900  0.35607000  1
  C  C18  1  0.25755100  0.33125800  0.14393000  1
  C  C19  1  0.75755100  0.16874200  0.35607000  1
  C  C20  1  0.24244900  0.83125800  0.35607000  1
  C  C21  1  0.16874200  0.75755100  0.14393000  1
  C  C22  1  0.83125800  0.24244900  0.14393000  1
  C  C23  1  0.74244900  0.66874200  0.14393000  1
  C  C24  1  0.23952400  0.08407400  0.57530100  1
  C  C25  1  0.76047600  0.91592600  0.57530100  1
  C  C26  1  0.08407400  0.23952400  0.92469900  1
  C  C27  1  0.58407400  0.26047600  0.57530100  1
  C  C28  1  0.41592600  0.73952400  0.57530100  1
  C  C29  1  0.26047600  0.58407400  0.92469900  1
  C  C30  1  0.73952400  0.41592600  0.92469900  1
  C  C31  1  0.91592600  0.76047600  0.92469900  1
  C  C32  1  0.26047600  0.41592600  0.42469900  1
  C  C33  1  0.73952400  0.58407400  0.42469900  1
  C  C34  1  0.41592600  0.26047600  0.07530100  1
  C  C35  1  0.91592600  0.23952400  0.42469900  1
  C  C36  1  0.08407400  0.76047600  0.42469900  1
  C  C37  1  0.23952400  0.91592600  0.07530100  1
  C  C38  1  0.76047600  0.08407400  0.07530100  1
  C  C39  1  0.24605400  0.05335300  0.37748000  1
  C  C40  1  0.58407400  0.73952400  0.07530100  1
  C  C41  1  0.74605400  0.55335300  0.62252000  1
  C  C42  1  0.44664700  0.25394600  0.87748000  1
  C  C43  1  0.94664700  0.24605400  0.62252000  1
  C  C44  1  0.05335300  0.75394600  0.62252000  1
  C  C45  1  0.24605400  0.94664700  0.87748000  1
  C  C46  1  0.75394600  0.05335300  0.87748000  1
  C  C47  1  0.55335300  0.74605400  0.87748000  1
  C  C48  1  0.70024300  0.70024300  0.25000000  1
  C  C49  1  0.79975700  0.20024300  0.25000000  1
  C  C50  1  0.20024300  0.79975700  0.25000000  1
  C  C51  1  0.29975700  0.29975700  0.25000000  1
  C  C52  1  0.79975700  0.79975700  0.75000000  1
  C  C53  1  0.70024300  0.29975700  0.75000000  1
  C  C54  1  0.29975700  0.70024300  0.75000000  1
  C  C55  1  0.20024300  0.20024300  0.75000000  1
  C  C56  1  0.94664700  0.75394600  0.12252000  1
  C  C57  1  0.74605400  0.44664700  0.12252000  1
  C  C58  1  0.25394600  0.55335300  0.12252000  1
  C  C59  1  0.44664700  0.74605400  0.37748000  1
  C  C60  1  0.55335300  0.25394600  0.37748000  1
  C  C61  1  0.05335300  0.24605400  0.12252000  1
  C  C62  1  0.75394600  0.94664700  0.37748000  1
  C  C63  1  0.25394600  0.44664700  0.62252000  1
