# generated using pymatgen
data_Cu10Ni2C5
_symmetry_space_group_name_H-M   'P 1'
_cell_length_a   13.31929684
_cell_length_b   10.01401289
_cell_length_c   9.95547476
_cell_angle_alpha   83.66863039
_cell_angle_beta   48.35330598
_cell_angle_gamma   47.97806362
_symmetry_Int_Tables_number   1
_chemical_formula_structural   Cu10Ni2C5
_chemical_formula_sum   'Cu20 Ni4 C10'
_cell_volume   588.21166893
_cell_formula_units_Z   2
loop_
 _symmetry_equiv_pos_site_id
 _symmetry_equiv_pos_as_xyz
  1  'x, y, z'
loop_
 _atom_site_type_symbol
 _atom_site_label
 _atom_site_symmetry_multiplicity
 _atom_site_fract_x
 _atom_site_fract_y
 _atom_site_fract_z
 _atom_site_occupancy
  C  C0  1  0.93872400  0.75459600  0.63591800  1
  C  C1  1  0.67076300  0.63591800  0.75459600  1
  C  C2  1  0.61408200  0.57923700  0.31127600  1
  C  C3  1  0.49540400  0.31127600  0.57923700  1
  C  C4  1  0.19467600  0.30532400  0.30532400  1
  C  C5  1  0.94467600  0.05532400  0.05532400  1
  C  C6  1  0.17740500  0.75342300  0.62342800  1
  C  C7  1  0.44574300  0.62342800  0.75342300  1
  C  C8  1  0.62657200  0.80425700  0.07259500  1
  C  C9  1  0.49657700  0.07259500  0.80425700  1
  Ni  Ni10  1  0.55193700  0.33776200  0.03031600  1
  Ni  Ni11  1  0.07998500  0.03031600  0.33776200  1
  Ni  Ni12  1  0.21968400  0.17001500  0.69806300  1
  Ni  Ni13  1  0.91223800  0.69806300  0.17001500  1
  Cu  Cu14  1  0.13449000  0.50023000  0.39958600  1
  Cu  Cu15  1  0.96569400  0.39958600  0.50023000  1
  Cu  Cu16  1  0.85041400  0.28430600  0.11551000  1
  Cu  Cu17  1  0.74977000  0.11551000  0.28430600  1
  Cu  Cu18  1  0.04754800  0.81518100  0.59680100  1
  Cu  Cu19  1  0.54047000  0.59680100  0.81518100  1
  Cu  Cu20  1  0.65319900  0.70953000  0.20245200  1
  Cu  Cu21  1  0.43481900  0.20245200  0.70953000  1
  Cu  Cu22  1  0.83633700  0.73726000  0.86295400  1
  Cu  Cu23  1  0.56344900  0.86295400  0.73726000  1
  Cu  Cu24  1  0.38704600  0.68655100  0.41366300  1
  Cu  Cu25  1  0.51274000  0.41366300  0.68655100  1
  Cu  Cu26  1  0.29058200  0.53306400  0.62235700  1
  Cu  Cu27  1  0.55399700  0.62235700  0.53306400  1
  Cu  Cu28  1  0.62764300  0.69600300  0.95941800  1
  Cu  Cu29  1  0.71693600  0.95941800  0.69600300  1
  Cu  Cu30  1  0.99889400  0.96960800  0.86139200  1
  Cu  Cu31  1  0.17010600  0.86139200  0.96960800  1
  Cu  Cu32  1  0.38860800  0.07989400  0.25110600  1
  Cu  Cu33  1  0.28039200  0.25110600  0.07989400  1
