# generated using pymatgen
data_Cu10Ni2C11
_symmetry_space_group_name_H-M   'P 1'
_cell_length_a   13.12998400
_cell_length_b   13.12998400
_cell_length_c   3.10476300
_cell_angle_alpha   90.00000000
_cell_angle_beta   90.00000000
_cell_angle_gamma   90.00000000
_symmetry_Int_Tables_number   1
_chemical_formula_structural   Cu10Ni2C11
_chemical_formula_sum   'Cu20 Ni4 C22'
_cell_volume   535.25021194
_cell_formula_units_Z   2
loop_
 _symmetry_equiv_pos_site_id
 _symmetry_equiv_pos_as_xyz
  1  'x, y, z'
loop_
 _atom_site_type_symbol
 _atom_site_label
 _atom_site_symmetry_multiplicity
 _atom_site_fract_x
 _atom_site_fract_y
 _atom_site_fract_z
 _atom_site_occupancy
  C  C0  1  0.50000000  0.50000000  0.50000000  1
  C  C1  1  0.00000000  0.00000000  0.00000000  1
  C  C2  1  0.99408800  0.78858000  0.50000000  1
  C  C3  1  0.00591200  0.21142000  0.50000000  1
  C  C4  1  0.50591200  0.28858000  0.00000000  1
  C  C5  1  0.49408800  0.71142000  0.00000000  1
  C  C6  1  0.78858000  0.99408800  0.50000000  1
  C  C7  1  0.21142000  0.00591200  0.50000000  1
  C  C8  1  0.28858000  0.50591200  0.00000000  1
  C  C9  1  0.71142000  0.49408800  0.00000000  1
  C  C10  1  0.66261300  0.66261300  0.50000000  1
  C  C11  1  0.33738700  0.33738700  0.50000000  1
  C  C12  1  0.83738700  0.16261300  0.00000000  1
  C  C13  1  0.16261300  0.83738700  0.00000000  1
  C  C14  1  0.39013200  0.90811900  0.50000000  1
  C  C15  1  0.60986800  0.09188100  0.50000000  1
  C  C16  1  0.10986800  0.40811900  0.00000000  1
  C  C17  1  0.89013200  0.59188100  0.00000000  1
  C  C18  1  0.90811900  0.39013200  0.50000000  1
  C  C19  1  0.09188100  0.60986800  0.50000000  1
  C  C20  1  0.40811900  0.10986800  0.00000000  1
  C  C21  1  0.59188100  0.89013200  0.00000000  1
  Ni  Ni22  1  0.30530800  0.69469200  0.50000000  1
  Ni  Ni23  1  0.69469200  0.30530800  0.50000000  1
  Ni  Ni24  1  0.19469200  0.19469200  0.00000000  1
  Ni  Ni25  1  0.80530800  0.80530800  0.00000000  1
  Cu  Cu26  1  0.08440900  0.91559100  0.50000000  1
  Cu  Cu27  1  0.91559100  0.08440900  0.50000000  1
  Cu  Cu28  1  0.41559100  0.41559100  0.00000000  1
  Cu  Cu29  1  0.58440900  0.58440900  0.00000000  1
  Cu  Cu30  1  0.48737800  0.17883100  0.50000000  1
  Cu  Cu31  1  0.51262200  0.82116900  0.50000000  1
  Cu  Cu32  1  0.01262200  0.67883100  0.00000000  1
  Cu  Cu33  1  0.98737800  0.32116900  0.00000000  1
  Cu  Cu34  1  0.17883100  0.48737800  0.50000000  1
  Cu  Cu35  1  0.82116900  0.51262200  0.50000000  1
  Cu  Cu36  1  0.67883100  0.01262200  0.00000000  1
  Cu  Cu37  1  0.32116900  0.98737800  0.00000000  1
  Cu  Cu38  1  0.23886900  0.76113100  0.50000000  1
  Cu  Cu39  1  0.76113100  0.23886900  0.50000000  1
  Cu  Cu40  1  0.26113100  0.26113100  0.00000000  1
  Cu  Cu41  1  0.73886900  0.73886900  0.00000000  1
  Cu  Cu42  1  0.37166300  0.62833700  0.50000000  1
  Cu  Cu43  1  0.62833700  0.37166300  0.50000000  1
  Cu  Cu44  1  0.12833700  0.12833700  0.00000000  1
  Cu  Cu45  1  0.87166300  0.87166300  0.00000000  1
