# generated using pymatgen
data_Cu7NiC2
_symmetry_space_group_name_H-M   'P 1'
_cell_length_a   6.13000043
_cell_length_b   8.69030000
_cell_length_c   12.45282166
_cell_angle_alpha   90.00000000
_cell_angle_beta   104.70238090
_cell_angle_gamma   90.00000000
_symmetry_Int_Tables_number   1
_chemical_formula_structural   Cu7NiC2
_chemical_formula_sum   'Cu28 Ni4 C8'
_cell_volume   641.66007381
_cell_formula_units_Z   4
loop_
 _symmetry_equiv_pos_site_id
 _symmetry_equiv_pos_as_xyz
  1  'x, y, z'
loop_
 _atom_site_type_symbol
 _atom_site_label
 _atom_site_symmetry_multiplicity
 _atom_site_fract_x
 _atom_site_fract_y
 _atom_site_fract_z
 _atom_site_occupancy
  C  C0  1  0.87009500  0.21497000  0.89452800  1
  C  C1  1  0.37009500  0.28503000  0.39452800  1
  C  C2  1  0.12990500  0.78503000  0.10547200  1
  C  C3  1  0.62990500  0.71497000  0.60547200  1
  C  C4  1  0.66696000  0.12094300  0.63362100  1
  C  C5  1  0.16696000  0.37905700  0.13362100  1
  C  C6  1  0.33304000  0.87905700  0.36637900  1
  C  C7  1  0.83304000  0.62094300  0.86637900  1
  Ni  Ni8  1  0.17066100  0.47657900  0.76228600  1
  Ni  Ni9  1  0.67066100  0.02342100  0.26228600  1
  Ni  Ni10  1  0.82933900  0.52342100  0.23771400  1
  Ni  Ni11  1  0.32933900  0.97657900  0.73771400  1
  Cu  Cu12  1  0.10939100  0.13520500  0.87076200  1
  Cu  Cu13  1  0.60939100  0.36479500  0.37076200  1
  Cu  Cu14  1  0.89060900  0.86479500  0.12923800  1
  Cu  Cu15  1  0.39060900  0.63520500  0.62923800  1
  Cu  Cu16  1  0.72312800  0.06756800  0.93528800  1
  Cu  Cu17  1  0.22312800  0.43243200  0.43528800  1
  Cu  Cu18  1  0.27687200  0.93243200  0.06471200  1
  Cu  Cu19  1  0.77687200  0.56756800  0.56471200  1
  Cu  Cu20  1  0.46423200  0.19065200  0.54347900  1
  Cu  Cu21  1  0.96423200  0.30934800  0.04347900  1
  Cu  Cu22  1  0.53576800  0.80934800  0.45652100  1
  Cu  Cu23  1  0.03576800  0.69065200  0.95652100  1
  Cu  Cu24  1  0.66519200  0.21833300  0.74005100  1
  Cu  Cu25  1  0.16519200  0.28166700  0.24005100  1
  Cu  Cu26  1  0.33480800  0.78166700  0.25994900  1
  Cu  Cu27  1  0.83480800  0.71833300  0.75994900  1
  Cu  Cu28  1  0.58610000  0.95310000  0.65694000  1
  Cu  Cu29  1  0.08610000  0.54690000  0.15694000  1
  Cu  Cu30  1  0.41390000  0.04690000  0.34306000  1
  Cu  Cu31  1  0.91390000  0.45310000  0.84306000  1
  Cu  Cu32  1  0.88774200  0.11685100  0.60367800  1
  Cu  Cu33  1  0.38774200  0.38314900  0.10367800  1
  Cu  Cu34  1  0.11225800  0.88314900  0.39632200  1
  Cu  Cu35  1  0.61225800  0.61685100  0.89632200  1
  Cu  Cu36  1  0.32596100  0.41546600  0.81002600  1
  Cu  Cu37  1  0.82596100  0.08453400  0.31002600  1
  Cu  Cu38  1  0.67403900  0.58453400  0.18997400  1
  Cu  Cu39  1  0.17403900  0.91546600  0.68997400  1
