# generated using pymatgen
data_Cu8Ni4C7
_symmetry_space_group_name_H-M   'P 1'
_cell_length_a   5.48622804
_cell_length_b   8.18627159
_cell_length_c   6.07014522
_cell_angle_alpha   96.84076278
_cell_angle_beta   95.14187742
_cell_angle_gamma   79.80826866
_symmetry_Int_Tables_number   1
_chemical_formula_structural   Cu8Ni4C7
_chemical_formula_sum   'Cu8 Ni4 C7'
_cell_volume   265.75284484
_cell_formula_units_Z   1
loop_
 _symmetry_equiv_pos_site_id
 _symmetry_equiv_pos_as_xyz
  1  'x, y, z'
loop_
 _atom_site_type_symbol
 _atom_site_label
 _atom_site_symmetry_multiplicity
 _atom_site_fract_x
 _atom_site_fract_y
 _atom_site_fract_z
 _atom_site_occupancy
  C  C0  1  0.99868400  0.32800100  0.83025600  1
  C  C1  1  0.42176300  0.98958600  0.53294200  1
  C  C2  1  0.67571600  0.68880800  0.15932100  1
  C  C3  1  0.49563900  0.34590000  0.83311500  1
  C  C4  1  0.94700100  0.69052100  0.66219100  1
  C  C5  1  0.00010900  0.32989300  0.33573000  1
  C  C6  1  0.01215900  0.97248600  0.01602300  1
  Ni  Ni7  1  0.79914300  0.79161200  0.92786700  1
  Ni  Ni8  1  0.70540500  0.79779500  0.46902200  1
  Ni  Ni9  1  0.75214200  0.44296700  0.07346100  1
  Ni  Ni10  1  0.25348300  0.23428600  0.59809600  1
  Cu  Cu11  1  0.75655200  0.43931000  0.61118600  1
  Cu  Cu12  1  0.85407500  0.11652800  0.28189400  1
  Cu  Cu13  1  0.79127800  0.14277600  0.79782300  1
  Cu  Cu14  1  0.18032200  0.53424600  0.85769200  1
  Cu  Cu15  1  0.32770300  0.87441800  0.20148300  1
  Cu  Cu16  1  0.11139600  0.56338000  0.40482300  1
  Cu  Cu17  1  0.23006500  0.22607900  0.05978400  1
  Cu  Cu18  1  0.20125000  0.87473900  0.72229100  1
