# generated using pymatgen
data_Cu65(Ni26C15)2
_symmetry_space_group_name_H-M   'P 1'
_cell_length_a   3.98078881
_cell_length_b   13.36663849
_cell_length_c   47.35208077
_cell_angle_alpha   95.44230583
_cell_angle_beta   90.00000000
_cell_angle_gamma   90.00000000
_symmetry_Int_Tables_number   1
_chemical_formula_structural   Cu65(Ni26C15)2
_chemical_formula_sum   'Cu65 Ni52 C30'
_cell_volume   2508.23528058
_cell_formula_units_Z   1
loop_
 _symmetry_equiv_pos_site_id
 _symmetry_equiv_pos_as_xyz
  1  'x, y, z'
loop_
 _atom_site_type_symbol
 _atom_site_label
 _atom_site_symmetry_multiplicity
 _atom_site_fract_x
 _atom_site_fract_y
 _atom_site_fract_z
 _atom_site_occupancy
  C  C0  1  0.50000000  0.83179357  0.17633486  1
  C  C1  1  -0.00000000  0.83185635  0.67631786  1
  C  C2  1  -0.00000000  0.16923940  0.32405776  1
  C  C3  1  0.50000000  0.16813712  0.82363148  1
  C  C4  1  0.50000000  0.78333335  0.46214216  1
  C  C5  1  -0.00000000  0.78401364  0.96226700  1
  C  C6  1  -0.00000000  0.21608820  0.03776282  1
  C  C7  1  0.50000000  0.21712036  0.53684500  1
  C  C8  1  0.50000000  0.51234182  0.19338903  1
  C  C9  1  -0.00000000  0.51250507  0.69331176  1
  C  C10  1  0.00000000  0.48689080  0.30678987  1
  C  C11  1  0.50000000  0.48765587  0.80667969  1
  C  C12  1  0.50000000  0.57871149  0.11055458  1
  C  C13  1  0.00000000  0.57863364  0.61045548  1
  C  C14  1  -0.00000000  0.41485665  0.39189466  1
  C  C15  1  0.50000000  0.42132546  0.88940450  1
  C  C16  1  0.00000000  0.81246948  0.27724426  1
  C  C17  1  0.50000000  0.81262545  0.77719146  1
  C  C18  1  0.50000000  0.18764756  0.22284453  1
  C  C19  1  0.00000000  0.18729306  0.72279626  1
  C  C20  1  0.50000000  0.06937279  0.43711514  1
  C  C21  1  -0.00000000  0.06558144  0.93702591  1
  C  C22  1  0.00000000  0.93424555  0.06301041  1
  C  C23  1  0.50000000  0.93423282  0.56297897  1
  C  C24  1  0.00000000  0.50000995  0.00003184  1
  C  C25  1  0.50000000  0.49906454  0.49971833  1
  C  C26  1  0.50000000  0.82085449  0.37815529  1
  C  C27  1  0.00000000  0.82060208  0.87778631  1
  C  C28  1  0.00000000  0.17943196  0.12223644  1
  C  C29  1  0.50000000  0.17933025  0.62219221  1
  Ni  Ni30  1  0.50000000  0.97969554  0.31763920  1
  Ni  Ni31  1  -0.00000000  0.98001457  0.81748696  1
  Ni  Ni32  1  -0.00000000  0.01970027  0.18246650  1
  Ni  Ni33  1  0.50000000  0.02008057  0.68249389  1
  Ni  Ni34  1  0.00000000  0.99799615  0.38830612  1
  Ni  Ni35  1  0.50000000  0.99604559  0.88793162  1
  Ni  Ni36  1  0.50000000  0.00408711  0.11203538  1
  Ni  Ni37  1  -0.00000000  0.00398536  0.61195718  1
  Ni  Ni38  1  0.50000000  0.48266123  0.43766067  1
  Ni  Ni39  1  -0.00000000  0.48311372  0.93740076  1
  Ni  Ni40  1  -0.00000000  0.51688944  0.06262204  1
  Ni  Ni41  1  0.50000000  0.51698808  0.56248223  1
  Ni  Ni42  1  0.00000000  0.71214288  0.41335573  1
  Ni  Ni43  1  0.50000000  0.71197463  0.91366431  1
  Ni  Ni44  1  0.50000000  0.28798200  0.08628780  1
  Ni  Ni45  1  0.00000000  0.28749294  0.58621700  1
  Ni  Ni46  1  0.50000000  0.88670871  0.23644677  1
  Ni  Ni47  1  0.00000000  0.88654818  0.73644171  1
  Ni  Ni48  1  0.00000000  0.11348366  0.26366557  1
  Ni  Ni49  1  0.50000000  0.11340788  0.76353402  1
  Ni  Ni50  1  0.50000000  0.61034629  0.27473975  1
  Ni  Ni51  1  0.00000000  0.61017982  0.77473952  1
  Ni  Ni52  1  -0.00000000  0.38963585  0.22535568  1
  Ni  Ni53  1  0.50000000  0.38976047  0.72524549  1
  Ni  Ni54  1  -0.00000000  0.95687479  0.47112440  1
  Ni  Ni55  1  0.50000000  0.95592880  0.97133075  1
  Ni  Ni56  1  0.50000000  0.04416099  0.02869344  1
  Ni  Ni57  1  -0.00000000  0.04368517  0.52849069  1
  Ni  Ni58  1  0.50000000  0.53224908  0.35566028  1
  Ni  Ni59  1  -0.00000000  0.53228317  0.85581297  1
  Ni  Ni60  1  -0.00000000  0.46772011  0.14416470  1
  Ni  Ni61  1  0.50000000  0.46771285  0.64418209  1
  Ni  Ni62  1  0.50000000  0.32047602  0.29182383  1
  Ni  Ni63  1  0.00000000  0.32055390  0.79103135  1
  Ni  Ni64  1  -0.00000000  0.67948532  0.20896982  1
  Ni  Ni65  1  0.50000000  0.67950025  0.70899746  1
  Ni  Ni66  1  0.50000000  0.77784918  0.05600110  1
  Ni  Ni67  1  0.00000000  0.77756416  0.55588817  1
  Ni  Ni68  1  -0.00000000  0.22974861  0.44256293  1
  Ni  Ni69  1  0.50000000  0.22224264  0.94398788  1
  Ni  Ni70  1  -0.00000000  0.67640397  0.49512108  1
  Ni  Ni71  1  0.50000000  0.67692224  0.99507769  1
  Ni  Ni72  1  0.50000000  0.32308908  0.00491964  1
  Ni  Ni73  1  -0.00000000  0.32051552  0.50351091  1
  Ni  Ni74  1  0.50000000  0.23866834  0.37444591  1
  Ni  Ni75  1  -0.00000000  0.24183195  0.87292499  1
  Ni  Ni76  1  -0.00000000  0.75818306  0.12705727  1
  Ni  Ni77  1  0.50000000  0.75809480  0.62701839  1
  Ni  Ni78  1  -0.00000000  0.76083936  0.33356634  1
  Ni  Ni79  1  0.50000000  0.76149731  0.83349532  1
  Ni  Ni80  1  0.50000000  0.23839401  0.16650913  1
  Ni  Ni81  1  -0.00000000  0.23863874  0.66654056  1
  Cu  Cu82  1  -0.00000000  0.93640704  0.33906096  1
  Cu  Cu83  1  0.50000000  0.93721107  0.83891699  1
  Cu  Cu84  1  0.50000000  0.06271340  0.16110666  1
  Cu  Cu85  1  0.00000000  0.06289315  0.66102463  1
  Cu  Cu86  1  0.50000000  0.35669368  0.34049451  1
  Cu  Cu87  1  -0.00000000  0.35623597  0.83914010  1
  Cu  Cu88  1  -0.00000000  0.64368350  0.16086323  1
  Cu  Cu89  1  0.50000000  0.64375299  0.66088284  1
  Cu  Cu90  1  0.50000000  0.37251608  0.13664959  1
  Cu  Cu91  1  0.00000000  0.37247879  0.63655249  1
  Cu  Cu92  1  -0.00000000  0.62594464  0.36387040  1
  Cu  Cu93  1  0.50000000  0.62750702  0.86338711  1
  Cu  Cu94  1  0.50000000  0.60752317  0.04515586  1
  Cu  Cu95  1  -0.00000000  0.60690018  0.54480104  1
  Cu  Cu96  1  -0.00000000  0.40041474  0.45529933  1
  Cu  Cu97  1  0.50000000  0.39253548  0.95489573  1
  Cu  Cu98  1  0.50000000  0.61122916  0.40621129  1
  Cu  Cu99  1  -0.00000000  0.61065809  0.90558273  1
  Cu  Cu100  1  0.00000000  0.38934902  0.09445942  1
  Cu  Cu101  1  0.50000000  0.38946664  0.59431920  1
  Cu  Cu102  1  0.00000000  0.94107555  0.13360220  1
  Cu  Cu103  1  0.50000000  0.94104482  0.63361869  1
  Cu  Cu104  1  0.50000000  0.05748432  0.36652844  1
  Cu  Cu105  1  0.00000000  0.05887146  0.86642249  1
  Cu  Cu106  1  0.00000000  0.88919570  0.42416839  1
  Cu  Cu107  1  0.50000000  0.88949731  0.92427157  1
  Cu  Cu108  1  0.50000000  0.11066888  0.07572574  1
  Cu  Cu109  1  -0.00000000  0.11078332  0.57548136  1
  Cu  Cu110  1  -0.00000000  0.60026835  0.44954727  1
  Cu  Cu111  1  0.50000000  0.59979195  0.94978575  1
  Cu  Cu112  1  0.50000000  0.40017448  0.05021622  1
  Cu  Cu113  1  0.00000000  0.39892590  0.55005864  1
  Cu  Cu114  1  0.50000000  0.66890702  0.32266655  1
  Cu  Cu115  1  -0.00000000  0.66960629  0.82254911  1
  Cu  Cu116  1  -0.00000000  0.33043884  0.17749762  1
  Cu  Cu117  1  0.50000000  0.33037037  0.67741360  1
  Cu  Cu118  1  -0.00000000  0.97516868  0.22825501  1
  Cu  Cu119  1  0.50000000  0.97517726  0.72824862  1
  Cu  Cu120  1  0.50000000  0.02461545  0.27180211  1
  Cu  Cu121  1  -0.00000000  0.02482060  0.77173790  1
  Cu  Cu122  1  0.50000000  0.42644034  0.25245526  1
  Cu  Cu123  1  0.00000000  0.42636331  0.75227198  1
  Cu  Cu124  1  -0.00000000  0.57348418  0.24772893  1
  Cu  Cu125  1  0.50000000  0.57346222  0.74770083  1
  Cu  Cu126  1  0.50000000  0.86243692  0.01349116  1
  Cu  Cu127  1  -0.00000000  0.86276236  0.51339391  1
  Cu  Cu128  1  -0.00000000  0.13848601  0.48673850  1
  Cu  Cu129  1  0.50000000  0.13752629  0.98649697  1
  Cu  Cu130  1  0.50000000  0.27522521  0.47438072  1
  Cu  Cu131  1  0.00000000  0.28053340  0.97906133  1
  Cu  Cu132  1  0.00000000  0.71944102  0.02095143  1
  Cu  Cu133  1  0.50000000  0.71987144  0.52091589  1
  Cu  Cu134  1  0.50000000  0.71161466  0.23422141  1
  Cu  Cu135  1  -0.00000000  0.71154518  0.73424198  1
  Cu  Cu136  1  -0.00000000  0.28886485  0.26616522  1
  Cu  Cu137  1  0.50000000  0.28845611  0.76577880  1
  Cu  Cu138  1  -0.00000000  0.99998397  0.00000165  1
  Cu  Cu139  1  0.50000000  0.00058961  0.50033133  1
  Cu  Cu140  1  0.50000000  0.82201834  0.10608592  1
  Cu  Cu141  1  0.00000000  0.82189825  0.60605687  1
  Cu  Cu142  1  -0.00000000  0.17978300  0.39382409  1
  Cu  Cu143  1  0.50000000  0.17798171  0.89397619  1
  Cu  Cu144  1  -0.00000000  0.29899638  0.92072210  1
  Cu  Cu145  1  0.00000000  0.70102102  0.07928580  1
  Cu  Cu146  1  0.50000000  0.70105531  0.57913947  1
