# generated using pymatgen
data_Cu5Ni2C25
_symmetry_space_group_name_H-M   'P 1'
_cell_length_a   6.56235900
_cell_length_b   6.64220127
_cell_length_c   7.77656814
_cell_angle_alpha   74.67246882
_cell_angle_beta   65.25343154
_cell_angle_gamma   71.25291159
_symmetry_Int_Tables_number   1
_chemical_formula_structural   Cu5Ni2C25
_chemical_formula_sum   'Cu5 Ni2 C25'
_cell_volume   288.16931908
_cell_formula_units_Z   1
loop_
 _symmetry_equiv_pos_site_id
 _symmetry_equiv_pos_as_xyz
  1  'x, y, z'
loop_
 _atom_site_type_symbol
 _atom_site_label
 _atom_site_symmetry_multiplicity
 _atom_site_fract_x
 _atom_site_fract_y
 _atom_site_fract_z
 _atom_site_occupancy
  C  C0  1  0.07545100  0.43327900  0.79847400  1
  C  C1  1  0.68477500  0.81404700  0.93713200  1
  C  C2  1  0.31332400  0.19364000  0.06588800  1
  C  C3  1  0.92281200  0.56508200  0.20297800  1
  C  C4  1  0.18831800  0.31707900  0.44213300  1
  C  C5  1  0.81204500  0.68544200  0.55928300  1
  C  C6  1  0.44112300  0.06341500  0.67975900  1
  C  C7  1  0.56130900  0.93069300  0.31396000  1
  C  C8  1  0.49623400  0.50331900  0.50236300  1
  Ni  Ni9  1  0.00257300  0.00023800  0.99689200  1
  Ni  Ni10  1  0.37326600  0.62321600  0.87519200  1
  Cu  Cu11  1  0.74801600  0.25906200  0.73865300  1
  Cu  Cu12  1  0.12856800  0.86810400  0.62030700  1
  Cu  Cu13  1  0.87555600  0.12648900  0.37663900  1
  Cu  Cu14  1  0.25915700  0.73924300  0.25770500  1
  Cu  Cu15  1  0.62413300  0.37341300  0.13390100  1
  C  C16  1  0.08398100  0.14458800  0.73601100  1
  C  C17  1  0.69164300  0.52916400  0.85603700  1
  C  C18  1  0.32588000  0.89259400  0.96750500  1
  C  C19  1  0.96634500  0.25902900  0.08969600  1
  C  C20  1  0.20634300  0.02358000  0.34773000  1
  C  C21  1  0.84380100  0.38896800  0.48036200  1
  C  C22  1  0.44432900  0.77776200  0.61567900  1
  C  C23  1  0.57900300  0.65523400  0.21403300  1
  C  C24  1  0.04586900  0.73135700  0.90901400  1
  C  C25  1  0.68368100  0.09826900  0.01705800  1
  C  C26  1  0.29109700  0.48058000  0.14275000  1
  C  C27  1  0.92442900  0.85464500  0.26191000  1
  C  C28  1  0.14972500  0.60995900  0.52736700  1
  C  C29  1  0.79435600  0.97703900  0.65323300  1
  C  C30  1  0.40812900  0.36456400  0.79327100  1
  C  C31  1  0.55473000  0.21690700  0.38708400  1
