# generated using pymatgen
data_Cu4Ni8C9
_symmetry_space_group_name_H-M   'P 1'
_cell_length_a   5.80777869
_cell_length_b   5.87398775
_cell_length_c   11.02283296
_cell_angle_alpha   89.08621390
_cell_angle_beta   74.19692285
_cell_angle_gamma   58.67900254
_symmetry_Int_Tables_number   1
_chemical_formula_structural   Cu4Ni8C9
_chemical_formula_sum   'Cu4 Ni8 C9'
_cell_volume   305.46804950
_cell_formula_units_Z   1
loop_
 _symmetry_equiv_pos_site_id
 _symmetry_equiv_pos_as_xyz
  1  'x, y, z'
loop_
 _atom_site_type_symbol
 _atom_site_label
 _atom_site_symmetry_multiplicity
 _atom_site_fract_x
 _atom_site_fract_y
 _atom_site_fract_z
 _atom_site_occupancy
  C  C0  1  0.56799000  0.33718800  0.33363000  1
  C  C1  1  0.89968000  0.66488000  0.31162700  1
  C  C2  1  0.26437200  0.78066500  0.72675000  1
  C  C3  1  0.42564700  0.26075100  0.02479200  1
  C  C4  1  0.60333800  0.15898700  0.74116000  1
  C  C5  1  0.15000900  0.04932500  0.44875200  1
  C  C6  1  0.07463300  0.90098300  0.00942100  1
  C  C7  1  0.74756700  0.58009400  0.01604300  1
  C  C8  1  0.92892400  0.48442800  0.74087700  1
  Ni  Ni9  1  0.18300300  0.32415200  0.34992400  1
  Ni  Ni10  1  0.70540500  0.27284400  0.10173400  1
  Ni  Ni11  1  0.32300700  0.43765500  0.65185600  1
  Ni  Ni12  1  0.52592500  0.71813400  0.40210400  1
  Ni  Ni13  1  0.49343900  0.50970300  0.87752500  1
  Ni  Ni14  1  0.01351900  0.61877500  0.11023600  1
  Ni  Ni15  1  0.99314400  0.12457300  0.65036500  1
  Ni  Ni16  1  0.85340200  0.88020300  0.87614100  1
  Cu  Cu17  1  0.36789900  0.93985700  0.07369500  1
  Cu  Cu18  1  0.91333700  0.96563200  0.38201500  1
  Cu  Cu19  1  0.15595500  0.24193400  0.88360500  1
  Cu  Cu20  1  0.62880800  0.80390600  0.68176900  1
