# generated using pymatgen
data_Cu6NiC3
_symmetry_space_group_name_H-M   'P 1'
_cell_length_a   10.64144410
_cell_length_b   10.64144410
_cell_length_c   12.04059159
_cell_angle_alpha   60.45766621
_cell_angle_beta   60.45766621
_cell_angle_gamma   21.05860419
_symmetry_Int_Tables_number   1
_chemical_formula_structural   Cu6NiC3
_chemical_formula_sum   'Cu18 Ni3 C9'
_cell_volume   423.86306410
_cell_formula_units_Z   3
loop_
 _symmetry_equiv_pos_site_id
 _symmetry_equiv_pos_as_xyz
  1  'x, y, z'
loop_
 _atom_site_type_symbol
 _atom_site_label
 _atom_site_symmetry_multiplicity
 _atom_site_fract_x
 _atom_site_fract_y
 _atom_site_fract_z
 _atom_site_occupancy
  C  C0  1  0.99933500  0.99933500  0.00026400  1
  C  C1  1  0.81554400  0.81554400  0.00068500  1
  C  C2  1  0.18230300  0.18230300  0.00191500  1
  C  C3  1  0.91987100  0.91987100  0.63226100  1
  C  C4  1  0.08105800  0.08105800  0.37358700  1
  C  C5  1  0.10414000  0.10414000  0.62719500  1
  C  C6  1  0.89119400  0.89119400  0.37449900  1
  C  C7  1  0.70917300  0.70917300  0.36905200  1
  C  C8  1  0.28990100  0.28990100  0.63308100  1
  Ni  Ni9  1  0.82842500  0.82842500  0.59021000  1
  Ni  Ni10  1  0.17348000  0.17348000  0.40379400  1
  Ni  Ni11  1  0.02451900  0.02451900  0.58091800  1
  Cu  Cu12  1  0.62787800  0.62787800  0.58193800  1
  Cu  Cu13  1  0.37471900  0.37471900  0.41447500  1
  Cu  Cu14  1  0.40224400  0.40224400  0.62565700  1
  Cu  Cu15  1  0.59911400  0.59911400  0.37032600  1
  Cu  Cu16  1  0.20578700  0.20578700  0.61932900  1
  Cu  Cu17  1  0.79475500  0.79475500  0.38065200  1
  Cu  Cu18  1  0.75441900  0.75441900  0.19053000  1
  Cu  Cu19  1  0.24611100  0.24611100  0.81119900  1
  Cu  Cu20  1  0.29056400  0.29056400  0.00175200  1
  Cu  Cu21  1  0.70860200  0.70860200  0.99891500  1
  Cu  Cu22  1  0.09772200  0.09772200  0.98971100  1
  Cu  Cu23  1  0.90124600  0.90124600  0.00963800  1
  Cu  Cu24  1  0.97680900  0.97680900  0.41293700  1
  Cu  Cu25  1  0.12787900  0.12787900  0.18890900  1
  Cu  Cu26  1  0.87093200  0.87093200  0.81256800  1
  Cu  Cu27  1  0.49912600  0.49912600  0.00194400  1
  Cu  Cu28  1  0.94960500  0.94960500  0.19609300  1
  Cu  Cu29  1  0.04889900  0.04889900  0.80596600  1
