# generated using pymatgen
data_Cu10(Ni2C7)3
_symmetry_space_group_name_H-M   'P 1'
_cell_length_a   7.76411400
_cell_length_b   12.65145500
_cell_length_c   16.58614555
_cell_angle_alpha   90.00000000
_cell_angle_beta   115.28696474
_cell_angle_gamma   90.00000000
_symmetry_Int_Tables_number   1
_chemical_formula_structural   Cu10(Ni2C7)3
_chemical_formula_sum   'Cu40 Ni24 C84'
_cell_volume   1473.10135476
_cell_formula_units_Z   4
loop_
 _symmetry_equiv_pos_site_id
 _symmetry_equiv_pos_as_xyz
  1  'x, y, z'
loop_
 _atom_site_type_symbol
 _atom_site_label
 _atom_site_symmetry_multiplicity
 _atom_site_fract_x
 _atom_site_fract_y
 _atom_site_fract_z
 _atom_site_occupancy
  C  C0  1  0.84925200  0.61937900  0.04410600  1
  C  C1  1  0.84925200  0.88062100  0.54410600  1
  C  C2  1  0.15074800  0.38062100  0.95589400  1
  C  C3  1  0.15074800  0.11937900  0.45589400  1
  C  C4  1  0.87139800  0.98839100  0.11615600  1
  C  C5  1  0.87139800  0.51160900  0.61615600  1
  C  C6  1  0.12860200  0.01160900  0.88384400  1
  C  C7  1  0.12860200  0.48839100  0.38384400  1
  C  C8  1  0.48853000  0.68440100  0.20466700  1
  C  C9  1  0.48853000  0.81559900  0.70466700  1
  C  C10  1  0.51147000  0.31559900  0.79533300  1
  C  C11  1  0.51147000  0.18440100  0.29533300  1
  C  C12  1  0.92050900  0.46612300  0.16706700  1
  C  C13  1  0.92050900  0.03387700  0.66706700  1
  C  C14  1  0.07949100  0.53387700  0.83293300  1
  C  C15  1  0.07949100  0.96612300  0.33293300  1
  C  C16  1  0.89728000  0.41375000  0.07055600  1
  C  C17  1  0.89728000  0.08625000  0.57055600  1
  C  C18  1  0.10272000  0.58625000  0.92944400  1
  C  C19  1  0.10272000  0.91375000  0.42944400  1
  C  C20  1  0.70436300  0.44513000  0.08611900  1
  C  C21  1  0.70436300  0.05487000  0.58611900  1
  C  C22  1  0.29563700  0.55487000  0.91388100  1
  C  C23  1  0.29563700  0.94513000  0.41388100  1
  C  C24  1  0.60346700  0.96315700  0.94813900  1
  C  C25  1  0.60346700  0.53684300  0.44813900  1
  C  C26  1  0.39653300  0.03684300  0.05186100  1
  C  C27  1  0.39653300  0.46315700  0.55186100  1
  C  C28  1  0.74066700  0.85530100  0.97913300  1
  C  C29  1  0.74066700  0.64469900  0.47913300  1
  C  C30  1  0.25933300  0.14469900  0.02086700  1
  C  C31  1  0.25933300  0.35530100  0.52086700  1
  C  C32  1  0.81569100  0.96535100  0.94647000  1
  C  C33  1  0.81569100  0.53464900  0.44647000  1
  C  C34  1  0.18430900  0.03464900  0.05353000  1
  C  C35  1  0.18430900  0.46535100  0.55353000  1
  C  C36  1  0.86154300  0.69648300  0.31246200  1
  C  C37  1  0.86154300  0.80351700  0.81246200  1
  C  C38  1  0.13845700  0.30351700  0.68753800  1
  C  C39  1  0.13845700  0.19648300  0.18753800  1
  C  C40  1  0.74253000  0.78606600  0.34131400  1
  C  C41  1  0.74253000  0.71393400  0.84131400  1
  C  C42  1  0.25747000  0.21393400  0.65868600  1
  C  C43  1  0.25747000  0.28606600  0.15868600  1
  C  C44  1  0.78569000  0.80556400  0.25295100  1
  C  C45  1  0.78569000  0.69443600  0.75295100  1
  C  C46  1  0.21431000  0.19443600  0.74704900  1
  C  C47  1  0.21431000  0.30556400  0.24704900  1
  C  C48  1  0.46999900  0.69611600  0.04630000  1
  C  C49  1  0.46999900  0.80388400  0.54630000  1
  C  C50  1  0.53000100  0.30388400  0.95370000  1
  C  C51  1  0.53000100  0.19611600  0.45370000  1
  C  C52  1  0.48845300  0.81705300  0.08616600  1
  C  C53  1  0.48845300  0.68294700  0.58616600  1
  C  C54  1  0.51154700  0.18294700  0.91383400  1
  C  C55  1  0.51154700  0.31705300  0.41383400  1
  C  C56  1  0.27827400  0.75346200  0.04670900  1
  C  C57  1  0.27827400  0.74653800  0.54670900  1
  C  C58  1  0.72172600  0.24653800  0.95329100  1
  C  C59  1  0.72172600  0.25346200  0.45329100  1
  C  C60  1  0.44566500  0.49253500  0.14548300  1
  C  C61  1  0.44566500  0.00746500  0.64548300  1
  C  C62  1  0.55433500  0.50746500  0.85451700  1
  C  C63  1  0.55433500  0.99253500  0.35451700  1
  C  C64  1  0.41028000  0.49833600  0.23738900  1
  C  C65  1  0.41028000  0.00166400  0.73738900  1
  C  C66  1  0.58972000  0.50166400  0.76261100  1
  C  C67  1  0.58972000  0.99833600  0.26261100  1
  C  C68  1  0.63298100  0.49560700  0.24455800  1
  C  C69  1  0.63298100  0.00439300  0.74455800  1
  C  C70  1  0.36701900  0.50439300  0.75544200  1
  C  C71  1  0.36701900  0.99560700  0.25544200  1
  C  C72  1  0.20416200  0.77901600  0.22436300  1
  C  C73  1  0.20416200  0.72098400  0.72436300  1
  C  C74  1  0.79583800  0.22098400  0.77563700  1
  C  C75  1  0.79583800  0.27901600  0.27563700  1
  C  C76  1  0.38533100  0.76104300  0.32306200  1
  C  C77  1  0.38533100  0.73895700  0.82306200  1
  C  C78  1  0.61466900  0.23895700  0.67693800  1
  C  C79  1  0.61466900  0.26104300  0.17693800  1
  C  C80  1  0.24360400  0.66126900  0.27192700  1
  C  C81  1  0.24360400  0.83873100  0.77192700  1
  C  C82  1  0.75639600  0.33873100  0.72807300  1
  C  C83  1  0.75639600  0.16126900  0.22807300  1
  Ni  Ni84  1  0.84086600  0.46816800  0.09952300  1
  Ni  Ni85  1  0.84086600  0.03183200  0.59952300  1
  Ni  Ni86  1  0.15913400  0.53183200  0.90047700  1
  Ni  Ni87  1  0.15913400  0.96816800  0.40047700  1
  Ni  Ni88  1  0.74208400  0.93643000  0.98090100  1
  Ni  Ni89  1  0.74208400  0.56357000  0.48090100  1
  Ni  Ni90  1  0.25791600  0.06357000  0.01909900  1
  Ni  Ni91  1  0.25791600  0.43643000  0.51909900  1
  Ni  Ni92  1  0.74985100  0.74895400  0.28746800  1
  Ni  Ni93  1  0.74985100  0.75104600  0.78746800  1
  Ni  Ni94  1  0.25014900  0.25104600  0.71253200  1
  Ni  Ni95  1  0.25014900  0.24895400  0.21253200  1
  Ni  Ni96  1  0.42324200  0.74511900  0.08214600  1
  Ni  Ni97  1  0.42324200  0.75488100  0.58214600  1
  Ni  Ni98  1  0.57675800  0.25488100  0.91785400  1
  Ni  Ni99  1  0.57675800  0.24511900  0.41785400  1
  Ni  Ni100  1  0.49666600  0.52431500  0.20869800  1
  Ni  Ni101  1  0.49666600  0.97568500  0.70869800  1
  Ni  Ni102  1  0.50333400  0.47568500  0.79130200  1
  Ni  Ni103  1  0.50333400  0.02431500  0.29130200  1
  Ni  Ni104  1  0.30951800  0.72702100  0.26189800  1
  Ni  Ni105  1  0.30951800  0.77297900  0.76189800  1
  Ni  Ni106  1  0.69048200  0.27297900  0.73810200  1
  Ni  Ni107  1  0.69048200  0.22702100  0.23810200  1
  Cu  Cu108  1  0.03988900  0.66637200  0.00928800  1
  Cu  Cu109  1  0.03988900  0.83362800  0.50928800  1
  Cu  Cu110  1  0.96011100  0.33362800  0.99071200  1
  Cu  Cu111  1  0.96011100  0.16637200  0.49071200  1
  Cu  Cu112  1  0.10516000  0.57919000  0.07368500  1
  Cu  Cu113  1  0.10516000  0.92081000  0.57368500  1
  Cu  Cu114  1  0.89484000  0.42081000  0.92631500  1
  Cu  Cu115  1  0.89484000  0.07919000  0.42631500  1
  Cu  Cu116  1  0.65893800  0.68460700  0.93793300  1
  Cu  Cu117  1  0.65893800  0.81539300  0.43793300  1
  Cu  Cu118  1  0.34106200  0.31539300  0.06206700  1
  Cu  Cu119  1  0.34106200  0.18460700  0.56206700  1
  Cu  Cu120  1  0.58789600  0.58958300  0.96518900  1
  Cu  Cu121  1  0.58789600  0.91041700  0.46518900  1
  Cu  Cu122  1  0.41210400  0.41041700  0.03481100  1
  Cu  Cu123  1  0.41210400  0.08958300  0.53481100  1
  Cu  Cu124  1  0.11695200  0.94949700  0.20502700  1
  Cu  Cu125  1  0.11695200  0.55050300  0.70502700  1
  Cu  Cu126  1  0.88304800  0.05050300  0.79497300  1
  Cu  Cu127  1  0.88304800  0.44949700  0.29497300  1
  Cu  Cu128  1  0.08859200  0.92257100  0.11403400  1
  Cu  Cu129  1  0.08859200  0.57742900  0.61403400  1
  Cu  Cu130  1  0.91140800  0.07742900  0.88596600  1
  Cu  Cu131  1  0.91140800  0.42257100  0.38596600  1
  Cu  Cu132  1  0.76664600  0.97507700  0.20229700  1
  Cu  Cu133  1  0.76664600  0.52492300  0.70229700  1
  Cu  Cu134  1  0.23335400  0.02492300  0.79770300  1
  Cu  Cu135  1  0.23335400  0.47507700  0.29770300  1
  Cu  Cu136  1  0.62771200  0.95297600  0.11033800  1
  Cu  Cu137  1  0.62771200  0.54702400  0.61033800  1
  Cu  Cu138  1  0.37228800  0.04702400  0.88966200  1
  Cu  Cu139  1  0.37228800  0.45297600  0.38966200  1
  Cu  Cu140  1  0.85144900  0.69354400  0.12565600  1
  Cu  Cu141  1  0.85144900  0.80645600  0.62565600  1
  Cu  Cu142  1  0.14855100  0.30645600  0.87434400  1
  Cu  Cu143  1  0.14855100  0.19354400  0.37434400  1
  Cu  Cu144  1  0.88129600  0.11537300  0.09820200  1
  Cu  Cu145  1  0.88129600  0.38462700  0.59820200  1
  Cu  Cu146  1  0.11870400  0.88462700  0.90179800  1
  Cu  Cu147  1  0.11870400  0.61537300  0.40179800  1
