# generated using pymatgen
data_CuNiC11
_symmetry_space_group_name_H-M   'P 1'
_cell_length_a   9.37838100
_cell_length_b   6.29466200
_cell_length_c   6.44869855
_cell_angle_alpha   88.47751569
_cell_angle_beta   90.00000000
_cell_angle_gamma   90.00000000
_symmetry_Int_Tables_number   1
_chemical_formula_structural   CuNiC11
_chemical_formula_sum   'Cu2 Ni2 C22'
_cell_volume   380.55639062
_cell_formula_units_Z   2
loop_
 _symmetry_equiv_pos_site_id
 _symmetry_equiv_pos_as_xyz
  1  'x, y, z'
loop_
 _atom_site_type_symbol
 _atom_site_label
 _atom_site_symmetry_multiplicity
 _atom_site_fract_x
 _atom_site_fract_y
 _atom_site_fract_z
 _atom_site_occupancy
  Ni  Ni0  1  0.00156500  0.76159000  0.72902800  1
  Ni  Ni1  1  0.50156500  0.23841000  0.27097200  1
  Cu  Cu2  1  0.75194400  0.25443600  0.74932000  1
  Cu  Cu3  1  0.25194400  0.74556400  0.25068000  1
  C  C4  1  0.36846800  0.00524400  0.73220800  1
  C  C5  1  0.86846800  0.99475600  0.26779200  1
  C  C6  1  0.12518600  0.27204100  0.49825500  1
  C  C7  1  0.62518600  0.72795900  0.50174500  1
  C  C8  1  0.12246500  0.23026900  0.99194100  1
  C  C9  1  0.62246500  0.76973100  0.00805900  1
  C  C10  1  0.35745200  0.48099000  0.78157600  1
  C  C11  1  0.85745200  0.51901000  0.21842400  1
  C  C12  1  0.99133800  0.22805500  0.74838900  1
  C  C13  1  0.49133800  0.77194500  0.25161100  1
  C  C14  1  0.50050600  0.23694500  0.73700800  1
  C  C15  1  0.00050600  0.76305500  0.26299200  1
  C  C16  1  0.22680100  0.54058700  0.54439600  1
  C  C17  1  0.72680100  0.45941300  0.45560400  1
  C  C18  1  0.23079700  0.94926200  0.94859900  1
  C  C19  1  0.73079700  0.05073800  0.05140100  1
  C  C20  1  0.27762900  0.44136700  0.06323900  1
  C  C21  1  0.77762900  0.55863300  0.93676100  1
  C  C22  1  0.27348200  0.03139100  0.46671600  1
  C  C23  1  0.77348200  0.96860900  0.53328400  1
  C  C24  1  0.49036800  0.75478500  0.74938600  1
  C  C25  1  0.99036800  0.24521500  0.25061400  1
