# generated using pymatgen
data_Cu2NiC11
_symmetry_space_group_name_H-M   'P 1'
_cell_length_a   6.23456900
_cell_length_b   6.95437800
_cell_length_c   14.44124600
_cell_angle_alpha   90.00000000
_cell_angle_beta   90.00000000
_cell_angle_gamma   90.00000000
_symmetry_Int_Tables_number   1
_chemical_formula_structural   Cu2NiC11
_chemical_formula_sum   'Cu8 Ni4 C44'
_cell_volume   626.13703819
_cell_formula_units_Z   4
loop_
 _symmetry_equiv_pos_site_id
 _symmetry_equiv_pos_as_xyz
  1  'x, y, z'
loop_
 _atom_site_type_symbol
 _atom_site_label
 _atom_site_symmetry_multiplicity
 _atom_site_fract_x
 _atom_site_fract_y
 _atom_site_fract_z
 _atom_site_occupancy
  Ni  Ni0  1  0.25000000  0.38601000  0.77318800  1
  Ni  Ni1  1  0.25000000  0.11399000  0.27318800  1
  Ni  Ni2  1  0.75000000  0.61399000  0.22681200  1
  Ni  Ni3  1  0.75000000  0.88601000  0.72681200  1
  C  C4  1  0.25000000  0.86047600  0.87413200  1
  C  C5  1  0.75000000  0.13952400  0.12586800  1
  C  C6  1  0.75000000  0.36047600  0.62586800  1
  C  C7  1  0.25000000  0.63952400  0.37413200  1
  C  C8  1  0.00000000  0.50000000  0.00000000  1
  C  C9  1  0.00000000  0.00000000  0.50000000  1
  C  C10  1  0.50000000  0.00000000  0.50000000  1
  C  C11  1  0.50000000  0.50000000  0.00000000  1
  Cu  Cu12  1  0.75000000  0.86883200  0.92751700  1
  Cu  Cu13  1  0.25000000  0.13116800  0.07248300  1
  Cu  Cu14  1  0.25000000  0.36883200  0.57248300  1
  Cu  Cu15  1  0.75000000  0.63116800  0.42751700  1
  Cu  Cu16  1  0.25000000  0.88384600  0.69709300  1
  Cu  Cu17  1  0.75000000  0.11615400  0.30290700  1
  Cu  Cu18  1  0.75000000  0.38384600  0.80290700  1
  Cu  Cu19  1  0.25000000  0.61615400  0.19709300  1
  C  C20  1  0.53859000  0.10451000  0.35990400  1
  C  C21  1  0.03859000  0.89549000  0.64009600  1
  C  C22  1  0.46141000  0.60451000  0.14009600  1
  C  C23  1  0.96141000  0.39549000  0.85990400  1
  C  C24  1  0.46141000  0.89549000  0.64009600  1
  C  C25  1  0.96141000  0.10451000  0.35990400  1
  C  C26  1  0.53859000  0.39549000  0.85990400  1
  C  C27  1  0.03859000  0.60451000  0.14009600  1
  C  C28  1  0.75000000  0.82301600  0.48233000  1
  C  C29  1  0.25000000  0.17698400  0.51767000  1
  C  C30  1  0.25000000  0.32301600  0.01767000  1
  C  C31  1  0.75000000  0.67698400  0.98233000  1
  C  C32  1  0.25000000  0.65354100  0.95433500  1
  C  C33  1  0.75000000  0.34645900  0.04566500  1
  C  C34  1  0.75000000  0.15354100  0.54566500  1
  C  C35  1  0.25000000  0.84645900  0.45433500  1
  C  C36  1  0.25000000  0.69805600  0.75764500  1
  C  C37  1  0.75000000  0.30194400  0.24235500  1
  C  C38  1  0.75000000  0.19805600  0.74235500  1
  C  C39  1  0.25000000  0.80194400  0.25764500  1
  C  C40  1  0.93805500  0.62831900  0.35753300  1
  C  C41  1  0.43805500  0.37168100  0.64246700  1
  C  C42  1  0.06194500  0.12831900  0.14246700  1
  C  C43  1  0.56194500  0.87168100  0.85753300  1
  C  C44  1  0.06194500  0.37168100  0.64246700  1
  C  C45  1  0.56194500  0.62831900  0.35753300  1
  C  C46  1  0.93805500  0.87168100  0.85753300  1
  C  C47  1  0.43805500  0.12831900  0.14246700  1
  C  C48  1  0.25000000  0.45174100  0.27329100  1
  C  C49  1  0.75000000  0.54825900  0.72670900  1
  C  C50  1  0.75000000  0.95174100  0.22670900  1
  C  C51  1  0.25000000  0.04825900  0.77329100  1
  C  C52  1  0.25000000  0.52717700  0.50057400  1
  C  C53  1  0.75000000  0.47282300  0.49942600  1
  C  C54  1  0.75000000  0.02717700  0.99942600  1
  C  C55  1  0.25000000  0.97282300  0.00057400  1
