# generated using pymatgen
data_Cu3Ni3C32
_symmetry_space_group_name_H-M   'P 1'
_cell_length_a   11.00190830
_cell_length_b   12.70952639
_cell_length_c   18.98795837
_cell_angle_alpha   90.04394540
_cell_angle_beta   90.00000000
_cell_angle_gamma   90.00000000
_symmetry_Int_Tables_number   1
_chemical_formula_structural   Cu3Ni3C32
_chemical_formula_sum   'Cu12 Ni12 C128'
_cell_volume   2655.06728429
_cell_formula_units_Z   4
loop_
 _symmetry_equiv_pos_site_id
 _symmetry_equiv_pos_as_xyz
  1  'x, y, z'
loop_
 _atom_site_type_symbol
 _atom_site_label
 _atom_site_symmetry_multiplicity
 _atom_site_fract_x
 _atom_site_fract_y
 _atom_site_fract_z
 _atom_site_occupancy
  Ni  Ni0  1  0.77591977  0.34196461  0.03740523  1
  Ni  Ni1  1  0.71494275  0.65936524  0.03478033  1
  Ni  Ni2  1  0.27591977  0.65803539  0.46259477  1
  Ni  Ni3  1  0.21494275  0.34063476  0.46521967  1
  Ni  Ni4  1  0.22408023  0.65803539  0.96259477  1
  Ni  Ni5  1  0.28505725  0.34063476  0.96521967  1
  Ni  Ni6  1  0.72408023  0.34196461  0.53740523  1
  Ni  Ni7  1  0.78505725  0.65936524  0.53478033  1
  Ni  Ni8  1  0.74385544  0.00011896  0.06667005  1
  Ni  Ni9  1  0.24385544  0.99988104  0.43332995  1
  Ni  Ni10  1  0.25614456  0.99988104  0.93332995  1
  Ni  Ni11  1  0.75614456  0.00011896  0.56667005  1
  Cu  Cu12  1  0.49955387  0.32898424  0.75003110  1
  Cu  Cu13  1  0.99955387  0.67101576  0.74996890  1
  Cu  Cu14  1  0.50044613  0.67101576  0.24996890  1
  Cu  Cu15  1  0.00044613  0.32898424  0.25003110  1
  Cu  Cu16  1  0.49842707  0.99234015  0.24732133  1
  Cu  Cu17  1  0.99842707  0.00765985  0.25267867  1
  Cu  Cu18  1  0.50157293  0.00765985  0.75267867  1
  Cu  Cu19  1  0.00157293  0.99234015  0.74732133  1
  Cu  Cu20  1  0.57104639  0.83755880  0.90032269  1
  Cu  Cu21  1  0.07104639  0.16244120  0.59967731  1
  Cu  Cu22  1  0.42895361  0.16244120  0.09967731  1
  Cu  Cu23  1  0.92895361  0.83755880  0.40032269  1
  C  C24  1  0.25005572  0.49897875  0.78425191  1
  C  C25  1  0.75005572  0.50102125  0.71574809  1
  C  C26  1  0.74994428  0.50102125  0.21574809  1
  C  C27  1  0.24994428  0.49897875  0.28425191  1
  C  C28  1  0.92523459  0.16173517  0.89918272  1
  C  C29  1  0.42523459  0.83826483  0.60081728  1
  C  C30  1  0.07476541  0.83826483  0.10081728  1
  C  C31  1  0.57476541  0.16173517  0.39918272  1
  C  C32  1  0.58521667  0.14318277  0.91080442  1
  C  C33  1  0.92330609  0.86192870  0.91545932  1
  C  C34  1  0.08521667  0.85681723  0.58919558  1
  C  C35  1  0.42330609  0.13807130  0.58454068  1
  C  C36  1  0.41478333  0.85681723  0.08919558  1
  C  C37  1  0.07669391  0.13807130  0.08454068  1
  C  C38  1  0.91478333  0.14318277  0.41080442  1
  C  C39  1  0.57669391  0.86192870  0.41545932  1
  C  C40  1  0.21272986  0.19819843  0.79016513  1
  C  C41  1  0.28259487  0.80148047  0.78527543  1
  C  C42  1  0.71272986  0.80180157  0.70983487  1
  C  C43  1  0.78259487  0.19851953  0.71472457  1
  C  C44  1  0.78727014  0.80180157  0.20983487  1
  C  C45  1  0.71740513  0.19851953  0.21472457  1
  C  C46  1  0.28727014  0.19819843  0.29016513  1
  C  C47  1  0.21740513  0.80148047  0.28527543  1
  C  C48  1  0.45332414  0.53334584  0.62096714  1
  C  C49  1  0.04644082  0.47212156  0.62145306  1
  C  C50  1  0.95332414  0.46665416  0.87903286  1
  C  C51  1  0.54644082  0.52787844  0.87854694  1
  C  C52  1  0.54667586  0.46665416  0.37903286  1
  C  C53  1  0.95355918  0.52787844  0.37854694  1
  C  C54  1  0.04667586  0.53334584  0.12096714  1
  C  C55  1  0.45355918  0.47212156  0.12145306  1
  C  C56  1  0.40030610  0.45169123  0.55328240  1
  C  C57  1  0.10108457  0.55309774  0.55316232  1
  C  C58  1  0.90030610  0.54830877  0.94671760  1
  C  C59  1  0.60108457  0.44690226  0.94683768  1
  C  C60  1  0.59969390  0.54830877  0.44671760  1
  C  C61  1  0.89891543  0.44690226  0.44683768  1
  C  C62  1  0.09969390  0.45169123  0.05328240  1
  C  C63  1  0.39891543  0.55309774  0.05316232  1
  C  C64  1  0.48371520  0.16587503  0.98215917  1
  C  C65  1  0.02195552  0.83732993  0.99142194  1
  C  C66  1  0.98371520  0.83412497  0.51784083  1
  C  C67  1  0.52195552  0.16267007  0.50857806  1
  C  C68  1  0.51628480  0.83412497  0.01784083  1
  C  C69  1  0.97804448  0.16267007  0.00857806  1
  C  C70  1  0.01628480  0.16587503  0.48215917  1
  C  C71  1  0.47804448  0.83732993  0.49142194  1
  C  C72  1  0.74842032  0.15134833  0.93890205  1
  C  C73  1  0.77229077  0.85028220  0.94572545  1
  C  C74  1  0.24842032  0.84865167  0.56109795  1
  C  C75  1  0.27229077  0.14971780  0.55427455  1
  C  C76  1  0.25157968  0.84865167  0.06109795  1
  C  C77  1  0.22770923  0.14971780  0.05427455  1
  C  C78  1  0.75157968  0.15134833  0.43890205  1
  C  C79  1  0.72770923  0.85028220  0.44572545  1
  C  C80  1  0.61642856  0.51381942  0.63228401  1
  C  C81  1  0.88032228  0.48679003  0.63353108  1
  C  C82  1  0.11642856  0.48618058  0.86771599  1
  C  C83  1  0.38032228  0.51320997  0.86646892  1
  C  C84  1  0.38357144  0.48618058  0.36771599  1
  C  C85  1  0.11967772  0.51320997  0.36646892  1
  C  C86  1  0.88357144  0.51381942  0.13228401  1
  C  C87  1  0.61967772  0.48679003  0.13353108  1
  C  C88  1  0.41924367  0.66803743  0.59768254  1
  C  C89  1  0.08256609  0.34290138  0.59720370  1
  C  C90  1  0.91924367  0.33196257  0.90231746  1
  C  C91  1  0.58256609  0.65709862  0.90279630  1
  C  C92  1  0.58075633  0.33196257  0.40231746  1
  C  C93  1  0.91743391  0.65709862  0.40279630  1
  C  C94  1  0.08075633  0.66803743  0.09768254  1
  C  C95  1  0.41743391  0.34290138  0.09720370  1
  C  C96  1  0.55120584  0.01575293  0.87769755  1
  C  C97  1  0.94846130  0.99742569  0.88418706  1
  C  C98  1  0.05120584  0.98424707  0.62230245  1
  C  C99  1  0.44846130  0.00257431  0.61581294  1
  C  C100  1  0.44879416  0.98424707  0.12230245  1
  C  C101  1  0.05153870  0.00257431  0.11581294  1
  C  C102  1  0.94879416  0.01575293  0.37769755  1
  C  C103  1  0.55153870  0.99742569  0.38418706  1
  C  C104  1  0.38341059  0.49782738  0.70407029  1
  C  C105  1  0.11765572  0.50423005  0.70611336  1
  C  C106  1  0.88341059  0.50217262  0.79592971  1
  C  C107  1  0.61765572  0.49576995  0.79388664  1
  C  C108  1  0.61658941  0.50217262  0.29592971  1
  C  C109  1  0.88234428  0.49576995  0.29388664  1
  C  C110  1  0.11658941  0.49782738  0.20407029  1
  C  C111  1  0.38234428  0.50423005  0.20611336  1
  C  C112  1  0.11701630  0.18028513  0.86847954  1
  C  C113  1  0.36678391  0.81764572  0.86378573  1
  C  C114  1  0.61701630  0.81971487  0.63152046  1
  C  C115  1  0.86678391  0.18235428  0.63621427  1
  C  C116  1  0.88298370  0.81971487  0.13152046  1
  C  C117  1  0.63321609  0.18235428  0.13621427  1
  C  C118  1  0.38298370  0.18028513  0.36847954  1
  C  C119  1  0.13321609  0.81764572  0.36378573  1
  C  C120  1  0.33413297  0.10760332  0.79568394  1
  C  C121  1  0.16187741  0.89185901  0.79374655  1
  C  C122  1  0.83413297  0.89239668  0.70431606  1
  C  C123  1  0.66187741  0.10814099  0.70625345  1
  C  C124  1  0.66586703  0.89239668  0.20431606  1
  C  C125  1  0.83812259  0.10814099  0.20625345  1
  C  C126  1  0.16586703  0.10760332  0.29568394  1
  C  C127  1  0.33812259  0.89185901  0.29374655  1
  C  C128  1  0.12557258  0.16533669  0.71629538  1
  C  C129  1  0.37499585  0.83391830  0.70798445  1
  C  C130  1  0.62557258  0.83466331  0.78370462  1
  C  C131  1  0.87499585  0.16608170  0.79201555  1
  C  C132  1  0.87442742  0.83466331  0.28370462  1
  C  C133  1  0.62500415  0.16608170  0.29201555  1
  C  C134  1  0.37442742  0.16533669  0.21629538  1
  C  C135  1  0.12500415  0.83391830  0.20798445  1
  C  C136  1  0.27265041  0.33410757  0.78729812  1
  C  C137  1  0.22455851  0.66611722  0.78652663  1
  C  C138  1  0.77265041  0.66589243  0.71270188  1
  C  C139  1  0.72455851  0.33388278  0.71347337  1
  C  C140  1  0.72734959  0.66589243  0.21270188  1
  C  C141  1  0.77544149  0.33388278  0.21347337  1
  C  C142  1  0.22734959  0.33410757  0.28729812  1
  C  C143  1  0.27544149  0.66611722  0.28652663  1
  C  C144  1  0.55510494  0.23707561  0.84461638  1
  C  C145  1  0.94750047  0.76805485  0.84859813  1
  C  C146  1  0.05510494  0.76292439  0.65538362  1
  C  C147  1  0.44750047  0.23194515  0.65140187  1
  C  C148  1  0.44489506  0.76292439  0.15538362  1
  C  C149  1  0.05249953  0.23194515  0.15140187  1
  C  C150  1  0.94489506  0.23707561  0.34461638  1
  C  C151  1  0.55249953  0.76805485  0.34859813  1
