# generated using pymatgen
data_Cu2Ni4C5
_symmetry_space_group_name_H-M   'P 1'
_cell_length_a   3.54165500
_cell_length_b   8.08286300
_cell_length_c   18.02897500
_cell_angle_alpha   90.00000000
_cell_angle_beta   90.00000000
_cell_angle_gamma   90.00000000
_symmetry_Int_Tables_number   1
_chemical_formula_structural   Cu2Ni4C5
_chemical_formula_sum   'Cu4 Ni8 C10'
_cell_volume   516.11027783
_cell_formula_units_Z   2
loop_
 _symmetry_equiv_pos_site_id
 _symmetry_equiv_pos_as_xyz
  1  'x, y, z'
loop_
 _atom_site_type_symbol
 _atom_site_label
 _atom_site_symmetry_multiplicity
 _atom_site_fract_x
 _atom_site_fract_y
 _atom_site_fract_z
 _atom_site_occupancy
  C  C0  1  0.00000000  0.11692100  0.41463800  1
  C  C1  1  0.00000000  0.88307900  0.58536200  1
  C  C2  1  0.00000000  0.38307900  0.91463800  1
  C  C3  1  0.00000000  0.61692100  0.08536200  1
  C  C4  1  0.00000000  0.24378300  0.22077200  1
  C  C5  1  0.00000000  0.75621700  0.77922800  1
  C  C6  1  0.00000000  0.25621700  0.72077200  1
  C  C7  1  0.00000000  0.74378300  0.27922800  1
  C  C8  1  0.00000000  0.00000000  0.00000000  1
  C  C9  1  0.00000000  0.50000000  0.50000000  1
  Ni  Ni10  1  0.50000000  0.42416900  0.35221100  1
  Ni  Ni11  1  0.50000000  0.57583100  0.64778900  1
  Ni  Ni12  1  0.50000000  0.07583100  0.85221100  1
  Ni  Ni13  1  0.50000000  0.92416900  0.14778900  1
  Ni  Ni14  1  0.50000000  0.29173400  0.06576800  1
  Ni  Ni15  1  0.50000000  0.70826600  0.93423200  1
  Ni  Ni16  1  0.50000000  0.20826600  0.56576800  1
  Ni  Ni17  1  0.50000000  0.79173400  0.43423200  1
  Cu  Cu18  1  0.50000000  0.02615500  0.30341300  1
  Cu  Cu19  1  0.50000000  0.97384500  0.69658700  1
  Cu  Cu20  1  0.50000000  0.47384500  0.80341300  1
  Cu  Cu21  1  0.50000000  0.52615500  0.19658700  1
