# generated using pymatgen
data_CuNiC8
_symmetry_space_group_name_H-M   'P 1'
_cell_length_a   5.87632065
_cell_length_b   5.88153828
_cell_length_c   5.88153828
_cell_angle_alpha   60.83466932
_cell_angle_beta   60.02934129
_cell_angle_gamma   60.02934129
_symmetry_Int_Tables_number   1
_chemical_formula_structural   CuNiC8
_chemical_formula_sum   'Cu1 Ni1 C8'
_cell_volume   144.68786698
_cell_formula_units_Z   1
loop_
 _symmetry_equiv_pos_site_id
 _symmetry_equiv_pos_as_xyz
  1  'x, y, z'
loop_
 _atom_site_type_symbol
 _atom_site_label
 _atom_site_symmetry_multiplicity
 _atom_site_fract_x
 _atom_site_fract_y
 _atom_site_fract_z
 _atom_site_occupancy
  Ni  Ni0  1  0.50215906  -0.00000000  -0.00000000  1
  Cu  Cu1  1  0.97131413  0.50000000  0.50000000  1
  C  C2  1  0.74768058  0.25135100  0.25135100  1
  C  C3  1  0.25038257  0.74864900  0.74864900  1
  C  C4  1  0.39083320  0.50000000  0.50000000  1
  C  C5  1  0.05738610  -0.00000000  -0.00000000  1
  C  C6  1  0.97431578  0.52802357  0.06346704  1
  C  C7  1  0.56580640  0.93653296  0.47197643  1
  C  C8  1  0.56580640  0.47197643  0.93653296  1
  C  C9  1  0.97431578  0.06346704  0.52802357  1
