# generated using pymatgen
data_Cu(Ni3C13)2
_symmetry_space_group_name_H-M   'P 1'
_cell_length_a   11.17394605
_cell_length_b   11.17394605
_cell_length_c   12.01257325
_cell_angle_alpha   64.69432440
_cell_angle_beta   64.69432440
_cell_angle_gamma   39.28938937
_symmetry_Int_Tables_number   1
_chemical_formula_structural   Cu(Ni3C13)2
_chemical_formula_sum   'Cu2 Ni12 C52'
_cell_volume   846.30723473
_cell_formula_units_Z   2
loop_
 _symmetry_equiv_pos_site_id
 _symmetry_equiv_pos_as_xyz
  1  'x, y, z'
loop_
 _atom_site_type_symbol
 _atom_site_label
 _atom_site_symmetry_multiplicity
 _atom_site_fract_x
 _atom_site_fract_y
 _atom_site_fract_z
 _atom_site_occupancy
  C  C0  1  0.94220400  0.44958500  0.94940700  1
  C  C1  1  0.44958500  0.94220400  0.44940700  1
  C  C2  1  0.54818200  0.04636800  0.55310900  1
  C  C3  1  0.04636800  0.54818200  0.05310900  1
  C  C4  1  0.45736200  0.52638500  0.97641700  1
  C  C5  1  0.52638500  0.45736200  0.47641700  1
  C  C6  1  0.99965600  0.99401800  0.98343600  1
  C  C7  1  0.99401800  0.99965600  0.48343600  1
  C  C8  1  0.84384800  0.65469800  0.49643800  1
  C  C9  1  0.65469800  0.84384800  0.99643800  1
  C  C10  1  0.15567100  0.34231500  0.49681000  1
  C  C11  1  0.34231500  0.15567000  0.99681000  1
  Ni  Ni12  1  0.68953400  0.60057000  0.74302400  1
  Ni  Ni13  1  0.60057000  0.68953400  0.24302400  1
  Ni  Ni14  1  0.40268900  0.30480300  0.74991600  1
  Ni  Ni15  1  0.30480300  0.40268900  0.24991600  1
  Ni  Ni16  1  0.09506800  0.19457600  0.74339100  1
  Ni  Ni17  1  0.19457600  0.09506800  0.24339100  1
  Ni  Ni18  1  0.81076200  0.89595400  0.75131200  1
  Ni  Ni19  1  0.89595400  0.81076200  0.25131200  1
  Ni  Ni20  1  0.12017700  0.61203600  0.54968200  1
  Ni  Ni21  1  0.61203600  0.12017700  0.04968200  1
  Ni  Ni22  1  0.38006400  0.88434200  0.94334700  1
  Ni  Ni23  1  0.88434200  0.38006400  0.44334700  1
  Cu  Cu24  1  0.74471700  0.25464000  0.74461200  1
  Cu  Cu25  1  0.25464000  0.74471700  0.24461200  1
  C  C26  1  0.88636900  0.97926300  0.74611000  1
  C  C27  1  0.97926300  0.88636900  0.24611000  1
  C  C28  1  0.48532900  0.38406800  0.73349000  1
  C  C29  1  0.38406800  0.48532900  0.23349000  1
  C  C30  1  0.67674500  0.73698500  0.61362000  1
  C  C31  1  0.73698500  0.67674500  0.11362000  1
  C  C32  1  0.23641700  0.17505500  0.61485800  1
  C  C33  1  0.17505500  0.23641700  0.11485800  1
  C  C34  1  0.93327100  0.79161100  0.62684800  1
  C  C35  1  0.79161100  0.93327100  0.12684800  1
  C  C36  1  0.56932100  0.71232900  0.86220800  1
  C  C37  1  0.71232900  0.56932100  0.36220800  1
  C  C38  1  0.58908900  0.08153600  0.71790500  1
  C  C39  1  0.08153600  0.58908900  0.21790500  1
  C  C40  1  0.05214300  0.55363900  0.50796600  1
  C  C41  1  0.55363900  0.05214300  0.00796600  1
  C  C42  1  0.68471900  0.21189000  0.93951100  1
  C  C43  1  0.21189000  0.68471900  0.43951100  1
  C  C44  1  0.00868600  0.12031500  0.75510500  1
  C  C45  1  0.12031500  0.00868600  0.25510500  1
  C  C46  1  0.60756500  0.52090400  0.75594700  1
  C  C47  1  0.52090400  0.60756500  0.25594700  1
  C  C48  1  0.26347700  0.32136300  0.87912000  1
  C  C49  1  0.32136300  0.26347700  0.37912000  1
  C  C50  1  0.82349600  0.75748400  0.87901400  1
  C  C51  1  0.75748400  0.82349600  0.37901400  1
  C  C52  1  0.20335100  0.07543500  0.86501600  1
  C  C53  1  0.07543500  0.20335100  0.36501600  1
  C  C54  1  0.29177100  0.41936000  0.63082200  1
  C  C55  1  0.41936000  0.29177100  0.13082200  1
  C  C56  1  0.91181200  0.41704100  0.77447400  1
  C  C57  1  0.41704100  0.91181200  0.27447400  1
  C  C58  1  0.94530700  0.44396800  0.48686200  1
  C  C59  1  0.44396800  0.94530700  0.98686200  1
  C  C60  1  0.79964600  0.29800500  0.55045800  1
  C  C61  1  0.29800500  0.79964600  0.05045800  1
  C  C62  1  0.12376400  0.73060700  0.89576000  1
  C  C63  1  0.73060700  0.12376400  0.39576000  1
  C  C64  1  0.31306500  0.81557300  0.59780600  1
  C  C65  1  0.81557300  0.31306500  0.09780600  1
