# generated using pymatgen
data_Cu13NiC4
_symmetry_space_group_name_H-M   'P 1'
_cell_length_a   7.35750600
_cell_length_b   7.35750600
_cell_length_c   6.98020600
_cell_angle_alpha   90.00000000
_cell_angle_beta   90.00000000
_cell_angle_gamma   90.00000000
_symmetry_Int_Tables_number   1
_chemical_formula_structural   Cu13NiC4
_chemical_formula_sum   'Cu26 Ni2 C8'
_cell_volume   377.85875527
_cell_formula_units_Z   2
loop_
 _symmetry_equiv_pos_site_id
 _symmetry_equiv_pos_as_xyz
  1  'x, y, z'
loop_
 _atom_site_type_symbol
 _atom_site_label
 _atom_site_symmetry_multiplicity
 _atom_site_fract_x
 _atom_site_fract_y
 _atom_site_fract_z
 _atom_site_occupancy
  C  C0  1  0.68544300  0.18005000  0.50000000  1
  C  C1  1  0.31455700  0.81995000  0.50000000  1
  C  C2  1  0.18544300  0.31995000  0.00000000  1
  C  C3  1  0.81455700  0.68005000  0.00000000  1
  C  C4  1  0.81995000  0.68544300  0.50000000  1
  C  C5  1  0.18005000  0.31455700  0.50000000  1
  C  C6  1  0.68005000  0.18544300  0.00000000  1
  C  C7  1  0.31995000  0.81455700  0.00000000  1
  Ni  Ni8  1  0.50000000  0.50000000  0.50000000  1
  Ni  Ni9  1  0.00000000  0.00000000  0.00000000  1
  Cu  Cu10  1  0.50000000  0.50000000  0.00000000  1
  Cu  Cu11  1  0.00000000  0.00000000  0.50000000  1
  Cu  Cu12  1  0.90685100  0.40685100  0.25000000  1
  Cu  Cu13  1  0.09314900  0.59314900  0.25000000  1
  Cu  Cu14  1  0.40685100  0.09314900  0.75000000  1
  Cu  Cu15  1  0.59314900  0.90685100  0.75000000  1
  Cu  Cu16  1  0.59314900  0.90685100  0.25000000  1
  Cu  Cu17  1  0.40685100  0.09314900  0.25000000  1
  Cu  Cu18  1  0.90685100  0.40685100  0.75000000  1
  Cu  Cu19  1  0.09314900  0.59314900  0.75000000  1
  Cu  Cu20  1  0.53991200  0.66994700  0.24403800  1
  Cu  Cu21  1  0.46008800  0.33005300  0.24403800  1
  Cu  Cu22  1  0.03991200  0.83005300  0.74403800  1
  Cu  Cu23  1  0.96008800  0.16994700  0.74403800  1
  Cu  Cu24  1  0.33005300  0.53991200  0.24403800  1
  Cu  Cu25  1  0.66994700  0.46008800  0.24403800  1
  Cu  Cu26  1  0.16994700  0.03991200  0.74403800  1
  Cu  Cu27  1  0.83005300  0.96008800  0.74403800  1
  Cu  Cu28  1  0.46008800  0.33005300  0.75596200  1
  Cu  Cu29  1  0.53991200  0.66994700  0.75596200  1
  Cu  Cu30  1  0.96008800  0.16994700  0.25596200  1
  Cu  Cu31  1  0.03991200  0.83005300  0.25596200  1
  Cu  Cu32  1  0.66994700  0.46008800  0.75596200  1
  Cu  Cu33  1  0.33005300  0.53991200  0.75596200  1
  Cu  Cu34  1  0.83005300  0.96008800  0.25596200  1
  Cu  Cu35  1  0.16994700  0.03991200  0.25596200  1
