# generated using pymatgen
data_Cu3Ni2C23
_symmetry_space_group_name_H-M   'P 1'
_cell_length_a   12.69189302
_cell_length_b   12.69189302
_cell_length_c   12.69189302
_cell_angle_alpha   150.34448098
_cell_angle_beta   109.65079906
_cell_angle_gamma   78.15278804
_symmetry_Int_Tables_number   1
_chemical_formula_structural   Cu3Ni2C23
_chemical_formula_sum   'Cu3 Ni2 C23'
_cell_volume   935.92664537
_cell_formula_units_Z   1
loop_
 _symmetry_equiv_pos_site_id
 _symmetry_equiv_pos_as_xyz
  1  'x, y, z'
loop_
 _atom_site_type_symbol
 _atom_site_label
 _atom_site_symmetry_multiplicity
 _atom_site_fract_x
 _atom_site_fract_y
 _atom_site_fract_z
 _atom_site_occupancy
  Ni  Ni0  1  0.13197900  0.63197900  0.50000000  1
  Ni  Ni1  1  0.86802100  0.36802100  0.50000000  1
  Cu  Cu2  1  0.00000000  0.00000000  0.00000000  1
  Cu  Cu3  1  0.66687900  0.66687900  0.00000000  1
  Cu  Cu4  1  0.33312100  0.33312100  0.00000000  1
  C  C5  1  0.55473800  0.81617000  0.73856900  1
  C  C6  1  0.07760100  0.81617000  0.26143100  1
  C  C7  1  0.92239900  0.18383100  0.73856900  1
  C  C8  1  0.44526200  0.18383100  0.26143100  1
  C  C9  1  0.29450200  0.50000000  0.79450200  1
  C  C10  1  0.70549800  0.50000000  0.20549800  1
  C  C11  1  0.84078700  0.00000000  0.84078700  1
  C  C12  1  0.15921300  0.00000000  0.15921300  1
  C  C13  1  0.88239700  0.88239700  0.00000000  1
  C  C14  1  0.11760300  0.11760300  0.00000000  1
  C  C15  1  0.30291600  0.57127700  0.73163900  1
  C  C16  1  0.83963800  0.57127700  0.26836100  1
  C  C17  1  0.16036200  0.42872300  0.73163900  1
  C  C18  1  0.69708400  0.42872300  0.26836100  1
  C  C19  1  0.74649000  0.01214900  0.26565900  1
  C  C20  1  0.74649000  0.48083100  0.73434100  1
  C  C21  1  0.25351000  0.98785100  0.73434100  1
  C  C22  1  0.25351000  0.51916900  0.26565900  1
  C  C23  1  0.58201200  0.82610600  0.24409400  1
  C  C24  1  0.58201200  0.33791800  0.75590600  1
  C  C25  1  0.41798800  0.17389400  0.75590600  1
  C  C26  1  0.41798800  0.66208200  0.24409400  1
  C  C27  1  0.00000000  0.50000000  0.50000000  1
