# generated using pymatgen
data_Cu6Ni3C
_symmetry_space_group_name_H-M   'P 1'
_cell_length_a   11.81325093
_cell_length_b   11.39041591
_cell_length_c   58.24838854
_cell_angle_alpha   90.00000000
_cell_angle_beta   90.00000000
_cell_angle_gamma   121.23577325
_symmetry_Int_Tables_number   1
_chemical_formula_structural   Cu6Ni3C
_chemical_formula_sum   'Cu6 Ni3 C1'
_cell_volume   6701.61836555
_cell_formula_units_Z   1
loop_
 _symmetry_equiv_pos_site_id
 _symmetry_equiv_pos_as_xyz
  1  'x, y, z'
loop_
 _atom_site_type_symbol
 _atom_site_label
 _atom_site_symmetry_multiplicity
 _atom_site_fract_x
 _atom_site_fract_y
 _atom_site_fract_z
 _atom_site_occupancy
  C  C0  1  0.00000000  -0.00000000  0.00000000  1
  Ni  Ni1  1  0.00000000  -0.00000000  0.50000000  1
  Ni  Ni2  1  0.50000000  0.50000000  0.00000000  1
  Ni  Ni3  1  0.00000000  0.50000000  0.00000000  1
  Cu  Cu4  1  0.00000000  -0.00000000  0.76899634  1
  Cu  Cu5  1  0.00000000  -0.00000000  0.23100366  1
  Cu  Cu6  1  0.75254417  0.75233980  -0.00000000  1
  Cu  Cu7  1  0.24745583  0.24766020  0.00000000  1
  Cu  Cu8  1  0.00020437  0.24766020  -0.00000000  1
  Cu  Cu9  1  0.99979563  0.75233980  0.00000000  1
