# generated using pymatgen
data_Cu17Ni2C5
_symmetry_space_group_name_H-M   'P 1'
_cell_length_a   11.24274985
_cell_length_b   11.24274985
_cell_length_c   9.99427529
_cell_angle_alpha   66.52782152
_cell_angle_beta   66.52782152
_cell_angle_gamma   103.45105388
_symmetry_Int_Tables_number   1
_chemical_formula_structural   Cu17Ni2C5
_chemical_formula_sum   'Cu34 Ni4 C10'
_cell_volume   940.93910567
_cell_formula_units_Z   2
loop_
 _symmetry_equiv_pos_site_id
 _symmetry_equiv_pos_as_xyz
  1  'x, y, z'
loop_
 _atom_site_type_symbol
 _atom_site_label
 _atom_site_symmetry_multiplicity
 _atom_site_fract_x
 _atom_site_fract_y
 _atom_site_fract_z
 _atom_site_occupancy
  C  C0  1  0.60953900  0.42341800  0.22428100  1
  C  C1  1  0.42341800  0.60953900  0.22428100  1
  C  C2  1  0.39046100  0.57658200  0.77571900  1
  C  C3  1  0.57658200  0.39046100  0.77571900  1
  C  C4  1  0.34723600  0.34723600  0.67376000  1
  C  C5  1  0.65276400  0.65276400  0.32624000  1
  C  C6  1  0.72050100  0.27949900  0.50000000  1
  C  C7  1  0.27949900  0.72050100  0.50000000  1
  C  C8  1  0.73603500  0.73603500  0.63199400  1
  C  C9  1  0.26396500  0.26396500  0.36800600  1
  Ni  Ni10  1  0.94070400  0.38093600  0.77276800  1
  Ni  Ni11  1  0.38093600  0.94070400  0.77276800  1
  Ni  Ni12  1  0.05929600  0.61906400  0.22723200  1
  Ni  Ni13  1  0.61906400  0.05929600  0.22723200  1
  Cu  Cu14  1  0.86646700  0.86646700  0.60093500  1
  Cu  Cu15  1  0.13353300  0.13353300  0.39906500  1
  Cu  Cu16  1  0.14846800  0.14846800  0.65867900  1
  Cu  Cu17  1  0.85153200  0.85153200  0.34132100  1
  Cu  Cu18  1  0.17242500  0.17242500  0.76710600  1
  Cu  Cu19  1  0.82757500  0.82757500  0.23289400  1
  Cu  Cu20  1  0.01765800  0.68194700  0.77431900  1
  Cu  Cu21  1  0.68194700  0.01765800  0.77431900  1
  Cu  Cu22  1  0.98234200  0.31805300  0.22568100  1
  Cu  Cu23  1  0.31805300  0.98234200  0.22568100  1
  Cu  Cu24  1  0.42505500  0.42505500  0.45589700  1
  Cu  Cu25  1  0.57494500  0.57494500  0.54410300  1
  Cu  Cu26  1  0.44246700  0.44246700  0.88169200  1
  Cu  Cu27  1  0.55753300  0.55753300  0.11830800  1
  Cu  Cu28  1  0.26122200  0.42337600  0.77087400  1
  Cu  Cu29  1  0.42337600  0.26122200  0.77087400  1
  Cu  Cu30  1  0.73877800  0.57662400  0.22912600  1
  Cu  Cu31  1  0.57662400  0.73877800  0.22912600  1
  Cu  Cu32  1  0.71508300  0.38819100  0.58155200  1
  Cu  Cu33  1  0.38819100  0.71508300  0.58155200  1
  Cu  Cu34  1  0.28491700  0.61180900  0.41844800  1
  Cu  Cu35  1  0.61180900  0.28491700  0.41844800  1
  Cu  Cu36  1  0.73564600  0.56910300  0.69741400  1
  Cu  Cu37  1  0.56910300  0.73564600  0.69741400  1
  Cu  Cu38  1  0.26435400  0.43089700  0.30258600  1
  Cu  Cu39  1  0.43089700  0.26435400  0.30258600  1
  Cu  Cu40  1  0.26858500  0.57220700  0.93465400  1
  Cu  Cu41  1  0.57220700  0.26858500  0.93465400  1
  Cu  Cu42  1  0.73141500  0.42779300  0.06534600  1
  Cu  Cu43  1  0.42779300  0.73141500  0.06534600  1
  Cu  Cu44  1  0.05551400  0.77086300  0.80998700  1
  Cu  Cu45  1  0.77086300  0.05551400  0.80998700  1
  Cu  Cu46  1  0.94448600  0.22913700  0.19001300  1
  Cu  Cu47  1  0.22913700  0.94448600  0.19001300  1
