# generated using pymatgen
data_Cu3NiC7
_symmetry_space_group_name_H-M   'P 1'
_cell_length_a   13.43343500
_cell_length_b   6.66389300
_cell_length_c   11.18629358
_cell_angle_alpha   77.18955539
_cell_angle_beta   90.00000000
_cell_angle_gamma   90.00000000
_symmetry_Int_Tables_number   1
_chemical_formula_structural   Cu3NiC7
_chemical_formula_sum   'Cu24 Ni8 C56'
_cell_volume   976.45998228
_cell_formula_units_Z   8
loop_
 _symmetry_equiv_pos_site_id
 _symmetry_equiv_pos_as_xyz
  1  'x, y, z'
loop_
 _atom_site_type_symbol
 _atom_site_label
 _atom_site_symmetry_multiplicity
 _atom_site_fract_x
 _atom_site_fract_y
 _atom_site_fract_z
 _atom_site_occupancy
  Ni  Ni0  1  0.50881700  0.91114000  0.73072700  1
  Ni  Ni1  1  0.86863800  0.69760100  0.94570400  1
  Ni  Ni2  1  0.36863800  0.30239900  0.55429600  1
  Ni  Ni3  1  0.13136200  0.30239900  0.05429600  1
  Ni  Ni4  1  0.63136200  0.69760100  0.44570400  1
  Ni  Ni5  1  0.99118300  0.91114000  0.23072700  1
  Ni  Ni6  1  0.49118300  0.08886000  0.26927300  1
  Ni  Ni7  1  0.00881700  0.08886000  0.76927300  1
  Cu  Cu8  1  0.87920500  0.16882900  0.98226500  1
  Cu  Cu9  1  0.01631600  0.60193300  0.69010800  1
  Cu  Cu10  1  0.48368400  0.60193300  0.19010800  1
  Cu  Cu11  1  0.98368400  0.39806700  0.30989200  1
  Cu  Cu12  1  0.71072500  0.50589100  0.79967000  1
  Cu  Cu13  1  0.21072500  0.49410900  0.70033000  1
  Cu  Cu14  1  0.28927500  0.49410900  0.20033000  1
  Cu  Cu15  1  0.78927500  0.50589100  0.29967000  1
  Cu  Cu16  1  0.51631600  0.39806700  0.80989200  1
  Cu  Cu17  1  0.14707700  0.12002100  0.48087800  1
  Cu  Cu18  1  0.64707700  0.87997900  0.01912200  1
  Cu  Cu19  1  0.85292300  0.87997900  0.51912200  1
  Cu  Cu20  1  0.37920500  0.83117100  0.51773500  1
  Cu  Cu21  1  0.62079500  0.16882900  0.48226500  1
  Cu  Cu22  1  0.12079500  0.83117100  0.01773500  1
  Cu  Cu23  1  0.35292300  0.12002100  0.98087800  1
  Cu  Cu24  1  0.67434500  0.37042200  0.08250100  1
  Cu  Cu25  1  0.17434500  0.62957800  0.41749900  1
  Cu  Cu26  1  0.32565500  0.62957800  0.91749900  1
  Cu  Cu27  1  0.82565500  0.37042200  0.58250100  1
  Cu  Cu28  1  0.75910500  0.01457000  0.24945800  1
  Cu  Cu29  1  0.25910500  0.98543000  0.25054200  1
  Cu  Cu30  1  0.24089500  0.98543000  0.75054200  1
  Cu  Cu31  1  0.74089500  0.01457000  0.74945800  1
  C  C32  1  0.00498900  0.23250300  0.96263400  1
  C  C33  1  0.50498900  0.76749700  0.53736600  1
  C  C34  1  0.99501100  0.76749700  0.03736600  1
  C  C35  1  0.49501100  0.23250300  0.46263400  1
  C  C36  1  0.85251900  0.01896400  0.86650500  1
  C  C37  1  0.35251900  0.98103600  0.63349500  1
  C  C38  1  0.14748100  0.98103600  0.13349500  1
  C  C39  1  0.64748100  0.01896400  0.36650500  1
  C  C40  1  0.86083500  0.01071400  0.13665900  1
  C  C41  1  0.36083500  0.98928600  0.36334100  1
  C  C42  1  0.13916500  0.98928600  0.86334100  1
  C  C43  1  0.63916500  0.01071400  0.63665900  1
  C  C44  1  0.27062000  0.33266100  0.94831800  1
  C  C45  1  0.77062000  0.66733900  0.55168200  1
  C  C46  1  0.72938000  0.66733900  0.05168200  1
  C  C47  1  0.22938000  0.33266100  0.44831800  1
  C  C48  1  0.36582500  0.02415200  0.14097300  1
  C  C49  1  0.86582500  0.97584800  0.35902700  1
  C  C50  1  0.63417500  0.97584800  0.85902700  1
  C  C51  1  0.13417500  0.02415200  0.64097300  1
  C  C52  1  0.33309700  0.93157700  0.88320900  1
  C  C53  1  0.43999100  0.63244600  0.82690100  1
  C  C54  1  0.83309700  0.06842300  0.61679100  1
  C  C55  1  0.16690300  0.93157700  0.38320900  1
  C  C56  1  0.47894400  0.25854900  0.70605800  1
  C  C57  1  0.97894400  0.74145100  0.79394200  1
  C  C58  1  0.52105600  0.74145100  0.29394200  1
  C  C59  1  0.02105600  0.25854900  0.20605800  1
  C  C60  1  0.47252400  0.20959000  0.94379100  1
  C  C61  1  0.97252400  0.79041000  0.55620900  1
  C  C62  1  0.52747600  0.79041000  0.05620900  1
  C  C63  1  0.02747600  0.20959000  0.44379100  1
  C  C64  1  0.90031400  0.59263500  0.20986000  1
  C  C65  1  0.40031400  0.40736500  0.29014000  1
  C  C66  1  0.09968600  0.40736500  0.79014000  1
  C  C67  1  0.59968600  0.59263500  0.70986000  1
  C  C68  1  0.76169100  0.30035300  0.21800000  1
  C  C69  1  0.26169100  0.69964700  0.28200000  1
  C  C70  1  0.23830900  0.69964700  0.78200000  1
  C  C71  1  0.73830900  0.30035300  0.71800000  1
  C  C72  1  0.69501500  0.40129700  0.44995400  1
  C  C73  1  0.19501500  0.59870300  0.05004600  1
  C  C74  1  0.30498500  0.59870300  0.55004600  1
  C  C75  1  0.80498500  0.40129700  0.94995400  1
  C  C76  1  0.72767400  0.74150200  0.28887000  1
  C  C77  1  0.22767400  0.25849800  0.21113000  1
  C  C78  1  0.27232600  0.25849800  0.71113000  1
  C  C79  1  0.77232600  0.74150200  0.78887000  1
  C  C80  1  0.88204000  0.42671000  0.42051500  1
  C  C81  1  0.38204000  0.57329000  0.07948500  1
  C  C82  1  0.11796000  0.57329000  0.57948500  1
  C  C83  1  0.61796000  0.42671000  0.92051500  1
  C  C84  1  0.06000900  0.63244600  0.32690100  1
  C  C85  1  0.56000900  0.36755400  0.17309900  1
  C  C86  1  0.93999100  0.36755400  0.67309900  1
  C  C87  1  0.66690300  0.06842300  0.11679100  1
