# generated using pymatgen
data_Cu10Ni3C16
_symmetry_space_group_name_H-M   'P 1'
_cell_length_a   7.50718100
_cell_length_b   9.55334999
_cell_length_c   10.24772312
_cell_angle_alpha   113.43303255
_cell_angle_beta   104.08619274
_cell_angle_gamma   88.23470592
_symmetry_Int_Tables_number   1
_chemical_formula_structural   Cu10Ni3C16
_chemical_formula_sum   'Cu20 Ni6 C32'
_cell_volume   652.26164708
_cell_formula_units_Z   2
loop_
 _symmetry_equiv_pos_site_id
 _symmetry_equiv_pos_as_xyz
  1  'x, y, z'
loop_
 _atom_site_type_symbol
 _atom_site_label
 _atom_site_symmetry_multiplicity
 _atom_site_fract_x
 _atom_site_fract_y
 _atom_site_fract_z
 _atom_site_occupancy
  C  C0  1  0.97167700  0.69865700  0.37562600  1
  C  C1  1  0.02832300  0.30134300  0.62437400  1
  C  C2  1  0.55916600  0.45041700  0.72281900  1
  C  C3  1  0.44083400  0.54958300  0.27718100  1
  Ni  Ni4  1  0.01615600  0.15639800  0.86438400  1
  Ni  Ni5  1  0.98384400  0.84360200  0.13561600  1
  Ni  Ni6  1  0.14923900  0.66090900  0.88565800  1
  Ni  Ni7  1  0.85076100  0.33909100  0.11434200  1
  Ni  Ni8  1  0.08393900  0.17539300  0.28642500  1
  Ni  Ni9  1  0.91606100  0.82460700  0.71357500  1
  Cu  Cu10  1  0.56160700  0.24501100  0.01758600  1
  Cu  Cu11  1  0.43839300  0.75498900  0.98241400  1
  Cu  Cu12  1  0.48752800  0.12652800  0.59786100  1
  Cu  Cu13  1  0.51247200  0.87347200  0.40213900  1
  Cu  Cu14  1  0.20840500  0.94948700  0.64179700  1
  Cu  Cu15  1  0.79159500  0.05051300  0.35820300  1
  Cu  Cu16  1  0.60408300  0.14074100  0.49373000  1
  Cu  Cu17  1  0.39591700  0.85925900  0.50627000  1
  Cu  Cu18  1  0.29852100  0.40910000  0.46040000  1
  Cu  Cu19  1  0.70147900  0.59090000  0.53960000  1
  Cu  Cu20  1  0.71555000  0.41312400  0.44585000  1
  Cu  Cu21  1  0.28445000  0.58687600  0.55415000  1
  Cu  Cu22  1  0.71267900  0.62259300  0.15531800  1
  Cu  Cu23  1  0.28732100  0.37740700  0.84468200  1
  Cu  Cu24  1  0.35191400  0.21494600  0.76380700  1
  Cu  Cu25  1  0.64808600  0.78505400  0.23619300  1
  Cu  Cu26  1  0.65560700  0.93859800  0.96743300  1
  Cu  Cu27  1  0.34439300  0.06140200  0.03256700  1
  Cu  Cu28  1  0.59488100  0.03650200  0.25053600  1
  Cu  Cu29  1  0.40511900  0.96349800  0.74946400  1
  C  C30  1  0.89406900  0.99786000  0.81984300  1
  C  C31  1  0.10593100  0.00214000  0.18015700  1
  C  C32  1  0.12062800  0.72536600  0.04707000  1
  C  C33  1  0.87937200  0.27463400  0.95293000  1
  C  C34  1  0.99306900  0.81817900  0.27115600  1
  C  C35  1  0.00693100  0.18182100  0.72884400  1
  C  C36  1  0.80227400  0.83486300  0.03148500  1
  C  C37  1  0.19772600  0.16513700  0.96851500  1
  C  C38  1  0.93497600  0.49578600  0.20986600  1
  C  C39  1  0.06502400  0.50421400  0.79013400  1
  C  C40  1  0.36565600  0.66031600  0.90864400  1
  C  C41  1  0.63434400  0.33968400  0.09135600  1
  C  C42  1  0.74528700  0.73173600  0.68905300  1
  C  C43  1  0.25471300  0.26826400  0.31094700  1
  C  C44  1  0.98928600  0.81698200  0.58638300  1
  C  C45  1  0.01071400  0.18301800  0.41361700  1
  C  C46  1  0.09238500  0.78760600  0.82456800  1
  C  C47  1  0.90761500  0.21239400  0.17543200  1
  C  C48  1  0.38730500  0.32533200  0.80292000  1
  C  C49  1  0.61269500  0.67466800  0.19708000  1
  C  C50  1  0.56336700  0.19920700  0.58511300  1
  C  C51  1  0.43663300  0.80079300  0.41488700  1
  C  C52  1  0.31997200  0.49206400  0.56453400  1
  C  C53  1  0.68002800  0.50793600  0.43546600  1
  C  C54  1  0.66002200  0.01746200  0.33763500  1
  C  C55  1  0.33997800  0.98253800  0.66236500  1
  C  C56  1  0.45105800  0.99945300  0.05441200  1
  C  C57  1  0.54894200  0.00054700  0.94558800  1
