# generated using pymatgen
data_Cu6Ni2C3
_symmetry_space_group_name_H-M   'P 1'
_cell_length_a   7.21356500
_cell_length_b   10.26941400
_cell_length_c   15.94654800
_cell_angle_alpha   90.00000000
_cell_angle_beta   90.00000000
_cell_angle_gamma   90.00000000
_symmetry_Int_Tables_number   1
_chemical_formula_structural   Cu6Ni2C3
_chemical_formula_sum   'Cu24 Ni8 C12'
_cell_volume   1181.30569114
_cell_formula_units_Z   4
loop_
 _symmetry_equiv_pos_site_id
 _symmetry_equiv_pos_as_xyz
  1  'x, y, z'
loop_
 _atom_site_type_symbol
 _atom_site_label
 _atom_site_symmetry_multiplicity
 _atom_site_fract_x
 _atom_site_fract_y
 _atom_site_fract_z
 _atom_site_occupancy
  C  C0  1  0.25000000  0.08625400  0.18315600  1
  C  C1  1  0.25000000  0.41374600  0.68315600  1
  C  C2  1  0.75000000  0.91374600  0.81684400  1
  C  C3  1  0.75000000  0.58625400  0.31684400  1
  C  C4  1  0.25000000  0.56455800  0.11898700  1
  C  C5  1  0.25000000  0.93544200  0.61898700  1
  C  C6  1  0.75000000  0.43544200  0.88101300  1
  C  C7  1  0.75000000  0.06455800  0.38101300  1
  Ni  Ni8  1  0.75000000  0.71888300  0.05646100  1
  Ni  Ni9  1  0.75000000  0.78111700  0.55646100  1
  Ni  Ni10  1  0.25000000  0.28111700  0.94353900  1
  Ni  Ni11  1  0.25000000  0.21888300  0.44353900  1
  Ni  Ni12  1  0.25000000  0.14980900  0.83187200  1
  Ni  Ni13  1  0.25000000  0.35019100  0.33187200  1
  Ni  Ni14  1  0.75000000  0.85019100  0.16812800  1
  Ni  Ni15  1  0.75000000  0.64980900  0.66812800  1
  C  C16  1  0.50000000  0.00000000  0.00000000  1
  C  C17  1  0.00000000  0.50000000  0.50000000  1
  C  C18  1  0.00000000  0.00000000  0.00000000  1
  C  C19  1  0.50000000  0.50000000  0.50000000  1
  Cu  Cu20  1  0.51277100  0.76969600  0.99202800  1
  Cu  Cu21  1  0.98722900  0.73030400  0.49202800  1
  Cu  Cu22  1  0.01277100  0.23030400  0.00797200  1
  Cu  Cu23  1  0.48722900  0.26969600  0.50797200  1
  Cu  Cu24  1  0.48722900  0.23030400  0.00797200  1
  Cu  Cu25  1  0.01277100  0.26969600  0.50797200  1
  Cu  Cu26  1  0.98722900  0.76969600  0.99202800  1
  Cu  Cu27  1  0.51277100  0.73030400  0.49202800  1
  Cu  Cu28  1  0.48511100  0.16633000  0.76731600  1
  Cu  Cu29  1  0.01488900  0.33367000  0.26731600  1
  Cu  Cu30  1  0.98511100  0.83367000  0.23268400  1
  Cu  Cu31  1  0.51488900  0.66633000  0.73268400  1
  Cu  Cu32  1  0.51488900  0.83367000  0.23268400  1
  Cu  Cu33  1  0.98511100  0.66633000  0.73268400  1
  Cu  Cu34  1  0.01488900  0.16633000  0.76731600  1
  Cu  Cu35  1  0.48511100  0.33367000  0.26731600  1
  Cu  Cu36  1  0.25000000  0.97323000  0.90527600  1
  Cu  Cu37  1  0.25000000  0.52677000  0.40527600  1
  Cu  Cu38  1  0.75000000  0.02677000  0.09472400  1
  Cu  Cu39  1  0.75000000  0.47323000  0.59472400  1
  Cu  Cu40  1  0.75000000  0.53276900  0.09022700  1
  Cu  Cu41  1  0.75000000  0.96723100  0.59022700  1
  Cu  Cu42  1  0.25000000  0.46723100  0.90977300  1
  Cu  Cu43  1  0.25000000  0.03276900  0.40977300  1
