# generated using pymatgen
data_Cu2Ni2C3
_symmetry_space_group_name_H-M   'P 1'
_cell_length_a   6.98930000
_cell_length_b   7.38159422
_cell_length_c   8.49221062
_cell_angle_alpha   108.85699590
_cell_angle_beta   101.07162565
_cell_angle_gamma   112.70574829
_symmetry_Int_Tables_number   1
_chemical_formula_structural   Cu2Ni2C3
_chemical_formula_sum   'Cu4 Ni4 C6'
_cell_volume   356.41098593
_cell_formula_units_Z   2
loop_
 _symmetry_equiv_pos_site_id
 _symmetry_equiv_pos_as_xyz
  1  'x, y, z'
loop_
 _atom_site_type_symbol
 _atom_site_label
 _atom_site_symmetry_multiplicity
 _atom_site_fract_x
 _atom_site_fract_y
 _atom_site_fract_z
 _atom_site_occupancy
  C  C0  1  0.40401400  0.74597800  0.87584600  1
  C  C1  1  0.59598600  0.25402200  0.12415400  1
  C  C2  1  0.50000000  0.50000000  0.50000000  1
  C  C3  1  0.00000000  0.00000000  0.00000000  1
  Ni  Ni4  1  0.63975500  0.81629600  0.13595200  1
  Ni  Ni5  1  0.91559800  0.90637900  0.32227800  1
  Ni  Ni6  1  0.08440200  0.09362100  0.67772200  1
  Ni  Ni7  1  0.36024500  0.18370400  0.86404800  1
  Cu  Cu8  1  0.88210300  0.98915900  0.77152900  1
  Cu  Cu9  1  0.44004500  0.69902800  0.20726300  1
  Cu  Cu10  1  0.11789700  0.01084100  0.22847100  1
  Cu  Cu11  1  0.55995500  0.30097200  0.79273700  1
  C  C12  1  0.01228900  0.75840500  0.01171800  1
  C  C13  1  0.98771100  0.24159500  0.98828200  1
