# generated using pymatgen
data_Cu4Ni7C23
_symmetry_space_group_name_H-M   'P 1'
_cell_length_a   6.24914800
_cell_length_b   7.49697615
_cell_length_c   11.20844082
_cell_angle_alpha   98.31201727
_cell_angle_beta   96.40620394
_cell_angle_gamma   97.65850163
_symmetry_Int_Tables_number   1
_chemical_formula_structural   Cu4Ni7C23
_chemical_formula_sum   'Cu4 Ni7 C23'
_cell_volume   510.35731891
_cell_formula_units_Z   1
loop_
 _symmetry_equiv_pos_site_id
 _symmetry_equiv_pos_as_xyz
  1  'x, y, z'
loop_
 _atom_site_type_symbol
 _atom_site_label
 _atom_site_symmetry_multiplicity
 _atom_site_fract_x
 _atom_site_fract_y
 _atom_site_fract_z
 _atom_site_occupancy
  C  C0  1  0.97750400  0.23476500  0.28031400  1
  C  C1  1  0.14081100  0.74513800  0.73790100  1
  C  C2  1  0.49011600  0.02559200  0.46173800  1
  C  C3  1  0.40581300  0.79962200  0.10714300  1
  C  C4  1  0.59922500  0.15359300  0.88121200  1
  Ni  Ni5  1  0.44992800  0.62779500  0.40842700  1
  Ni  Ni6  1  0.56486300  0.35862900  0.56208500  1
  Ni  Ni7  1  0.06667700  0.30627600  0.02708700  1
  Ni  Ni8  1  0.88862800  0.80549600  0.89573400  1
  Ni  Ni9  1  0.65713600  0.32190100  0.59482400  1
  Ni  Ni10  1  0.36953400  0.68323000  0.38292600  1
  Ni  Ni11  1  0.26525800  0.03598300  0.02589400  1
  Cu  Cu12  1  0.45156300  0.33390500  0.17771500  1
  Cu  Cu13  1  0.56245000  0.59354600  0.83341500  1
  Cu  Cu14  1  0.06370600  0.19313800  0.71318900  1
  Cu  Cu15  1  0.93433700  0.76391400  0.29494100  1
  C  C16  1  0.98638600  0.06958300  0.07521600  1
  C  C17  1  0.62868000  0.47727100  0.94537200  1
  C  C18  1  0.25306100  0.07623300  0.76398800  1
  C  C19  1  0.71956900  0.85907600  0.24929400  1
  C  C20  1  0.46681300  0.13637400  0.07834500  1
  C  C21  1  0.43410100  0.76358400  0.89701700  1
  C  C22  1  0.93063400  0.21698300  0.01025400  1
  C  C23  1  0.10474600  0.95661400  0.00271000  1
  C  C24  1  0.37127200  0.27049100  0.30725800  1
  C  C25  1  0.82199000  0.73205800  0.81658500  1
  C  C26  1  0.80834900  0.09552400  0.70812400  1
  C  C27  1  0.17173700  0.87995800  0.27659400  1
  C  C28  1  0.90273100  0.14239500  0.46324200  1
  C  C29  1  0.14165400  0.83497100  0.53680400  1
  C  C30  1  0.09544100  0.18975300  0.53633200  1
  C  C31  1  0.93919500  0.79419400  0.47645700  1
  C  C32  1  0.11449600  0.40949900  0.78010100  1
  C  C33  1  0.91160100  0.54291300  0.24076400  1
