# generated using pymatgen
data_Cu3(NiC10)2
_symmetry_space_group_name_H-M   'P 1'
_cell_length_a   5.53878318
_cell_length_b   5.53843041
_cell_length_c   22.79415025
_cell_angle_alpha   83.00315185
_cell_angle_beta   83.00612063
_cell_angle_gamma   59.96939351
_symmetry_Int_Tables_number   1
_chemical_formula_structural   Cu3(NiC10)2
_chemical_formula_sum   'Cu6 Ni4 C40'
_cell_volume   599.35610134
_cell_formula_units_Z   2
loop_
 _symmetry_equiv_pos_site_id
 _symmetry_equiv_pos_as_xyz
  1  'x, y, z'
loop_
 _atom_site_type_symbol
 _atom_site_label
 _atom_site_symmetry_multiplicity
 _atom_site_fract_x
 _atom_site_fract_y
 _atom_site_fract_z
 _atom_site_occupancy
  Ni  Ni0  1  0.50039300  0.50039500  0.49878000  1
  Ni  Ni1  1  0.00040600  0.00040900  0.99874100  1
  Ni  Ni2  1  0.59960600  0.59960600  0.20120200  1
  Ni  Ni3  1  0.09957900  0.09957800  0.70128200  1
  Cu  Cu4  1  0.30000000  0.30000000  0.09999700  1
  Cu  Cu5  1  0.79999600  0.79999900  0.60000400  1
  Cu  Cu6  1  0.89907200  0.89906300  0.30278700  1
  Cu  Cu7  1  0.39904700  0.39903600  0.80285100  1
  Cu  Cu8  1  0.20093700  0.20094800  0.39719700  1
  Cu  Cu9  1  0.70094700  0.70096100  0.89717300  1
  C  C10  1  0.85009400  0.85011800  0.44970900  1
  C  C11  1  0.35011900  0.35012800  0.94969700  1
  C  C12  1  0.24991000  0.24988100  0.25025500  1
  C  C13  1  0.74989700  0.74988500  0.75034300  1
  C  C14  1  0.65008900  0.65008300  0.04972200  1
  C  C15  1  0.15009100  0.15008100  0.54974200  1
  C  C16  1  0.94992000  0.94992500  0.15026000  1
  C  C17  1  0.44989900  0.44990900  0.65027300  1
  C  C18  1  0.04998900  0.04998900  0.85000900  1
  C  C19  1  0.55002600  0.55002600  0.34998800  1
  C  C20  1  0.29998500  0.80000700  0.09998500  1
  C  C21  1  0.80000800  0.29998200  0.60001600  1
  C  C22  1  0.80000200  0.80000200  0.09998300  1
  C  C23  1  0.29998900  0.29998900  0.60001900  1
  C  C24  1  0.80000500  0.29998800  0.09998500  1
  C  C25  1  0.29998300  0.80000500  0.60001600  1
  C  C26  1  0.19025100  0.70571300  0.39809900  1
  C  C27  1  0.69008900  0.20577400  0.89813400  1
  C  C28  1  0.90979500  0.39425400  0.30186200  1
  C  C29  1  0.40987800  0.89419900  0.80190200  1
  C  C30  1  0.39421900  0.39424300  0.30192800  1
  C  C31  1  0.89416700  0.89419300  0.80197500  1
  C  C32  1  0.70577800  0.70575200  0.39803200  1
  C  C33  1  0.20584300  0.20581600  0.89806500  1
  C  C34  1  0.70573900  0.19021200  0.39811100  1
  C  C35  1  0.20579900  0.69005300  0.89814400  1
  C  C36  1  0.39422700  0.90983400  0.30185100  1
  C  C37  1  0.89417400  0.40991400  0.80189200  1
  C  C38  1  0.59972100  0.10055400  0.19914800  1
  C  C39  1  0.09977800  0.60050700  0.69918000  1
  C  C40  1  0.00025500  0.49948400  0.00082900  1
  C  C41  1  0.50027400  0.99946500  0.50084200  1
  C  C42  1  0.10058200  0.10056800  0.19912500  1
  C  C43  1  0.60052300  0.60051000  0.69915100  1
  C  C44  1  0.49946600  0.49947900  0.00085500  1
  C  C45  1  0.99944200  0.99945600  0.50086500  1
  C  C46  1  0.10057400  0.59969100  0.19915400  1
  C  C47  1  0.60052300  0.09975400  0.69918500  1
  C  C48  1  0.49946800  0.00027900  0.00082300  1
  C  C49  1  0.99944700  0.50030200  0.50083500  1
