# generated using pymatgen
data_Cu2NiC16
_symmetry_space_group_name_H-M   'P 1'
_cell_length_a   5.35080427
_cell_length_b   5.35015124
_cell_length_c   10.24813420
_cell_angle_alpha   89.98387519
_cell_angle_beta   90.02542216
_cell_angle_gamma   60.03711556
_symmetry_Int_Tables_number   1
_chemical_formula_structural   Cu2NiC16
_chemical_formula_sum   'Cu2 Ni1 C16'
_cell_volume   254.16909839
_cell_formula_units_Z   1
loop_
 _symmetry_equiv_pos_site_id
 _symmetry_equiv_pos_as_xyz
  1  'x, y, z'
loop_
 _atom_site_type_symbol
 _atom_site_label
 _atom_site_symmetry_multiplicity
 _atom_site_fract_x
 _atom_site_fract_y
 _atom_site_fract_z
 _atom_site_occupancy
  Ni  Ni0  1  0.66535100  0.66545200  0.02142300  1
  Cu  Cu1  1  0.99981900  0.99983600  0.49072800  1
  Cu  Cu2  1  0.99928900  0.99939400  0.00699200  1
  C  C3  1  0.33336700  0.33345000  0.75525800  1
  C  C4  1  0.66667600  0.66630900  0.26710500  1
  C  C5  1  0.66684400  0.66688400  0.74531100  1
  C  C6  1  0.33275900  0.33282400  0.24211000  1
  C  C7  1  0.99092300  0.37867300  0.64536900  1
  C  C8  1  0.63070000  0.99160900  0.64554700  1
  C  C9  1  0.37838600  0.63081900  0.64540700  1
  C  C10  1  0.61509300  0.01257100  0.13278500  1
  C  C11  1  0.37013400  0.61537200  0.13251300  1
  C  C12  1  0.01283700  0.37023300  0.13252800  1
  C  C13  1  0.03582900  0.62849300  0.35175300  1
  C  C14  1  0.33486700  0.03583000  0.35216300  1
  C  C15  1  0.62837900  0.33488200  0.35173300  1
  C  C16  1  0.39192400  0.97604400  0.86258400  1
  C  C17  1  0.63246300  0.39170100  0.86259200  1
  C  C18  1  0.97685900  0.63212300  0.86234900  1
