# generated using pymatgen
data_Cu(Ni3C11)2
_symmetry_space_group_name_H-M   'P 1'
_cell_length_a   7.39032900
_cell_length_b   7.94610454
_cell_length_c   7.95627955
_cell_angle_alpha   117.71126494
_cell_angle_beta   95.45001366
_cell_angle_gamma   101.61226954
_symmetry_Int_Tables_number   1
_chemical_formula_structural   Cu(Ni3C11)2
_chemical_formula_sum   'Cu1 Ni6 C22'
_cell_volume   395.47472967
_cell_formula_units_Z   1
loop_
 _symmetry_equiv_pos_site_id
 _symmetry_equiv_pos_as_xyz
  1  'x, y, z'
loop_
 _atom_site_type_symbol
 _atom_site_label
 _atom_site_symmetry_multiplicity
 _atom_site_fract_x
 _atom_site_fract_y
 _atom_site_fract_z
 _atom_site_occupancy
  C  C0  1  0.81971400  0.81814700  0.65383800  1
  C  C1  1  0.17379900  0.17091800  0.34020300  1
  C  C2  1  0.50487200  0.50994800  0.49189600  1
  C  C3  1  0.88096100  0.80889900  0.23778300  1
  Ni  Ni4  1  0.23506600  0.68279200  0.66343200  1
  Ni  Ni5  1  0.76943400  0.32348700  0.33094600  1
  Ni  Ni6  1  0.49125200  0.95443100  0.77872700  1
  Ni  Ni7  1  0.50797800  0.05187700  0.22088800  1
  Ni  Ni8  1  0.77431200  0.31610600  0.97853600  1
  Ni  Ni9  1  0.23201800  0.67742400  0.02134500  1
  Cu  Cu10  1  0.09024800  0.17472500  0.80139100  1
  C  C11  1  0.74662800  0.47480300  0.77178900  1
  C  C12  1  0.25753900  0.51749500  0.22721100  1
  C  C13  1  0.70181700  0.98556100  0.81373600  1
  C  C14  1  0.29563600  0.03433600  0.17090800  1
  C  C15  1  0.80335000  0.41940900  0.11267100  1
  C  C16  1  0.20600300  0.57674800  0.88576500  1
  C  C17  1  0.92907200  0.17625500  0.06243000  1
  C  C18  1  0.07476300  0.81590300  0.93492900  1
  C  C19  1  0.62064600  0.87299400  0.34591200  1
  C  C20  1  0.36476700  0.12479700  0.66516200  1
  C  C21  1  0.74487000  0.48639500  0.36102400  1
  C  C22  1  0.26906200  0.52208100  0.63362500  1
  C  C23  1  0.92016300  0.18056200  0.47413800  1
  C  C24  1  0.07850300  0.81693700  0.52518700  1
  C  C25  1  0.56651500  0.19876400  0.31596500  1
  C  C26  1  0.43413600  0.81300100  0.67741300  1
  C  C27  1  0.57354900  0.19035400  0.01517700  1
  C  C28  1  0.43332700  0.80485100  0.98797300  1
