# generated using pymatgen
data_CuNiC6
_symmetry_space_group_name_H-M   'P 1'
_cell_length_a   5.83530600
_cell_length_b   7.23985700
_cell_length_c   8.65588900
_cell_angle_alpha   90.00000000
_cell_angle_beta   90.00000000
_cell_angle_gamma   90.00000000
_symmetry_Int_Tables_number   1
_chemical_formula_structural   CuNiC6
_chemical_formula_sum   'Cu4 Ni4 C24'
_cell_volume   365.68344687
_cell_formula_units_Z   4
loop_
 _symmetry_equiv_pos_site_id
 _symmetry_equiv_pos_as_xyz
  1  'x, y, z'
loop_
 _atom_site_type_symbol
 _atom_site_label
 _atom_site_symmetry_multiplicity
 _atom_site_fract_x
 _atom_site_fract_y
 _atom_site_fract_z
 _atom_site_occupancy
  C  C0  1  0.50000000  0.36290500  0.32639700  1
  C  C1  1  0.50000000  0.63709500  0.67360300  1
  C  C2  1  0.50000000  0.13709500  0.82639700  1
  C  C3  1  0.50000000  0.86290500  0.17360300  1
  Ni  Ni4  1  0.00000000  0.09230000  0.15002800  1
  Ni  Ni5  1  0.00000000  0.90770000  0.84997200  1
  Ni  Ni6  1  0.00000000  0.40770000  0.65002800  1
  Ni  Ni7  1  0.00000000  0.59230000  0.34997200  1
  Cu  Cu8  1  0.24887800  0.00000000  0.50000000  1
  Cu  Cu9  1  0.75112200  0.00000000  0.50000000  1
  Cu  Cu10  1  0.75112200  0.50000000  0.00000000  1
  Cu  Cu11  1  0.24887800  0.50000000  0.00000000  1
  C  C12  1  0.50000000  0.33045700  0.05430700  1
  C  C13  1  0.50000000  0.66954300  0.94569300  1
  C  C14  1  0.50000000  0.16954300  0.55430700  1
  C  C15  1  0.50000000  0.83045700  0.44569300  1
  C  C16  1  0.25970200  0.10749200  0.28911900  1
  C  C17  1  0.74029800  0.89250800  0.71088100  1
  C  C18  1  0.25970200  0.89250800  0.71088100  1
  C  C19  1  0.74029800  0.39250800  0.78911900  1
  C  C20  1  0.74029800  0.10749200  0.28911900  1
  C  C21  1  0.25970200  0.60749200  0.21088100  1
  C  C22  1  0.74029800  0.60749200  0.21088100  1
  C  C23  1  0.25970200  0.39250800  0.78911900  1
  C  C24  1  0.22469200  0.00000000  0.00000000  1
  C  C25  1  0.77530800  0.00000000  0.00000000  1
  C  C26  1  0.77530800  0.50000000  0.50000000  1
  C  C27  1  0.22469200  0.50000000  0.50000000  1
  C  C28  1  0.00000000  0.35224800  0.07768200  1
  C  C29  1  0.00000000  0.64775200  0.92231800  1
  C  C30  1  0.00000000  0.14775200  0.57768200  1
  C  C31  1  0.00000000  0.85224800  0.42231800  1
