# generated using pymatgen
data_Cu4Ni2C
_symmetry_space_group_name_H-M   'P 1'
_cell_length_a   3.76709800
_cell_length_b   9.46676400
_cell_length_c   18.62956300
_cell_angle_alpha   90.00000000
_cell_angle_beta   90.00000000
_cell_angle_gamma   90.00000000
_symmetry_Int_Tables_number   1
_chemical_formula_structural   Cu4Ni2C
_chemical_formula_sum   'Cu16 Ni8 C4'
_cell_volume   664.37171823
_cell_formula_units_Z   4
loop_
 _symmetry_equiv_pos_site_id
 _symmetry_equiv_pos_as_xyz
  1  'x, y, z'
loop_
 _atom_site_type_symbol
 _atom_site_label
 _atom_site_symmetry_multiplicity
 _atom_site_fract_x
 _atom_site_fract_y
 _atom_site_fract_z
 _atom_site_occupancy
  Ni  Ni0  1  0.25000000  0.83734400  0.99381700  1
  Ni  Ni1  1  0.25000000  0.33734400  0.50618300  1
  Ni  Ni2  1  0.75000000  0.16265600  0.00618300  1
  Ni  Ni3  1  0.75000000  0.66265600  0.49381700  1
  Ni  Ni4  1  0.75000000  0.50006500  0.88162700  1
  Ni  Ni5  1  0.75000000  0.00006500  0.61837300  1
  Ni  Ni6  1  0.25000000  0.49993500  0.11837300  1
  Ni  Ni7  1  0.25000000  0.99993500  0.38162700  1
  C  C8  1  0.25000000  0.15669300  0.81433300  1
  C  C9  1  0.25000000  0.65669300  0.68566700  1
  C  C10  1  0.75000000  0.84330700  0.18566700  1
  C  C11  1  0.75000000  0.34330700  0.31433300  1
  Cu  Cu12  1  0.25000000  0.30527300  0.95392300  1
  Cu  Cu13  1  0.25000000  0.80527300  0.54607700  1
  Cu  Cu14  1  0.75000000  0.69472700  0.04607700  1
  Cu  Cu15  1  0.75000000  0.19472700  0.45392300  1
  Cu  Cu16  1  0.75000000  0.99074300  0.91901600  1
  Cu  Cu17  1  0.75000000  0.49074300  0.58098400  1
  Cu  Cu18  1  0.25000000  0.00925700  0.08098400  1
  Cu  Cu19  1  0.25000000  0.50925700  0.41901600  1
  Cu  Cu20  1  0.25000000  0.65178400  0.85250800  1
  Cu  Cu21  1  0.25000000  0.15178400  0.64749200  1
  Cu  Cu22  1  0.75000000  0.34821600  0.14749200  1
  Cu  Cu23  1  0.75000000  0.84821600  0.35250800  1
  Cu  Cu24  1  0.25000000  0.12699000  0.27790500  1
  Cu  Cu25  1  0.25000000  0.62699000  0.22209500  1
  Cu  Cu26  1  0.75000000  0.87301000  0.72209500  1
  Cu  Cu27  1  0.75000000  0.37301000  0.77790500  1
