# generated using pymatgen
data_Cu3Ni2C
_symmetry_space_group_name_H-M   'P 1'
_cell_length_a   4.46866353
_cell_length_b   4.46866353
_cell_length_c   11.14024400
_cell_angle_alpha   90.00000000
_cell_angle_beta   90.00000000
_cell_angle_gamma   119.99999301
_symmetry_Int_Tables_number   1
_chemical_formula_structural   Cu3Ni2C
_chemical_formula_sum   'Cu3 Ni2 C1'
_cell_volume   192.65517354
_cell_formula_units_Z   1
loop_
 _symmetry_equiv_pos_site_id
 _symmetry_equiv_pos_as_xyz
  1  'x, y, z'
loop_
 _atom_site_type_symbol
 _atom_site_label
 _atom_site_symmetry_multiplicity
 _atom_site_fract_x
 _atom_site_fract_y
 _atom_site_fract_z
 _atom_site_occupancy
  C  C0  1  0.00000000  0.00000000  0.00000000  1
  Ni  Ni1  1  0.33333300  0.66666700  0.66829100  1
  Ni  Ni2  1  0.66666700  0.33333300  0.33170900  1
  Cu  Cu3  1  0.33333300  0.66666700  0.16713600  1
  Cu  Cu4  1  0.66666700  0.33333300  0.83286400  1
  Cu  Cu5  1  0.00000000  0.00000000  0.50000000  1
