# generated using pymatgen
data_Cu2(NiC5)3
_symmetry_space_group_name_H-M   'P 1'
_cell_length_a   6.99279139
_cell_length_b   6.99279139
_cell_length_c   6.99279119
_cell_angle_alpha   60.10387268
_cell_angle_beta   60.10387268
_cell_angle_gamma   60.10387791
_symmetry_Int_Tables_number   1
_chemical_formula_structural   Cu2(NiC5)3
_chemical_formula_sum   'Cu2 Ni3 C15'
_cell_volume   242.35815582
_cell_formula_units_Z   1
loop_
 _symmetry_equiv_pos_site_id
 _symmetry_equiv_pos_as_xyz
  1  'x, y, z'
loop_
 _atom_site_type_symbol
 _atom_site_label
 _atom_site_symmetry_multiplicity
 _atom_site_fract_x
 _atom_site_fract_y
 _atom_site_fract_z
 _atom_site_occupancy
  C  C0  1  0.00000000  0.00000000  0.00000000  1
  Ni  Ni1  1  0.00000000  0.50000000  0.00000000  1
  Ni  Ni2  1  0.00000000  0.00000000  0.50000000  1
  Ni  Ni3  1  0.50000000  0.00000000  0.00000000  1
  Cu  Cu4  1  0.68965000  0.68965000  0.68965000  1
  Cu  Cu5  1  0.31035000  0.31035000  0.31035000  1
  C  C6  1  0.59959400  0.59959400  0.59959400  1
  C  C7  1  0.40040600  0.40040600  0.40040600  1
  C  C8  1  0.84170000  0.48201900  0.84170000  1
  C  C9  1  0.84170000  0.84170000  0.48201900  1
  C  C10  1  0.48201900  0.84170000  0.84170000  1
  C  C11  1  0.15830000  0.51798100  0.15830000  1
  C  C12  1  0.15830000  0.15830000  0.51798100  1
  C  C13  1  0.51798100  0.15830000  0.15830000  1
  C  C14  1  0.74823700  0.08902000  0.74823700  1
  C  C15  1  0.74823700  0.74823700  0.08902000  1
  C  C16  1  0.08902000  0.74823700  0.74823700  1
  C  C17  1  0.25176300  0.91098000  0.25176300  1
  C  C18  1  0.25176300  0.25176300  0.91098000  1
  C  C19  1  0.91098000  0.25176300  0.25176300  1
