# generated using pymatgen
data_Cu3NiC8
_symmetry_space_group_name_H-M   'P 1'
_cell_length_a   6.95229900
_cell_length_b   6.95229900
_cell_length_c   11.29053200
_cell_angle_alpha   90.00000000
_cell_angle_beta   90.00000000
_cell_angle_gamma   90.00000000
_symmetry_Int_Tables_number   1
_chemical_formula_structural   Cu3NiC8
_chemical_formula_sum   'Cu9 Ni3 C24'
_cell_volume   545.72178297
_cell_formula_units_Z   3
loop_
 _symmetry_equiv_pos_site_id
 _symmetry_equiv_pos_as_xyz
  1  'x, y, z'
loop_
 _atom_site_type_symbol
 _atom_site_label
 _atom_site_symmetry_multiplicity
 _atom_site_fract_x
 _atom_site_fract_y
 _atom_site_fract_z
 _atom_site_occupancy
  Ni  Ni0  1  0.00000000  0.00000000  0.50000000  1
  Ni  Ni1  1  0.00000000  0.00000000  0.00000000  1
  Ni  Ni2  1  0.50000000  0.50000000  0.50000000  1
  Cu  Cu3  1  0.66900700  0.17015700  0.75053200  1
  Cu  Cu4  1  0.17015700  0.66900700  0.24946800  1
  Cu  Cu5  1  0.82984300  0.33099300  0.24946800  1
  Cu  Cu6  1  0.33099300  0.82984300  0.75053200  1
  Cu  Cu7  1  0.33099300  0.17015700  0.24946800  1
  Cu  Cu8  1  0.82984300  0.66900700  0.75053200  1
  Cu  Cu9  1  0.66900700  0.82984300  0.24946800  1
  Cu  Cu10  1  0.17015700  0.33099300  0.75053200  1
  Cu  Cu11  1  0.50000000  0.50000000  0.00000000  1
  C  C12  1  0.00000000  0.50000000  0.00000000  1
  C  C13  1  0.50000000  0.00000000  0.50000000  1
  C  C14  1  0.50000000  0.00000000  0.00000000  1
  C  C15  1  0.00000000  0.50000000  0.50000000  1
  C  C16  1  0.63650100  0.14134600  0.10287000  1
  C  C17  1  0.13827800  0.63795100  0.60373500  1
  C  C18  1  0.36349900  0.85865400  0.10287000  1
  C  C19  1  0.86172200  0.36204900  0.60373500  1
  C  C20  1  0.85865400  0.63650100  0.10287000  1
  C  C21  1  0.36204900  0.13827800  0.60373500  1
  C  C22  1  0.14134600  0.36349900  0.10287000  1
  C  C23  1  0.63795100  0.86172200  0.60373500  1
  C  C24  1  0.85865400  0.36349900  0.89713000  1
  C  C25  1  0.36204900  0.86172200  0.39626500  1
  C  C26  1  0.14134600  0.63650100  0.89713000  1
  C  C27  1  0.63795100  0.13827800  0.39626500  1
  C  C28  1  0.63650100  0.85865400  0.89713000  1
  C  C29  1  0.13827800  0.36204900  0.39626500  1
  C  C30  1  0.36349900  0.14134600  0.89713000  1
  C  C31  1  0.86172200  0.63795100  0.39626500  1
  C  C32  1  0.00000000  0.00000000  0.75029500  1
  C  C33  1  0.50000000  0.50000000  0.24672300  1
  C  C34  1  0.00000000  0.00000000  0.24970500  1
  C  C35  1  0.50000000  0.50000000  0.75327700  1
