# generated using pymatgen
data_Cu2NiC5
_symmetry_space_group_name_H-M   'P 1'
_cell_length_a   7.99668797
_cell_length_b   9.43252873
_cell_length_c   12.12153885
_cell_angle_alpha   90.00000000
_cell_angle_beta   90.00000000
_cell_angle_gamma   90.00000000
_symmetry_Int_Tables_number   1
_chemical_formula_structural   Cu2NiC5
_chemical_formula_sum   'Cu8 Ni4 C20'
_cell_volume   914.31542084
_cell_formula_units_Z   4
loop_
 _symmetry_equiv_pos_site_id
 _symmetry_equiv_pos_as_xyz
  1  'x, y, z'
loop_
 _atom_site_type_symbol
 _atom_site_label
 _atom_site_symmetry_multiplicity
 _atom_site_fract_x
 _atom_site_fract_y
 _atom_site_fract_z
 _atom_site_occupancy
  C  C0  1  0.16483404  0.75000000  0.77774229  1
  C  C1  1  0.83516596  0.25000000  0.22225771  1
  C  C2  1  0.66483404  0.25000000  0.72225771  1
  C  C3  1  0.33516596  0.75000000  0.27774229  1
  C  C4  1  0.48623502  0.75000000  0.99622086  1
  C  C5  1  0.51376498  0.25000000  0.00377914  1
  C  C6  1  0.98623502  0.25000000  0.50377914  1
  C  C7  1  0.01376498  0.75000000  0.49622086  1
  C  C8  1  0.64640475  0.75000000  0.71297909  1
  C  C9  1  0.35359525  0.25000000  0.28702091  1
  C  C10  1  0.14640475  0.25000000  0.78702091  1
  C  C11  1  0.85359525  0.75000000  0.21297909  1
  C  C12  1  0.79763773  0.94958002  0.94440594  1
  C  C13  1  0.20236227  0.05041998  0.05559406  1
  C  C14  1  0.29763773  0.05041998  0.55559406  1
  C  C15  1  0.20236227  0.44958002  0.05559406  1
  C  C16  1  0.70236227  0.94958002  0.44440594  1
  C  C17  1  0.79763773  0.55041998  0.94440594  1
  C  C18  1  0.70236227  0.55041998  0.44440594  1
  C  C19  1  0.29763773  0.44958002  0.55559406  1
  Ni  Ni20  1  0.40630293  0.75000000  0.52515457  1
  Ni  Ni21  1  0.59369707  0.25000000  0.47484543  1
  Ni  Ni22  1  0.90630293  0.25000000  0.97484543  1
  Ni  Ni23  1  0.09369707  0.75000000  0.02515457  1
  Cu  Cu24  1  0.92573249  0.99377811  0.67833104  1
  Cu  Cu25  1  0.07426751  0.00622189  0.32166896  1
  Cu  Cu26  1  0.42573249  0.00622189  0.82166896  1
  Cu  Cu27  1  0.07426751  0.49377811  0.32166896  1
  Cu  Cu28  1  0.57426751  0.99377811  0.17833104  1
  Cu  Cu29  1  0.92573249  0.50622189  0.67833104  1
  Cu  Cu30  1  0.57426751  0.50622189  0.17833104  1
  Cu  Cu31  1  0.42573249  0.49377811  0.82166896  1
