# generated using pymatgen
data_Cu(NiC4)3
_symmetry_space_group_name_H-M   'P 1'
_cell_length_a   9.44866618
_cell_length_b   9.44866618
_cell_length_c   17.88247500
_cell_angle_alpha   90.00000000
_cell_angle_beta   90.00000000
_cell_angle_gamma   120.00000129
_symmetry_Int_Tables_number   1
_chemical_formula_structural   Cu(NiC4)3
_chemical_formula_sum   'Cu6 Ni18 C72'
_cell_volume   1382.60863327
_cell_formula_units_Z   6
loop_
 _symmetry_equiv_pos_site_id
 _symmetry_equiv_pos_as_xyz
  1  'x, y, z'
loop_
 _atom_site_type_symbol
 _atom_site_label
 _atom_site_symmetry_multiplicity
 _atom_site_fract_x
 _atom_site_fract_y
 _atom_site_fract_z
 _atom_site_occupancy
  Ni  Ni0  1  0.68211900  0.68211900  0.87146000  1
  Ni  Ni1  1  0.00000000  0.68211900  0.37146000  1
  Ni  Ni2  1  0.68211900  0.00000000  0.37146000  1
  Ni  Ni3  1  0.31788100  0.00000000  0.87146000  1
  Ni  Ni4  1  0.00000000  0.31788100  0.87146000  1
  Ni  Ni5  1  0.31788100  0.31788100  0.37146000  1
  Ni  Ni6  1  0.65206700  0.65206700  0.62953800  1
  Ni  Ni7  1  0.00000000  0.65206700  0.12953800  1
  Ni  Ni8  1  0.65206700  0.00000000  0.12953800  1
  Ni  Ni9  1  0.34793300  0.00000000  0.62953800  1
  Ni  Ni10  1  0.00000000  0.34793300  0.62953800  1
  Ni  Ni11  1  0.34793300  0.34793300  0.12953800  1
  Ni  Ni12  1  0.33333300  0.66666700  0.27765300  1
  Ni  Ni13  1  0.66666700  0.33333300  0.77765300  1
  Ni  Ni14  1  0.33333300  0.66666700  0.77765300  1
  Ni  Ni15  1  0.66666700  0.33333300  0.27765300  1
  Ni  Ni16  1  0.00000000  0.00000000  0.71721900  1
  Ni  Ni17  1  0.00000000  0.00000000  0.21721900  1
  Cu  Cu18  1  0.33333300  0.66666700  0.99733800  1
  Cu  Cu19  1  0.66666700  0.33333300  0.49733800  1
  Cu  Cu20  1  0.33333300  0.66666700  0.49733800  1
  Cu  Cu21  1  0.66666700  0.33333300  0.99733800  1
  Cu  Cu22  1  0.00000000  0.00000000  0.50350300  1
  Cu  Cu23  1  0.00000000  0.00000000  0.00350300  1
  C  C24  1  0.66046200  0.66046200  0.42385200  1
  C  C25  1  0.00000000  0.66046200  0.92385200  1
  C  C26  1  0.66046200  0.00000000  0.92385200  1
  C  C27  1  0.33953800  0.00000000  0.42385200  1
  C  C28  1  0.00000000  0.33953800  0.42385200  1
  C  C29  1  0.33953800  0.33953800  0.92385200  1
  C  C30  1  0.66744900  0.66744900  0.24953700  1
  C  C31  1  0.00000000  0.66744900  0.74953700  1
  C  C32  1  0.66744900  0.00000000  0.74953700  1
  C  C33  1  0.33255100  0.00000000  0.24953700  1
  C  C34  1  0.00000000  0.33255100  0.24953700  1
  C  C35  1  0.33255100  0.33255100  0.74953700  1
  C  C36  1  0.67303800  0.67303800  0.07194200  1
  C  C37  1  0.00000000  0.67303800  0.57194200  1
  C  C38  1  0.67303800  0.00000000  0.57194200  1
  C  C39  1  0.32696200  0.00000000  0.07194200  1
  C  C40  1  0.00000000  0.32696200  0.07194200  1
  C  C41  1  0.32696200  0.32696200  0.57194200  1
  C  C42  1  0.80733200  0.80733200  0.43315100  1
  C  C43  1  0.00000000  0.80733200  0.93315100  1
  C  C44  1  0.80733200  0.00000000  0.93315100  1
  C  C45  1  0.19266800  0.00000000  0.43315100  1
  C  C46  1  0.00000000  0.19266800  0.43315100  1
  C  C47  1  0.19266800  0.19266800  0.93315100  1
  C  C48  1  0.66145700  0.14763400  0.91870700  1
  C  C49  1  0.85236600  0.51382300  0.91870700  1
  C  C50  1  0.48617700  0.33854300  0.91870700  1
  C  C51  1  0.51382300  0.66145700  0.41870700  1
  C  C52  1  0.33854300  0.85236600  0.41870700  1
  C  C53  1  0.14763400  0.48617700  0.41870700  1
  C  C54  1  0.66145700  0.51382300  0.41870700  1
  C  C55  1  0.14763400  0.66145700  0.91870700  1
  C  C56  1  0.51382300  0.85236600  0.91870700  1
  C  C57  1  0.48617700  0.14763400  0.41870700  1
  C  C58  1  0.85236600  0.33854300  0.41870700  1
  C  C59  1  0.33854300  0.48617700  0.91870700  1
  C  C60  1  0.51986300  0.51986300  0.24935200  1
  C  C61  1  0.00000000  0.51986300  0.74935200  1
  C  C62  1  0.51986300  0.00000000  0.74935200  1
  C  C63  1  0.48013700  0.00000000  0.24935200  1
  C  C64  1  0.00000000  0.48013700  0.24935200  1
  C  C65  1  0.48013700  0.48013700  0.74935200  1
  C  C66  1  0.81492000  0.14758700  0.74998200  1
  C  C67  1  0.85241300  0.66733300  0.74998200  1
  C  C68  1  0.33266700  0.18508000  0.74998200  1
  C  C69  1  0.66733300  0.81492000  0.24998200  1
  C  C70  1  0.18508000  0.85241300  0.24998200  1
  C  C71  1  0.14758700  0.33266700  0.24998200  1
  C  C72  1  0.81492000  0.66733300  0.24998200  1
  C  C73  1  0.14758700  0.81492000  0.74998200  1
  C  C74  1  0.66733300  0.85241300  0.74998200  1
  C  C75  1  0.33266700  0.14758700  0.24998200  1
  C  C76  1  0.85241300  0.18508000  0.24998200  1
  C  C77  1  0.18508000  0.33266700  0.74998200  1
  C  C78  1  0.67322600  0.14710300  0.56746400  1
  C  C79  1  0.85289700  0.52612300  0.56746400  1
  C  C80  1  0.47387700  0.32677400  0.56746400  1
  C  C81  1  0.52612300  0.67322600  0.06746400  1
  C  C82  1  0.32677400  0.85289700  0.06746400  1
  C  C83  1  0.14710300  0.47387700  0.06746400  1
  C  C84  1  0.67322600  0.52612300  0.06746400  1
  C  C85  1  0.14710300  0.67322600  0.56746400  1
  C  C86  1  0.52612300  0.85289700  0.56746400  1
  C  C87  1  0.47387700  0.14710300  0.06746400  1
  C  C88  1  0.85289700  0.32677400  0.06746400  1
  C  C89  1  0.32677400  0.47387700  0.56746400  1
  C  C90  1  0.81922700  0.81922700  0.08142600  1
  C  C91  1  0.00000000  0.81922700  0.58142600  1
  C  C92  1  0.81922700  0.00000000  0.58142600  1
  C  C93  1  0.18077300  0.00000000  0.08142600  1
  C  C94  1  0.00000000  0.18077300  0.08142600  1
  C  C95  1  0.18077300  0.18077300  0.58142600  1
