# generated using pymatgen
data_Cu59Ni13C48
_symmetry_space_group_name_H-M   'P 1'
_cell_length_a   9.38202100
_cell_length_b   9.96766114
_cell_length_c   18.38640239
_cell_angle_alpha   98.31545313
_cell_angle_beta   94.59628070
_cell_angle_gamma   91.95756842
_symmetry_Int_Tables_number   1
_chemical_formula_structural   Cu59Ni13C48
_chemical_formula_sum   'Cu59 Ni13 C48'
_cell_volume   1694.06412938
_cell_formula_units_Z   1
loop_
 _symmetry_equiv_pos_site_id
 _symmetry_equiv_pos_as_xyz
  1  'x, y, z'
loop_
 _atom_site_type_symbol
 _atom_site_label
 _atom_site_symmetry_multiplicity
 _atom_site_fract_x
 _atom_site_fract_y
 _atom_site_fract_z
 _atom_site_occupancy
  C  C0  1  0.15091800  0.89574200  0.02957800  1
  C  C1  1  0.27492400  0.55258700  0.74037100  1
  C  C2  1  0.97603500  0.64517000  0.84984300  1
  C  C3  1  0.36352800  0.65962300  0.93639300  1
  C  C4  1  0.18802800  0.27737900  0.50380300  1
  C  C5  1  0.53212300  0.37809300  0.54770900  1
  C  C6  1  0.09181100  0.26959800  0.70203700  1
  C  C7  1  0.45357300  0.34681400  0.82708300  1
  C  C8  1  0.04897200  0.34043900  0.89968900  1
  C  C9  1  0.31522200  0.00337100  0.24612200  1
  C  C10  1  0.02114100  0.16016700  0.34665100  1
  C  C11  1  0.42737800  0.01756000  0.46016500  1
  C  C12  1  0.80978000  0.07024400  0.59013100  1
  C  C13  1  0.41784800  0.05980100  0.64559400  1
  C  C14  1  0.80591900  0.09573300  0.79163100  1
  C  C15  1  0.57059000  0.01715300  0.11156000  1
  C  C16  1  0.47598400  0.06108600  0.92641800  1
  C  C17  1  0.91465200  0.89098700  0.17789200  1
  C  C18  1  0.59963500  0.81981100  0.30120700  1
  C  C19  1  0.10152200  0.83516700  0.34763700  1
  C  C20  1  0.60355100  0.77999500  0.56500400  1
  C  C21  1  0.95045000  0.79941800  0.66856900  1
  C  C22  1  0.55598500  0.81835400  0.75685100  1
  C  C23  1  0.04460700  0.55260800  0.06790200  1
  C  C24  1  0.43170200  0.66240700  0.12178900  1
  C  C25  1  0.84710400  0.57675100  0.25030900  1
  C  C26  1  0.44335900  0.60570500  0.41411500  1
  C  C27  1  0.91524200  0.65211200  0.48968900  1
  C  C28  1  0.67912500  0.40244900  0.04823900  1
  C  C29  1  0.16781600  0.33553600  0.20070600  1
  C  C30  1  0.52793800  0.38387800  0.24538200  1
  C  C31  1  0.86338800  0.14519700  0.00322500  1
  C  C32  1  0.87642100  0.34696200  0.54720700  1
  C  C33  1  0.24835100  0.62357500  0.26293800  1
  C  C34  1  0.21655300  0.85546700  0.82858000  1
  C  C35  1  0.73471000  0.71366600  0.02810800  1
  C  C36  1  0.28605400  0.61665400  0.58798500  1
  C  C37  1  0.73259100  0.36937500  0.73387000  1
  C  C38  1  0.26898600  0.34778900  0.35676900  1
  C  C39  1  0.29464500  0.18628400  0.07550400  1
  C  C40  1  0.66551200  0.14135800  0.31686300  1
  C  C41  1  0.20985800  0.06716600  0.78879000  1
  C  C42  1  0.77035200  0.86480200  0.89724000  1
  C  C43  1  0.18358900  0.81048300  0.50210500  1
  C  C44  1  0.74509300  0.55759800  0.66900700  1
  C  C45  1  0.77172800  0.42172300  0.41105700  1
  C  C46  1  0.33025400  0.37569800  0.98375400  1
  C  C47  1  0.83070500  0.20421400  0.18485800  1
  Ni  Ni48  1  0.81511800  0.75212100  0.95199600  1
  Ni  Ni49  1  0.61938800  0.42455200  0.66688700  1
  Ni  Ni50  1  0.92557500  0.37747500  0.45582200  1
  Ni  Ni51  1  0.66845500  0.15974700  0.22437200  1
  Ni  Ni52  1  0.69208900  0.00908600  0.90398000  1
  Ni  Ni53  1  0.37124000  0.69894600  0.67158200  1
  Ni  Ni54  1  0.39528900  0.85062400  0.85310900  1
  Ni  Ni55  1  0.71405600  0.71984900  0.66888200  1
  Ni  Ni56  1  0.13633400  0.69749500  0.55892400  1
  Ni  Ni57  1  0.40035700  0.29125100  0.14402800  1
  Ni  Ni58  1  0.32673000  0.48089100  0.30785300  1
  Ni  Ni59  1  0.80786900  0.37398000  0.16304300  1
  Ni  Ni60  1  0.20402800  0.27252200  0.01452200  1
  Cu  Cu61  1  0.37704600  0.05792300  0.03317300  1
  Cu  Cu62  1  0.13864700  0.81074400  0.90092300  1
  Cu  Cu63  1  0.11786400  0.73940500  0.76287400  1
  Cu  Cu64  1  0.81892800  0.52670300  0.75425800  1
  Cu  Cu65  1  0.24243000  0.45938900  0.59743800  1
  Cu  Cu66  1  0.05308600  0.56339600  0.94890000  1
  Cu  Cu67  1  0.43868000  0.56553500  0.82758000  1
  Cu  Cu68  1  0.08244700  0.46060000  0.78894400  1
  Cu  Cu69  1  0.42351400  0.61133600  0.53407600  1
  Cu  Cu70  1  0.86828600  0.51437400  0.60514300  1
  Cu  Cu71  1  0.37450200  0.37366200  0.43691100  1
  Cu  Cu72  1  0.32021700  0.33200700  0.72466300  1
  Cu  Cu73  1  0.00738700  0.22958100  0.57656300  1
  Cu  Cu74  1  0.38989400  0.19899100  0.54712300  1
  Cu  Cu75  1  0.68634100  0.31482700  0.80887900  1
  Cu  Cu76  1  0.32075000  0.52866300  0.02898500  1
  Cu  Cu77  1  0.83900300  0.25140300  0.70098900  1
  Cu  Cu78  1  0.27759400  0.40723000  0.90048800  1
  Cu  Cu79  1  0.31217200  0.22359000  0.28730300  1
  Cu  Cu80  1  0.65831100  0.30878800  0.35551500  1
  Cu  Cu81  1  0.19834200  0.11633300  0.13489500  1
  Cu  Cu82  1  0.20067600  0.08069800  0.41703200  1
  Cu  Cu83  1  0.52245900  0.05060800  0.33671500  1
  Cu  Cu84  1  0.08406000  0.98057300  0.26769600  1
  Cu  Cu85  1  0.71377700  0.24798600  0.53890500  1
  Cu  Cu86  1  0.08363400  0.17859100  0.80016700  1
  Cu  Cu87  1  0.58419600  0.99510300  0.56237900  1
  Cu  Cu88  1  0.21769600  0.05509100  0.69807400  1
  Cu  Cu89  1  0.48885400  0.31542400  0.96509600  1
  Cu  Cu90  1  0.93406800  0.14550800  0.89869000  1
  Cu  Cu91  1  0.72146700  0.85740900  0.08643400  1
  Cu  Cu92  1  0.59140800  0.02637800  0.73176300  1
  Cu  Cu93  1  0.48615300  0.88453700  0.19241200  1
  Cu  Cu94  1  0.35824200  0.14061600  0.83534700  1
  Cu  Cu95  1  0.05811300  0.77497500  0.11768400  1
  Cu  Cu96  1  0.36828900  0.79405300  0.04348000  1
  Cu  Cu97  1  0.80509600  0.07693000  0.35356800  1
  Cu  Cu98  1  0.28800500  0.93994000  0.53892700  1
  Cu  Cu99  1  0.82241800  0.79714200  0.26369900  1
  Cu  Cu100  1  0.31747800  0.79684600  0.29196400  1
  Cu  Cu101  1  0.90311700  0.99988100  0.68988900  1
  Cu  Cu102  1  0.43101200  0.82667600  0.65067500  1
  Cu  Cu103  1  0.83473500  0.82680100  0.55724300  1
  Cu  Cu104  1  0.81995600  0.82198700  0.81412200  1
  Cu  Cu105  1  0.81605900  0.61098700  0.08006100  1
  Cu  Cu106  1  0.06960000  0.63750300  0.28650200  1
  Cu  Cu107  1  0.58034600  0.62376200  0.00805300  1
  Cu  Cu108  1  0.24047700  0.55510300  0.16816000  1
  Cu  Cu109  1  0.56352900  0.79920700  0.42130300  1
  Cu  Cu110  1  0.02561900  0.83469800  0.45727400  1
  Cu  Cu111  1  0.58591800  0.60529100  0.24908800  1
  Cu  Cu112  1  0.26377000  0.74312700  0.42883500  1
  Cu  Cu113  1  0.66678400  0.51056600  0.47065500  1
  Cu  Cu114  1  0.95942400  0.43512100  0.16334700  1
  Cu  Cu115  1  0.49896700  0.40061800  0.12636300  1
  Cu  Cu116  1  0.88592000  0.35842800  0.00297100  1
  Cu  Cu117  1  0.81868000  0.54510300  0.36455800  1
  Cu  Cu118  1  0.97429800  0.24436300  0.24802200  1
  Cu  Cu119  1  0.65848700  0.16560100  0.04429800  1
