# generated using pymatgen
data_Cu2(NiC5)3
_symmetry_space_group_name_H-M   'P 1'
_cell_length_a   10.72892026
_cell_length_b   10.72892026
_cell_length_c   10.72892026
_cell_angle_alpha   109.47122063
_cell_angle_beta   109.47122063
_cell_angle_gamma   109.47122063
_symmetry_Int_Tables_number   1
_chemical_formula_structural   Cu2(NiC5)3
_chemical_formula_sum   'Cu8 Ni12 C60'
_cell_volume   950.70584012
_cell_formula_units_Z   4
loop_
 _symmetry_equiv_pos_site_id
 _symmetry_equiv_pos_as_xyz
  1  'x, y, z'
loop_
 _atom_site_type_symbol
 _atom_site_label
 _atom_site_symmetry_multiplicity
 _atom_site_fract_x
 _atom_site_fract_y
 _atom_site_fract_z
 _atom_site_occupancy
  C  C0  1  0.25000000  0.37500000  0.12500000  1
  C  C1  1  0.75000000  0.12500000  0.37500000  1
  C  C2  1  0.37500000  0.12500000  0.25000000  1
  C  C3  1  0.12500000  0.37500000  0.75000000  1
  C  C4  1  0.25000000  0.87500000  0.62500000  1
  C  C5  1  0.12500000  0.25000000  0.37500000  1
  C  C6  1  0.62500000  0.25000000  0.87500000  1
  C  C7  1  0.75000000  0.62500000  0.87500000  1
  C  C8  1  0.87500000  0.75000000  0.62500000  1
  C  C9  1  0.87500000  0.62500000  0.25000000  1
  C  C10  1  0.62500000  0.87500000  0.75000000  1
  C  C11  1  0.37500000  0.75000000  0.12500000  1
  Ni  Ni12  1  0.12500000  0.75000000  0.87500000  1
  Ni  Ni13  1  0.87500000  0.25000000  0.12500000  1
  Ni  Ni14  1  0.75000000  0.37500000  0.62500000  1
  Ni  Ni15  1  0.12500000  0.87500000  0.25000000  1
  Ni  Ni16  1  0.25000000  0.12500000  0.87500000  1
  Ni  Ni17  1  0.37500000  0.62500000  0.75000000  1
  Ni  Ni18  1  0.37500000  0.25000000  0.62500000  1
  Ni  Ni19  1  0.87500000  0.12500000  0.75000000  1
  Ni  Ni20  1  0.62500000  0.37500000  0.25000000  1
  Ni  Ni21  1  0.75000000  0.87500000  0.12500000  1
  Ni  Ni22  1  0.25000000  0.62500000  0.37500000  1
  Ni  Ni23  1  0.62500000  0.75000000  0.37500000  1
  Cu  Cu24  1  0.50000000  0.00000000  0.00000000  1
  Cu  Cu25  1  0.50000000  0.50000000  0.00000000  1
  Cu  Cu26  1  0.00000000  0.50000000  0.50000000  1
  Cu  Cu27  1  0.00000000  0.00000000  0.50000000  1
  Cu  Cu28  1  0.50000000  0.50000000  0.50000000  1
  Cu  Cu29  1  0.00000000  0.50000000  0.00000000  1
  Cu  Cu30  1  0.50000000  0.00000000  0.50000000  1
  Cu  Cu31  1  0.00000000  0.00000000  0.00000000  1
  C  C32  1  0.59734800  0.89248100  0.36943900  1
  C  C33  1  0.36943900  0.59734800  0.89248100  1
  C  C34  1  0.27209200  0.29513300  0.90265200  1
  C  C35  1  0.47695800  0.60751900  0.20486700  1
  C  C36  1  0.29513300  0.89248100  0.02304200  1
  C  C37  1  0.13056100  0.02304200  0.22790800  1
  C  C38  1  0.36943900  0.27209200  0.47695800  1
  C  C39  1  0.89248100  0.36943900  0.59734800  1
  C  C40  1  0.20486700  0.22790800  0.59734800  1
  C  C41  1  0.47695800  0.36943900  0.27209200  1
  C  C42  1  0.89248100  0.02304200  0.29513300  1
  C  C43  1  0.60751900  0.90265200  0.13056100  1
  C  C44  1  0.90265200  0.13056100  0.60751900  1
  C  C45  1  0.27209200  0.47695800  0.36943900  1
  C  C46  1  0.59734800  0.20486700  0.22790800  1
  C  C47  1  0.22790800  0.59734800  0.20486700  1
  C  C48  1  0.02304200  0.29513300  0.89248100  1
  C  C49  1  0.90265200  0.27209200  0.29513300  1
  C  C50  1  0.02304200  0.22790800  0.13056100  1
  C  C51  1  0.79513300  0.77209200  0.40265200  1
  C  C52  1  0.20486700  0.47695800  0.60751900  1
  C  C53  1  0.60751900  0.20486700  0.47695800  1
  C  C54  1  0.22790800  0.13056100  0.02304200  1
  C  C55  1  0.13056100  0.60751900  0.90265200  1
  C  C56  1  0.40265200  0.10751900  0.63056100  1
  C  C57  1  0.63056100  0.40265200  0.10751900  1
  C  C58  1  0.72790800  0.70486700  0.09734800  1
  C  C59  1  0.52304200  0.39248100  0.79513300  1
  C  C60  1  0.70486700  0.10751900  0.97695800  1
  C  C61  1  0.86943900  0.97695800  0.77209200  1
  C  C62  1  0.63056100  0.72790800  0.52304200  1
  C  C63  1  0.10751900  0.63056100  0.40265200  1
  C  C64  1  0.86943900  0.39248100  0.09734800  1
  C  C65  1  0.77209200  0.86943900  0.97695800  1
  C  C66  1  0.39248100  0.79513300  0.52304200  1
  C  C67  1  0.70486700  0.09734800  0.72790800  1
  C  C68  1  0.79513300  0.52304200  0.39248100  1
  C  C69  1  0.97695800  0.77209200  0.86943900  1
  C  C70  1  0.09734800  0.72790800  0.70486700  1
  C  C71  1  0.97695800  0.70486700  0.10751900  1
  C  C72  1  0.77209200  0.40265200  0.79513300  1
  C  C73  1  0.40265200  0.79513300  0.77209200  1
  C  C74  1  0.72790800  0.52304200  0.63056100  1
  C  C75  1  0.09734800  0.86943900  0.39248100  1
  C  C76  1  0.39248100  0.09734800  0.86943900  1
  C  C77  1  0.10751900  0.97695800  0.70486700  1
  C  C78  1  0.52304200  0.63056100  0.72790800  1
  C  C79  1  0.29513300  0.90265200  0.27209200  1
