# generated using pymatgen
data_CuNiC11
_symmetry_space_group_name_H-M   'P 1'
_cell_length_a   6.27620600
_cell_length_b   7.81709600
_cell_length_c   13.92829300
_cell_angle_alpha   90.00000000
_cell_angle_beta   90.00000000
_cell_angle_gamma   90.00000000
_symmetry_Int_Tables_number   1
_chemical_formula_structural   CuNiC11
_chemical_formula_sum   'Cu4 Ni4 C44'
_cell_volume   683.34579978
_cell_formula_units_Z   4
loop_
 _symmetry_equiv_pos_site_id
 _symmetry_equiv_pos_as_xyz
  1  'x, y, z'
loop_
 _atom_site_type_symbol
 _atom_site_label
 _atom_site_symmetry_multiplicity
 _atom_site_fract_x
 _atom_site_fract_y
 _atom_site_fract_z
 _atom_site_occupancy
  Ni  Ni0  1  0.75000000  0.84462600  0.38061400  1
  Ni  Ni1  1  0.25000000  0.15537400  0.61938600  1
  Ni  Ni2  1  0.25000000  0.34462600  0.11938600  1
  Ni  Ni3  1  0.75000000  0.65537400  0.88061400  1
  Cu  Cu4  1  0.50000000  0.50000000  0.50000000  1
  Cu  Cu5  1  0.50000000  0.00000000  0.00000000  1
  Cu  Cu6  1  0.00000000  0.00000000  0.00000000  1
  Cu  Cu7  1  0.00000000  0.50000000  0.50000000  1
  C  C8  1  0.25000000  0.84911200  0.44017700  1
  C  C9  1  0.75000000  0.15088800  0.55982300  1
  C  C10  1  0.75000000  0.34911200  0.05982300  1
  C  C11  1  0.25000000  0.65088800  0.94017700  1
  C  C12  1  0.75000000  0.89024500  0.18955200  1
  C  C13  1  0.25000000  0.10975500  0.81044800  1
  C  C14  1  0.25000000  0.39024500  0.31044800  1
  C  C15  1  0.75000000  0.60975500  0.68955200  1
  C  C16  1  0.04757400  0.10673800  0.87167400  1
  C  C17  1  0.54757400  0.89326200  0.12832600  1
  C  C18  1  0.95242600  0.60673800  0.62832600  1
  C  C19  1  0.45242600  0.39326200  0.37167400  1
  C  C20  1  0.95242600  0.89326200  0.12832600  1
  C  C21  1  0.45242600  0.10673800  0.87167400  1
  C  C22  1  0.04757400  0.39326200  0.37167400  1
  C  C23  1  0.54757400  0.60673800  0.62832600  1
  C  C24  1  0.25000000  0.83419400  0.98062400  1
  C  C25  1  0.75000000  0.16580600  0.01937600  1
  C  C26  1  0.75000000  0.33419400  0.51937600  1
  C  C27  1  0.25000000  0.66580600  0.48062400  1
  C  C28  1  0.75000000  0.65943500  0.44403600  1
  C  C29  1  0.25000000  0.34056500  0.55596400  1
  C  C30  1  0.25000000  0.15943500  0.05596400  1
  C  C31  1  0.75000000  0.84056500  0.94403600  1
  C  C32  1  0.75000000  0.72895100  0.25861800  1
  C  C33  1  0.25000000  0.27104900  0.74138200  1
  C  C34  1  0.25000000  0.22895100  0.24138200  1
  C  C35  1  0.75000000  0.77104900  0.75861800  1
  C  C36  1  0.44887400  0.62819600  0.87567700  1
  C  C37  1  0.94887400  0.37180400  0.12432300  1
  C  C38  1  0.55112600  0.12819600  0.62432300  1
  C  C39  1  0.05112600  0.87180400  0.37567700  1
  C  C40  1  0.55112600  0.37180400  0.12432300  1
  C  C41  1  0.05112600  0.62819600  0.87567700  1
  C  C42  1  0.44887400  0.87180400  0.37567700  1
  C  C43  1  0.94887400  0.12819600  0.62432300  1
  C  C44  1  0.75000000  0.46689500  0.76824200  1
  C  C45  1  0.25000000  0.53310500  0.23175800  1
  C  C46  1  0.25000000  0.96689500  0.73175800  1
  C  C47  1  0.75000000  0.03310500  0.26824200  1
  C  C48  1  0.75000000  0.48716000  0.98134800  1
  C  C49  1  0.25000000  0.51284000  0.01865200  1
  C  C50  1  0.25000000  0.98716000  0.51865200  1
  C  C51  1  0.75000000  0.01284000  0.48134800  1
