# generated using pymatgen
data_CuNiC12
_symmetry_space_group_name_H-M   'P 1'
_cell_length_a   9.52130000
_cell_length_b   9.27697100
_cell_length_c   17.32956229
_cell_angle_alpha   85.65020010
_cell_angle_beta   90.00000000
_cell_angle_gamma   90.00000000
_symmetry_Int_Tables_number   1
_chemical_formula_structural   CuNiC12
_chemical_formula_sum   'Cu4 Ni4 C48'
_cell_volume   1526.29081001
_cell_formula_units_Z   4
loop_
 _symmetry_equiv_pos_site_id
 _symmetry_equiv_pos_as_xyz
  1  'x, y, z'
loop_
 _atom_site_type_symbol
 _atom_site_label
 _atom_site_symmetry_multiplicity
 _atom_site_fract_x
 _atom_site_fract_y
 _atom_site_fract_z
 _atom_site_occupancy
  Ni  Ni0  1  0.25000000  0.16225400  0.15663400  1
  Ni  Ni1  1  0.75000000  0.83774600  0.84336600  1
  Ni  Ni2  1  0.25000000  0.36788000  0.66826300  1
  Ni  Ni3  1  0.75000000  0.63212000  0.33173700  1
  Cu  Cu4  1  0.25000000  0.70744500  0.08031700  1
  Cu  Cu5  1  0.75000000  0.29255500  0.91968300  1
  Cu  Cu6  1  0.25000000  0.83121900  0.60482100  1
  Cu  Cu7  1  0.75000000  0.16878100  0.39517900  1
  C  C8  1  0.41292900  0.93215500  0.19380600  1
  C  C9  1  0.91292900  0.06784500  0.80619400  1
  C  C10  1  0.58707100  0.06784500  0.80619400  1
  C  C11  1  0.08707100  0.93215500  0.19380600  1
  C  C12  1  0.25000000  0.07254800  0.02243000  1
  C  C13  1  0.75000000  0.92745200  0.97757000  1
  C  C14  1  0.41428500  0.39090100  0.12164500  1
  C  C15  1  0.91428500  0.60909900  0.87835500  1
  C  C16  1  0.58571500  0.60909900  0.87835500  1
  C  C17  1  0.08571500  0.39090100  0.12164500  1
  C  C18  1  0.25000000  0.22825600  0.29068000  1
  C  C19  1  0.75000000  0.77174400  0.70932000  1
  C  C20  1  0.25000000  0.12803200  0.57565100  1
  C  C21  1  0.75000000  0.87196800  0.42434900  1
  C  C22  1  0.25000000  0.60153300  0.75759900  1
  C  C23  1  0.75000000  0.39846700  0.24240100  1
  C  C24  1  0.50992000  0.36275600  0.65787900  1
  C  C25  1  0.00992000  0.63724400  0.34212100  1
  C  C26  1  0.49008000  0.63724400  0.34212100  1
  C  C27  1  0.99008000  0.36275600  0.65787900  1
  C  C28  1  0.25000000  0.54372100  0.54944900  1
  C  C29  1  0.75000000  0.45627900  0.45055100  1
  C  C30  1  0.25000000  0.20266100  0.78492100  1
  C  C31  1  0.75000000  0.79733900  0.21507900  1
  C  C32  1  0.25000000  0.80291000  0.18531700  1
  C  C33  1  0.75000000  0.19709000  0.81468300  1
  C  C34  1  0.25000000  0.49561500  0.15407200  1
  C  C35  1  0.75000000  0.50438500  0.84592800  1
  C  C36  1  0.44081700  0.64091900  0.10294700  1
  C  C37  1  0.94081700  0.35908100  0.89705300  1
  C  C38  1  0.55918300  0.35908100  0.89705300  1
  C  C39  1  0.05918300  0.64091900  0.10294700  1
  C  C40  1  0.25000000  0.86448700  0.00902300  1
  C  C41  1  0.75000000  0.13551300  0.99097700  1
  C  C42  1  0.38835000  0.99738000  0.59748100  1
  C  C43  1  0.88835000  0.00262000  0.40251900  1
  C  C44  1  0.61165000  0.00262000  0.40251900  1
  C  C45  1  0.11165000  0.99738000  0.59748100  1
  C  C46  1  0.39187000  0.67510500  0.57486500  1
  C  C47  1  0.89187000  0.32489500  0.42513500  1
  C  C48  1  0.60813000  0.32489500  0.42513500  1
  C  C49  1  0.10813000  0.67510500  0.57486500  1
  C  C50  1  0.25000000  0.78528900  0.71212100  1
  C  C51  1  0.75000000  0.21471100  0.28787900  1
  C  C52  1  0.25000000  0.57065500  0.96448400  1
  C  C53  1  0.75000000  0.42934500  0.03551600  1
  C  C54  1  0.25000000  0.85874000  0.46320100  1
  C  C55  1  0.75000000  0.14126000  0.53679900  1
