# generated using pymatgen
data_Cu3NiC4
_symmetry_space_group_name_H-M   'P 1'
_cell_length_a   6.18842869
_cell_length_b   5.47850224
_cell_length_c   5.56878588
_cell_angle_alpha   120.54665802
_cell_angle_beta   90.00000052
_cell_angle_gamma   87.86204774
_symmetry_Int_Tables_number   1
_chemical_formula_structural   Cu3NiC4
_chemical_formula_sum   'Cu6 Ni2 C8'
_cell_volume   162.44516428
_cell_formula_units_Z   2
loop_
 _symmetry_equiv_pos_site_id
 _symmetry_equiv_pos_as_xyz
  1  'x, y, z'
loop_
 _atom_site_type_symbol
 _atom_site_label
 _atom_site_symmetry_multiplicity
 _atom_site_fract_x
 _atom_site_fract_y
 _atom_site_fract_z
 _atom_site_occupancy
  C  C0  1  0.00000000  0.00000000  0.53661600  1
  C  C1  1  0.00000000  0.00000000  0.01672900  1
  C  C2  1  0.68010500  0.76568200  0.30053500  1
  C  C3  1  0.71046100  0.41348700  0.12003800  1
  C  C4  1  0.28953900  0.58651300  0.70655200  1
  C  C5  1  0.72925300  0.60242300  0.48246500  1
  C  C6  1  0.27074700  0.39757700  0.88004200  1
  C  C7  1  0.31989500  0.23431800  0.53485200  1
  Ni  Ni8  1  0.65626100  0.58782600  0.30903600  1
  Ni  Ni9  1  0.34373900  0.41217400  0.72121200  1
  Cu  Cu10  1  0.85027900  0.65591000  0.74762200  1
  Cu  Cu11  1  0.78635000  0.01958900  0.29538400  1
  Cu  Cu12  1  0.21364900  0.98041100  0.27579600  1
  Cu  Cu13  1  0.79100800  0.16929900  0.85511600  1
  Cu  Cu14  1  0.20899100  0.83070100  0.68581700  1
  Cu  Cu15  1  0.14972000  0.34409000  0.09171200  1
