# generated using pymatgen
data_CuNi2C11
_symmetry_space_group_name_H-M   'P 1'
_cell_length_a   7.54274038
_cell_length_b   7.54274038
_cell_length_c   7.54274034
_cell_angle_alpha   59.90957100
_cell_angle_beta   59.90957100
_cell_angle_gamma   59.90956784
_symmetry_Int_Tables_number   1
_chemical_formula_structural   CuNi2C11
_chemical_formula_sum   'Cu1 Ni2 C11'
_cell_volume   302.81726695
_cell_formula_units_Z   1
loop_
 _symmetry_equiv_pos_site_id
 _symmetry_equiv_pos_as_xyz
  1  'x, y, z'
loop_
 _atom_site_type_symbol
 _atom_site_label
 _atom_site_symmetry_multiplicity
 _atom_site_fract_x
 _atom_site_fract_y
 _atom_site_fract_z
 _atom_site_occupancy
  Ni  Ni0  1  0.12445100  0.12445100  0.12445100  1
  Ni  Ni1  1  0.87554900  0.87554900  0.87554900  1
  C  C2  1  0.00000000  0.50000000  0.50000000  1
  C  C3  1  0.50000000  0.50000000  0.00000000  1
  C  C4  1  0.50000000  0.00000000  0.50000000  1
  Cu  Cu5  1  0.50000000  0.50000000  0.50000000  1
  C  C6  1  0.26047000  0.26047000  0.26047000  1
  C  C7  1  0.72027300  0.25663600  0.25663600  1
  C  C8  1  0.25663600  0.25663600  0.72027300  1
  C  C9  1  0.25663600  0.72027300  0.25663600  1
  C  C10  1  0.73953000  0.73953000  0.73953000  1
  C  C11  1  0.27972700  0.74336400  0.74336400  1
  C  C12  1  0.74336400  0.74336400  0.27972700  1
  C  C13  1  0.74336400  0.27972700  0.74336400  1
