# generated using pymatgen
data_Cu9Ni8
_symmetry_space_group_name_H-M   'P 1'
_cell_length_a   4.24628329
_cell_length_b   4.24628329
_cell_length_c   34.05549149
_cell_angle_alpha   86.42565727
_cell_angle_beta   86.42565727
_cell_angle_gamma   60.00001101
_symmetry_Int_Tables_number   1
_chemical_formula_structural   Cu9Ni8
_chemical_formula_sum   'Cu9 Ni8'
_cell_volume   530.40488405
_cell_formula_units_Z   1
loop_
 _symmetry_equiv_pos_site_id
 _symmetry_equiv_pos_as_xyz
  1  'x, y, z'
loop_
 _atom_site_type_symbol
 _atom_site_label
 _atom_site_symmetry_multiplicity
 _atom_site_fract_x
 _atom_site_fract_y
 _atom_site_fract_z
 _atom_site_occupancy
  Ni  Ni0  1  0.17557500  0.17557500  0.47327500  1
  Ni  Ni1  1  0.82442500  0.82442500  0.52672500  1
  Ni  Ni2  1  0.11656500  0.11656500  0.65030500  1
  Ni  Ni3  1  0.88343500  0.88343500  0.34969500  1
  Ni  Ni4  1  0.35217800  0.35217800  0.94346700  1
  Ni  Ni5  1  0.64782200  0.64782200  0.05653300  1
  Ni  Ni6  1  0.41220600  0.41220600  0.76338300  1
  Ni  Ni7  1  0.58779400  0.58779400  0.23661700  1
  Cu  Cu8  1  0.00000000  0.00000000  0.00000000  1
  Cu  Cu9  1  0.06390900  0.06390900  0.80827400  1
  Cu  Cu10  1  0.93609100  0.93609100  0.19172600  1
  Cu  Cu11  1  0.23515100  0.23515100  0.29454600  1
  Cu  Cu12  1  0.76484900  0.76484900  0.70545400  1
  Cu  Cu13  1  0.29935000  0.29935000  0.10194900  1
  Cu  Cu14  1  0.70065000  0.70065000  0.89805100  1
  Cu  Cu15  1  0.46541900  0.46541900  0.60374300  1
  Cu  Cu16  1  0.53458100  0.53458100  0.39625700  1
