# generated using pymatgen
data_Cu7Ni6C5
_symmetry_space_group_name_H-M   'P 1'
_cell_length_a   6.42864910
_cell_length_b   9.31725973
_cell_length_c   11.63703800
_cell_angle_alpha   90.00000000
_cell_angle_beta   90.00000000
_cell_angle_gamma   94.13969685
_symmetry_Int_Tables_number   1
_chemical_formula_structural   Cu7Ni6C5
_chemical_formula_sum   'Cu14 Ni12 C10'
_cell_volume   695.20970119
_cell_formula_units_Z   2
loop_
 _symmetry_equiv_pos_site_id
 _symmetry_equiv_pos_as_xyz
  1  'x, y, z'
loop_
 _atom_site_type_symbol
 _atom_site_label
 _atom_site_symmetry_multiplicity
 _atom_site_fract_x
 _atom_site_fract_y
 _atom_site_fract_z
 _atom_site_occupancy
  C  C0  1  0.53716400  0.56567800  0.75000000  1
  C  C1  1  0.46283600  0.43432200  0.25000000  1
  C  C2  1  0.88097500  0.93882200  0.75000000  1
  C  C3  1  0.11902500  0.06117800  0.25000000  1
  C  C4  1  0.00000000  0.50000000  0.00000000  1
  C  C5  1  0.00000000  0.50000000  0.50000000  1
  C  C6  1  0.59454700  0.81271000  0.44191500  1
  C  C7  1  0.40545300  0.18729000  0.55808500  1
  C  C8  1  0.40545300  0.18729000  0.94191500  1
  C  C9  1  0.59454700  0.81271000  0.05808500  1
  Ni  Ni10  1  0.26726200  0.79032700  0.75000000  1
  Ni  Ni11  1  0.73273800  0.20967300  0.25000000  1
  Ni  Ni12  1  0.83543300  0.90590300  0.39208200  1
  Ni  Ni13  1  0.16456700  0.09409700  0.60791800  1
  Ni  Ni14  1  0.16456700  0.09409700  0.89208200  1
  Ni  Ni15  1  0.83543300  0.90590300  0.10791800  1
  Ni  Ni16  1  0.65233600  0.27745600  0.99043000  1
  Ni  Ni17  1  0.34766400  0.72254400  0.00957000  1
  Ni  Ni18  1  0.34766400  0.72254400  0.49043000  1
  Ni  Ni19  1  0.65233600  0.27745600  0.50957000  1
  Ni  Ni20  1  0.91032000  0.40286700  0.75000000  1
  Ni  Ni21  1  0.08968000  0.59713300  0.25000000  1
  Cu  Cu22  1  0.52740800  0.20081200  0.75000000  1
  Cu  Cu23  1  0.47259200  0.79918800  0.25000000  1
  Cu  Cu24  1  0.69616800  0.60472300  0.37862200  1
  Cu  Cu25  1  0.30383200  0.39527700  0.62137800  1
  Cu  Cu26  1  0.30383200  0.39527700  0.87862200  1
  Cu  Cu27  1  0.69616800  0.60472300  0.12137800  1
  Cu  Cu28  1  0.76149300  0.72015800  0.90759200  1
  Cu  Cu29  1  0.23850700  0.27984200  0.09240800  1
  Cu  Cu30  1  0.23850700  0.27984200  0.40759200  1
  Cu  Cu31  1  0.76149300  0.72015800  0.59240800  1
  Cu  Cu32  1  0.57844300  0.97551400  0.90286600  1
  Cu  Cu33  1  0.42155700  0.02448600  0.09713400  1
  Cu  Cu34  1  0.42155700  0.02448600  0.40286600  1
  Cu  Cu35  1  0.57844300  0.97551400  0.59713400  1
