# generated using pymatgen
data_CuNiC2
_symmetry_space_group_name_H-M   'P 1'
_cell_length_a   7.46312313
_cell_length_b   7.46312313
_cell_length_c   7.46312313
_cell_angle_alpha   132.73548440
_cell_angle_beta   132.73548440
_cell_angle_gamma   69.06986045
_symmetry_Int_Tables_number   1
_chemical_formula_structural   CuNiC2
_chemical_formula_sum   'Cu4 Ni4 C8'
_cell_volume   220.10477769
_cell_formula_units_Z   4
loop_
 _symmetry_equiv_pos_site_id
 _symmetry_equiv_pos_as_xyz
  1  'x, y, z'
loop_
 _atom_site_type_symbol
 _atom_site_label
 _atom_site_symmetry_multiplicity
 _atom_site_fract_x
 _atom_site_fract_y
 _atom_site_fract_z
 _atom_site_occupancy
  Ni  Ni0  1  0.37500000  0.12500000  0.25000000  1
  Ni  Ni1  1  0.87500000  0.12500000  0.75000000  1
  Ni  Ni2  1  0.87500000  0.12500000  0.25000000  1
  Ni  Ni3  1  0.87500000  0.62500000  0.75000000  1
  Cu  Cu4  1  0.87500000  0.62500000  0.25000000  1
  Cu  Cu5  1  0.37500000  0.62500000  0.75000000  1
  Cu  Cu6  1  0.37500000  0.62500000  0.25000000  1
  Cu  Cu7  1  0.37500000  0.12500000  0.75000000  1
  C  C8  1  0.18965900  0.43961700  0.24995800  1
  C  C9  1  0.18965900  0.93970100  0.75004200  1
  C  C10  1  0.18961700  0.43965900  0.74995800  1
  C  C11  1  0.56034100  0.81038300  0.25004200  1
  C  C12  1  0.68970100  0.43965900  0.25004200  1
  C  C13  1  0.56034100  0.31029900  0.74995800  1
  C  C14  1  0.56038300  0.81034100  0.75004200  1
  C  C15  1  0.06029900  0.81034100  0.24995800  1
