# generated using pymatgen
data_CuNiC14
_symmetry_space_group_name_H-M   'P 1'
_cell_length_a   6.56417002
_cell_length_b   6.53519110
_cell_length_c   10.41771391
_cell_angle_alpha   90.00000000
_cell_angle_beta   90.00000000
_cell_angle_gamma   119.85407531
_symmetry_Int_Tables_number   1
_chemical_formula_structural   CuNiC14
_chemical_formula_sum   'Cu1 Ni1 C14'
_cell_volume   387.59475948
_cell_formula_units_Z   1
loop_
 _symmetry_equiv_pos_site_id
 _symmetry_equiv_pos_as_xyz
  1  'x, y, z'
loop_
 _atom_site_type_symbol
 _atom_site_label
 _atom_site_symmetry_multiplicity
 _atom_site_fract_x
 _atom_site_fract_y
 _atom_site_fract_z
 _atom_site_occupancy
  Ni  Ni0  1  0.16995214  0.83497557  0.12500000  1
  Cu  Cu1  1  0.16669694  0.33334797  0.12500000  1
  C  C2  1  0.16624073  0.33311987  0.62500000  1
  C  C3  1  0.16685021  0.83342460  0.62500000  1
  C  C4  1  0.66087399  0.32454032  0.12500000  1
  C  C5  1  0.66702613  0.33368793  0.62500000  1
  C  C6  1  0.66087399  0.83633267  0.12500000  1
  C  C7  1  0.66702613  0.83333720  0.62500000  1
  C  C8  1  0.33671584  0.16970966  0.38192143  1
  C  C9  1  0.33671584  0.16970966  0.86807857  1
  C  C10  1  0.33671584  0.66700718  0.38192143  1
  C  C11  1  0.33671584  0.66700718  0.86807857  1
  C  C12  1  0.83286684  0.16643392  0.37801849  1
  C  C13  1  0.83286684  0.16643392  0.87198151  1
  C  C14  1  0.83093134  0.66546617  0.37562269  1
  C  C15  1  0.83093134  0.66546617  0.87437731  1
