# generated using pymatgen
data_Cu10Ni2C
_symmetry_space_group_name_H-M   'P 1'
_cell_length_a   4.67471300
_cell_length_b   6.38185971
_cell_length_c   6.38185971
_cell_angle_alpha   97.32050683
_cell_angle_beta   111.48452895
_cell_angle_gamma   68.51547105
_symmetry_Int_Tables_number   1
_chemical_formula_structural   Cu10Ni2C
_chemical_formula_sum   'Cu10 Ni2 C1'
_cell_volume   164.84832368
_cell_formula_units_Z   1
loop_
 _symmetry_equiv_pos_site_id
 _symmetry_equiv_pos_as_xyz
  1  'x, y, z'
loop_
 _atom_site_type_symbol
 _atom_site_label
 _atom_site_symmetry_multiplicity
 _atom_site_fract_x
 _atom_site_fract_y
 _atom_site_fract_z
 _atom_site_occupancy
  C  C0  1  0.00000000  0.00000000  0.00000000  1
  Ni  Ni1  1  0.00000000  0.36770900  0.36770900  1
  Ni  Ni2  1  0.00000000  0.63229100  0.63229100  1
  Cu  Cu3  1  0.72518600  0.77481400  0.22518600  1
  Cu  Cu4  1  0.27481400  0.22518600  0.77481400  1
  Cu  Cu5  1  0.50000000  0.77213700  0.77213700  1
  Cu  Cu6  1  0.50000000  0.22786300  0.22786300  1
  Cu  Cu7  1  0.50000000  0.00000000  0.50000000  1
  Cu  Cu8  1  0.00000000  0.00000000  0.50000000  1
  Cu  Cu9  1  0.50000000  0.50000000  0.00000000  1
  Cu  Cu10  1  0.00000000  0.50000000  0.00000000  1
  Cu  Cu11  1  0.64096500  0.35903500  0.64096500  1
  Cu  Cu12  1  0.35903500  0.64096500  0.35903500  1
