# generated using pymatgen
data_CuNi7C17
_symmetry_space_group_name_H-M   'P 1'
_cell_length_a   13.24361600
_cell_length_b   13.24361600
_cell_length_c   13.24361600
_cell_angle_alpha   90.00000000
_cell_angle_beta   90.00000000
_cell_angle_gamma   90.00000000
_symmetry_Int_Tables_number   1
_chemical_formula_structural   CuNi7C17
_chemical_formula_sum   'Cu4 Ni28 C68'
_cell_volume   2322.84237177
_cell_formula_units_Z   4
loop_
 _symmetry_equiv_pos_site_id
 _symmetry_equiv_pos_as_xyz
  1  'x, y, z'
loop_
 _atom_site_type_symbol
 _atom_site_label
 _atom_site_symmetry_multiplicity
 _atom_site_fract_x
 _atom_site_fract_y
 _atom_site_fract_z
 _atom_site_occupancy
  C  C0  1  0.33857000  0.33857000  0.33857000  1
  C  C1  1  0.16143000  0.66143000  0.83857000  1
  C  C2  1  0.66143000  0.83857000  0.16143000  1
  C  C3  1  0.83857000  0.16143000  0.66143000  1
  C  C4  1  0.17715100  0.17715100  0.17715100  1
  C  C5  1  0.32284900  0.82284900  0.67715100  1
  C  C6  1  0.82284900  0.67715100  0.32284900  1
  C  C7  1  0.67715100  0.32284900  0.82284900  1
  Ni  Ni8  1  0.50942500  0.50942500  0.50942500  1
  Ni  Ni9  1  0.99057500  0.49057500  0.00942500  1
  Ni  Ni10  1  0.49057500  0.00942500  0.99057500  1
  Ni  Ni11  1  0.00942500  0.99057500  0.49057500  1
  Ni  Ni12  1  0.15234700  0.58210200  0.21644300  1
  Ni  Ni13  1  0.34765300  0.41789800  0.71644300  1
  Ni  Ni14  1  0.84765300  0.08210200  0.28355700  1
  Ni  Ni15  1  0.21644300  0.15234700  0.58210200  1
  Ni  Ni16  1  0.65234700  0.91789800  0.78355700  1
  Ni  Ni17  1  0.71644300  0.34765300  0.41789800  1
  Ni  Ni18  1  0.28355700  0.84765300  0.08210200  1
  Ni  Ni19  1  0.78355700  0.65234700  0.91789800  1
  Ni  Ni20  1  0.58210200  0.21644300  0.15234700  1
  Ni  Ni21  1  0.08210200  0.28355700  0.84765300  1
  Ni  Ni22  1  0.91789800  0.78355700  0.65234700  1
  Ni  Ni23  1  0.41789800  0.71644300  0.34765300  1
  Ni  Ni24  1  0.04726800  0.44920600  0.42529700  1
  Ni  Ni25  1  0.45273200  0.55079400  0.92529700  1
  Ni  Ni26  1  0.95273200  0.94920600  0.07470300  1
  Ni  Ni27  1  0.42529700  0.04726800  0.44920600  1
  Ni  Ni28  1  0.54726800  0.05079400  0.57470300  1
  Ni  Ni29  1  0.92529700  0.45273200  0.55079400  1
  Ni  Ni30  1  0.07470300  0.95273200  0.94920600  1
  Ni  Ni31  1  0.57470300  0.54726800  0.05079400  1
  Ni  Ni32  1  0.44920600  0.42529700  0.04726800  1
  Ni  Ni33  1  0.94920600  0.07470300  0.95273200  1
  Ni  Ni34  1  0.05079400  0.57470300  0.54726800  1
  Ni  Ni35  1  0.55079400  0.92529700  0.45273200  1
  Cu  Cu36  1  0.96467300  0.96467300  0.96467300  1
  Cu  Cu37  1  0.53532700  0.03532700  0.46467300  1
  Cu  Cu38  1  0.03532700  0.46467300  0.53532700  1
  Cu  Cu39  1  0.46467300  0.53532700  0.03532700  1
  C  C40  1  0.11486000  0.37016000  0.42282000  1
  C  C41  1  0.38514000  0.62984000  0.92282000  1
  C  C42  1  0.88514000  0.87016000  0.07718000  1
  C  C43  1  0.42282000  0.11486000  0.37016000  1
  C  C44  1  0.61486000  0.12984000  0.57718000  1
  C  C45  1  0.92282000  0.38514000  0.62984000  1
  C  C46  1  0.07718000  0.88514000  0.87016000  1
  C  C47  1  0.57718000  0.61486000  0.12984000  1
  C  C48  1  0.37016000  0.42282000  0.11486000  1
  C  C49  1  0.87016000  0.07718000  0.88514000  1
  C  C50  1  0.12984000  0.57718000  0.61486000  1
  C  C51  1  0.62984000  0.92282000  0.38514000  1
  C  C52  1  0.20257800  0.35152400  0.21935000  1
  C  C53  1  0.29742200  0.64847600  0.71935000  1
  C  C54  1  0.79742200  0.85152400  0.28065000  1
  C  C55  1  0.21935000  0.20257800  0.35152400  1
  C  C56  1  0.70257800  0.14847600  0.78065000  1
  C  C57  1  0.71935000  0.29742200  0.64847600  1
  C  C58  1  0.28065000  0.79742200  0.85152400  1
  C  C59  1  0.78065000  0.70257800  0.14847600  1
  C  C60  1  0.35152400  0.21935000  0.20257800  1
  C  C61  1  0.85152400  0.28065000  0.79742200  1
  C  C62  1  0.14847600  0.78065000  0.70257800  1
  C  C63  1  0.64847600  0.71935000  0.29742200  1
  C  C64  1  0.94260200  0.07840300  0.30993100  1
  C  C65  1  0.55739800  0.92159700  0.80993100  1
  C  C66  1  0.05739800  0.57840300  0.19006900  1
  C  C67  1  0.30993100  0.94260200  0.07840300  1
  C  C68  1  0.44260200  0.42159700  0.69006900  1
  C  C69  1  0.80993100  0.55739800  0.92159700  1
  C  C70  1  0.19006900  0.05739800  0.57840300  1
  C  C71  1  0.69006900  0.44260200  0.42159700  1
  C  C72  1  0.07840300  0.30993100  0.94260200  1
  C  C73  1  0.57840300  0.19006900  0.05739800  1
  C  C74  1  0.42159700  0.69006900  0.44260200  1
  C  C75  1  0.92159700  0.80993100  0.55739800  1
  C  C76  1  0.97853300  0.71426400  0.34863200  1
  C  C77  1  0.52146700  0.28573600  0.84863200  1
  C  C78  1  0.02146700  0.21426400  0.15136800  1
  C  C79  1  0.34863200  0.97853300  0.71426400  1
  C  C80  1  0.47853300  0.78573600  0.65136800  1
  C  C81  1  0.84863200  0.52146700  0.28573600  1
  C  C82  1  0.15136800  0.02146700  0.21426400  1
  C  C83  1  0.65136800  0.47853300  0.78573600  1
  C  C84  1  0.71426400  0.34863200  0.97853300  1
  C  C85  1  0.21426400  0.15136800  0.02146700  1
  C  C86  1  0.78573600  0.65136800  0.47853300  1
  C  C87  1  0.28573600  0.84863200  0.52146700  1
  C  C88  1  0.32009700  0.50011100  0.34427900  1
  C  C89  1  0.17990300  0.49988900  0.84427900  1
  C  C90  1  0.67990300  0.00011100  0.15572100  1
  C  C91  1  0.34427900  0.32009700  0.50011100  1
  C  C92  1  0.82009700  0.99988900  0.65572100  1
  C  C93  1  0.84427900  0.17990300  0.49988900  1
  C  C94  1  0.15572100  0.67990300  0.00011100  1
  C  C95  1  0.65572100  0.82009700  0.99988900  1
  C  C96  1  0.50011100  0.34427900  0.32009700  1
  C  C97  1  0.00011100  0.15572100  0.67990300  1
  C  C98  1  0.99988900  0.65572100  0.82009700  1
  C  C99  1  0.49988900  0.84427900  0.17990300  1
