# generated using pymatgen
data_Cu12Ni16C13
_symmetry_space_group_name_H-M   'P 1'
_cell_length_a   7.63172631
_cell_length_b   7.88983739
_cell_length_c   10.15183134
_cell_angle_alpha   99.51098108
_cell_angle_beta   102.15405461
_cell_angle_gamma   92.61796510
_symmetry_Int_Tables_number   1
_chemical_formula_structural   Cu12Ni16C13
_chemical_formula_sum   'Cu12 Ni16 C13'
_cell_volume   587.30105599
_cell_formula_units_Z   1
loop_
 _symmetry_equiv_pos_site_id
 _symmetry_equiv_pos_as_xyz
  1  'x, y, z'
loop_
 _atom_site_type_symbol
 _atom_site_label
 _atom_site_symmetry_multiplicity
 _atom_site_fract_x
 _atom_site_fract_y
 _atom_site_fract_z
 _atom_site_occupancy
  C  C0  1  0.70435764  0.09844909  0.72072195  1
  C  C1  1  0.29564236  0.90155091  0.27927805  1
  C  C2  1  0.00000000  0.00000000  0.00000000  1
  C  C3  1  0.65628099  0.29269173  0.33806738  1
  C  C4  1  0.34371901  0.70730827  0.66193262  1
  C  C5  1  0.50000000  0.50000000  0.00000000  1
  C  C6  1  0.00000000  0.00000000  0.50000000  1
  C  C7  1  0.66771338  0.69125442  0.49692269  1
  C  C8  1  0.33228662  0.30874558  0.50307731  1
  C  C9  1  0.27462927  0.07689064  0.86886722  1
  C  C10  1  0.72537073  0.92310936  0.13113278  1
  C  C11  1  0.07826971  0.59378190  0.84781910  1
  C  C12  1  0.92173029  0.40621810  0.15218090  1
  Ni  Ni13  1  0.70265091  0.50252748  0.48348226  1
  Ni  Ni14  1  0.29734909  0.49747252  0.51651774  1
  Ni  Ni15  1  0.82519038  0.81166842  0.49371070  1
  Ni  Ni16  1  0.17480962  0.18833158  0.50628930  1
  Ni  Ni17  1  0.63448835  0.05624879  0.21226699  1
  Ni  Ni18  1  0.36551165  0.94375121  0.78773301  1
  Ni  Ni19  1  0.37451529  0.25092296  0.90817391  1
  Ni  Ni20  1  0.62548471  0.74907704  0.09182609  1
  Ni  Ni21  1  0.93263293  0.93519233  0.16934163  1
  Ni  Ni22  1  0.06736707  0.06480767  0.83065837  1
  Ni  Ni23  1  0.88700844  0.35103467  0.27839392  1
  Ni  Ni24  1  0.11299156  0.64896533  0.72160608  1
  Ni  Ni25  1  0.78292430  0.42688982  0.03110499  1
  Ni  Ni26  1  0.21707570  0.57311018  0.96889501  1
  Ni  Ni27  1  0.42067370  0.23654169  0.38558406  1
  Ni  Ni28  1  0.57932630  0.76345831  0.61441594  1
  Cu  Cu29  1  0.79401953  0.16497738  0.48048943  1
  Cu  Cu30  1  0.20598047  0.83502262  0.51951057  1
  Cu  Cu31  1  0.52903044  0.39826668  0.18891947  1
  Cu  Cu32  1  0.47096956  0.60173332  0.81108053  1
  Cu  Cu33  1  0.72114917  0.99772752  0.97856249  1
  Cu  Cu34  1  0.27885083  0.00227248  0.02143751  1
  Cu  Cu35  1  0.93201697  0.43809797  0.80144308  1
  Cu  Cu36  1  0.06798303  0.56190203  0.19855692  1
  Cu  Cu37  1  0.47886107  0.29755954  0.63885806  1
  Cu  Cu38  1  0.52113893  0.70244046  0.36114194  1
  Cu  Cu39  1  0.04956322  0.26437385  0.09429364  1
  Cu  Cu40  1  0.95043678  0.73562615  0.90570636  1
