# generated using pymatgen
data_Cu9Ni4C3
_symmetry_space_group_name_H-M   'P 1'
_cell_length_a   6.55449100
_cell_length_b   6.59420683
_cell_length_c   11.89611553
_cell_angle_alpha   94.43674478
_cell_angle_beta   92.63295721
_cell_angle_gamma   102.91345625
_symmetry_Int_Tables_number   1
_chemical_formula_structural   Cu9Ni4C3
_chemical_formula_sum   'Cu18 Ni8 C6'
_cell_volume   498.60549428
_cell_formula_units_Z   2
loop_
 _symmetry_equiv_pos_site_id
 _symmetry_equiv_pos_as_xyz
  1  'x, y, z'
loop_
 _atom_site_type_symbol
 _atom_site_label
 _atom_site_symmetry_multiplicity
 _atom_site_fract_x
 _atom_site_fract_y
 _atom_site_fract_z
 _atom_site_occupancy
  C  C0  1  0.48063300  0.26748700  0.88587600  1
  C  C1  1  0.51936700  0.73251300  0.11412400  1
  C  C2  1  0.75821500  0.06388400  0.42020900  1
  C  C3  1  0.24178500  0.93611600  0.57979100  1
  C  C4  1  0.75368900  0.84973100  0.77073100  1
  C  C5  1  0.24631100  0.15026900  0.22926900  1
  Ni  Ni6  1  0.67044400  0.41675200  0.63527400  1
  Ni  Ni7  1  0.32955600  0.58324800  0.36472600  1
  Ni  Ni8  1  0.75441600  0.56498600  0.54203300  1
  Ni  Ni9  1  0.24558400  0.43501400  0.45796700  1
  Ni  Ni10  1  0.16085700  0.77573400  0.88338800  1
  Ni  Ni11  1  0.83914300  0.22426600  0.11661200  1
  Ni  Ni12  1  0.00386100  0.74521700  0.98029100  1
  Ni  Ni13  1  0.99613900  0.25478300  0.01970900  1
  Cu  Cu14  1  0.61085700  0.22504400  0.61024500  1
  Cu  Cu15  1  0.38914300  0.77495600  0.38975500  1
  Cu  Cu16  1  0.66671200  0.50765600  0.73495500  1
  Cu  Cu17  1  0.33328800  0.49234400  0.26504500  1
  Cu  Cu18  1  0.75385500  0.48501700  0.44334500  1
  Cu  Cu19  1  0.24614500  0.51498300  0.55665500  1
  Cu  Cu20  1  0.81373300  0.76029900  0.57644100  1
  Cu  Cu21  1  0.18626700  0.23970100  0.42355900  1
  Cu  Cu22  1  0.34527200  0.76070200  0.90254100  1
  Cu  Cu23  1  0.65472800  0.23929800  0.09745900  1
  Cu  Cu24  1  0.08778100  0.82662000  0.78934500  1
  Cu  Cu25  1  0.91221900  0.17338000  0.21065500  1
  Cu  Cu26  1  0.07552700  0.72669300  0.07694700  1
  Cu  Cu27  1  0.92447300  0.27330700  0.92305300  1
  Cu  Cu28  1  0.81318100  0.75064700  0.95187300  1
  Cu  Cu29  1  0.18681900  0.24935300  0.04812700  1
  Cu  Cu30  1  0.87013900  0.74655000  0.27709000  1
  Cu  Cu31  1  0.12986100  0.25345000  0.72291000  1
