# generated using pymatgen
data_Cu(NiC)4
_symmetry_space_group_name_H-M   'P 1'
_cell_length_a   11.34673700
_cell_length_b   5.08225800
_cell_length_c   6.89634046
_cell_angle_alpha   89.97914656
_cell_angle_beta   90.00000000
_cell_angle_gamma   90.00000000
_symmetry_Int_Tables_number   1
_chemical_formula_structural   Cu(NiC)4
_chemical_formula_sum   'Cu4 Ni16 C16'
_cell_volume   397.69154837
_cell_formula_units_Z   4
loop_
 _symmetry_equiv_pos_site_id
 _symmetry_equiv_pos_as_xyz
  1  'x, y, z'
loop_
 _atom_site_type_symbol
 _atom_site_label
 _atom_site_symmetry_multiplicity
 _atom_site_fract_x
 _atom_site_fract_y
 _atom_site_fract_z
 _atom_site_occupancy
  C  C0  1  0.66541300  0.75309100  0.51139900  1
  C  C1  1  0.16541300  0.74690900  0.48860100  1
  C  C2  1  0.33458700  0.24690900  0.48860100  1
  C  C3  1  0.83458700  0.25309100  0.51139900  1
  C  C4  1  0.58018400  0.26322200  0.74025700  1
  C  C5  1  0.08018400  0.23677800  0.25974300  1
  C  C6  1  0.41981600  0.73677800  0.25974300  1
  C  C7  1  0.91981600  0.76322200  0.74025700  1
  C  C8  1  0.32897000  0.26346300  0.01839800  1
  C  C9  1  0.82897000  0.23653700  0.98160200  1
  C  C10  1  0.67103000  0.73653700  0.98160200  1
  C  C11  1  0.17103000  0.76346300  0.01839800  1
  C  C12  1  0.41818900  0.77126800  0.75430400  1
  C  C13  1  0.91818900  0.72873200  0.24569600  1
  C  C14  1  0.58181100  0.22873200  0.24569600  1
  C  C15  1  0.08181100  0.27126800  0.75430400  1
  Ni  Ni16  1  0.37619400  0.74012700  0.54217100  1
  Ni  Ni17  1  0.87619400  0.75987300  0.45782900  1
  Ni  Ni18  1  0.62380600  0.25987300  0.45782900  1
  Ni  Ni19  1  0.12380600  0.24012700  0.54217100  1
  Ni  Ni20  1  0.32830500  0.63129500  0.89088200  1
  Ni  Ni21  1  0.82830500  0.86870500  0.10911800  1
  Ni  Ni22  1  0.67169500  0.36870500  0.10911800  1
  Ni  Ni23  1  0.17169500  0.13129500  0.89088200  1
  Ni  Ni24  1  0.42612400  0.07109600  0.80523300  1
  Ni  Ni25  1  0.92612400  0.42890400  0.19476700  1
  Ni  Ni26  1  0.57387600  0.92890400  0.19476700  1
  Ni  Ni27  1  0.07387600  0.57109600  0.80523300  1
  Ni  Ni28  1  0.54112300  0.64239400  0.78283400  1
  Ni  Ni29  1  0.04112300  0.85760600  0.21716600  1
  Ni  Ni30  1  0.45887700  0.35760600  0.21716600  1
  Ni  Ni31  1  0.95887700  0.14239400  0.78283400  1
  Cu  Cu32  1  0.21279100  0.46442200  0.19926400  1
  Cu  Cu33  1  0.71279100  0.03557800  0.80073600  1
  Cu  Cu34  1  0.78720900  0.53557800  0.80073600  1
  Cu  Cu35  1  0.28720900  0.96442200  0.19926400  1
