# generated using pymatgen
data_Cu5(NiC6)3
_symmetry_space_group_name_H-M   'P 1'
_cell_length_a   11.97608500
_cell_length_b   7.39579400
_cell_length_c   18.52182806
_cell_angle_alpha   66.54769401
_cell_angle_beta   90.00000000
_cell_angle_gamma   90.00000000
_symmetry_Int_Tables_number   1
_chemical_formula_structural   Cu5(NiC6)3
_chemical_formula_sum   'Cu20 Ni12 C72'
_cell_volume   1505.00631457
_cell_formula_units_Z   4
loop_
 _symmetry_equiv_pos_site_id
 _symmetry_equiv_pos_as_xyz
  1  'x, y, z'
loop_
 _atom_site_type_symbol
 _atom_site_label
 _atom_site_symmetry_multiplicity
 _atom_site_fract_x
 _atom_site_fract_y
 _atom_site_fract_z
 _atom_site_occupancy
  Ni  Ni0  1  0.90079000  0.30633100  0.75804100  1
  Ni  Ni1  1  0.89600400  0.61622400  0.41717900  1
  Ni  Ni2  1  0.89204200  0.99249100  0.07472100  1
  Ni  Ni3  1  0.10795800  0.00750900  0.92527900  1
  Ni  Ni4  1  0.10399600  0.38377600  0.58282100  1
  Ni  Ni5  1  0.09921000  0.69366900  0.24195900  1
  Ni  Ni6  1  0.60399600  0.61622400  0.91717900  1
  Ni  Ni7  1  0.60795800  0.99249100  0.57472100  1
  Ni  Ni8  1  0.59921000  0.30633100  0.25804100  1
  Ni  Ni9  1  0.40079000  0.69366900  0.74195900  1
  Ni  Ni10  1  0.39204200  0.00750900  0.42527900  1
  Ni  Ni11  1  0.39600400  0.38377600  0.08282100  1
  Cu  Cu12  1  0.71278200  0.53017600  0.58382100  1
  Cu  Cu13  1  0.71470700  0.85858200  0.24997700  1
  Cu  Cu14  1  0.28529300  0.14141800  0.75002300  1
  Cu  Cu15  1  0.28721800  0.46982400  0.41617900  1
  Cu  Cu16  1  0.78529300  0.85858200  0.74997700  1
  Cu  Cu17  1  0.78721800  0.53017600  0.08382100  1
  Cu  Cu18  1  0.21278200  0.46982400  0.91617900  1
  Cu  Cu19  1  0.21470700  0.14141800  0.25002300  1
  Cu  Cu20  1  0.91174200  0.45315400  0.91730400  1
  Cu  Cu21  1  0.93953200  0.80689300  0.57916900  1
  Cu  Cu22  1  0.92526200  0.13577400  0.25457000  1
  Cu  Cu23  1  0.07473800  0.86422600  0.74543000  1
  Cu  Cu24  1  0.06046800  0.19310700  0.42083100  1
  Cu  Cu25  1  0.08825800  0.54684600  0.08269600  1
  Cu  Cu26  1  0.57473800  0.13577400  0.75457000  1
  Cu  Cu27  1  0.58825800  0.45315400  0.41730400  1
  Cu  Cu28  1  0.56046800  0.80689300  0.07916900  1
  Cu  Cu29  1  0.43953200  0.19310700  0.92083100  1
  Cu  Cu30  1  0.41174200  0.54684600  0.58269600  1
  Cu  Cu31  1  0.42526200  0.86422600  0.24543000  1
  C  C32  1  0.65986200  0.52001200  0.75161900  1
  C  C33  1  0.66491800  0.86409600  0.41625200  1
  C  C34  1  0.65902200  0.19192000  0.08342400  1
  C  C35  1  0.34097800  0.80808000  0.91657600  1
  C  C36  1  0.33508200  0.13590400  0.58374800  1
  C  C37  1  0.34013800  0.47998800  0.24838100  1
  C  C38  1  0.83508200  0.86409600  0.91625200  1
  C  C39  1  0.84097800  0.19192000  0.58342400  1
  C  C40  1  0.84013800  0.52001200  0.25161900  1
  C  C41  1  0.15986200  0.47998800  0.74838100  1
  C  C42  1  0.15902200  0.80808000  0.41657600  1
  C  C43  1  0.16491800  0.13590400  0.08374800  1
  C  C44  1  0.55903500  0.35155300  0.82220100  1
  C  C45  1  0.56974400  0.66822300  0.49331100  1
  C  C46  1  0.57221400  0.99338200  0.16130600  1
  C  C47  1  0.43873500  0.83599000  0.98734800  1
  C  C48  1  0.42910900  0.17694200  0.66235700  1
  C  C49  1  0.43003500  0.52031900  0.32647900  1
  C  C50  1  0.92910900  0.82305800  0.83764300  1
  C  C51  1  0.93873500  0.16401000  0.51265200  1
  C  C52  1  0.93003500  0.47968100  0.17352100  1
  C  C53  1  0.05903500  0.64844700  0.67779900  1
  C  C54  1  0.07221400  0.00661800  0.33869400  1
  C  C55  1  0.06974400  0.33177700  0.00668900  1
  C  C56  1  0.42778600  0.00661800  0.83869400  1
  C  C57  1  0.43025600  0.33177700  0.50668900  1
  C  C58  1  0.44096500  0.64844700  0.17779900  1
  C  C59  1  0.56996500  0.47968100  0.67352100  1
  C  C60  1  0.57089100  0.82305800  0.33764300  1
  C  C61  1  0.56126500  0.16401000  0.01265200  1
  C  C62  1  0.06996500  0.52031900  0.82647900  1
  C  C63  1  0.06126500  0.83599000  0.48734800  1
  C  C64  1  0.07089100  0.17694200  0.16235700  1
  C  C65  1  0.93025600  0.66822300  0.99331100  1
  C  C66  1  0.92778600  0.99338200  0.66130600  1
  C  C67  1  0.94096500  0.35155300  0.32220100  1
  C  C68  1  0.76815300  0.53331100  0.82540500  1
  C  C69  1  0.76773500  0.83143700  0.49770800  1
  C  C70  1  0.76378100  0.18678400  0.16387600  1
  C  C71  1  0.23241000  0.64718100  0.99077200  1
  C  C72  1  0.23130300  0.00400800  0.66491400  1
  C  C73  1  0.23744900  0.32361300  0.32859800  1
  C  C74  1  0.73130300  0.99599200  0.83508600  1
  C  C75  1  0.73241000  0.35281900  0.50922800  1
  C  C76  1  0.73744900  0.67638700  0.17140200  1
  C  C77  1  0.26815300  0.46668900  0.67459500  1
  C  C78  1  0.26378100  0.81321600  0.33612400  1
  C  C79  1  0.26773500  0.16856300  0.00229200  1
  C  C80  1  0.23621900  0.81321600  0.83612400  1
  C  C81  1  0.23226500  0.16856300  0.50229200  1
  C  C82  1  0.23184700  0.46668900  0.17459500  1
  C  C83  1  0.76255100  0.67638700  0.67140200  1
  C  C84  1  0.76869700  0.99599200  0.33508600  1
  C  C85  1  0.76759000  0.35281900  0.00922800  1
  C  C86  1  0.26255100  0.32361300  0.82859800  1
  C  C87  1  0.26759000  0.64718100  0.49077200  1
  C  C88  1  0.26869700  0.00400800  0.16491400  1
  C  C89  1  0.73226500  0.83143700  0.99770800  1
  C  C90  1  0.73621900  0.18678400  0.66387600  1
  C  C91  1  0.73184700  0.53331100  0.32540500  1
  C  C92  1  0.91870800  0.16550200  0.91595600  1
  C  C93  1  0.90141200  0.50475200  0.58571000  1
  C  C94  1  0.90409400  0.84260700  0.24845200  1
  C  C95  1  0.09590600  0.15739300  0.75154800  1
  C  C96  1  0.09858800  0.49524800  0.41429000  1
  C  C97  1  0.08129200  0.83449800  0.08404400  1
  C  C98  1  0.59590600  0.84260700  0.74845200  1
  C  C99  1  0.58129200  0.16550200  0.41595500  1
  C  C100  1  0.59858800  0.50475200  0.08571000  1
  C  C101  1  0.40141200  0.49524800  0.91429000  1
  C  C102  1  0.41870800  0.83449800  0.58404400  1
  C  C103  1  0.40409400  0.15739300  0.25154800  1
