# generated using pymatgen
data_Cu6Ni2C
_symmetry_space_group_name_H-M   'P 1'
_cell_length_a   7.03569700
_cell_length_b   10.44777249
_cell_length_c   17.71322755
_cell_angle_alpha   86.16575761
_cell_angle_beta   78.54489389
_cell_angle_gamma   70.32356932
_symmetry_Int_Tables_number   1
_chemical_formula_structural   Cu6Ni2C
_chemical_formula_sum   'Cu24 Ni8 C4'
_cell_volume   1201.60298756
_cell_formula_units_Z   4
loop_
 _symmetry_equiv_pos_site_id
 _symmetry_equiv_pos_as_xyz
  1  'x, y, z'
loop_
 _atom_site_type_symbol
 _atom_site_label
 _atom_site_symmetry_multiplicity
 _atom_site_fract_x
 _atom_site_fract_y
 _atom_site_fract_z
 _atom_site_occupancy
  C  C0  1  0.87500000  0.25000000  0.25000000  1
  C  C1  1  0.87500000  0.75000000  0.25000000  1
  C  C2  1  0.87500000  0.25000000  0.75000000  1
  C  C3  1  0.37500000  0.75000000  0.75000000  1
  Ni  Ni4  1  0.54713900  0.20695900  0.85491900  1
  Ni  Ni5  1  0.59794200  0.79304100  0.85491900  1
  Ni  Ni6  1  0.24590200  0.20695900  0.14508100  1
  Ni  Ni7  1  0.20286100  0.29304100  0.64508100  1
  Ni  Ni8  1  0.60901700  0.79304100  0.14508100  1
  Ni  Ni9  1  0.15205800  0.70695900  0.64508100  1
  Ni  Ni10  1  0.50409800  0.29304100  0.35491900  1
  Ni  Ni11  1  0.14098300  0.70695900  0.35491900  1
  Cu  Cu12  1  0.67731300  0.83352200  0.06789000  1
  Cu  Cu13  1  0.25479600  0.16647800  0.06789000  1
  Cu  Cu14  1  0.48916500  0.83352200  0.93211000  1
  Cu  Cu15  1  0.07268700  0.66647800  0.43211000  1
  Cu  Cu16  1  0.57872500  0.16647800  0.93211000  1
  Cu  Cu17  1  0.49520400  0.33352200  0.43211000  1
  Cu  Cu18  1  0.26083500  0.66647800  0.56789000  1
  Cu  Cu19  1  0.17127500  0.33352200  0.56789000  1
  Cu  Cu20  1  0.03549400  0.34357100  0.16909700  1
  Cu  Cu21  1  0.79541000  0.65642900  0.16909700  1
  Cu  Cu22  1  0.62093500  0.34357100  0.83090300  1
  Cu  Cu23  1  0.71450600  0.15642900  0.33090300  1
  Cu  Cu24  1  0.54816100  0.65642900  0.83090300  1
  Cu  Cu25  1  0.95459000  0.84357100  0.33090300  1
  Cu  Cu26  1  0.12906500  0.15642900  0.66909700  1
  Cu  Cu27  1  0.20183900  0.84357100  0.66909700  1
  Cu  Cu28  1  0.74782200  0.10439800  0.79377400  1
  Cu  Cu29  1  0.45840400  0.89560200  0.79377400  1
  Cu  Cu30  1  0.14778000  0.10439800  0.20622600  1
  Cu  Cu31  1  0.00217800  0.39560200  0.70622600  1
  Cu  Cu32  1  0.64599400  0.89560200  0.20622600  1
  Cu  Cu33  1  0.29159600  0.60439800  0.70622600  1
  Cu  Cu34  1  0.60222000  0.39560200  0.29377400  1
  Cu  Cu35  1  0.10400600  0.60439800  0.29377400  1
