# generated using pymatgen
data_CuNiC14
_symmetry_space_group_name_H-M   'P 1'
_cell_length_a   9.92205693
_cell_length_b   9.92205693
_cell_length_c   9.92205693
_cell_angle_alpha   90.00000000
_cell_angle_beta   90.00000000
_cell_angle_gamma   90.00000000
_symmetry_Int_Tables_number   1
_chemical_formula_structural   CuNiC14
_chemical_formula_sum   'Cu4 Ni4 C56'
_cell_volume   976.79885915
_cell_formula_units_Z   4
loop_
 _symmetry_equiv_pos_site_id
 _symmetry_equiv_pos_as_xyz
  1  'x, y, z'
loop_
 _atom_site_type_symbol
 _atom_site_label
 _atom_site_symmetry_multiplicity
 _atom_site_fract_x
 _atom_site_fract_y
 _atom_site_fract_z
 _atom_site_occupancy
  Ni  Ni0  1  0.79464271  0.29464271  0.20535729  1
  Ni  Ni1  1  0.29464271  0.20535729  0.79464271  1
  Ni  Ni2  1  0.20535729  0.79464271  0.29464271  1
  Ni  Ni3  1  0.70535729  0.70535729  0.70535729  1
  Cu  Cu4  1  0.53340208  0.03340208  0.46659792  1
  Cu  Cu5  1  0.03340208  0.46659792  0.53340208  1
  Cu  Cu6  1  0.46659792  0.53340208  0.03340208  1
  Cu  Cu7  1  0.96659792  0.96659792  0.96659792  1
  C  C8  1  0.27002744  0.77002744  0.72997256  1
  C  C9  1  0.77002744  0.72997256  0.27002744  1
  C  C10  1  0.72997256  0.27002744  0.77002744  1
  C  C11  1  0.22997256  0.22997256  0.22997256  1
  C  C12  1  0.08456795  0.58456795  0.91543205  1
  C  C13  1  0.58456795  0.91543205  0.08456795  1
  C  C14  1  0.91543205  0.08456795  0.58456795  1
  C  C15  1  0.41543205  0.41543205  0.41543205  1
  C  C16  1  0.31160184  0.93622118  0.04115701  1
  C  C17  1  0.95884299  0.81160184  0.56377882  1
  C  C18  1  0.43622118  0.45884299  0.68839816  1
  C  C19  1  0.81160184  0.56377882  0.95884299  1
  C  C20  1  0.45884299  0.68839816  0.43622118  1
  C  C21  1  0.93622118  0.04115701  0.31160184  1
  C  C22  1  0.68839816  0.43622118  0.45884299  1
  C  C23  1  0.04115701  0.31160184  0.93622118  1
  C  C24  1  0.56377882  0.95884299  0.81160184  1
  C  C25  1  0.18839816  0.06377882  0.54115701  1
  C  C26  1  0.54115701  0.18839816  0.06377882  1
  C  C27  1  0.06377882  0.54115701  0.18839816  1
  C  C28  1  0.49574779  0.76832038  0.53078670  1
  C  C29  1  0.46921330  0.99574779  0.73167962  1
  C  C30  1  0.26832038  0.96921330  0.50425221  1
  C  C31  1  0.99574779  0.73167962  0.46921330  1
  C  C32  1  0.96921330  0.50425221  0.26832038  1
  C  C33  1  0.76832038  0.53078670  0.49574779  1
  C  C34  1  0.50425221  0.26832038  0.96921330  1
  C  C35  1  0.53078670  0.49574779  0.76832038  1
  C  C36  1  0.73167962  0.46921330  0.99574779  1
  C  C37  1  0.00425221  0.23167962  0.03078670  1
  C  C38  1  0.03078670  0.00425221  0.23167962  1
  C  C39  1  0.23167962  0.03078670  0.00425221  1
  C  C40  1  0.08310625  0.71500826  0.98565511  1
  C  C41  1  0.01434489  0.58310625  0.78499174  1
  C  C42  1  0.21500826  0.51434489  0.91689375  1
  C  C43  1  0.58310625  0.78499174  0.01434489  1
  C  C44  1  0.51434489  0.91689375  0.21500826  1
  C  C45  1  0.71500826  0.98565511  0.08310625  1
  C  C46  1  0.91689375  0.21500826  0.51434489  1
  C  C47  1  0.98565511  0.08310625  0.71500826  1
  C  C48  1  0.78499174  0.01434489  0.58310625  1
  C  C49  1  0.41689375  0.28499174  0.48565511  1
  C  C50  1  0.48565511  0.41689375  0.28499174  1
  C  C51  1  0.28499174  0.48565511  0.41689375  1
  C  C52  1  0.18989339  0.88995983  0.77344509  1
  C  C53  1  0.22655491  0.68989339  0.61004017  1
  C  C54  1  0.38995983  0.72655491  0.81010661  1
  C  C55  1  0.68989339  0.61004017  0.22655491  1
  C  C56  1  0.72655491  0.81010661  0.38995983  1
  C  C57  1  0.88995983  0.77344509  0.18989339  1
  C  C58  1  0.81010661  0.38995983  0.72655491  1
  C  C59  1  0.77344509  0.18989339  0.88995983  1
  C  C60  1  0.61004017  0.22655491  0.68989339  1
  C  C61  1  0.31010661  0.11004017  0.27344509  1
  C  C62  1  0.27344509  0.31010661  0.11004017  1
  C  C63  1  0.11004017  0.27344509  0.31010661  1
