# generated using pymatgen
data_CuNi2C3
_symmetry_space_group_name_H-M   'P 1'
_cell_length_a   4.44794700
_cell_length_b   7.21283800
_cell_length_c   7.87911600
_cell_angle_alpha   90.00000000
_cell_angle_beta   90.00000000
_cell_angle_gamma   90.00000000
_symmetry_Int_Tables_number   1
_chemical_formula_structural   CuNi2C3
_chemical_formula_sum   'Cu2 Ni4 C6'
_cell_volume   252.78032984
_cell_formula_units_Z   2
loop_
 _symmetry_equiv_pos_site_id
 _symmetry_equiv_pos_as_xyz
  1  'x, y, z'
loop_
 _atom_site_type_symbol
 _atom_site_label
 _atom_site_symmetry_multiplicity
 _atom_site_fract_x
 _atom_site_fract_y
 _atom_site_fract_z
 _atom_site_occupancy
  C  C0  1  0.50000000  0.46843700  0.56877100  1
  C  C1  1  0.50000000  0.96843700  0.43122900  1
  C  C2  1  0.00000000  0.52830500  0.92869200  1
  C  C3  1  0.00000000  0.02830500  0.07130800  1
  Ni  Ni4  1  0.50000000  0.35216700  0.18016600  1
  Ni  Ni5  1  0.50000000  0.85216700  0.81983400  1
  Ni  Ni6  1  0.00000000  0.64931300  0.31521400  1
  Ni  Ni7  1  0.00000000  0.14931300  0.68478600  1
  Cu  Cu8  1  0.00000000  0.78307900  0.63853800  1
  Cu  Cu9  1  0.00000000  0.28307900  0.36146200  1
  C  C10  1  0.50000000  0.21870000  0.86152700  1
  C  C11  1  0.50000000  0.71870000  0.13847300  1
