# generated using pymatgen
data_Cu8Ni18C31
_symmetry_space_group_name_H-M   'P 1'
_cell_length_a   8.68697110
_cell_length_b   8.68697110
_cell_length_c   17.36896979
_cell_angle_alpha   90.00000000
_cell_angle_beta   90.00000000
_cell_angle_gamma   90.00000000
_symmetry_Int_Tables_number   1
_chemical_formula_structural   Cu8Ni18C31
_chemical_formula_sum   'Cu16 Ni36 C62'
_cell_volume   1310.72267670
_cell_formula_units_Z   2
loop_
 _symmetry_equiv_pos_site_id
 _symmetry_equiv_pos_as_xyz
  1  'x, y, z'
loop_
 _atom_site_type_symbol
 _atom_site_label
 _atom_site_symmetry_multiplicity
 _atom_site_fract_x
 _atom_site_fract_y
 _atom_site_fract_z
 _atom_site_occupancy
  C  C0  1  0.50000000  -0.00000000  0.17235812  1
  C  C1  1  -0.00000000  0.50000000  0.32764188  1
  C  C2  1  -0.00000000  0.50000000  0.82764188  1
  C  C3  1  0.50000000  -0.00000000  0.67235812  1
  C  C4  1  -0.00000000  0.50000000  0.03650092  1
  C  C5  1  0.50000000  -0.00000000  0.46349908  1
  C  C6  1  0.50000000  -0.00000000  0.96349908  1
  C  C7  1  -0.00000000  0.50000000  0.53650092  1
  C  C8  1  0.58944600  0.34420170  0.06759119  1
  C  C9  1  0.41055400  0.65579830  0.06759119  1
  C  C10  1  0.08944600  0.84420170  0.43240881  1
  C  C11  1  0.91055400  0.15579830  0.43240881  1
  C  C12  1  0.34420170  0.41055400  0.93240881  1
  C  C13  1  0.65579830  0.58944600  0.93240881  1
  C  C14  1  0.84420170  0.91055400  0.56759119  1
  C  C15  1  0.15579830  0.08944600  0.56759119  1
  Ni  Ni16  1  0.87475282  0.14074905  0.20020845  1
  Ni  Ni17  1  0.12524718  0.85925095  0.20020845  1
  Ni  Ni18  1  0.37475282  0.64074905  0.29979155  1
  Ni  Ni19  1  0.62524718  0.35925095  0.29979155  1
  Ni  Ni20  1  0.14074905  0.12524718  0.79979155  1
  Ni  Ni21  1  0.85925095  0.87475282  0.79979155  1
  Ni  Ni22  1  0.64074905  0.62524718  0.70020845  1
  Ni  Ni23  1  0.35925095  0.37475282  0.70020845  1
  Ni  Ni24  1  0.14986061  0.14229711  0.08181052  1
  Ni  Ni25  1  0.85013939  0.85770289  0.08181052  1
  Ni  Ni26  1  0.64986061  0.64229711  0.41818948  1
  Ni  Ni27  1  0.35013939  0.35770289  0.41818948  1
  Ni  Ni28  1  0.14229711  0.85013939  0.91818948  1
  Ni  Ni29  1  0.85770289  0.14986061  0.91818948  1
  Ni  Ni30  1  0.64229711  0.35013939  0.58181052  1
  Ni  Ni31  1  0.35770289  0.64986061  0.58181052  1
  Ni  Ni32  1  0.50000000  0.50000000  0.19556268  1
  Ni  Ni33  1  -0.00000000  -0.00000000  0.30443732  1
  Ni  Ni34  1  0.50000000  0.50000000  0.80443732  1
  Ni  Ni35  1  -0.00000000  -0.00000000  0.69556268  1
  Ni  Ni36  1  0.64988272  0.81893640  0.29325341  1
  Ni  Ni37  1  0.35011728  0.18106360  0.29325341  1
  Ni  Ni38  1  0.14988272  0.31893640  0.20674659  1
  Ni  Ni39  1  0.85011728  0.68106360  0.20674659  1
  Ni  Ni40  1  0.81893640  0.35011728  0.70674659  1
  Ni  Ni41  1  0.18106360  0.64988272  0.70674659  1
  Ni  Ni42  1  0.31893640  0.85011728  0.79325341  1
  Ni  Ni43  1  0.68106360  0.14988272  0.79325341  1
  Ni  Ni44  1  0.76828041  0.94868094  0.29237006  1
  Ni  Ni45  1  0.23171959  0.05131906  0.29237006  1
  Ni  Ni46  1  0.26828041  0.44868094  0.20762994  1
  Ni  Ni47  1  0.73171959  0.55131906  0.20762994  1
  Ni  Ni48  1  0.94868094  0.23171959  0.70762994  1
  Ni  Ni49  1  0.05131906  0.76828041  0.70762994  1
  Ni  Ni50  1  0.44868094  0.73171959  0.79237006  1
  Ni  Ni51  1  0.55131906  0.26828041  0.79237006  1
  Cu  Cu52  1  0.82710017  0.22492241  0.15808274  1
  Cu  Cu53  1  0.17289983  0.77507759  0.15808274  1
  Cu  Cu54  1  0.32710017  0.72492241  0.34191726  1
  Cu  Cu55  1  0.67289983  0.27507759  0.34191726  1
  Cu  Cu56  1  0.22492241  0.17289983  0.84191726  1
  Cu  Cu57  1  0.77507759  0.82710017  0.84191726  1
  Cu  Cu58  1  0.72492241  0.67289983  0.65808274  1
  Cu  Cu59  1  0.27507759  0.32710017  0.65808274  1
  Cu  Cu60  1  0.24869714  0.20172304  0.05415974  1
  Cu  Cu61  1  0.75130286  0.79827696  0.05415974  1
  Cu  Cu62  1  0.74869714  0.70172304  0.44584026  1
  Cu  Cu63  1  0.25130286  0.29827696  0.44584026  1
  Cu  Cu64  1  0.20172304  0.75130286  0.94584026  1
  Cu  Cu65  1  0.79827696  0.24869714  0.94584026  1
  Cu  Cu66  1  0.70172304  0.25130286  0.55415974  1
  Cu  Cu67  1  0.29827696  0.74869714  0.55415974  1
  C  C68  1  0.67950366  0.21768341  0.15101414  1
  C  C69  1  0.32049634  0.78231659  0.15101414  1
  C  C70  1  0.17950366  0.71768341  0.34898586  1
  C  C71  1  0.82049634  0.28231659  0.34898586  1
  C  C72  1  0.21768341  0.32049634  0.84898586  1
  C  C73  1  0.78231659  0.67950366  0.84898586  1
  C  C74  1  0.71768341  0.82049634  0.65101414  1
  C  C75  1  0.28231659  0.17950366  0.65101414  1
  C  C76  1  0.91690546  0.31350189  0.12423795  1
  C  C77  1  0.08309454  0.68649811  0.12423795  1
  C  C78  1  0.41690546  0.81350189  0.37576205  1
  C  C79  1  0.58309454  0.18649811  0.37576205  1
  C  C80  1  0.31350189  0.08309454  0.87576205  1
  C  C81  1  0.68649811  0.91690546  0.87576205  1
  C  C82  1  0.81350189  0.58309454  0.62423795  1
  C  C83  1  0.18649811  0.41690546  0.62423795  1
  C  C84  1  0.38229741  0.15255789  0.06662559  1
  C  C85  1  0.61770259  0.84744211  0.06662559  1
  C  C86  1  0.88229741  0.65255789  0.43337441  1
  C  C87  1  0.11770259  0.34744211  0.43337441  1
  C  C88  1  0.15255789  0.61770259  0.93337441  1
  C  C89  1  0.84744211  0.38229741  0.93337441  1
  C  C90  1  0.65255789  0.11770259  0.56662559  1
  C  C91  1  0.34744211  0.88229741  0.56662559  1
  C  C92  1  0.20997857  0.31650149  0.01208482  1
  C  C93  1  0.79002143  0.68349851  0.01208482  1
  C  C94  1  0.70997857  0.81650149  0.48791518  1
  C  C95  1  0.29002143  0.18349851  0.48791518  1
  C  C96  1  0.31650149  0.79002143  0.98791518  1
  C  C97  1  0.68349851  0.20997857  0.98791518  1
  C  C98  1  0.81650149  0.29002143  0.51208482  1
  C  C99  1  0.18349851  0.70997857  0.51208482  1
  C  C100  1  0.50000000  0.50000000  0.13909339  1
  C  C101  1  -0.00000000  -0.00000000  0.36090661  1
  C  C102  1  0.50000000  0.50000000  0.86090661  1
  C  C103  1  -0.00000000  -0.00000000  0.63909339  1
  C  C104  1  0.50000000  0.50000000  -0.00000000  1
  C  C105  1  -0.00000000  -0.00000000  0.50000000  1
  C  C106  1  0.68981325  0.90063894  0.26016452  1
  C  C107  1  0.31018675  0.09936106  0.26016452  1
  C  C108  1  0.18981325  0.40063894  0.23983548  1
  C  C109  1  0.81018675  0.59936106  0.23983548  1
  C  C110  1  0.90063894  0.31018675  0.73983548  1
  C  C111  1  0.09936106  0.68981325  0.73983548  1
  C  C112  1  0.40063894  0.81018675  0.76016452  1
  C  C113  1  0.59936106  0.18981325  0.76016452  1
