# generated using pymatgen
data_Cu7(NiC5)3
_symmetry_space_group_name_H-M   'P 1'
_cell_length_a   8.51977058
_cell_length_b   18.99039765
_cell_length_c   18.99039765
_cell_angle_alpha   119.99999678
_cell_angle_beta   90.00000000
_cell_angle_gamma   90.00000000
_symmetry_Int_Tables_number   1
_chemical_formula_structural   Cu7(NiC5)3
_chemical_formula_sum   'Cu42 Ni18 C90'
_cell_volume   2660.88842177
_cell_formula_units_Z   6
loop_
 _symmetry_equiv_pos_site_id
 _symmetry_equiv_pos_as_xyz
  1  'x, y, z'
loop_
 _atom_site_type_symbol
 _atom_site_label
 _atom_site_symmetry_multiplicity
 _atom_site_fract_x
 _atom_site_fract_y
 _atom_site_fract_z
 _atom_site_occupancy
  C  C0  1  0.69511559  0.48028862  0.82883334  1
  C  C1  1  0.69511559  0.34854473  0.51971138  1
  C  C2  1  0.19511559  0.51971138  0.17116666  1
  C  C3  1  0.69511559  0.17116666  0.65145527  1
  C  C4  1  0.19511559  0.65145527  0.48028862  1
  C  C5  1  0.19511559  0.82883334  0.34854473  1
  C  C6  1  0.69738404  0.65747142  0.17087721  1
  C  C7  1  0.69738404  0.51340578  0.34252858  1
  C  C8  1  0.19738404  0.34252858  0.82912279  1
  C  C9  1  0.69738404  0.82912279  0.48659422  1
  C  C10  1  0.19738404  0.48659422  0.65747142  1
  C  C11  1  0.19738404  0.17087721  0.51340578  1
  C  C12  1  0.72598711  0.59791411  0.59510802  1
  C  C13  1  0.72598711  0.99719391  0.40208589  1
  C  C14  1  0.22598711  0.40208589  0.40489198  1
  C  C15  1  0.72598711  0.40489198  0.00280609  1
  C  C16  1  0.22598711  0.00280609  0.59791411  1
  C  C17  1  0.22598711  0.59510802  0.99719391  1
  Ni  Ni18  1  0.82065601  0.50539893  0.68415773  1
  Ni  Ni19  1  0.82065601  0.17875880  0.49460107  1
  Ni  Ni20  1  0.32065601  0.49460107  0.31584227  1
  Ni  Ni21  1  0.82065601  0.31584227  0.82124120  1
  Ni  Ni22  1  0.32065601  0.82124120  0.50539893  1
  Ni  Ni23  1  0.32065601  0.68415773  0.17875880  1
  Ni  Ni24  1  0.85236070  0.43918458  0.44063030  1
  Ni  Ni25  1  0.85236070  0.00144572  0.56081542  1
  Ni  Ni26  1  0.35236070  0.56081542  0.55936970  1
  Ni  Ni27  1  0.85236070  0.55936970  0.99855428  1
  Ni  Ni28  1  0.35236070  0.99855428  0.43918458  1
  Ni  Ni29  1  0.35236070  0.44063030  0.00144572  1
  Ni  Ni30  1  0.81888996  0.81971400  0.32504552  1
  Ni  Ni31  1  0.81888996  0.50533152  0.18028600  1
  Ni  Ni32  1  0.31888996  0.18028600  0.67495448  1
  Ni  Ni33  1  0.81888996  0.67495448  0.49466848  1
  Ni  Ni34  1  0.31888996  0.49466848  0.81971400  1
  Ni  Ni35  1  0.31888996  0.32504552  0.50533152  1
  Cu  Cu36  1  0.65907521  0.99887710  0.28325612  1
  Cu  Cu37  1  0.65907521  0.28437903  0.00112290  1
  Cu  Cu38  1  0.15907521  0.00112290  0.71674388  1
  Cu  Cu39  1  0.65907521  0.71674388  0.71562097  1
  Cu  Cu40  1  0.15907521  0.71562097  0.99887710  1
  Cu  Cu41  1  0.15907521  0.28325612  0.28437903  1
  Cu  Cu42  1  0.95284919  0.94992100  0.07690334  1
  Cu  Cu43  1  0.95284919  0.12698234  0.05007900  1
  Cu  Cu44  1  0.45284919  0.05007900  0.92309666  1
  Cu  Cu45  1  0.95284919  0.92309666  0.87301766  1
  Cu  Cu46  1  0.45284919  0.87301766  0.94992100  1
  Cu  Cu47  1  0.45284919  0.07690334  0.12698234  1
  Cu  Cu48  1  0.95069003  0.81282501  0.13262575  1
  Cu  Cu49  1  0.95069003  0.31980073  0.18717499  1
  Cu  Cu50  1  0.45069003  0.18717499  0.86737425  1
  Cu  Cu51  1  0.95069003  0.86737425  0.68019927  1
  Cu  Cu52  1  0.45069003  0.68019927  0.81282501  1
  Cu  Cu53  1  0.45069003  0.13262575  0.31980073  1
  Cu  Cu54  1  0.98257274  0.68230727  0.86076903  1
  Cu  Cu55  1  0.98257274  0.17846176  0.31769273  1
  Cu  Cu56  1  0.48257274  0.31769273  0.13923097  1
  Cu  Cu57  1  0.98257274  0.13923097  0.82153824  1
  Cu  Cu58  1  0.48257274  0.82153824  0.68230727  1
  Cu  Cu59  1  0.48257274  0.86076903  0.17846176  1
  Cu  Cu60  1  0.70164292  0.75893783  0.95229675  1
  Cu  Cu61  1  0.70164292  0.19335892  0.24106217  1
  Cu  Cu62  1  0.20164292  0.24106217  0.04770325  1
  Cu  Cu63  1  0.70164292  0.04770325  0.80664108  1
  Cu  Cu64  1  0.20164292  0.80664108  0.75893783  1
  Cu  Cu65  1  0.20164292  0.95229675  0.19335892  1
  Cu  Cu66  1  0.97941780  0.99961378  0.33599168  1
  Cu  Cu67  1  0.97941780  0.33637790  0.00038622  1
  Cu  Cu68  1  0.47941780  0.00038622  0.66400832  1
  Cu  Cu69  1  0.97941780  0.66400832  0.66362210  1
  Cu  Cu70  1  0.47941780  0.66362210  0.99961378  1
  Cu  Cu71  1  0.47941780  0.33599168  0.33637790  1
  Cu  Cu72  1  0.94837106  0.95075831  0.11679657  1
  Cu  Cu73  1  0.94837106  0.16603826  0.04924169  1
  Cu  Cu74  1  0.44837106  0.04924169  0.88320343  1
  Cu  Cu75  1  0.94837106  0.88320343  0.83396174  1
  Cu  Cu76  1  0.44837106  0.83396174  0.95075831  1
  Cu  Cu77  1  0.44837106  0.11679657  0.16603826  1
  C  C78  1  0.71218510  0.81079888  0.38615304  1
  C  C79  1  0.71218510  0.57535416  0.18920112  1
  C  C80  1  0.21218510  0.18920112  0.61384696  1
  C  C81  1  0.71218510  0.61384696  0.42464584  1
  C  C82  1  0.21218510  0.42464584  0.81079888  1
  C  C83  1  0.21218510  0.38615304  0.57535416  1
  C  C84  1  0.52439721  0.98881177  0.41293961  1
  C  C85  1  0.52439721  0.42412783  0.01118823  1
  C  C86  1  0.02439721  0.01118823  0.58706039  1
  C  C87  1  0.52439721  0.58706039  0.57587217  1
  C  C88  1  0.02439721  0.57587217  0.98881177  1
  C  C89  1  0.02439721  0.41293961  0.42412783  1
  C  C90  1  0.74959609  0.57625554  0.67602795  1
  C  C91  1  0.74959609  0.09977241  0.42374446  1
  C  C92  1  0.24959609  0.42374446  0.32397205  1
  C  C93  1  0.74959609  0.32397205  0.90022759  1
  C  C94  1  0.24959609  0.90022759  0.57625554  1
  C  C95  1  0.24959609  0.67602795  0.09977241  1
  C  C96  1  0.78462830  0.62960191  0.07715836  1
  C  C97  1  0.78462830  0.44755645  0.37039809  1
  C  C98  1  0.28462830  0.37039809  0.92284164  1
  C  C99  1  0.78462830  0.92284164  0.55244355  1
  C  C100  1  0.28462830  0.55244355  0.62960191  1
  C  C101  1  0.28462830  0.07715836  0.44755645  1
  C  C102  1  0.79811841  0.74476927  0.24077802  1
  C  C103  1  0.79811841  0.49600875  0.25523073  1
  C  C104  1  0.29811841  0.25523073  0.75922198  1
  C  C105  1  0.79811841  0.75922198  0.50399125  1
  C  C106  1  0.29811841  0.50399125  0.74476927  1
  C  C107  1  0.29811841  0.24077802  0.49600875  1
  C  C108  1  0.77371571  0.89690719  0.32110469  1
  C  C109  1  0.77371571  0.42419751  0.10309281  1
  C  C110  1  0.27371571  0.10309281  0.67889531  1
  C  C111  1  0.77371571  0.67889531  0.57580249  1
  C  C112  1  0.27371571  0.57580249  0.89690719  1
  C  C113  1  0.27371571  0.32110469  0.42419751  1
  C  C114  1  0.75508504  0.55228522  0.92720010  1
  C  C115  1  0.75508504  0.37491488  0.44771478  1
  C  C116  1  0.25508504  0.44771478  0.07279990  1
  C  C117  1  0.75508504  0.07279990  0.62508512  1
  C  C118  1  0.25508504  0.62508512  0.55228522  1
  C  C119  1  0.25508504  0.92720010  0.37491488  1
  C  C120  1  0.76500795  0.42163061  0.61572819  1
  C  C121  1  0.76500795  0.19409758  0.57836939  1
  C  C122  1  0.26500795  0.57836939  0.38427181  1
  C  C123  1  0.76500795  0.38427181  0.80590242  1
  C  C124  1  0.26500795  0.80590242  0.42163061  1
  C  C125  1  0.26500795  0.61572819  0.19409758  1
  C  C126  1  0.84555550  0.99986639  0.47911148  1
  C  C127  1  0.84555550  0.47924509  0.00013361  1
  C  C128  1  0.34555550  0.00013361  0.52088852  1
  C  C129  1  0.84555550  0.52088852  0.52075491  1
  C  C130  1  0.34555550  0.52075491  0.99986639  1
  C  C131  1  0.34555550  0.47911148  0.47924509  1
  C  C132  1  0.76771275  0.51506859  0.76564887  1
  C  C133  1  0.76771275  0.25058029  0.48493141  1
  C  C134  1  0.26771275  0.48493141  0.23435113  1
  C  C135  1  0.76771275  0.23435113  0.74941971  1
  C  C136  1  0.26771275  0.74941971  0.51506859  1
  C  C137  1  0.26771275  0.76564887  0.25058029  1
  C  C138  1  0.99073204  0.82412012  0.35138111  1
  C  C139  1  0.99073204  0.52726099  0.17587988  1
  C  C140  1  0.49073204  0.17587988  0.64861889  1
  C  C141  1  0.99073204  0.64861889  0.47273901  1
  C  C142  1  0.49073204  0.47273901  0.82412012  1
  C  C143  1  0.49073204  0.35138111  0.52726099  1
  C  C144  1  0.00025354  0.51006493  0.68267893  1
  C  C145  1  0.00025354  0.17261400  0.48993507  1
  C  C146  1  0.50025354  0.48993507  0.31732107  1
  C  C147  1  0.00025354  0.31732107  0.82738600  1
  C  C148  1  0.50025354  0.82738600  0.51006493  1
  C  C149  1  0.50025354  0.68267893  0.17261400  1
