# generated using pymatgen
data_Cu10Ni2C5
_symmetry_space_group_name_H-M   'P 1'
_cell_length_a   8.76389800
_cell_length_b   7.21387900
_cell_length_c   13.90655862
_cell_angle_alpha   78.29887412
_cell_angle_beta   90.00000000
_cell_angle_gamma   90.00000000
_symmetry_Int_Tables_number   1
_chemical_formula_structural   Cu10Ni2C5
_chemical_formula_sum   'Cu40 Ni8 C20'
_cell_volume   860.92554240
_cell_formula_units_Z   4
loop_
 _symmetry_equiv_pos_site_id
 _symmetry_equiv_pos_as_xyz
  1  'x, y, z'
loop_
 _atom_site_type_symbol
 _atom_site_label
 _atom_site_symmetry_multiplicity
 _atom_site_fract_x
 _atom_site_fract_y
 _atom_site_fract_z
 _atom_site_occupancy
  C  C0  1  0.50000000  0.50000000  0.00000000  1
  C  C1  1  0.00000000  0.00000000  0.00000000  1
  C  C2  1  0.00000000  0.50000000  0.50000000  1
  C  C3  1  0.50000000  0.00000000  0.50000000  1
  C  C4  1  0.46939000  0.83818700  0.82506800  1
  C  C5  1  0.96939000  0.66181300  0.17493200  1
  C  C6  1  0.53061000  0.16181300  0.17493200  1
  C  C7  1  0.03061000  0.33818700  0.82506800  1
  C  C8  1  0.44340400  0.93044600  0.91734900  1
  C  C9  1  0.94340400  0.56955400  0.08265100  1
  C  C10  1  0.55659600  0.06955400  0.08265100  1
  C  C11  1  0.05659600  0.43044600  0.91734900  1
  C  C12  1  0.27788200  0.39489400  0.65460600  1
  C  C13  1  0.77788200  0.10510600  0.34539400  1
  C  C14  1  0.72211800  0.60510600  0.34539400  1
  C  C15  1  0.22211800  0.89489400  0.65460600  1
  C  C16  1  0.33839600  0.51959400  0.55537200  1
  C  C17  1  0.83839600  0.98040600  0.44462800  1
  C  C18  1  0.66160400  0.48040600  0.44462800  1
  C  C19  1  0.16160400  0.01959400  0.55537200  1
  Ni  Ni20  1  0.42080100  0.31914600  0.83307700  1
  Ni  Ni21  1  0.92080100  0.18085400  0.16692300  1
  Ni  Ni22  1  0.57919900  0.68085400  0.16692300  1
  Ni  Ni23  1  0.07919900  0.81914600  0.83307700  1
  Ni  Ni24  1  0.17094100  0.60645500  0.31480700  1
  Ni  Ni25  1  0.67094100  0.89354500  0.68519300  1
  Ni  Ni26  1  0.82905900  0.39354500  0.68519300  1
  Ni  Ni27  1  0.32905900  0.10645500  0.31480700  1
  Cu  Cu28  1  0.30398000  0.47905500  0.03747000  1
  Cu  Cu29  1  0.80398000  0.02094500  0.96253000  1
  Cu  Cu30  1  0.69602000  0.52094500  0.96253000  1
  Cu  Cu31  1  0.19602000  0.97905500  0.03747000  1
  Cu  Cu32  1  0.46589000  0.22016900  0.91594900  1
  Cu  Cu33  1  0.96589000  0.27983100  0.08405100  1
  Cu  Cu34  1  0.53411000  0.77983100  0.08405100  1
  Cu  Cu35  1  0.03411000  0.72016900  0.91594900  1
  Cu  Cu36  1  0.38043500  0.24503000  0.76483600  1
  Cu  Cu37  1  0.88043500  0.25497000  0.23516400  1
  Cu  Cu38  1  0.61956500  0.75497000  0.23516400  1
  Cu  Cu39  1  0.11956500  0.74503000  0.76483600  1
  Cu  Cu40  1  0.41996200  0.49844300  0.82742900  1
  Cu  Cu41  1  0.91996200  0.00155700  0.17257100  1
  Cu  Cu42  1  0.58003800  0.50155700  0.17257100  1
  Cu  Cu43  1  0.08003800  0.99844300  0.82742900  1
  Cu  Cu44  1  0.43764100  0.81075900  0.89443900  1
  Cu  Cu45  1  0.93764100  0.68924100  0.10556100  1
  Cu  Cu46  1  0.56235900  0.18924100  0.10556100  1
  Cu  Cu47  1  0.06235900  0.31075900  0.89443900  1
  Cu  Cu48  1  0.00702400  0.25131600  0.49625300  1
  Cu  Cu49  1  0.50702400  0.24868400  0.50374700  1
  Cu  Cu50  1  0.99297600  0.74868400  0.50374700  1
  Cu  Cu51  1  0.49297600  0.75131600  0.49625300  1
  Cu  Cu52  1  0.02280700  0.60103800  0.31588300  1
  Cu  Cu53  1  0.52280700  0.89896200  0.68411700  1
  Cu  Cu54  1  0.97719300  0.39896200  0.68411700  1
  Cu  Cu55  1  0.47719300  0.10103800  0.31588300  1
  Cu  Cu56  1  0.24446700  0.66008900  0.23987100  1
  Cu  Cu57  1  0.74446700  0.83991100  0.76012900  1
  Cu  Cu58  1  0.75553300  0.33991100  0.76012900  1
  Cu  Cu59  1  0.25553300  0.16008900  0.23987100  1
  Cu  Cu60  1  0.23294600  0.55008600  0.39971900  1
  Cu  Cu61  1  0.73294600  0.94991400  0.60028100  1
  Cu  Cu62  1  0.76705400  0.44991400  0.60028100  1
  Cu  Cu63  1  0.26705400  0.05008600  0.39971900  1
  Cu  Cu64  1  0.24536400  0.47509800  0.59176800  1
  Cu  Cu65  1  0.74536400  0.02490200  0.40823200  1
  Cu  Cu66  1  0.75463600  0.52490200  0.40823200  1
  Cu  Cu67  1  0.25463600  0.97509800  0.59176800  1
