# generated using pymatgen
data_Cu5Ni2C25
_symmetry_space_group_name_H-M   'P 1'
_cell_length_a   2.91493100
_cell_length_b   9.81678400
_cell_length_c   10.09103760
_cell_angle_alpha   80.07522095
_cell_angle_beta   90.00000000
_cell_angle_gamma   90.00000000
_symmetry_Int_Tables_number   1
_chemical_formula_structural   Cu5Ni2C25
_chemical_formula_sum   'Cu5 Ni2 C25'
_cell_volume   284.43625190
_cell_formula_units_Z   1
loop_
 _symmetry_equiv_pos_site_id
 _symmetry_equiv_pos_as_xyz
  1  'x, y, z'
loop_
 _atom_site_type_symbol
 _atom_site_label
 _atom_site_symmetry_multiplicity
 _atom_site_fract_x
 _atom_site_fract_y
 _atom_site_fract_z
 _atom_site_occupancy
  C  C0  1  0.50000000  0.24942500  0.62633400  1
  C  C1  1  0.50000000  0.75057500  0.37366600  1
  C  C2  1  0.50000000  0.24439900  0.12112300  1
  C  C3  1  0.00000000  0.25167300  0.37597900  1
  C  C4  1  0.00000000  0.75764700  0.11529800  1
  C  C5  1  0.00000000  0.24235300  0.88470200  1
  C  C6  1  0.50000000  0.75560100  0.87887700  1
  C  C7  1  0.00000000  0.74832700  0.62402100  1
  C  C8  1  0.50000000  0.00000000  0.00000000  1
  Ni  Ni9  1  0.00000000  0.99701300  0.75486400  1
  Ni  Ni10  1  0.00000000  0.00298700  0.24513600  1
  Cu  Cu11  1  0.00000000  0.50000000  0.50000000  1
  Cu  Cu12  1  0.00000000  0.50000000  0.00000000  1
  Cu  Cu13  1  0.50000000  0.50168800  0.24955100  1
  Cu  Cu14  1  0.50000000  0.49831200  0.75044900  1
  Cu  Cu15  1  0.50000000  0.00000000  0.50000000  1
  C  C16  1  0.50000000  0.11003100  0.80146200  1
  C  C17  1  0.50000000  0.61611500  0.56035500  1
  C  C18  1  0.50000000  0.10619000  0.31928700  1
  C  C19  1  0.00000000  0.10567800  0.56172400  1
  C  C20  1  0.00000000  0.61733500  0.31100000  1
  C  C21  1  0.00000000  0.11793200  0.08173200  1
  C  C22  1  0.50000000  0.61625600  0.06043000  1
  C  C23  1  0.00000000  0.61309600  0.80933400  1
  C  C24  1  0.50000000  0.38388500  0.43964500  1
  C  C25  1  0.50000000  0.88996900  0.19853800  1
  C  C26  1  0.50000000  0.38374400  0.93957000  1
  C  C27  1  0.00000000  0.38690400  0.19066600  1
  C  C28  1  0.00000000  0.88206800  0.91826800  1
  C  C29  1  0.00000000  0.38266500  0.68900000  1
  C  C30  1  0.50000000  0.89381000  0.68071300  1
  C  C31  1  0.00000000  0.89432200  0.43827600  1
