# generated using pymatgen
data_Cu11Ni3C
_symmetry_space_group_name_H-M   'P 1'
_cell_length_a   7.06836300
_cell_length_b   7.57096232
_cell_length_c   10.71018807
_cell_angle_alpha   94.43318359
_cell_angle_beta   105.52173956
_cell_angle_gamma   110.51524767
_symmetry_Int_Tables_number   1
_chemical_formula_structural   Cu11Ni3C
_chemical_formula_sum   'Cu22 Ni6 C2'
_cell_volume   507.84150854
_cell_formula_units_Z   2
loop_
 _symmetry_equiv_pos_site_id
 _symmetry_equiv_pos_as_xyz
  1  'x, y, z'
loop_
 _atom_site_type_symbol
 _atom_site_label
 _atom_site_symmetry_multiplicity
 _atom_site_fract_x
 _atom_site_fract_y
 _atom_site_fract_z
 _atom_site_occupancy
  C  C0  1  0.89758000  0.07691000  0.71088000  1
  C  C1  1  0.10242000  0.92309000  0.28912000  1
  Ni  Ni2  1  0.68349100  0.64242200  0.42612900  1
  Ni  Ni3  1  0.31650900  0.35757800  0.57387100  1
  Ni  Ni4  1  0.73390500  0.77130500  0.95580100  1
  Ni  Ni5  1  0.26609500  0.22869500  0.04419900  1
  Ni  Ni6  1  0.72184800  0.13911200  0.33823800  1
  Ni  Ni7  1  0.27815200  0.86088800  0.66176200  1
  Cu  Cu8  1  0.85779900  0.77758700  0.59303400  1
  Cu  Cu9  1  0.14220100  0.22241300  0.40696600  1
  Cu  Cu10  1  0.62426400  0.39937500  0.46467300  1
  Cu  Cu11  1  0.37573600  0.60062500  0.53532700  1
  Cu  Cu12  1  0.90212900  0.65334000  0.36123900  1
  Cu  Cu13  1  0.09787100  0.34666000  0.63876100  1
  Cu  Cu14  1  0.56273000  0.54160300  0.84845300  1
  Cu  Cu15  1  0.43727000  0.45839700  0.15154700  1
  Cu  Cu16  1  0.92967100  0.87612300  0.86984100  1
  Cu  Cu17  1  0.07032900  0.12387700  0.13015900  1
  Cu  Cu18  1  0.90440800  0.70404200  0.08967500  1
  Cu  Cu19  1  0.09559200  0.29595800  0.91032500  1
  Cu  Cu20  1  0.76417000  0.94174100  0.25284000  1
  Cu  Cu21  1  0.23583000  0.05825900  0.74716000  1
  Cu  Cu22  1  0.70706000  0.03552000  0.48596000  1
  Cu  Cu23  1  0.29294000  0.96448000  0.51404000  1
  Cu  Cu24  1  0.43251200  0.04632200  0.24894800  1
  Cu  Cu25  1  0.56748800  0.95367800  0.75105200  1
  Cu  Cu26  1  0.77742000  0.34017500  0.72373500  1
  Cu  Cu27  1  0.22258000  0.65982500  0.27626500  1
  Cu  Cu28  1  0.74447400  0.28175200  0.10954300  1
  Cu  Cu29  1  0.25552600  0.71824800  0.89045700  1
