# generated using pymatgen
data_CuNiC16
_symmetry_space_group_name_H-M   'P 1'
_cell_length_a   5.96220300
_cell_length_b   9.88983500
_cell_length_c   14.60488819
_cell_angle_alpha   89.79976687
_cell_angle_beta   90.00000000
_cell_angle_gamma   90.00000000
_symmetry_Int_Tables_number   1
_chemical_formula_structural   CuNiC16
_chemical_formula_sum   'Cu4 Ni4 C64'
_cell_volume   861.17495105
_cell_formula_units_Z   4
loop_
 _symmetry_equiv_pos_site_id
 _symmetry_equiv_pos_as_xyz
  1  'x, y, z'
loop_
 _atom_site_type_symbol
 _atom_site_label
 _atom_site_symmetry_multiplicity
 _atom_site_fract_x
 _atom_site_fract_y
 _atom_site_fract_z
 _atom_site_occupancy
  C  C0  1  0.50000000  0.78616000  0.47935400  1
  C  C1  1  0.50000000  0.78265400  0.14632600  1
  C  C2  1  0.00000000  0.71629300  0.31291100  1
  C  C3  1  0.50000000  0.28245800  0.02001800  1
  Ni  Ni4  1  0.50000000  0.77659900  0.81838000  1
  Ni  Ni5  1  0.00000000  0.72024100  0.65312400  1
  Ni  Ni6  1  0.00000000  0.72407500  0.98622100  1
  Ni  Ni7  1  0.50000000  0.27779200  0.34926100  1
  Cu  Cu8  1  0.50000000  0.27167700  0.67552700  1
  Cu  Cu9  1  0.00000000  0.22460100  0.51440700  1
  Cu  Cu10  1  0.00000000  0.21898500  0.84785900  1
  Cu  Cu11  1  0.00000000  0.22284400  0.18380900  1
  C  C12  1  0.00000000  0.90403300  0.47183500  1
  C  C13  1  0.00000000  0.90364700  0.13797600  1
  C  C14  1  0.00000000  0.90242600  0.80299500  1
  C  C15  1  0.50000000  0.59931900  0.97293900  1
  C  C16  1  0.50000000  0.59670500  0.63862200  1
  C  C17  1  0.50000000  0.60063400  0.30519000  1
  C  C18  1  0.00000000  0.40119700  0.02916600  1
  C  C19  1  0.00000000  0.40238100  0.36199000  1
  C  C20  1  0.00000000  0.39621400  0.69880000  1
  C  C21  1  0.50000000  0.09924100  0.19317300  1
  C  C22  1  0.50000000  0.09728200  0.53052700  1
  C  C23  1  0.50000000  0.10090200  0.85893000  1
  C  C24  1  0.50000000  0.94757700  0.21516800  1
  C  C25  1  0.50000000  0.94480600  0.55225000  1
  C  C26  1  0.50000000  0.94919400  0.88044500  1
  C  C27  1  0.00000000  0.88028100  0.24177600  1
  C  C28  1  0.00000000  0.87865100  0.57481300  1
  C  C29  1  0.00000000  0.87975200  0.90700000  1
  C  C30  1  0.20211400  0.83443600  0.42198100  1
  C  C31  1  0.79788600  0.83443600  0.42198100  1
  C  C32  1  0.19958800  0.82906000  0.08803300  1
  C  C33  1  0.80041200  0.82906000  0.08803300  1
  C  C34  1  0.20140200  0.82578600  0.75591200  1
  C  C35  1  0.79859800  0.82578600  0.75591200  1
  C  C36  1  0.70122700  0.67227800  0.92441500  1
  C  C37  1  0.29877300  0.67227800  0.92441500  1
  C  C38  1  0.70447800  0.66686700  0.59111400  1
  C  C39  1  0.29552200  0.66686700  0.59111400  1
  C  C40  1  0.70149700  0.67300300  0.25609600  1
  C  C41  1  0.29850300  0.67300300  0.25609600  1
  C  C42  1  0.50000000  0.61994500  0.07758600  1
  C  C43  1  0.50000000  0.61872100  0.74262700  1
  C  C44  1  0.50000000  0.62277000  0.40924700  1
  C  C45  1  0.00000000  0.55267400  0.05139200  1
  C  C46  1  0.00000000  0.55434800  0.38498000  1
  C  C47  1  0.00000000  0.54818300  0.71568200  1
  C  C48  1  0.50000000  0.44728900  0.95298900  1
  C  C49  1  0.50000000  0.44221100  0.61974300  1
  C  C50  1  0.50000000  0.44887800  0.28531900  1
  C  C51  1  0.00000000  0.38372200  0.25754800  1
  C  C52  1  0.00000000  0.38051400  0.92612400  1
  C  C53  1  0.00000000  0.37091000  0.59353800  1
  C  C54  1  0.19977800  0.32710200  0.08022900  1
  C  C55  1  0.80022200  0.32710200  0.08022900  1
  C  C56  1  0.20310400  0.32929200  0.40992400  1
  C  C57  1  0.79689600  0.32929200  0.40992400  1
  C  C58  1  0.20211600  0.32569300  0.74727300  1
  C  C59  1  0.79788400  0.32569300  0.74727300  1
  C  C60  1  0.70201000  0.17282500  0.24181500  1
  C  C61  1  0.29799000  0.17282500  0.24181500  1
  C  C62  1  0.70192700  0.16880700  0.57928600  1
  C  C63  1  0.29807300  0.16880700  0.57928600  1
  C  C64  1  0.70486500  0.17268500  0.90639800  1
  C  C65  1  0.29513500  0.17268500  0.90639800  1
  C  C66  1  0.50000000  0.11991200  0.42649400  1
  C  C67  1  0.50000000  0.12188000  0.75460600  1
  C  C68  1  0.50000000  0.11829500  0.08868400  1
  C  C69  1  0.00000000  0.05836600  0.45270000  1
  C  C70  1  0.00000000  0.05437000  0.11607000  1
  C  C71  1  0.00000000  0.05231700  0.77834100  1
