# generated using pymatgen
data_CuNiC9
_symmetry_space_group_name_H-M   'P 1'
_cell_length_a   6.87165181
_cell_length_b   6.87165181
_cell_length_c   6.87165132
_cell_angle_alpha   90.23925439
_cell_angle_beta   90.23925439
_cell_angle_gamma   90.23925380
_symmetry_Int_Tables_number   1
_chemical_formula_structural   CuNiC9
_chemical_formula_sum   'Cu2 Ni2 C18'
_cell_volume   324.46810640
_cell_formula_units_Z   2
loop_
 _symmetry_equiv_pos_site_id
 _symmetry_equiv_pos_as_xyz
  1  'x, y, z'
loop_
 _atom_site_type_symbol
 _atom_site_label
 _atom_site_symmetry_multiplicity
 _atom_site_fract_x
 _atom_site_fract_y
 _atom_site_fract_z
 _atom_site_occupancy
  C  C0  1  0.38685400  0.11314600  0.75000000  1
  C  C1  1  0.11314600  0.75000000  0.38685400  1
  C  C2  1  0.75000000  0.38685400  0.11314600  1
  C  C3  1  0.61314600  0.88685400  0.25000000  1
  C  C4  1  0.25000000  0.61314600  0.88685400  1
  C  C5  1  0.88685400  0.25000000  0.61314600  1
  Ni  Ni6  1  0.75000000  0.75000000  0.75000000  1
  Ni  Ni7  1  0.25000000  0.25000000  0.25000000  1
  Cu  Cu8  1  0.50000000  0.50000000  0.50000000  1
  Cu  Cu9  1  0.00000000  0.00000000  0.00000000  1
  C  C10  1  0.94867900  0.08256800  0.28496600  1
  C  C11  1  0.28496600  0.94867900  0.08256800  1
  C  C12  1  0.08256800  0.28496600  0.94867900  1
  C  C13  1  0.55132100  0.21503400  0.41743200  1
  C  C14  1  0.41743200  0.55132100  0.21503400  1
  C  C15  1  0.21503400  0.41743200  0.55132100  1
  C  C16  1  0.05132100  0.91743200  0.71503400  1
  C  C17  1  0.71503400  0.05132100  0.91743200  1
  C  C18  1  0.91743200  0.71503400  0.05132100  1
  C  C19  1  0.44867900  0.78496600  0.58256800  1
  C  C20  1  0.78496600  0.58256800  0.44867900  1
  C  C21  1  0.58256800  0.44867900  0.78496600  1
