# generated using pymatgen
data_Cu(NiC3)2
_symmetry_space_group_name_H-M   'P 1'
_cell_length_a   3.34578988
_cell_length_b   3.34578988
_cell_length_c   30.97280500
_cell_angle_alpha   90.00000000
_cell_angle_beta   90.00000000
_cell_angle_gamma   119.99999768
_symmetry_Int_Tables_number   1
_chemical_formula_structural   Cu(NiC3)2
_chemical_formula_sum   'Cu1 Ni2 C6'
_cell_volume   300.26762386
_cell_formula_units_Z   1
loop_
 _symmetry_equiv_pos_site_id
 _symmetry_equiv_pos_as_xyz
  1  'x, y, z'
loop_
 _atom_site_type_symbol
 _atom_site_label
 _atom_site_symmetry_multiplicity
 _atom_site_fract_x
 _atom_site_fract_y
 _atom_site_fract_z
 _atom_site_occupancy
  C  C0  1  0.00000000  0.00000000  0.40813700  1
  C  C1  1  0.00000000  0.00000000  0.28586100  1
  Ni  Ni2  1  0.00000000  0.00000000  0.11560300  1
  Ni  Ni3  1  0.33333300  0.66666700  0.34699000  1
  Cu  Cu4  1  0.00000000  0.00000000  0.57833200  1
  C  C5  1  0.33333300  0.66666700  0.06187300  1
  C  C6  1  0.33333300  0.66666700  0.16939700  1
  C  C7  1  0.33333300  0.66666700  0.52918200  1
  C  C8  1  0.33333300  0.66666700  0.62746700  1
