# generated using pymatgen
data_Cu5Ni3C32
_symmetry_space_group_name_H-M   'P 1'
_cell_length_a   7.66734800
_cell_length_b   7.66737800
_cell_length_c   7.66734800
_cell_angle_alpha   90.00000000
_cell_angle_beta   90.00000000
_cell_angle_gamma   90.00000000
_symmetry_Int_Tables_number   1
_chemical_formula_structural   Cu5Ni3C32
_chemical_formula_sum   'Cu5 Ni3 C32'
_cell_volume   450.75154573
_cell_formula_units_Z   1
loop_
 _symmetry_equiv_pos_site_id
 _symmetry_equiv_pos_as_xyz
  1  'x, y, z'
loop_
 _atom_site_type_symbol
 _atom_site_label
 _atom_site_symmetry_multiplicity
 _atom_site_fract_x
 _atom_site_fract_y
 _atom_site_fract_z
 _atom_site_occupancy
  Ni  Ni0  1  0.25000000  0.25000000  0.25000000  1
  Ni  Ni1  1  0.25000000  0.25000000  0.75000000  1
  Ni  Ni2  1  0.75000000  0.25000000  0.25000000  1
  Cu  Cu3  1  0.25000000  0.75000000  0.25000000  1
  Cu  Cu4  1  0.25000000  0.75000000  0.75000000  1
  Cu  Cu5  1  0.75000000  0.25000000  0.75000000  1
  Cu  Cu6  1  0.75000000  0.75000000  0.25000000  1
  Cu  Cu7  1  0.75000000  0.75000000  0.75000000  1
  C  C8  1  0.99956100  0.99872600  0.99956100  1
  C  C9  1  0.99956100  0.99872600  0.50043900  1
  C  C10  1  0.99956100  0.50127400  0.99956100  1
  C  C11  1  0.99956100  0.50127400  0.50043900  1
  C  C12  1  0.50043900  0.99872600  0.99956100  1
  C  C13  1  0.50043900  0.99872600  0.50043900  1
  C  C14  1  0.50043900  0.50127400  0.99956100  1
  C  C15  1  0.50043900  0.50127400  0.50043900  1
  C  C16  1  0.99983100  0.99571000  0.25000000  1
  C  C17  1  0.99797500  0.99767200  0.75000000  1
  C  C18  1  0.99983100  0.50429000  0.25000000  1
  C  C19  1  0.99797500  0.50232800  0.75000000  1
  C  C20  1  0.50016900  0.99571000  0.25000000  1
  C  C21  1  0.50202500  0.99767200  0.75000000  1
  C  C22  1  0.50016900  0.50429000  0.25000000  1
  C  C23  1  0.50202500  0.50232800  0.75000000  1
  C  C24  1  0.25000000  0.99571000  0.99983100  1
  C  C25  1  0.25000000  0.99571000  0.50016900  1
  C  C26  1  0.25000000  0.50429000  0.99983100  1
  C  C27  1  0.25000000  0.50429000  0.50016900  1
  C  C28  1  0.75000000  0.99767200  0.99797500  1
  C  C29  1  0.75000000  0.99767200  0.50202500  1
  C  C30  1  0.75000000  0.50232800  0.99797500  1
  C  C31  1  0.75000000  0.50232800  0.50202500  1
  C  C32  1  0.99790900  0.25000000  0.99790900  1
  C  C33  1  0.99790900  0.25000000  0.50209100  1
  C  C34  1  0.99986000  0.75000000  0.99986000  1
  C  C35  1  0.99986000  0.75000000  0.50014000  1
  C  C36  1  0.50209100  0.25000000  0.99790900  1
  C  C37  1  0.50209100  0.25000000  0.50209100  1
  C  C38  1  0.50014000  0.75000000  0.99986000  1
  C  C39  1  0.50014000  0.75000000  0.50014000  1
