# generated using pymatgen
data_CuNi2C5
_symmetry_space_group_name_H-M   'P 1'
_cell_length_a   7.26280552
_cell_length_b   7.26280552
_cell_length_c   7.26280552
_cell_angle_alpha   131.86796604
_cell_angle_beta   131.86796604
_cell_angle_gamma   70.43764027
_symmetry_Int_Tables_number   1
_chemical_formula_structural   CuNi2C5
_chemical_formula_sum   'Cu1 Ni2 C5'
_cell_volume   208.18172268
_cell_formula_units_Z   1
loop_
 _symmetry_equiv_pos_site_id
 _symmetry_equiv_pos_as_xyz
  1  'x, y, z'
loop_
 _atom_site_type_symbol
 _atom_site_label
 _atom_site_symmetry_multiplicity
 _atom_site_fract_x
 _atom_site_fract_y
 _atom_site_fract_z
 _atom_site_occupancy
  Ni  Ni0  1  0.75000000  0.25000000  0.50000000  1
  Ni  Ni1  1  0.25000000  0.75000000  0.50000000  1
  C  C2  1  0.50000000  0.50000000  0.00000000  1
  Cu  Cu3  1  0.00000000  0.00000000  0.00000000  1
  C  C4  1  0.63917500  0.63917500  0.49917000  1
  C  C5  1  0.36082500  0.85999400  0.00000000  1
  C  C6  1  0.14000600  0.14000600  0.50083000  1
  C  C7  1  0.85999400  0.36082500  0.00000000  1
