# generated using pymatgen
data_Cu13Ni9C4
_symmetry_space_group_name_H-M   'P 1'
_cell_length_a   4.04619500
_cell_length_b   11.34498200
_cell_length_c   19.61540400
_cell_angle_alpha   90.00000000
_cell_angle_beta   90.00000000
_cell_angle_gamma   90.00000000
_symmetry_Int_Tables_number   1
_chemical_formula_structural   Cu13Ni9C4
_chemical_formula_sum   'Cu26 Ni18 C8'
_cell_volume   900.42569045
_cell_formula_units_Z   2
loop_
 _symmetry_equiv_pos_site_id
 _symmetry_equiv_pos_as_xyz
  1  'x, y, z'
loop_
 _atom_site_type_symbol
 _atom_site_label
 _atom_site_symmetry_multiplicity
 _atom_site_fract_x
 _atom_site_fract_y
 _atom_site_fract_z
 _atom_site_occupancy
  C  C0  1  0.50000000  0.80906400  0.29200300  1
  C  C1  1  0.50000000  0.19093600  0.29200300  1
  C  C2  1  0.00000000  0.69093600  0.70799700  1
  C  C3  1  0.00000000  0.30906400  0.70799700  1
  C  C4  1  0.50000000  0.00000000  0.47805700  1
  C  C5  1  0.00000000  0.50000000  0.52194300  1
  C  C6  1  0.50000000  0.50000000  0.98035000  1
  C  C7  1  0.00000000  0.00000000  0.01965000  1
  Ni  Ni8  1  0.50000000  0.31230700  0.58107700  1
  Ni  Ni9  1  0.50000000  0.68769300  0.58107700  1
  Ni  Ni10  1  0.00000000  0.18769300  0.41892300  1
  Ni  Ni11  1  0.00000000  0.81230700  0.41892300  1
  Ni  Ni12  1  0.50000000  0.81865800  0.08454000  1
  Ni  Ni13  1  0.50000000  0.18134200  0.08454000  1
  Ni  Ni14  1  0.00000000  0.68134200  0.91546000  1
  Ni  Ni15  1  0.00000000  0.31865800  0.91546000  1
  Ni  Ni16  1  0.50000000  0.87103000  0.76958600  1
  Ni  Ni17  1  0.50000000  0.12897000  0.76958600  1
  Ni  Ni18  1  0.00000000  0.62897000  0.23041400  1
  Ni  Ni19  1  0.00000000  0.37103000  0.23041400  1
  Ni  Ni20  1  0.50000000  0.00000000  0.89871500  1
  Ni  Ni21  1  0.00000000  0.50000000  0.10128500  1
  Ni  Ni22  1  0.50000000  0.50000000  0.76724700  1
  Ni  Ni23  1  0.00000000  0.00000000  0.23275300  1
  Ni  Ni24  1  0.50000000  0.50000000  0.39892500  1
  Ni  Ni25  1  0.00000000  0.00000000  0.60107500  1
  Cu  Cu26  1  0.50000000  0.29917000  0.45340900  1
  Cu  Cu27  1  0.50000000  0.70083000  0.45340900  1
  Cu  Cu28  1  0.00000000  0.20083000  0.54659100  1
  Cu  Cu29  1  0.00000000  0.79917000  0.54659100  1
  Cu  Cu30  1  0.50000000  0.31666000  0.83664300  1
  Cu  Cu31  1  0.50000000  0.68334000  0.83664300  1
  Cu  Cu32  1  0.00000000  0.18334000  0.16335700  1
  Cu  Cu33  1  0.00000000  0.81666000  0.16335700  1
  Cu  Cu34  1  0.50000000  0.37309800  0.14544700  1
  Cu  Cu35  1  0.50000000  0.62690200  0.14544700  1
  Cu  Cu36  1  0.00000000  0.12690200  0.85455300  1
  Cu  Cu37  1  0.00000000  0.87309800  0.85455300  1
  Cu  Cu38  1  0.50000000  0.80819600  0.95980500  1
  Cu  Cu39  1  0.50000000  0.19180400  0.95980500  1
  Cu  Cu40  1  0.00000000  0.69180400  0.04019500  1
  Cu  Cu41  1  0.00000000  0.30819600  0.04019500  1
  Cu  Cu42  1  0.50000000  0.87739700  0.64216200  1
  Cu  Cu43  1  0.50000000  0.12260300  0.64216200  1
  Cu  Cu44  1  0.00000000  0.62260300  0.35783800  1
  Cu  Cu45  1  0.00000000  0.37739700  0.35783800  1
  Cu  Cu46  1  0.50000000  0.00000000  0.15706700  1
  Cu  Cu47  1  0.00000000  0.50000000  0.84293300  1
  Cu  Cu48  1  0.50000000  0.50000000  0.64194500  1
  Cu  Cu49  1  0.00000000  0.00000000  0.35805500  1
  Cu  Cu50  1  0.50000000  0.50000000  0.27261600  1
  Cu  Cu51  1  0.00000000  0.00000000  0.72738400  1
