# generated using pymatgen
data_CuNiC9
_symmetry_space_group_name_H-M   'P 1'
_cell_length_a   7.24996935
_cell_length_b   7.24996935
_cell_length_c   7.24996935
_cell_angle_alpha   120.23642241
_cell_angle_beta   119.84490972
_cell_angle_gamma   89.92991355
_symmetry_Int_Tables_number   1
_chemical_formula_structural   CuNiC9
_chemical_formula_sum   'Cu2 Ni2 C18'
_cell_volume   269.28972706
_cell_formula_units_Z   2
loop_
 _symmetry_equiv_pos_site_id
 _symmetry_equiv_pos_as_xyz
  1  'x, y, z'
loop_
 _atom_site_type_symbol
 _atom_site_label
 _atom_site_symmetry_multiplicity
 _atom_site_fract_x
 _atom_site_fract_y
 _atom_site_fract_z
 _atom_site_occupancy
  Ni  Ni0  1  0.00000000  0.00000000  0.50000000  1
  Ni  Ni1  1  0.00000000  0.50000000  0.00000000  1
  Cu  Cu2  1  0.00000000  0.00000000  0.00000000  1
  Cu  Cu3  1  0.50000000  0.00000000  0.50000000  1
  C  C4  1  0.50000000  0.50000000  0.50000000  1
  C  C5  1  0.50000000  0.00000000  0.00000000  1
  C  C6  1  0.50000000  0.50000000  0.00000000  1
  C  C7  1  0.00000000  0.50000000  0.50000000  1
  C  C8  1  0.42123400  0.17123400  0.25000000  1
  C  C9  1  0.82617900  0.57617900  0.25000000  1
  C  C10  1  0.42538900  0.58058100  0.25326800  1
  C  C11  1  0.82731300  0.17212200  0.24673200  1
  C  C12  1  0.42538900  0.17212200  0.84480800  1
  C  C13  1  0.82731300  0.58058100  0.65519200  1
  C  C14  1  0.57876600  0.82876600  0.75000000  1
  C  C15  1  0.17382100  0.42382100  0.75000000  1
  C  C16  1  0.57461100  0.41941900  0.74673200  1
  C  C17  1  0.17268700  0.82787800  0.75326800  1
  C  C18  1  0.57461100  0.82787800  0.15519200  1
  C  C19  1  0.17268700  0.41941900  0.34480800  1
  C  C20  1  0.13084500  0.88084500  0.25000000  1
  C  C21  1  0.86915500  0.11915500  0.75000000  1
