# generated using pymatgen
data_Cu6Ni4C
_symmetry_space_group_name_H-M   'P 1'
_cell_length_a   10.70597284
_cell_length_b   10.70597284
_cell_length_c   10.70597247
_cell_angle_alpha   114.10366955
_cell_angle_beta   114.10366955
_cell_angle_gamma   114.10367386
_symmetry_Int_Tables_number   1
_chemical_formula_structural   Cu6Ni4C
_chemical_formula_sum   'Cu12 Ni8 C2'
_cell_volume   739.75846467
_cell_formula_units_Z   2
loop_
 _symmetry_equiv_pos_site_id
 _symmetry_equiv_pos_as_xyz
  1  'x, y, z'
loop_
 _atom_site_type_symbol
 _atom_site_label
 _atom_site_symmetry_multiplicity
 _atom_site_fract_x
 _atom_site_fract_y
 _atom_site_fract_z
 _atom_site_occupancy
  C  C0  1  0.50000000  0.50000000  0.50000000  1
  C  C1  1  0.00000000  0.00000000  0.00000000  1
  Ni  Ni2  1  0.25000000  0.25000000  0.25000000  1
  Ni  Ni3  1  0.75000000  0.75000000  0.75000000  1
  Ni  Ni4  1  0.64752000  0.85248000  0.25000000  1
  Ni  Ni5  1  0.25000000  0.64752000  0.85248000  1
  Ni  Ni6  1  0.85248000  0.25000000  0.64752000  1
  Ni  Ni7  1  0.75000000  0.35248000  0.14752000  1
  Ni  Ni8  1  0.14752000  0.75000000  0.35248000  1
  Ni  Ni9  1  0.35248000  0.14752000  0.75000000  1
  Cu  Cu10  1  0.43338800  0.33526900  0.76973000  1
  Cu  Cu11  1  0.76973000  0.43338800  0.33526900  1
  Cu  Cu12  1  0.33526900  0.76973000  0.43338800  1
  Cu  Cu13  1  0.26973000  0.83526900  0.93338800  1
  Cu  Cu14  1  0.93338800  0.26973000  0.83526900  1
  Cu  Cu15  1  0.83526900  0.93338800  0.26973000  1
  Cu  Cu16  1  0.56661200  0.66473100  0.23027000  1
  Cu  Cu17  1  0.23027000  0.56661200  0.66473100  1
  Cu  Cu18  1  0.66473100  0.23027000  0.56661200  1
  Cu  Cu19  1  0.73027000  0.16473100  0.06661200  1
  Cu  Cu20  1  0.06661200  0.73027000  0.16473100  1
  Cu  Cu21  1  0.16473100  0.06661200  0.73027000  1
