# generated using pymatgen
data_CuNiC6
_symmetry_space_group_name_H-M   'P 1'
_cell_length_a   5.30313500
_cell_length_b   10.37084500
_cell_length_c   15.42393600
_cell_angle_alpha   90.00000000
_cell_angle_beta   90.00000000
_cell_angle_gamma   90.00000000
_symmetry_Int_Tables_number   1
_chemical_formula_structural   CuNiC6
_chemical_formula_sum   'Cu8 Ni8 C48'
_cell_volume   848.28549484
_cell_formula_units_Z   8
loop_
 _symmetry_equiv_pos_site_id
 _symmetry_equiv_pos_as_xyz
  1  'x, y, z'
loop_
 _atom_site_type_symbol
 _atom_site_label
 _atom_site_symmetry_multiplicity
 _atom_site_fract_x
 _atom_site_fract_y
 _atom_site_fract_z
 _atom_site_occupancy
  Ni  Ni0  1  0.53472000  0.37880000  0.56432300  1
  Ni  Ni1  1  0.03472000  0.12120000  0.56432300  1
  Ni  Ni2  1  0.03472000  0.62120000  0.93567700  1
  Ni  Ni3  1  0.96528000  0.37880000  0.06432300  1
  Ni  Ni4  1  0.46528000  0.12120000  0.06432300  1
  Ni  Ni5  1  0.96528000  0.87880000  0.43567700  1
  Ni  Ni6  1  0.46528000  0.62120000  0.43567700  1
  Ni  Ni7  1  0.53472000  0.87880000  0.93567700  1
  Cu  Cu8  1  0.04685100  0.37707400  0.43423500  1
  Cu  Cu9  1  0.45314900  0.87707400  0.56576500  1
  Cu  Cu10  1  0.95314900  0.62292600  0.56576500  1
  Cu  Cu11  1  0.54685100  0.12292600  0.43423500  1
  Cu  Cu12  1  0.95314900  0.12292600  0.93423500  1
  Cu  Cu13  1  0.04685100  0.87707400  0.06576500  1
  Cu  Cu14  1  0.45314900  0.37707400  0.93423500  1
  Cu  Cu15  1  0.54685100  0.62292600  0.06576500  1
  C  C16  1  0.98867300  0.85730900  0.75712400  1
  C  C17  1  0.01132700  0.14269100  0.24287600  1
  C  C18  1  0.51132700  0.35730900  0.24287600  1
  C  C19  1  0.01132700  0.64269100  0.25712400  1
  C  C20  1  0.48867300  0.14269100  0.74287600  1
  C  C21  1  0.48867300  0.64269100  0.75712400  1
  C  C22  1  0.51132700  0.85730900  0.25712400  1
  C  C23  1  0.98867300  0.35730900  0.74287600  1
  C  C24  1  0.85708300  0.30699000  0.32134100  1
  C  C25  1  0.24159100  0.00194700  0.97409100  1
  C  C26  1  0.25840900  0.50194700  0.02590900  1
  C  C27  1  0.31643400  0.79815200  0.83318400  1
  C  C28  1  0.18356600  0.29815200  0.16681600  1
  C  C29  1  0.85708300  0.80699000  0.17865900  1
  C  C30  1  0.18356600  0.79815200  0.33318400  1
  C  C31  1  0.64291700  0.80699000  0.67865900  1
  C  C32  1  0.24159100  0.50194700  0.52590900  1
  C  C33  1  0.14291700  0.69301000  0.67865900  1
  C  C34  1  0.64291700  0.30699000  0.82134100  1
  C  C35  1  0.81442800  0.24146000  0.49141200  1
  C  C36  1  0.74159100  0.99805300  0.52590900  1
  C  C37  1  0.68356600  0.70184800  0.33318400  1
  C  C38  1  0.25565300  0.99590500  0.15377600  1
  C  C39  1  0.74159100  0.49805300  0.97409100  1
  C  C40  1  0.14291700  0.19301000  0.82134100  1
  C  C41  1  0.81643400  0.20184800  0.66681600  1
  C  C42  1  0.31442800  0.75854000  0.00858800  1
  C  C43  1  0.25840900  0.00194700  0.47409100  1
  C  C44  1  0.18557200  0.75854000  0.50858800  1
  C  C45  1  0.74434700  0.00409500  0.84622400  1
  C  C46  1  0.68356600  0.20184800  0.16681600  1
  C  C47  1  0.75565300  0.00409500  0.34622400  1
  C  C48  1  0.18557200  0.25854000  0.99141200  1
  C  C49  1  0.31442800  0.25854000  0.49141200  1
  C  C50  1  0.75840900  0.49805300  0.47409100  1
  C  C51  1  0.75840900  0.99805300  0.02590900  1
  C  C52  1  0.75565300  0.50409500  0.15377600  1
  C  C53  1  0.68557200  0.74146000  0.50858800  1
  C  C54  1  0.68557200  0.24146000  0.99141200  1
  C  C55  1  0.81442800  0.74146000  0.00858800  1
  C  C56  1  0.74434700  0.50409500  0.65377600  1
  C  C57  1  0.81643400  0.70184800  0.83318400  1
  C  C58  1  0.31643400  0.29815200  0.66681600  1
  C  C59  1  0.25565300  0.49590500  0.34622400  1
  C  C60  1  0.24434700  0.49590500  0.84622400  1
  C  C61  1  0.35708300  0.19301000  0.32134100  1
  C  C62  1  0.24434700  0.99590500  0.65377600  1
  C  C63  1  0.35708300  0.69301000  0.17865900  1
