# generated using pymatgen
data_Cu12Ni2C3
_symmetry_space_group_name_H-M   'P 1'
_cell_length_a   7.68847582
_cell_length_b   7.68847582
_cell_length_c   10.06339726
_cell_angle_alpha   86.31539620
_cell_angle_beta   86.31539620
_cell_angle_gamma   83.60170382
_symmetry_Int_Tables_number   1
_chemical_formula_structural   Cu12Ni2C3
_chemical_formula_sum   'Cu24 Ni4 C6'
_cell_volume   588.96809340
_cell_formula_units_Z   2
loop_
 _symmetry_equiv_pos_site_id
 _symmetry_equiv_pos_as_xyz
  1  'x, y, z'
loop_
 _atom_site_type_symbol
 _atom_site_label
 _atom_site_symmetry_multiplicity
 _atom_site_fract_x
 _atom_site_fract_y
 _atom_site_fract_z
 _atom_site_occupancy
  C  C0  1  0.90413400  0.41318600  0.75876200  1
  C  C1  1  0.41318600  0.90413400  0.75876200  1
  C  C2  1  0.09586600  0.58681400  0.24123800  1
  C  C3  1  0.58681400  0.09586600  0.24123800  1
  C  C4  1  0.00000000  0.00000000  0.00000000  1
  C  C5  1  0.50000000  0.50000000  0.50000000  1
  Ni  Ni6  1  0.29752400  0.29752400  0.95670400  1
  Ni  Ni7  1  0.70247600  0.70247600  0.04329600  1
  Ni  Ni8  1  0.78316900  0.78316900  0.52377100  1
  Ni  Ni9  1  0.21683100  0.21683100  0.47622900  1
  Cu  Cu10  1  0.21901800  0.45908200  0.88877000  1
  Cu  Cu11  1  0.45908200  0.21901800  0.88877000  1
  Cu  Cu12  1  0.78098200  0.54091800  0.11123000  1
  Cu  Cu13  1  0.54091800  0.78098200  0.11123000  1
  Cu  Cu14  1  0.95198000  0.71463700  0.57846100  1
  Cu  Cu15  1  0.71463700  0.95198000  0.57846100  1
  Cu  Cu16  1  0.04802000  0.28536300  0.42153900  1
  Cu  Cu17  1  0.28536300  0.04802000  0.42153900  1
  Cu  Cu18  1  0.16130500  0.16130500  0.94372300  1
  Cu  Cu19  1  0.83869500  0.83869500  0.05627700  1
  Cu  Cu20  1  0.68721900  0.68721900  0.90002000  1
  Cu  Cu21  1  0.31278100  0.31278100  0.09998000  1
  Cu  Cu22  1  0.65192000  0.65192000  0.57961600  1
  Cu  Cu23  1  0.34808000  0.34808000  0.42038400  1
  Cu  Cu24  1  0.20698800  0.20698800  0.62258700  1
  Cu  Cu25  1  0.79301200  0.79301200  0.37741300  1
  Cu  Cu26  1  0.32646200  0.61848800  0.60432100  1
  Cu  Cu27  1  0.61848800  0.32646200  0.60432100  1
  Cu  Cu28  1  0.67353800  0.38151200  0.39567900  1
  Cu  Cu29  1  0.38151200  0.67353800  0.39567900  1
  Cu  Cu30  1  0.81754900  0.18245100  0.00000000  1
  Cu  Cu31  1  0.18245100  0.81754900  0.00000000  1
  Cu  Cu32  1  0.98293800  0.98293800  0.81600300  1
  Cu  Cu33  1  0.01706200  0.01706200  0.18399700  1
