# generated using pymatgen
data_CuNiC9
_symmetry_space_group_name_H-M   'P 1'
_cell_length_a   4.99134300
_cell_length_b   4.99134300
_cell_length_c   6.67460087
_cell_angle_alpha   111.95670094
_cell_angle_beta   111.95670094
_cell_angle_gamma   90.00000000
_symmetry_Int_Tables_number   1
_chemical_formula_structural   CuNiC9
_chemical_formula_sum   'Cu1 Ni1 C9'
_cell_volume   141.13789547
_cell_formula_units_Z   1
loop_
 _symmetry_equiv_pos_site_id
 _symmetry_equiv_pos_as_xyz
  1  'x, y, z'
loop_
 _atom_site_type_symbol
 _atom_site_label
 _atom_site_symmetry_multiplicity
 _atom_site_fract_x
 _atom_site_fract_y
 _atom_site_fract_z
 _atom_site_occupancy
  C  C0  1  0.98419900  0.98419900  0.96839900  1
  Ni  Ni1  1  0.27046200  0.27046200  0.54092400  1
  Cu  Cu2  1  0.43852300  0.43852300  0.87704600  1
  C  C3  1  0.83955600  0.83955600  0.67911300  1
  C  C4  1  0.28667600  0.28667600  0.99734100  1
  C  C5  1  0.71066600  0.71066600  0.99734100  1
  C  C6  1  0.28667600  0.71066600  0.99734100  1
  C  C7  1  0.71066600  0.28667600  0.99734100  1
  C  C8  1  0.16658600  0.16658600  0.33317100  1
  C  C9  1  0.79799500  0.29799500  0.59599000  1
  C  C10  1  0.29799500  0.79799500  0.59599000  1
