# generated using pymatgen
data_Cu3Ni3C47
_symmetry_space_group_name_H-M   'P 1'
_cell_length_a   9.85006884
_cell_length_b   9.85006884
_cell_length_c   9.85006899
_cell_angle_alpha   113.50949890
_cell_angle_beta   113.50949890
_cell_angle_gamma   113.50950176
_symmetry_Int_Tables_number   1
_chemical_formula_structural   Cu3Ni3C47
_chemical_formula_sum   'Cu3 Ni3 C47'
_cell_volume   601.16404846
_cell_formula_units_Z   1
loop_
 _symmetry_equiv_pos_site_id
 _symmetry_equiv_pos_as_xyz
  1  'x, y, z'
loop_
 _atom_site_type_symbol
 _atom_site_label
 _atom_site_symmetry_multiplicity
 _atom_site_fract_x
 _atom_site_fract_y
 _atom_site_fract_z
 _atom_site_occupancy
  C  C0  1  0.46211800  0.46211800  0.46211800  1
  C  C1  1  0.80687900  0.57714400  0.14261300  1
  C  C2  1  0.57714400  0.14261300  0.80687900  1
  C  C3  1  0.80687900  0.14261300  0.57714400  1
  C  C4  1  0.14261300  0.80687900  0.57714400  1
  C  C5  1  0.57714400  0.80687900  0.14261300  1
  C  C6  1  0.14261300  0.57714400  0.80687900  1
  C  C7  1  0.99854400  0.81353600  0.81353600  1
  C  C8  1  0.81353600  0.81353600  0.99854400  1
  C  C9  1  0.81353600  0.99854400  0.81353600  1
  C  C10  1  0.03988200  0.41398000  0.22503300  1
  C  C11  1  0.41398000  0.22503300  0.03988200  1
  C  C12  1  0.03988200  0.22503300  0.41398000  1
  C  C13  1  0.22503300  0.03988200  0.41398000  1
  C  C14  1  0.41398000  0.03988200  0.22503300  1
  C  C15  1  0.22503300  0.41398000  0.03988200  1
  Ni  Ni16  1  0.47010900  0.79698400  0.79698400  1
  Ni  Ni17  1  0.79698400  0.79698400  0.47010900  1
  Ni  Ni18  1  0.79698400  0.47010900  0.79698400  1
  Cu  Cu19  1  0.86311700  0.49521000  0.49521000  1
  Cu  Cu20  1  0.49521000  0.49521000  0.86311700  1
  Cu  Cu21  1  0.49521000  0.86311700  0.49521000  1
  C  C22  1  0.99659300  0.61810400  0.61810400  1
  C  C23  1  0.61810400  0.61810400  0.99659300  1
  C  C24  1  0.61810400  0.99659300  0.61810400  1
  C  C25  1  0.73020300  0.40480400  0.87477400  1
  C  C26  1  0.40480400  0.87477400  0.73020300  1
  C  C27  1  0.73020300  0.87477400  0.40480400  1
  C  C28  1  0.87477400  0.73020300  0.40480400  1
  C  C29  1  0.40480400  0.73020300  0.87477400  1
  C  C30  1  0.87477400  0.40480400  0.73020300  1
  C  C31  1  0.83103000  0.20529700  0.00562200  1
  C  C32  1  0.20529700  0.00562200  0.83103000  1
  C  C33  1  0.83103000  0.00562200  0.20529700  1
  C  C34  1  0.00562200  0.83103000  0.20529700  1
  C  C35  1  0.20529700  0.83103000  0.00562200  1
  C  C36  1  0.00562200  0.20529700  0.83103000  1
  C  C37  1  0.49212200  0.22040800  0.22040800  1
  C  C38  1  0.22040800  0.22040800  0.49212200  1
  C  C39  1  0.22040800  0.49212200  0.22040800  1
  C  C40  1  0.58059700  0.30460400  0.02290900  1
  C  C41  1  0.30460400  0.02290900  0.58059700  1
  C  C42  1  0.58059700  0.02290900  0.30460400  1
  C  C43  1  0.02290900  0.58059700  0.30460400  1
  C  C44  1  0.30460400  0.58059700  0.02290900  1
  C  C45  1  0.02290900  0.30460400  0.58059700  1
  C  C46  1  0.11385700  0.38565200  0.38565200  1
  C  C47  1  0.38565200  0.38565200  0.11385700  1
  C  C48  1  0.38565200  0.11385700  0.38565200  1
  C  C49  1  0.99692900  0.99692900  0.99692900  1
  C  C50  1  0.60447800  0.78681200  0.78681200  1
  C  C51  1  0.78681200  0.78681200  0.60447800  1
  C  C52  1  0.78681200  0.60447800  0.78681200  1
