# generated using pymatgen
data_CuNiC11
_symmetry_space_group_name_H-M   'P 1'
_cell_length_a   10.05073500
_cell_length_b   8.26816500
_cell_length_c   9.33415208
_cell_angle_alpha   63.22169847
_cell_angle_beta   90.00000000
_cell_angle_gamma   90.00000000
_symmetry_Int_Tables_number   1
_chemical_formula_structural   CuNiC11
_chemical_formula_sum   'Cu4 Ni4 C44'
_cell_volume   692.49214852
_cell_formula_units_Z   4
loop_
 _symmetry_equiv_pos_site_id
 _symmetry_equiv_pos_as_xyz
  1  'x, y, z'
loop_
 _atom_site_type_symbol
 _atom_site_label
 _atom_site_symmetry_multiplicity
 _atom_site_fract_x
 _atom_site_fract_y
 _atom_site_fract_z
 _atom_site_occupancy
  C  C0  1  0.13365300  0.84156200  0.57587400  1
  C  C1  1  0.36634700  0.84156200  0.07587400  1
  C  C2  1  0.86634700  0.15843800  0.42412600  1
  C  C3  1  0.63365300  0.15843800  0.92412600  1
  Ni  Ni4  1  0.62379700  0.77297300  0.74540100  1
  Ni  Ni5  1  0.87620300  0.77297300  0.24540100  1
  Ni  Ni6  1  0.37620300  0.22702700  0.25459900  1
  Ni  Ni7  1  0.12379700  0.22702700  0.75459900  1
  Cu  Cu8  1  0.38155200  0.57448600  0.55859300  1
  Cu  Cu9  1  0.11844800  0.57448600  0.05859300  1
  Cu  Cu10  1  0.61844800  0.42551400  0.44140700  1
  Cu  Cu11  1  0.88155200  0.42551400  0.94140700  1
  C  C12  1  0.58869800  0.87774500  0.35933300  1
  C  C13  1  0.91130200  0.87774500  0.85933300  1
  C  C14  1  0.41130200  0.12225500  0.64066700  1
  C  C15  1  0.08869800  0.12225500  0.14066700  1
  C  C16  1  0.34072400  0.50579200  0.86183900  1
  C  C17  1  0.15927600  0.50579200  0.36183900  1
  C  C18  1  0.65927600  0.49420800  0.13816100  1
  C  C19  1  0.84072400  0.49420800  0.63816100  1
  C  C20  1  0.52245100  0.68952700  0.40421200  1
  C  C21  1  0.97754900  0.68952700  0.90421200  1
  C  C22  1  0.47754900  0.31047300  0.59578800  1
  C  C23  1  0.02245100  0.31047300  0.09578800  1
  C  C24  1  0.49089300  0.03042100  0.25538700  1
  C  C25  1  0.00910700  0.03042100  0.75538700  1
  C  C26  1  0.50910700  0.96957900  0.74461300  1
  C  C27  1  0.99089300  0.96957900  0.24461300  1
  C  C28  1  0.79015100  0.89682700  0.75125300  1
  C  C29  1  0.70984900  0.89682700  0.25125300  1
  C  C30  1  0.20984900  0.10317300  0.24874700  1
  C  C31  1  0.29015100  0.10317300  0.74874700  1
  C  C32  1  0.63167600  0.89263600  0.51123900  1
  C  C33  1  0.86832400  0.89263600  0.01123900  1
  C  C34  1  0.36832400  0.10736400  0.48876100  1
  C  C35  1  0.13167600  0.10736400  0.98876100  1
  C  C36  1  0.23907700  0.64096100  0.39860500  1
  C  C37  1  0.26092300  0.64096100  0.89860500  1
  C  C38  1  0.76092300  0.35903900  0.60139500  1
  C  C39  1  0.73907700  0.35903900  0.10139500  1
  C  C40  1  0.38892800  0.34194700  0.01344300  1
  C  C41  1  0.11107200  0.34194700  0.51344300  1
  C  C42  1  0.61107200  0.65805300  0.98655700  1
  C  C43  1  0.88892800  0.65805300  0.48655700  1
  C  C44  1  0.25771300  0.44966000  0.74669900  1
  C  C45  1  0.24228700  0.44966000  0.24669900  1
  C  C46  1  0.74228700  0.55034000  0.25330100  1
  C  C47  1  0.75771300  0.55034000  0.75330100  1
  C  C48  1  0.46152400  0.60629900  0.74674600  1
  C  C49  1  0.03847600  0.60629900  0.24674600  1
  C  C50  1  0.53847600  0.39370100  0.25325400  1
  C  C51  1  0.96152400  0.39370100  0.75325400  1
