# generated using pymatgen
data_Cu3Ni3C22
_symmetry_space_group_name_H-M   'P 1'
_cell_length_a   8.84650046
_cell_length_b   8.84650046
_cell_length_c   9.72162712
_cell_angle_alpha   57.58053413
_cell_angle_beta   57.58053413
_cell_angle_gamma   37.46306278
_symmetry_Int_Tables_number   1
_chemical_formula_structural   Cu3Ni3C22
_chemical_formula_sum   'Cu3 Ni3 C22'
_cell_volume   381.47788820
_cell_formula_units_Z   1
loop_
 _symmetry_equiv_pos_site_id
 _symmetry_equiv_pos_as_xyz
  1  'x, y, z'
loop_
 _atom_site_type_symbol
 _atom_site_label
 _atom_site_symmetry_multiplicity
 _atom_site_fract_x
 _atom_site_fract_y
 _atom_site_fract_z
 _atom_site_occupancy
  Ni  Ni0  1  0.66683300  0.66683300  0.16191700  1
  Ni  Ni1  1  0.00000000  0.00000000  0.50000000  1
  Ni  Ni2  1  0.33316700  0.33316700  0.83808300  1
  Cu  Cu3  1  0.50000000  0.50000000  0.00000000  1
  Cu  Cu4  1  0.84068600  0.84068600  0.31821100  1
  Cu  Cu5  1  0.15931400  0.15931400  0.68178900  1
  C  C6  1  0.24517400  0.24517400  0.25178700  1
  C  C7  1  0.58445500  0.58445500  0.57827600  1
  C  C8  1  0.92105600  0.92105600  0.92018700  1
  C  C9  1  0.41554500  0.41554500  0.42172400  1
  C  C10  1  0.75482600  0.75482600  0.74821300  1
  C  C11  1  0.07894400  0.07894400  0.07981300  1
  C  C12  1  0.58140300  0.10021800  0.10261700  1
  C  C13  1  0.93490500  0.43408200  0.43430300  1
  C  C14  1  0.27559300  0.75712800  0.75418500  1
  C  C15  1  0.72440700  0.24287200  0.24581500  1
  C  C16  1  0.06509500  0.56591800  0.56569700  1
  C  C17  1  0.41859700  0.89978200  0.89738300  1
  C  C18  1  0.43408200  0.93490500  0.43430300  1
  C  C19  1  0.75712800  0.27559300  0.75418500  1
  C  C20  1  0.10021800  0.58140300  0.10261700  1
  C  C21  1  0.56591800  0.06509500  0.56569700  1
  C  C22  1  0.89978200  0.41859700  0.89738300  1
  C  C23  1  0.24287200  0.72440700  0.24581500  1
  C  C24  1  0.16216100  0.16216100  0.16987700  1
  C  C25  1  0.50000000  0.50000000  0.50000000  1
  C  C26  1  0.83783900  0.83783900  0.83012300  1
  C  C27  1  0.00000000  0.00000000  0.00000000  1
