# generated using pymatgen
data_Cu2Ni3C10
_symmetry_space_group_name_H-M   'P 1'
_cell_length_a   8.81543200
_cell_length_b   9.83973400
_cell_length_c   10.30429076
_cell_angle_alpha   61.10768611
_cell_angle_beta   90.00000000
_cell_angle_gamma   90.00000000
_symmetry_Int_Tables_number   1
_chemical_formula_structural   Cu2Ni3C10
_chemical_formula_sum   'Cu8 Ni12 C40'
_cell_volume   782.55662513
_cell_formula_units_Z   4
loop_
 _symmetry_equiv_pos_site_id
 _symmetry_equiv_pos_as_xyz
  1  'x, y, z'
loop_
 _atom_site_type_symbol
 _atom_site_label
 _atom_site_symmetry_multiplicity
 _atom_site_fract_x
 _atom_site_fract_y
 _atom_site_fract_z
 _atom_site_occupancy
  C  C0  1  0.89411200  0.87518400  0.50817700  1
  C  C1  1  0.60588800  0.87518400  0.00817700  1
  C  C2  1  0.10588800  0.12481600  0.49182300  1
  C  C3  1  0.39411200  0.12481600  0.99182300  1
  Ni  Ni4  1  0.81707100  0.57002000  0.25589900  1
  Ni  Ni5  1  0.68292900  0.57002000  0.75589900  1
  Ni  Ni6  1  0.18292900  0.42998000  0.74410100  1
  Ni  Ni7  1  0.31707100  0.42998000  0.24410100  1
  Ni  Ni8  1  0.23748800  0.90365300  0.35883900  1
  Ni  Ni9  1  0.26251200  0.90365300  0.85883900  1
  Ni  Ni10  1  0.76251200  0.09634700  0.64116100  1
  Ni  Ni11  1  0.73748800  0.09634700  0.14116100  1
  Ni  Ni12  1  0.11991300  0.57856900  0.40644900  1
  Ni  Ni13  1  0.38008700  0.57856900  0.90644900  1
  Ni  Ni14  1  0.88008700  0.42143100  0.59355100  1
  Ni  Ni15  1  0.61991300  0.42143100  0.09355100  1
  Cu  Cu16  1  0.41790400  0.76171000  0.53127100  1
  Cu  Cu17  1  0.08209600  0.76171000  0.03127100  1
  Cu  Cu18  1  0.58209600  0.23829000  0.46872900  1
  Cu  Cu19  1  0.91790400  0.23829000  0.96872900  1
  Cu  Cu20  1  0.26440400  0.16000700  0.21332300  1
  Cu  Cu21  1  0.23559600  0.16000700  0.71332300  1
  Cu  Cu22  1  0.73559600  0.83999300  0.78667700  1
  Cu  Cu23  1  0.76440400  0.83999300  0.28667700  1
  C  C24  1  0.72352600  0.73776500  0.19450300  1
  C  C25  1  0.77647400  0.73776500  0.69450300  1
  C  C26  1  0.27647400  0.26223500  0.80549700  1
  C  C27  1  0.22352600  0.26223500  0.30549700  1
  C  C28  1  0.79770900  0.47964900  0.14692500  1
  C  C29  1  0.70229100  0.47964900  0.64692500  1
  C  C30  1  0.20229100  0.52035100  0.85307500  1
  C  C31  1  0.29770900  0.52035100  0.35307500  1
  C  C32  1  0.77066600  0.42268600  0.43543900  1
  C  C33  1  0.72933400  0.42268600  0.93543900  1
  C  C34  1  0.22933400  0.57731400  0.56456100  1
  C  C35  1  0.27066600  0.57731400  0.06456100  1
  C  C36  1  0.01723900  0.59203000  0.23893300  1
  C  C37  1  0.48276100  0.59203000  0.73893300  1
  C  C38  1  0.98276100  0.40797000  0.76106700  1
  C  C39  1  0.51723900  0.40797000  0.26106700  1
  C  C40  1  0.11419900  0.93331200  0.46535300  1
  C  C41  1  0.38580100  0.93331200  0.96535300  1
  C  C42  1  0.88580100  0.06668800  0.53464700  1
  C  C43  1  0.61419900  0.06668800  0.03464700  1
  C  C44  1  0.42160900  0.84992500  0.42989300  1
  C  C45  1  0.07839100  0.84992500  0.92989300  1
  C  C46  1  0.57839100  0.15007500  0.57010700  1
  C  C47  1  0.92160900  0.15007500  0.07010700  1
  C  C48  1  0.27811000  0.07118800  0.19087800  1
  C  C49  1  0.22189000  0.07118800  0.69087800  1
  C  C50  1  0.72189000  0.92881200  0.80912200  1
  C  C51  1  0.77811000  0.92881200  0.30912200  1
  C  C52  1  0.16893200  0.78462800  0.28850800  1
  C  C53  1  0.33106800  0.78462800  0.78850800  1
  C  C54  1  0.83106800  0.21537200  0.71149200  1
  C  C55  1  0.66893200  0.21537200  0.21149200  1
  C  C56  1  0.94000500  0.62526900  0.47234000  1
  C  C57  1  0.55999500  0.62526900  0.97234000  1
  C  C58  1  0.05999500  0.37473100  0.52766000  1
  C  C59  1  0.44000500  0.37473100  0.02766000  1
