# generated using pymatgen
data_CuNi3C10
_symmetry_space_group_name_H-M   'P 1'
_cell_length_a   8.41062091
_cell_length_b   8.40960522
_cell_length_c   8.40914483
_cell_angle_alpha   89.98536958
_cell_angle_beta   90.04876543
_cell_angle_gamma   89.97835910
_symmetry_Int_Tables_number   1
_chemical_formula_structural   CuNi3C10
_chemical_formula_sum   'Cu4 Ni12 C40'
_cell_volume   594.77854924
_cell_formula_units_Z   4
loop_
 _symmetry_equiv_pos_site_id
 _symmetry_equiv_pos_as_xyz
  1  'x, y, z'
loop_
 _atom_site_type_symbol
 _atom_site_label
 _atom_site_symmetry_multiplicity
 _atom_site_fract_x
 _atom_site_fract_y
 _atom_site_fract_z
 _atom_site_occupancy
  C  C0  1  0.12586800  0.87443300  0.37391400  1
  C  C1  1  0.24772500  0.74796500  0.75220600  1
  C  C2  1  0.25216100  0.25201800  0.25195400  1
  C  C3  1  0.37425800  0.12570800  0.87398100  1
  C  C4  1  0.62586400  0.62601400  0.62572500  1
  C  C5  1  0.74792700  0.75216000  0.24816000  1
  C  C6  1  0.75216100  0.24782600  0.74784200  1
  C  C7  1  0.87411700  0.37401700  0.12584100  1
  Ni  Ni8  1  0.11936000  0.62160600  0.12721500  1
  Ni  Ni9  1  0.12144400  0.37416900  0.88039500  1
  Ni  Ni10  1  0.12552100  0.12046400  0.62165200  1
  Ni  Ni11  1  0.37370800  0.87977900  0.12105400  1
  Ni  Ni12  1  0.37842100  0.62544300  0.37933300  1
  Ni  Ni13  1  0.37960400  0.37861200  0.62557500  1
  Ni  Ni14  1  0.62125400  0.87828400  0.87504700  1
  Ni  Ni15  1  0.62148400  0.12586800  0.12049300  1
  Ni  Ni16  1  0.62707700  0.38011500  0.37873400  1
  Ni  Ni17  1  0.87526400  0.62067100  0.87798400  1
  Ni  Ni18  1  0.87854900  0.87361600  0.62052900  1
  Ni  Ni19  1  0.87977900  0.12113700  0.37428300  1
  Cu  Cu20  1  0.00105800  0.49885900  0.50106800  1
  Cu  Cu21  1  0.49895700  0.50118300  0.00117900  1
  Cu  Cu22  1  0.50104200  0.00102700  0.49903300  1
  Cu  Cu23  1  0.99857900  0.99895800  0.99864200  1
  C  C24  1  0.10891300  0.13030800  0.39851000  1
  C  C25  1  0.10134100  0.89056400  0.62994200  1
  C  C26  1  0.11176800  0.61188700  0.88803900  1
  C  C27  1  0.13058200  0.39822500  0.10901600  1
  C  C28  1  0.12145000  0.14004200  0.85529200  1
  C  C29  1  0.13739900  0.36259800  0.63768000  1
  C  C30  1  0.14293400  0.62153800  0.35962200  1
  C  C31  1  0.13971900  0.85588000  0.12186100  1
  C  C32  1  0.35926000  0.14453000  0.62243400  1
  C  C33  1  0.35567300  0.37756600  0.85949900  1
  C  C34  1  0.36132900  0.63814600  0.13841100  1
  C  C35  1  0.37784300  0.85939000  0.35538900  1
  C  C36  1  0.36980700  0.60153700  0.60893200  1
  C  C37  1  0.38806200  0.38799100  0.38785400  1
  C  C38  1  0.39876800  0.10934700  0.12982900  1
  C  C39  1  0.39112900  0.86983900  0.89854500  1
  C  C40  1  0.60915700  0.36984100  0.60143600  1
  C  C41  1  0.60119800  0.60936500  0.36982600  1
  C  C42  1  0.61194200  0.88768600  0.11205200  1
  C  C43  1  0.62998900  0.10103500  0.89036300  1
  C  C44  1  0.62251600  0.35965100  0.14443700  1
  C  C45  1  0.63866700  0.13821600  0.36193500  1
  C  C46  1  0.64479000  0.87798500  0.64070500  1
  C  C47  1  0.64112000  0.64438500  0.87830100  1
  C  C48  1  0.85979200  0.35686200  0.37834100  1
  C  C49  1  0.85529000  0.12153200  0.14002200  1
  C  C50  1  0.86302400  0.86220100  0.86285100  1
  C  C51  1  0.87879600  0.64023500  0.64299300  1
  C  C52  1  0.86987300  0.89845800  0.39097700  1
  C  C53  1  0.88773100  0.11173800  0.61191800  1
  C  C54  1  0.89824500  0.39133800  0.86959600  1
  C  C55  1  0.89071300  0.63023300  0.10163900  1
