# generated using pymatgen
data_CuNi13C10
_symmetry_space_group_name_H-M   'P 1'
_cell_length_a   7.81242300
_cell_length_b   11.50939800
_cell_length_c   12.76349826
_cell_angle_alpha   64.78757773
_cell_angle_beta   90.00000000
_cell_angle_gamma   90.00000000
_symmetry_Int_Tables_number   1
_chemical_formula_structural   CuNi13C10
_chemical_formula_sum   'Cu4 Ni52 C40'
_cell_volume   1038.31550186
_cell_formula_units_Z   4
loop_
 _symmetry_equiv_pos_site_id
 _symmetry_equiv_pos_as_xyz
  1  'x, y, z'
loop_
 _atom_site_type_symbol
 _atom_site_label
 _atom_site_symmetry_multiplicity
 _atom_site_fract_x
 _atom_site_fract_y
 _atom_site_fract_z
 _atom_site_occupancy
  C  C0  1  0.84703200  0.18409400  0.14247700  1
  C  C1  1  0.34703200  0.31590600  0.85752300  1
  C  C2  1  0.15296800  0.81590600  0.85752300  1
  C  C3  1  0.65296800  0.68409400  0.14247700  1
  C  C4  1  0.97250600  0.10583800  0.26956600  1
  C  C5  1  0.47250600  0.39416200  0.73043400  1
  C  C6  1  0.02749400  0.89416200  0.73043400  1
  C  C7  1  0.52749400  0.60583800  0.26956600  1
  C  C8  1  0.76065200  0.15410700  0.28033600  1
  C  C9  1  0.26065200  0.34589300  0.71966400  1
  C  C10  1  0.23934800  0.84589300  0.71966400  1
  C  C11  1  0.73934800  0.65410700  0.28033600  1
  C  C12  1  0.62269400  0.16438500  0.16634200  1
  C  C13  1  0.12269400  0.33561500  0.83365800  1
  C  C14  1  0.37730600  0.83561500  0.83365800  1
  C  C15  1  0.87730600  0.66438500  0.16634200  1
  C  C16  1  0.96875400  0.05043000  0.15787200  1
  C  C17  1  0.46875400  0.44957000  0.84212800  1
  C  C18  1  0.03124600  0.94957000  0.84212800  1
  C  C19  1  0.53124600  0.55043000  0.15787200  1
  C  C20  1  0.98000100  0.94332600  0.30819700  1
  C  C21  1  0.48000100  0.55667400  0.69180300  1
  C  C22  1  0.01999900  0.05667400  0.69180300  1
  C  C23  1  0.51999900  0.44332600  0.30819700  1
  C  C24  1  0.82767700  0.00129400  0.37854900  1
  C  C25  1  0.32767700  0.49870600  0.62145100  1
  C  C26  1  0.17232300  0.99870600  0.62145100  1
  C  C27  1  0.67232300  0.50129400  0.37854900  1
  C  C28  1  0.59595800  0.04139100  0.31036300  1
  C  C29  1  0.09595800  0.45860900  0.68963700  1
  C  C30  1  0.40404200  0.95860900  0.68963700  1
  C  C31  1  0.90404200  0.54139100  0.31036300  1
  C  C32  1  0.55849800  0.01343400  0.18548300  1
  C  C33  1  0.05849800  0.48656600  0.81451700  1
  C  C34  1  0.44150200  0.98656600  0.81451700  1
  C  C35  1  0.94150200  0.51343400  0.18548300  1
  C  C36  1  0.73543700  0.08678700  0.09126800  1
  C  C37  1  0.23543700  0.41321300  0.90873200  1
  C  C38  1  0.26456300  0.91321300  0.90873200  1
  C  C39  1  0.76456300  0.58678700  0.09126800  1
  Ni  Ni40  1  0.90069300  0.28301800  0.07009400  1
  Ni  Ni41  1  0.40069300  0.21698200  0.92990600  1
  Ni  Ni42  1  0.09930700  0.71698200  0.92990600  1
  Ni  Ni43  1  0.59930700  0.78301800  0.07009400  1
  Ni  Ni44  1  0.09131900  0.15896600  0.28857600  1
  Ni  Ni45  1  0.59131900  0.34103400  0.71142400  1
  Ni  Ni46  1  0.90868100  0.84103400  0.71142400  1
  Ni  Ni47  1  0.40868100  0.65896600  0.28857600  1
  Ni  Ni48  1  0.74353800  0.22767100  0.32336300  1
  Ni  Ni49  1  0.24353800  0.27232900  0.67663700  1
  Ni  Ni50  1  0.25646200  0.77232900  0.67663700  1
  Ni  Ni51  1  0.75646200  0.72767100  0.32336300  1
  Ni  Ni52  1  0.52896500  0.25420400  0.12274800  1
  Ni  Ni53  1  0.02896500  0.24579600  0.87725100  1
  Ni  Ni54  1  0.47103500  0.74579600  0.87725100  1
  Ni  Ni55  1  0.97103500  0.75420400  0.12274800  1
  Ni  Ni56  1  0.08655500  0.05677400  0.09604100  1
  Ni  Ni57  1  0.58655500  0.44322600  0.90395900  1
  Ni  Ni58  1  0.91344500  0.94322600  0.90395900  1
  Ni  Ni59  1  0.41344500  0.55677400  0.09604100  1
  Ni  Ni60  1  0.84032900  0.96861300  0.47991500  1
  Ni  Ni61  1  0.34032900  0.53138700  0.52008500  1
  Ni  Ni62  1  0.15967100  0.03138700  0.52008500  1
  Ni  Ni63  1  0.65967100  0.46861300  0.47991500  1
  Ni  Ni64  1  0.48076000  0.03306900  0.37426500  1
  Ni  Ni65  1  0.98076000  0.46693100  0.62573500  1
  Ni  Ni66  1  0.51924000  0.96693100  0.62573500  1
  Ni  Ni67  1  0.01924000  0.53306900  0.37426500  1
  Ni  Ni68  1  0.42842700  0.97748300  0.16039100  1
  Ni  Ni69  1  0.92842700  0.52251700  0.83960900  1
  Ni  Ni70  1  0.57157300  0.02251700  0.83960900  1
  Ni  Ni71  1  0.07157300  0.47748300  0.16039100  1
  Ni  Ni72  1  0.72278100  0.10813900  0.99140000  1
  Ni  Ni73  1  0.22278100  0.39186100  0.00860000  1
  Ni  Ni74  1  0.27721900  0.89186100  0.00860000  1
  Ni  Ni75  1  0.77721900  0.60813900  0.99140000  1
  Ni  Ni76  1  0.92923400  0.92791400  0.21239200  1
  Ni  Ni77  1  0.42923400  0.57208600  0.78760800  1
  Ni  Ni78  1  0.07076600  0.07208600  0.78760800  1
  Ni  Ni79  1  0.57076600  0.42791400  0.21239200  1
  Ni  Ni80  1  0.82973300  0.89465700  0.36365200  1
  Ni  Ni81  1  0.32973300  0.60534300  0.63634800  1
  Ni  Ni82  1  0.17026700  0.10534300  0.63634800  1
  Ni  Ni83  1  0.67026700  0.39465700  0.36365200  1
  Ni  Ni84  1  0.58746200  0.93331500  0.29697900  1
  Ni  Ni85  1  0.08746200  0.56668500  0.70302100  1
  Ni  Ni86  1  0.41253800  0.06668500  0.70302100  1
  Ni  Ni87  1  0.91253800  0.43331500  0.29697900  1
  Ni  Ni88  1  0.68622500  0.96502500  0.14618000  1
  Ni  Ni89  1  0.18622500  0.53497500  0.85382000  1
  Ni  Ni90  1  0.31377500  0.03497500  0.85382000  1
  Ni  Ni91  1  0.81377500  0.46502500  0.14618000  1
  Cu  Cu92  1  0.15561600  0.81682200  0.38509200  1
  Cu  Cu93  1  0.65561600  0.68317800  0.61490800  1
  Cu  Cu94  1  0.84438400  0.18317800  0.61490800  1
  Cu  Cu95  1  0.34438400  0.31682200  0.38509200  1
