# generated using pymatgen
data_Cu6Ni3C
_symmetry_space_group_name_H-M   'P 1'
_cell_length_a   6.34477522
_cell_length_b   6.34477522
_cell_length_c   6.20723207
_cell_angle_alpha   75.82007968
_cell_angle_beta   75.82007968
_cell_angle_gamma   48.54576606
_symmetry_Int_Tables_number   1
_chemical_formula_structural   Cu6Ni3C
_chemical_formula_sum   'Cu6 Ni3 C1'
_cell_volume   180.39213389
_cell_formula_units_Z   1
loop_
 _symmetry_equiv_pos_site_id
 _symmetry_equiv_pos_as_xyz
  1  'x, y, z'
loop_
 _atom_site_type_symbol
 _atom_site_label
 _atom_site_symmetry_multiplicity
 _atom_site_fract_x
 _atom_site_fract_y
 _atom_site_fract_z
 _atom_site_occupancy
  C  C0  1  0.00000000  0.00000000  0.00000000  1
  Ni  Ni1  1  0.12203400  0.12203400  0.64487900  1
  Ni  Ni2  1  0.87796600  0.87796600  0.35512100  1
  Ni  Ni3  1  0.50000000  0.50000000  0.50000000  1
  Cu  Cu4  1  0.60005200  0.16987900  0.90015700  1
  Cu  Cu5  1  0.16987900  0.60005200  0.90015700  1
  Cu  Cu6  1  0.39994800  0.83012100  0.09984300  1
  Cu  Cu7  1  0.83012100  0.39994800  0.09984300  1
  Cu  Cu8  1  0.61069700  0.61069700  0.98077500  1
  Cu  Cu9  1  0.38930300  0.38930300  0.01922500  1
