# generated using pymatgen
data_Cu2NiC8
_symmetry_space_group_name_H-M   'P 1'
_cell_length_a   7.48898200
_cell_length_b   8.85775760
_cell_length_c   9.74816763
_cell_angle_alpha   103.82284073
_cell_angle_beta   90.00000000
_cell_angle_gamma   90.00000000
_symmetry_Int_Tables_number   1
_chemical_formula_structural   Cu2NiC8
_chemical_formula_sum   'Cu8 Ni4 C32'
_cell_volume   627.92285403
_cell_formula_units_Z   4
loop_
 _symmetry_equiv_pos_site_id
 _symmetry_equiv_pos_as_xyz
  1  'x, y, z'
loop_
 _atom_site_type_symbol
 _atom_site_label
 _atom_site_symmetry_multiplicity
 _atom_site_fract_x
 _atom_site_fract_y
 _atom_site_fract_z
 _atom_site_occupancy
  C  C0  1  0.60986700  0.72660600  0.70955200  1
  C  C1  1  0.10986700  0.27339400  0.29044800  1
  C  C2  1  0.78501200  0.26991300  0.72764400  1
  C  C3  1  0.28501200  0.73008700  0.27235600  1
  Ni  Ni4  1  0.64046600  0.94483700  0.21927400  1
  Ni  Ni5  1  0.14046600  0.05516300  0.78072600  1
  Ni  Ni6  1  0.44298200  0.24451600  0.98621600  1
  Ni  Ni7  1  0.94298200  0.75548400  0.01378400  1
  Cu  Cu8  1  0.61403300  0.43781300  0.39918800  1
  Cu  Cu9  1  0.11403300  0.56218700  0.60081200  1
  Cu  Cu10  1  0.17544700  0.48211200  0.97933900  1
  Cu  Cu11  1  0.67544700  0.51788800  0.02066100  1
  Cu  Cu12  1  0.94801700  0.98969100  0.95441000  1
  Cu  Cu13  1  0.44801700  0.01030900  0.04559000  1
  Cu  Cu14  1  0.81588700  0.94291200  0.40728100  1
  Cu  Cu15  1  0.31588700  0.05708800  0.59271900  1
  C  C16  1  0.75099300  0.92803100  0.56489500  1
  C  C17  1  0.25099300  0.07196900  0.43510500  1
  C  C18  1  0.96127800  0.81708300  0.32179300  1
  C  C19  1  0.46127800  0.18291700  0.67820700  1
  C  C20  1  0.78442000  0.02590700  0.84374400  1
  C  C21  1  0.28442000  0.97409300  0.15625600  1
  C  C22  1  0.65988600  0.54453500  0.84695800  1
  C  C23  1  0.15988600  0.45546500  0.15304200  1
  C  C24  1  0.95167500  0.68344000  0.67260600  1
  C  C25  1  0.45167500  0.31656000  0.32739400  1
  C  C26  1  0.61997400  0.32418400  0.96474400  1
  C  C27  1  0.11997400  0.67581600  0.03525600  1
  C  C28  1  0.42451800  0.87314000  0.89271900  1
  C  C29  1  0.92451800  0.12686000  0.10728100  1
  C  C30  1  0.65360100  0.42928100  0.56849400  1
  C  C31  1  0.15360100  0.57071900  0.43150600  1
  C  C32  1  0.98610700  0.39266600  0.89726800  1
  C  C33  1  0.48610700  0.60733400  0.10273200  1
  C  C34  1  0.29915000  0.59208900  0.69629600  1
  C  C35  1  0.79915000  0.40791100  0.30370400  1
  C  C36  1  0.61443800  0.90808800  0.30507800  1
  C  C37  1  0.11443800  0.09191200  0.69492200  1
  C  C38  1  0.54894700  0.62571400  0.42524000  1
  C  C39  1  0.04894700  0.37428600  0.57476000  1
  C  C40  1  0.36305100  0.87155900  0.58002100  1
  C  C41  1  0.86305100  0.12844100  0.41997900  1
  C  C42  1  0.83845300  0.82708400  0.99927000  1
  C  C43  1  0.33845300  0.17291600  0.00073000  1
