# generated using pymatgen
data_Cu4Ni2C3
_symmetry_space_group_name_H-M   'P 1'
_cell_length_a   10.24344647
_cell_length_b   10.24344647
_cell_length_c   5.93076300
_cell_angle_alpha   90.00000000
_cell_angle_beta   90.00000000
_cell_angle_gamma   120.00000303
_symmetry_Int_Tables_number   1
_chemical_formula_structural   Cu4Ni2C3
_chemical_formula_sum   'Cu12 Ni6 C9'
_cell_volume   538.93128152
_cell_formula_units_Z   3
loop_
 _symmetry_equiv_pos_site_id
 _symmetry_equiv_pos_as_xyz
  1  'x, y, z'
loop_
 _atom_site_type_symbol
 _atom_site_label
 _atom_site_symmetry_multiplicity
 _atom_site_fract_x
 _atom_site_fract_y
 _atom_site_fract_z
 _atom_site_occupancy
  C  C0  1  0.40272700  0.09169600  0.74994400  1
  C  C1  1  0.68897000  0.59727300  0.74994400  1
  C  C2  1  0.90830400  0.31103000  0.74994400  1
  C  C3  1  0.59727300  0.90830400  0.25005600  1
  C  C4  1  0.31103000  0.40272700  0.25005600  1
  C  C5  1  0.09169600  0.68897000  0.25005600  1
  C  C6  1  0.66666700  0.33333300  0.24923000  1
  C  C7  1  0.33333300  0.66666700  0.75077000  1
  C  C8  1  0.00000000  0.00000000  0.00000000  1
  Ni  Ni9  1  0.22227900  0.04906800  0.23503000  1
  Ni  Ni10  1  0.82678900  0.77772100  0.23503000  1
  Ni  Ni11  1  0.95093200  0.17321100  0.23503000  1
  Ni  Ni12  1  0.77772100  0.95093200  0.76497000  1
  Ni  Ni13  1  0.17321100  0.22227900  0.76497000  1
  Ni  Ni14  1  0.04906800  0.82678900  0.76497000  1
  Cu  Cu15  1  0.51949300  0.35880800  0.01331100  1
  Cu  Cu16  1  0.83931500  0.48050700  0.01331100  1
  Cu  Cu17  1  0.64119200  0.16068500  0.01331100  1
  Cu  Cu18  1  0.48179600  0.64237100  0.51346500  1
  Cu  Cu19  1  0.16057500  0.51820400  0.51346500  1
  Cu  Cu20  1  0.35762900  0.83942500  0.51346500  1
  Cu  Cu21  1  0.48050700  0.64119200  0.98668900  1
  Cu  Cu22  1  0.16068500  0.51949300  0.98668900  1
  Cu  Cu23  1  0.35880800  0.83931500  0.98668900  1
  Cu  Cu24  1  0.51820400  0.35762900  0.48653500  1
  Cu  Cu25  1  0.83942500  0.48179600  0.48653500  1
  Cu  Cu26  1  0.64237100  0.16057500  0.48653500  1
