# generated using pymatgen
data_Cu2Ni2C35
_symmetry_space_group_name_H-M   'P 1'
_cell_length_a   14.40811400
_cell_length_b   7.40965100
_cell_length_c   9.74344377
_cell_angle_alpha   75.53863577
_cell_angle_beta   90.00000000
_cell_angle_gamma   90.00000000
_symmetry_Int_Tables_number   1
_chemical_formula_structural   Cu2Ni2C35
_chemical_formula_sum   'Cu4 Ni4 C70'
_cell_volume   1007.24378251
_cell_formula_units_Z   2
loop_
 _symmetry_equiv_pos_site_id
 _symmetry_equiv_pos_as_xyz
  1  'x, y, z'
loop_
 _atom_site_type_symbol
 _atom_site_label
 _atom_site_symmetry_multiplicity
 _atom_site_fract_x
 _atom_site_fract_y
 _atom_site_fract_z
 _atom_site_occupancy
  C  C0  1  0.50000000  0.00000000  0.50000000  1
  C  C1  1  0.00000000  0.00000000  0.00000000  1
  C  C2  1  0.18267900  0.80932600  0.58372300  1
  C  C3  1  0.68267900  0.19067400  0.91627700  1
  C  C4  1  0.81732100  0.19067400  0.41627700  1
  C  C5  1  0.31732100  0.80932600  0.08372300  1
  C  C6  1  0.20662700  0.66082400  0.73732600  1
  C  C7  1  0.70662700  0.33917600  0.76267400  1
  C  C8  1  0.79337300  0.33917600  0.26267400  1
  C  C9  1  0.29337300  0.66082400  0.23732600  1
  C  C10  1  0.18539100  0.58482700  0.59656100  1
  C  C11  1  0.68539100  0.41517300  0.90343900  1
  C  C12  1  0.81460900  0.41517300  0.40343900  1
  C  C13  1  0.31460900  0.58482700  0.09656100  1
  C  C14  1  0.05104300  0.60102700  0.70843500  1
  C  C15  1  0.55104300  0.39897300  0.79156500  1
  C  C16  1  0.94895700  0.39897300  0.29156500  1
  C  C17  1  0.44895700  0.60102700  0.20843500  1
  C  C18  1  0.47512600  0.06103000  0.84975800  1
  C  C19  1  0.97512600  0.93897000  0.65024200  1
  C  C20  1  0.52487400  0.93897000  0.15024200  1
  C  C21  1  0.02487400  0.06103000  0.34975800  1
  C  C22  1  0.38231700  0.93993500  0.67850700  1
  C  C23  1  0.88231700  0.06006500  0.82149300  1
  C  C24  1  0.61768300  0.06006500  0.32149300  1
  C  C25  1  0.11768300  0.93993500  0.17850700  1
  C  C26  1  0.40541600  0.12047200  0.12808400  1
  C  C27  1  0.90541600  0.87952800  0.37191600  1
  C  C28  1  0.59458400  0.87952800  0.87191600  1
  C  C29  1  0.09458400  0.12047200  0.62808400  1
  C  C30  1  0.03642700  0.96466200  0.39354100  1
  C  C31  1  0.53642700  0.03533800  0.10645900  1
  C  C32  1  0.96357300  0.03533800  0.60645900  1
  C  C33  1  0.46357300  0.96466200  0.89354100  1
  C  C34  1  0.53198000  0.61089200  0.31233600  1
  C  C35  1  0.03198000  0.38910800  0.18766400  1
  C  C36  1  0.46802000  0.38910800  0.68766400  1
  C  C37  1  0.96802000  0.61089200  0.81233600  1
  C  C38  1  0.69469300  0.92595700  0.48862800  1
  C  C39  1  0.19469300  0.07404300  0.01137200  1
  C  C40  1  0.30530700  0.07404300  0.51137200  1
  C  C41  1  0.80530700  0.92595700  0.98862800  1
  Ni  Ni42  1  0.32101600  0.27653700  0.92871500  1
  Ni  Ni43  1  0.82101600  0.72346300  0.57128500  1
  Ni  Ni44  1  0.67898400  0.72346300  0.07128500  1
  Ni  Ni45  1  0.17898400  0.27653700  0.42871500  1
  Cu  Cu46  1  0.16558500  0.68253500  0.64896700  1
  Cu  Cu47  1  0.66558500  0.31746500  0.85103300  1
  Cu  Cu48  1  0.83441500  0.31746500  0.35103300  1
  Cu  Cu49  1  0.33441500  0.68253500  0.14896700  1
  C  C50  1  0.24985500  0.44617900  0.93837600  1
  C  C51  1  0.74985500  0.55382100  0.56162400  1
  C  C52  1  0.75014500  0.55382100  0.06162400  1
  C  C53  1  0.25014500  0.44617900  0.43837600  1
  C  C54  1  0.36933900  0.23627900  0.10841500  1
  C  C55  1  0.86933900  0.76372100  0.39158500  1
  C  C56  1  0.63066100  0.76372100  0.89158500  1
  C  C57  1  0.13066100  0.23627900  0.60841500  1
  C  C58  1  0.48690900  0.44936200  0.76103500  1
  C  C59  1  0.98690900  0.55063800  0.73896500  1
  C  C60  1  0.51309100  0.55063800  0.23896500  1
  C  C61  1  0.01309100  0.44936200  0.26103500  1
  C  C62  1  0.25311400  0.06562800  0.95466300  1
  C  C63  1  0.75311400  0.93437200  0.54533700  1
  C  C64  1  0.74688600  0.93437200  0.04533700  1
  C  C65  1  0.24688600  0.06562800  0.45466300  1
  C  C66  1  0.36582600  0.70833800  0.49341200  1
  C  C67  1  0.86582600  0.29166200  0.00658800  1
  C  C68  1  0.63417400  0.29166200  0.50658800  1
  C  C69  1  0.13417400  0.70833800  0.99341200  1
  C  C70  1  0.59767700  0.95238000  0.39540400  1
  C  C71  1  0.09767700  0.04762000  0.10459600  1
  C  C72  1  0.40232300  0.04762000  0.60459600  1
  C  C73  1  0.90232300  0.95238000  0.89540400  1
  C  C74  1  0.45090200  0.73230800  0.50230900  1
  C  C75  1  0.95090200  0.26769200  0.99769100  1
  C  C76  1  0.54909800  0.26769200  0.49769100  1
  C  C77  1  0.04909800  0.73230800  0.00230900  1
