# generated using pymatgen
data_Cu6Ni4C15
_symmetry_space_group_name_H-M   'P 1'
_cell_length_a   11.79657519
_cell_length_b   20.44207904
_cell_length_c   20.74378771
_cell_angle_alpha   90.00000000
_cell_angle_beta   90.00000000
_cell_angle_gamma   90.00000000
_symmetry_Int_Tables_number   1
_chemical_formula_structural   Cu6Ni4C15
_chemical_formula_sum   'Cu48 Ni32 C120'
_cell_volume   5002.29226840
_cell_formula_units_Z   8
loop_
 _symmetry_equiv_pos_site_id
 _symmetry_equiv_pos_as_xyz
  1  'x, y, z'
loop_
 _atom_site_type_symbol
 _atom_site_label
 _atom_site_symmetry_multiplicity
 _atom_site_fract_x
 _atom_site_fract_y
 _atom_site_fract_z
 _atom_site_occupancy
  C  C0  1  0.68955555  0.02132812  0.10893475  1
  C  C1  1  0.81044445  0.52132812  0.39106525  1
  C  C2  1  0.31044445  0.97867188  0.60893475  1
  C  C3  1  0.18955555  0.47867188  0.89106525  1
  C  C4  1  0.31044445  0.97867188  0.89106525  1
  C  C5  1  0.18955555  0.47867188  0.60893475  1
  C  C6  1  0.68955555  0.02132812  0.39106525  1
  C  C7  1  0.81044445  0.52132812  0.10893475  1
  C  C8  1  0.10688157  0.71330867  0.17962671  1
  C  C9  1  0.39311843  0.21330867  0.32037329  1
  C  C10  1  0.89311843  0.28669133  0.67962671  1
  C  C11  1  0.60688157  0.78669133  0.82037329  1
  C  C12  1  0.89311843  0.28669133  0.82037329  1
  C  C13  1  0.60688157  0.78669133  0.67962671  1
  C  C14  1  0.10688157  0.71330867  0.32037329  1
  C  C15  1  0.39311843  0.21330867  0.17962671  1
  C  C16  1  0.09696133  0.66229612  0.25000000  1
  C  C17  1  0.40303867  0.16229612  0.25000000  1
  C  C18  1  0.90303867  0.33770388  0.75000000  1
  C  C19  1  0.59696133  0.83770388  0.75000000  1
  C  C20  1  0.22820096  0.66803424  0.20665187  1
  C  C21  1  0.27179904  0.16803424  0.29334813  1
  C  C22  1  0.77179904  0.33196576  0.70665187  1
  C  C23  1  0.72820096  0.83196576  0.79334813  1
  C  C24  1  0.77179904  0.33196576  0.79334813  1
  C  C25  1  0.72820096  0.83196576  0.70665187  1
  C  C26  1  0.22820096  0.66803424  0.29334813  1
  C  C27  1  0.27179904  0.16803424  0.20665187  1
  C  C28  1  0.24420834  0.75102591  0.18003949  1
  C  C29  1  0.25579166  0.25102591  0.31996051  1
  C  C30  1  0.75579166  0.24897409  0.68003949  1
  C  C31  1  0.74420834  0.74897409  0.81996051  1
  C  C32  1  0.75579166  0.24897409  0.81996051  1
  C  C33  1  0.74420834  0.74897409  0.68003949  1
  C  C34  1  0.24420834  0.75102591  0.31996051  1
  C  C35  1  0.25579166  0.25102591  0.18003949  1
  C  C36  1  0.12232715  0.79608635  0.20667967  1
  C  C37  1  0.37767285  0.29608635  0.29332033  1
  C  C38  1  0.87767285  0.20391365  0.70667967  1
  C  C39  1  0.62232715  0.70391365  0.79332033  1
  C  C40  1  0.87767285  0.20391365  0.79332033  1
  C  C41  1  0.62232715  0.70391365  0.70667967  1
  C  C42  1  0.12232715  0.79608635  0.29332033  1
  C  C43  1  0.37767285  0.29608635  0.20667967  1
  C  C44  1  0.03152059  0.74128807  0.25000000  1
  C  C45  1  0.46847941  0.24128807  0.25000000  1
  C  C46  1  0.96847941  0.25871193  0.75000000  1
  C  C47  1  0.53152059  0.75871193  0.75000000  1
  C  C48  1  0.31923359  0.72291155  0.25000000  1
  C  C49  1  0.18076641  0.22291155  0.25000000  1
  C  C50  1  0.68076641  0.27708845  0.75000000  1
  C  C51  1  0.81923359  0.77708845  0.75000000  1
  C  C52  1  0.25367657  0.80204929  0.25000000  1
  C  C53  1  0.24632343  0.30204929  0.25000000  1
  C  C54  1  0.74632343  0.19795071  0.75000000  1
  C  C55  1  0.75367657  0.69795071  0.75000000  1
  Ni  Ni56  1  0.88247356  0.15830759  0.06045381  1
  Ni  Ni57  1  0.61752644  0.65830759  0.43954619  1
  Ni  Ni58  1  0.11752644  0.84169241  0.56045381  1
  Ni  Ni59  1  0.38247356  0.34169241  0.93954619  1
  Ni  Ni60  1  0.11752644  0.84169241  0.93954619  1
  Ni  Ni61  1  0.38247356  0.34169241  0.56045381  1
  Ni  Ni62  1  0.88247356  0.15830759  0.43954619  1
  Ni  Ni63  1  0.61752644  0.65830759  0.06045381  1
  Ni  Ni64  1  0.70931991  0.35741410  0.04727989  1
  Ni  Ni65  1  0.79068009  0.85741410  0.45272011  1
  Ni  Ni66  1  0.29068009  0.64258590  0.54727989  1
  Ni  Ni67  1  0.20931991  0.14258590  0.95272011  1
  Ni  Ni68  1  0.29068009  0.64258590  0.95272011  1
  Ni  Ni69  1  0.20931991  0.14258590  0.54727989  1
  Ni  Ni70  1  0.70931991  0.35741410  0.45272011  1
  Ni  Ni71  1  0.79068009  0.85741410  0.04727989  1
  Ni  Ni72  1  0.37646785  0.95587496  0.07534159  1
  Ni  Ni73  1  0.12353215  0.45587496  0.42465841  1
  Ni  Ni74  1  0.62353215  0.04412504  0.57534159  1
  Ni  Ni75  1  0.87646785  0.54412504  0.92465841  1
  Ni  Ni76  1  0.62353215  0.04412504  0.92465841  1
  Ni  Ni77  1  0.87646785  0.54412504  0.57534159  1
  Ni  Ni78  1  0.37646785  0.95587496  0.42465841  1
  Ni  Ni79  1  0.12353215  0.45587496  0.07534159  1
  Ni  Ni80  1  0.92175175  0.03061460  0.25000000  1
  Ni  Ni81  1  0.57824825  0.53061460  0.25000000  1
  Ni  Ni82  1  0.07824825  0.96938540  0.75000000  1
  Ni  Ni83  1  0.42175175  0.46938540  0.75000000  1
  Ni  Ni84  1  0.84895091  0.39012648  0.25000000  1
  Ni  Ni85  1  0.65104909  0.89012648  0.25000000  1
  Ni  Ni86  1  0.15104909  0.60987352  0.75000000  1
  Ni  Ni87  1  0.34895091  0.10987352  0.75000000  1
  Cu  Cu88  1  0.02174774  0.68893824  0.08975083  1
  Cu  Cu89  1  0.47825226  0.18893824  0.41024917  1
  Cu  Cu90  1  0.97825226  0.31106176  0.58975083  1
  Cu  Cu91  1  0.52174774  0.81106176  0.91024917  1
  Cu  Cu92  1  0.97825226  0.31106176  0.91024917  1
  Cu  Cu93  1  0.52174774  0.81106176  0.58975083  1
  Cu  Cu94  1  0.02174774  0.68893824  0.41024917  1
  Cu  Cu95  1  0.47825226  0.18893824  0.08975083  1
  Cu  Cu96  1  0.99427641  0.57379241  0.25000000  1
  Cu  Cu97  1  0.50572359  0.07379241  0.25000000  1
  Cu  Cu98  1  0.00572359  0.42620759  0.75000000  1
  Cu  Cu99  1  0.49427641  0.92620759  0.75000000  1
  Cu  Cu100  1  0.29772093  0.58661253  0.15142307  1
  Cu  Cu101  1  0.20227907  0.08661253  0.34857693  1
  Cu  Cu102  1  0.70227907  0.41338747  0.65142307  1
  Cu  Cu103  1  0.79772093  0.91338747  0.84857693  1
  Cu  Cu104  1  0.70227907  0.41338747  0.84857693  1
  Cu  Cu105  1  0.79772093  0.91338747  0.65142307  1
  Cu  Cu106  1  0.29772093  0.58661253  0.34857693  1
  Cu  Cu107  1  0.20227907  0.08661253  0.15142307  1
  Cu  Cu108  1  0.33377074  0.77538339  0.09104360  1
  Cu  Cu109  1  0.16622926  0.27538339  0.40895640  1
  Cu  Cu110  1  0.66622926  0.22461661  0.59104360  1
  Cu  Cu111  1  0.83377074  0.72461661  0.90895640  1
  Cu  Cu112  1  0.66622926  0.22461661  0.90895640  1
  Cu  Cu113  1  0.83377074  0.72461661  0.59104360  1
  Cu  Cu114  1  0.33377074  0.77538339  0.40895640  1
  Cu  Cu115  1  0.16622926  0.27538339  0.09104360  1
  Cu  Cu116  1  0.05563960  0.87814982  0.15153782  1
  Cu  Cu117  1  0.44436040  0.37814982  0.34846218  1
  Cu  Cu118  1  0.94436040  0.12185018  0.65153782  1
  Cu  Cu119  1  0.55563960  0.62185018  0.84846218  1
  Cu  Cu120  1  0.94436040  0.12185018  0.84846218  1
  Cu  Cu121  1  0.55563960  0.62185018  0.65153782  1
  Cu  Cu122  1  0.05563960  0.87814982  0.34846218  1
  Cu  Cu123  1  0.44436040  0.37814982  0.15153782  1
  Cu  Cu124  1  0.84769592  0.75133746  0.25000000  1
  Cu  Cu125  1  0.65230408  0.25133746  0.25000000  1
  Cu  Cu126  1  0.15230408  0.24866254  0.75000000  1
  Cu  Cu127  1  0.34769592  0.74866254  0.75000000  1
  Cu  Cu128  1  0.50327202  0.71076347  0.25000000  1
  Cu  Cu129  1  0.99672798  0.21076347  0.25000000  1
  Cu  Cu130  1  0.49672798  0.28923653  0.75000000  1
  Cu  Cu131  1  0.00327202  0.78923653  0.75000000  1
  Cu  Cu132  1  0.34864317  0.89352993  0.25000000  1
  Cu  Cu133  1  0.15135683  0.39352993  0.25000000  1
  Cu  Cu134  1  0.65135683  0.10647007  0.75000000  1
  Cu  Cu135  1  0.84864317  0.60647007  0.75000000  1
  C  C136  1  0.95839236  0.11197159  0.03014674  1
  C  C137  1  0.54160764  0.61197159  0.46985326  1
  C  C138  1  0.04160764  0.88802841  0.53014674  1
  C  C139  1  0.45839236  0.38802841  0.96985326  1
  C  C140  1  0.04160764  0.88802841  0.96985326  1
  C  C141  1  0.45839236  0.38802841  0.53014674  1
  C  C142  1  0.95839236  0.11197159  0.46985326  1
  C  C143  1  0.54160764  0.61197159  0.03014674  1
  C  C144  1  0.78314719  0.13179790  0.09323305  1
  C  C145  1  0.71685281  0.63179790  0.40676695  1
  C  C146  1  0.21685281  0.86820210  0.59323305  1
  C  C147  1  0.28314719  0.36820210  0.90676695  1
  C  C148  1  0.21685281  0.86820210  0.90676695  1
  C  C149  1  0.28314719  0.36820210  0.59323305  1
  C  C150  1  0.78314719  0.13179790  0.40676695  1
  C  C151  1  0.71685281  0.63179790  0.09323305  1
  C  C152  1  0.79481784  0.31638424  0.07710757  1
  C  C153  1  0.70518216  0.81638424  0.42289243  1
  C  C154  1  0.20518216  0.68361576  0.57710757  1
  C  C155  1  0.29481784  0.18361576  0.92289243  1
  C  C156  1  0.20518216  0.68361576  0.92289243  1
  C  C157  1  0.29481784  0.18361576  0.57710757  1
  C  C158  1  0.79481784  0.31638424  0.42289243  1
  C  C159  1  0.70518216  0.81638424  0.07710757  1
  C  C160  1  0.72294556  0.42792856  0.05366883  1
  C  C161  1  0.77705444  0.92792856  0.44633117  1
  C  C162  1  0.27705444  0.57207144  0.55366883  1
  C  C163  1  0.22294556  0.07207144  0.94633117  1
  C  C164  1  0.27705444  0.57207144  0.94633117  1
  C  C165  1  0.22294556  0.07207144  0.55366883  1
  C  C166  1  0.72294556  0.42792856  0.44633117  1
  C  C167  1  0.77705444  0.92792856  0.05366883  1
  C  C168  1  0.49466096  0.97353353  0.08540583  1
  C  C169  1  0.00533904  0.47353353  0.41459417  1
  C  C170  1  0.50533904  0.02646647  0.58540583  1
  C  C171  1  0.99466096  0.52646647  0.91459417  1
  C  C172  1  0.50533904  0.02646647  0.91459417  1
  C  C173  1  0.99466096  0.52646647  0.58540583  1
  C  C174  1  0.49466096  0.97353353  0.41459417  1
  C  C175  1  0.00533904  0.47353353  0.08540583  1
  C  C176  1  0.33809130  0.95269095  0.00873664  1
  C  C177  1  0.16190870  0.45269095  0.49126336  1
  C  C178  1  0.66190870  0.04730905  0.50873664  1
  C  C179  1  0.83809130  0.54730905  0.99126336  1
  C  C180  1  0.66190870  0.04730905  0.99126336  1
  C  C181  1  0.83809130  0.54730905  0.50873664  1
  C  C182  1  0.33809130  0.95269095  0.49126336  1
  C  C183  1  0.16190870  0.45269095  0.00873664  1
  C  C184  1  0.85693848  0.03091066  0.19030118  1
  C  C185  1  0.64306152  0.53091066  0.30969882  1
  C  C186  1  0.14306152  0.96908934  0.69030118  1
  C  C187  1  0.35693848  0.46908934  0.80969882  1
  C  C188  1  0.14306152  0.96908934  0.80969882  1
  C  C189  1  0.35693848  0.46908934  0.69030118  1
  C  C190  1  0.85693848  0.03091066  0.30969882  1
  C  C191  1  0.64306152  0.53091066  0.19030118  1
  C  C192  1  0.83266379  0.42663801  0.19042300  1
  C  C193  1  0.66733621  0.92663801  0.30957700  1
  C  C194  1  0.16733621  0.57336199  0.69042300  1
  C  C195  1  0.33266379  0.07336199  0.80957700  1
  C  C196  1  0.16733621  0.57336199  0.80957700  1
  C  C197  1  0.33266379  0.07336199  0.69042300  1
  C  C198  1  0.83266379  0.42663801  0.30957700  1
  C  C199  1  0.66733621  0.92663801  0.19042300  1
