# generated using pymatgen
data_Cu2Ni11C9
_symmetry_space_group_name_H-M   'P 1'
_cell_length_a   8.60871300
_cell_length_b   6.64294700
_cell_length_c   9.80478971
_cell_angle_alpha   78.56608828
_cell_angle_beta   90.00000000
_cell_angle_gamma   90.00000000
_symmetry_Int_Tables_number   1
_chemical_formula_structural   Cu2Ni11C9
_chemical_formula_sum   'Cu4 Ni22 C18'
_cell_volume   549.58089073
_cell_formula_units_Z   2
loop_
 _symmetry_equiv_pos_site_id
 _symmetry_equiv_pos_as_xyz
  1  'x, y, z'
loop_
 _atom_site_type_symbol
 _atom_site_label
 _atom_site_symmetry_multiplicity
 _atom_site_fract_x
 _atom_site_fract_y
 _atom_site_fract_z
 _atom_site_occupancy
  C  C0  1  0.56613700  0.50615600  0.26072900  1
  C  C1  1  0.06613700  0.49384400  0.73927100  1
  C  C2  1  0.91984400  0.93846500  0.04108900  1
  C  C3  1  0.41984400  0.06153500  0.95891100  1
  C  C4  1  0.91248400  0.06239900  0.46383300  1
  C  C5  1  0.41248400  0.93760100  0.53616700  1
  C  C6  1  0.93843200  0.57803100  0.36407000  1
  C  C7  1  0.43843200  0.42196900  0.63593000  1
  C  C8  1  0.74617800  0.49550900  0.95211100  1
  C  C9  1  0.24617800  0.50449100  0.04788900  1
  C  C10  1  0.18361200  0.78789700  0.29737100  1
  C  C11  1  0.68361200  0.21210300  0.70262900  1
  C  C12  1  0.71281200  0.58238100  0.56641200  1
  C  C13  1  0.21281200  0.41761900  0.43358800  1
  C  C14  1  0.20599900  0.19056800  0.23388800  1
  C  C15  1  0.70599900  0.80943200  0.76611200  1
  C  C16  1  0.97061000  0.40829000  0.13480100  1
  C  C17  1  0.47061000  0.59171000  0.86519900  1
  Ni  Ni18  1  0.04213200  0.21230900  0.19538500  1
  Ni  Ni19  1  0.54213200  0.78769100  0.80461500  1
  Ni  Ni20  1  0.80454700  0.67730100  0.87582800  1
  Ni  Ni21  1  0.30454700  0.32269900  0.12417200  1
  Ni  Ni22  1  0.89021800  0.50571100  0.23507800  1
  Ni  Ni23  1  0.39021800  0.49428900  0.76492200  1
  Ni  Ni24  1  0.27369200  0.61572200  0.34161300  1
  Ni  Ni25  1  0.77369200  0.38427800  0.65838700  1
  Ni  Ni26  1  0.74384200  0.76171800  0.63131900  1
  Ni  Ni27  1  0.24384200  0.23828200  0.36868100  1
  Ni  Ni28  1  0.25828000  0.96991600  0.23741700  1
  Ni  Ni29  1  0.75828000  0.03008400  0.76258300  1
  Ni  Ni30  1  0.04383000  0.44131800  0.45838500  1
  Ni  Ni31  1  0.54383000  0.55868200  0.54161500  1
  Ni  Ni32  1  0.84613800  0.35999700  0.03445900  1
  Ni  Ni33  1  0.34613800  0.64000300  0.96554100  1
  Ni  Ni34  1  0.02456200  0.78244600  0.31283300  1
  Ni  Ni35  1  0.52456200  0.21755400  0.68716700  1
  Ni  Ni36  1  0.79328000  0.62121700  0.43106100  1
  Ni  Ni37  1  0.29328000  0.37878300  0.56893900  1
  Ni  Ni38  1  0.59048900  0.44658300  0.94818700  1
  Ni  Ni39  1  0.09048900  0.55341700  0.05181300  1
  Cu  Cu40  1  0.13377200  0.13069500  0.88461500  1
  Cu  Cu41  1  0.63377200  0.86930500  0.11538500  1
  Cu  Cu42  1  0.63005100  0.14212100  0.38777000  1
  Cu  Cu43  1  0.13005100  0.85787900  0.61223000  1
