# generated using pymatgen
data_CuNiC8
_symmetry_space_group_name_H-M   'P 1'
_cell_length_a   5.64325400
_cell_length_b   5.64822000
_cell_length_c   7.96934600
_cell_angle_alpha   90.00000000
_cell_angle_beta   90.00000000
_cell_angle_gamma   90.00000000
_symmetry_Int_Tables_number   1
_chemical_formula_structural   CuNiC8
_chemical_formula_sum   'Cu2 Ni2 C16'
_cell_volume   254.01764484
_cell_formula_units_Z   2
loop_
 _symmetry_equiv_pos_site_id
 _symmetry_equiv_pos_as_xyz
  1  'x, y, z'
loop_
 _atom_site_type_symbol
 _atom_site_label
 _atom_site_symmetry_multiplicity
 _atom_site_fract_x
 _atom_site_fract_y
 _atom_site_fract_z
 _atom_site_occupancy
  Ni  Ni0  1  0.78672500  0.49453000  0.50000000  1
  Ni  Ni1  1  0.21327500  0.99453000  0.00000000  1
  Cu  Cu2  1  0.29020200  0.00711000  0.50000000  1
  Cu  Cu3  1  0.70979800  0.50711000  0.00000000  1
  C  C4  1  0.24964300  0.49998400  0.75066200  1
  C  C5  1  0.75035700  0.99998400  0.25066200  1
  C  C6  1  0.24964300  0.49998400  0.24933800  1
  C  C7  1  0.75035700  0.99998400  0.74933800  1
  C  C8  1  0.95405200  0.70348000  0.79389000  1
  C  C9  1  0.46266100  0.78806000  0.20968500  1
  C  C10  1  0.53733900  0.28806000  0.29031500  1
  C  C11  1  0.04594800  0.20348000  0.70611000  1
  C  C12  1  0.53733900  0.28806000  0.70968500  1
  C  C13  1  0.04594800  0.20348000  0.29389000  1
  C  C14  1  0.95405200  0.70348000  0.20611000  1
  C  C15  1  0.46266100  0.78806000  0.79031500  1
  C  C16  1  0.24222200  0.58842100  0.50000000  1
  C  C17  1  0.73588700  0.92689200  0.50000000  1
  C  C18  1  0.26411300  0.42689200  0.00000000  1
  C  C19  1  0.75777800  0.08842100  0.00000000  1
