# generated using pymatgen
data_Cu7Ni3C5
_symmetry_space_group_name_H-M   'P 1'
_cell_length_a   4.79681300
_cell_length_b   4.81059900
_cell_length_c   15.68016100
_cell_angle_alpha   90.00000000
_cell_angle_beta   90.00000000
_cell_angle_gamma   90.00000000
_symmetry_Int_Tables_number   1
_chemical_formula_structural   Cu7Ni3C5
_chemical_formula_sum   'Cu14 Ni6 C10'
_cell_volume   361.82824228
_cell_formula_units_Z   2
loop_
 _symmetry_equiv_pos_site_id
 _symmetry_equiv_pos_as_xyz
  1  'x, y, z'
loop_
 _atom_site_type_symbol
 _atom_site_label
 _atom_site_symmetry_multiplicity
 _atom_site_fract_x
 _atom_site_fract_y
 _atom_site_fract_z
 _atom_site_occupancy
  C  C0  1  0.00933500  0.75214600  0.90478600  1
  C  C1  1  0.00933500  0.75214600  0.09521400  1
  C  C2  1  0.97933600  0.70960600  0.29102800  1
  C  C3  1  0.03090900  0.78086000  0.50000000  1
  C  C4  1  0.97933600  0.70960600  0.70897200  1
  C  C5  1  0.53090900  0.21914000  0.00000000  1
  C  C6  1  0.50933500  0.24785400  0.40478600  1
  C  C7  1  0.47933600  0.29039400  0.20897200  1
  C  C8  1  0.50933500  0.24785400  0.59521400  1
  C  C9  1  0.47933600  0.29039400  0.79102800  1
  Ni  Ni10  1  0.18514600  0.55969100  0.19860400  1
  Ni  Ni11  1  0.18514600  0.55969100  0.80139600  1
  Ni  Ni12  1  0.68514600  0.44030900  0.30139600  1
  Ni  Ni13  1  0.68514600  0.44030900  0.69860400  1
  Ni  Ni14  1  0.31828300  0.07170400  0.50000000  1
  Ni  Ni15  1  0.81828300  0.92829600  0.00000000  1
  Cu  Cu16  1  0.21981700  0.52454700  0.00000000  1
  Cu  Cu17  1  0.19606400  0.55286600  0.39275100  1
  Cu  Cu18  1  0.19606400  0.55286600  0.60724900  1
  Cu  Cu19  1  0.69606400  0.44713400  0.89275100  1
  Cu  Cu20  1  0.69606400  0.44713400  0.10724900  1
  Cu  Cu21  1  0.71981700  0.47545300  0.50000000  1
  Cu  Cu22  1  0.30810500  0.05727900  0.89086200  1
  Cu  Cu23  1  0.30810500  0.05727900  0.10913800  1
  Cu  Cu24  1  0.28750800  0.04407100  0.29881400  1
  Cu  Cu25  1  0.28750800  0.04407100  0.70118600  1
  Cu  Cu26  1  0.80810500  0.94272100  0.39086200  1
  Cu  Cu27  1  0.78750800  0.95592900  0.20118600  1
  Cu  Cu28  1  0.78750800  0.95592900  0.79881400  1
  Cu  Cu29  1  0.80810500  0.94272100  0.60913800  1
