# generated using pymatgen
data_CuNi3C13
_symmetry_space_group_name_H-M   'P 1'
_cell_length_a   6.89184753
_cell_length_b   6.89184753
_cell_length_c   6.86533596
_cell_angle_alpha   89.17141181
_cell_angle_beta   89.17141181
_cell_angle_gamma   94.56275544
_symmetry_Int_Tables_number   1
_chemical_formula_structural   CuNi3C13
_chemical_formula_sum   'Cu1 Ni3 C13'
_cell_volume   324.97942966
_cell_formula_units_Z   1
loop_
 _symmetry_equiv_pos_site_id
 _symmetry_equiv_pos_as_xyz
  1  'x, y, z'
loop_
 _atom_site_type_symbol
 _atom_site_label
 _atom_site_symmetry_multiplicity
 _atom_site_fract_x
 _atom_site_fract_y
 _atom_site_fract_z
 _atom_site_occupancy
  C  C0  1  0.52150200  0.52150200  0.40927400  1
  Ni  Ni1  1  0.99178200  0.99178200  0.48783500  1
  Ni  Ni2  1  0.49354500  0.02275800  0.02031800  1
  Ni  Ni3  1  0.02275800  0.49354500  0.02031800  1
  Cu  Cu4  1  0.95152500  0.95152500  0.93489000  1
  C  C5  1  0.16278300  0.93643600  0.57880000  1
  C  C6  1  0.93643600  0.16278300  0.57880000  1
  C  C7  1  0.84123400  0.84123400  0.51900600  1
  C  C8  1  0.02761700  0.02761700  0.28591600  1
  C  C9  1  0.61761700  0.89830200  0.12415600  1
  C  C10  1  0.47682200  0.19315200  0.12225400  1
  C  C11  1  0.30763100  0.91803500  0.00181400  1
  C  C12  1  0.58052800  0.05873100  0.83418100  1
  C  C13  1  0.19315200  0.47682200  0.12225400  1
  C  C14  1  0.89830200  0.61761700  0.12415600  1
  C  C15  1  0.91803500  0.30763100  0.00181400  1
  C  C16  1  0.05873100  0.58052800  0.83418100  1
