# generated using pymatgen
data_Cu2NiC
_symmetry_space_group_name_H-M   'P 1'
_cell_length_a   7.00553400
_cell_length_b   13.45885700
_cell_length_c   11.95111115
_cell_angle_alpha   90.00000000
_cell_angle_beta   91.34017225
_cell_angle_gamma   90.00000000
_symmetry_Int_Tables_number   1
_chemical_formula_structural   Cu2NiC
_chemical_formula_sum   'Cu32 Ni16 C16'
_cell_volume   1126.51996954
_cell_formula_units_Z   16
loop_
 _symmetry_equiv_pos_site_id
 _symmetry_equiv_pos_as_xyz
  1  'x, y, z'
loop_
 _atom_site_type_symbol
 _atom_site_label
 _atom_site_symmetry_multiplicity
 _atom_site_fract_x
 _atom_site_fract_y
 _atom_site_fract_z
 _atom_site_occupancy
  C  C0  1  0.24682000  0.97961900  0.80278100  1
  C  C1  1  0.75318000  0.47961900  0.69721900  1
  C  C2  1  0.75318000  0.02038100  0.19721900  1
  C  C3  1  0.24682000  0.52038100  0.30278100  1
  C  C4  1  0.03665500  0.83845300  0.57766400  1
  C  C5  1  0.96334500  0.33845300  0.92233600  1
  C  C6  1  0.96334500  0.16154700  0.42233600  1
  C  C7  1  0.03665500  0.66154700  0.07766400  1
  C  C8  1  0.50591000  0.86506200  0.59033300  1
  C  C9  1  0.49409000  0.36506200  0.90966700  1
  C  C10  1  0.49409000  0.13493800  0.40966700  1
  C  C11  1  0.50591000  0.63493800  0.09033300  1
  C  C12  1  0.74788400  0.94047400  0.89541400  1
  C  C13  1  0.25211600  0.44047400  0.60458600  1
  C  C14  1  0.25211600  0.05952600  0.10458600  1
  C  C15  1  0.74788400  0.55952600  0.39541400  1
  Ni  Ni16  1  0.95763500  0.85570200  0.47636300  1
  Ni  Ni17  1  0.04236500  0.35570200  0.02363700  1
  Ni  Ni18  1  0.04236500  0.14429800  0.52363700  1
  Ni  Ni19  1  0.95763500  0.64429800  0.97636300  1
  Ni  Ni20  1  0.06333800  0.74789300  0.61896000  1
  Ni  Ni21  1  0.93666200  0.24789300  0.88104000  1
  Ni  Ni22  1  0.93666200  0.25210700  0.38104000  1
  Ni  Ni23  1  0.06333800  0.75210700  0.11896000  1
  Ni  Ni24  1  0.50663400  0.81631500  0.48869100  1
  Ni  Ni25  1  0.49336600  0.31631500  0.01130900  1
  Ni  Ni26  1  0.49336600  0.18368500  0.51130900  1
  Ni  Ni27  1  0.50663400  0.68368500  0.98869100  1
  Ni  Ni28  1  0.54345200  0.76486200  0.58155000  1
  Ni  Ni29  1  0.45654800  0.26486200  0.91845000  1
  Ni  Ni30  1  0.45654800  0.23513800  0.41845000  1
  Ni  Ni31  1  0.54345200  0.73513800  0.08155000  1
  Cu  Cu32  1  0.25405700  0.10250700  0.74666200  1
  Cu  Cu33  1  0.74594300  0.60250700  0.75333800  1
  Cu  Cu34  1  0.74594300  0.89749300  0.25333800  1
  Cu  Cu35  1  0.25405700  0.39749300  0.24666200  1
  Cu  Cu36  1  0.25315200  0.85376100  0.85196700  1
  Cu  Cu37  1  0.74684800  0.35376100  0.64803300  1
  Cu  Cu38  1  0.74684800  0.14623900  0.14803300  1
  Cu  Cu39  1  0.25315200  0.64623900  0.35196700  1
  Cu  Cu40  1  0.57138000  0.99737000  0.86490400  1
  Cu  Cu41  1  0.42862000  0.49737000  0.63509600  1
  Cu  Cu42  1  0.42862000  0.00263000  0.13509600  1
  Cu  Cu43  1  0.57138000  0.50263000  0.36490400  1
  Cu  Cu44  1  0.21503600  0.04724700  0.98130800  1
  Cu  Cu45  1  0.78496400  0.54724700  0.51869200  1
  Cu  Cu46  1  0.78496400  0.95275300  0.01869200  1
  Cu  Cu47  1  0.21503600  0.45275300  0.48130800  1
  Cu  Cu48  1  0.91140500  0.98764400  0.83625100  1
  Cu  Cu49  1  0.08859500  0.48764400  0.66374900  1
  Cu  Cu50  1  0.08859500  0.01235600  0.16374900  1
  Cu  Cu51  1  0.91140500  0.51235600  0.33625100  1
  Cu  Cu52  1  0.73587800  0.83580100  0.86537100  1
  Cu  Cu53  1  0.26412200  0.33580100  0.63462900  1
  Cu  Cu54  1  0.26412200  0.16419900  0.13462900  1
  Cu  Cu55  1  0.73587800  0.66419900  0.36537100  1
  Cu  Cu56  1  0.09157700  0.91789800  0.63475500  1
  Cu  Cu57  1  0.90842300  0.41789800  0.86524500  1
  Cu  Cu58  1  0.90842300  0.08210200  0.36524500  1
  Cu  Cu59  1  0.09157700  0.58210200  0.13475500  1
  Cu  Cu60  1  0.48460700  0.94031200  0.64367100  1
  Cu  Cu61  1  0.51539300  0.44031200  0.85632900  1
  Cu  Cu62  1  0.51539300  0.05968800  0.35632900  1
  Cu  Cu63  1  0.48460700  0.55968800  0.14367100  1
