# generated using pymatgen
data_Cu8(NiC5)5
_symmetry_space_group_name_H-M   'P 1'
_cell_length_a   5.89146472
_cell_length_b   10.50518018
_cell_length_c   10.50518047
_cell_angle_alpha   85.49026967
_cell_angle_beta   73.71546208
_cell_angle_gamma   73.71546505
_symmetry_Int_Tables_number   1
_chemical_formula_structural   Cu8(NiC5)5
_chemical_formula_sum   'Cu8 Ni5 C25'
_cell_volume   599.05279736
_cell_formula_units_Z   1
loop_
 _symmetry_equiv_pos_site_id
 _symmetry_equiv_pos_as_xyz
  1  'x, y, z'
loop_
 _atom_site_type_symbol
 _atom_site_label
 _atom_site_symmetry_multiplicity
 _atom_site_fract_x
 _atom_site_fract_y
 _atom_site_fract_z
 _atom_site_occupancy
  Ni  Ni0  1  0.46790700  0.39533900  0.66884800  1
  Ni  Ni1  1  0.13675500  0.33115200  0.39533900  1
  Ni  Ni2  1  0.86324500  0.66884800  0.60466100  1
  Ni  Ni3  1  0.53209500  0.60466100  0.33115200  1
  Ni  Ni4  1  0.00000000  0.00000000  0.00000000  1
  Cu  Cu5  1  0.58899000  0.05342300  0.76859800  1
  Cu  Cu6  1  0.35758700  0.23140200  0.05342300  1
  Cu  Cu7  1  0.64241200  0.76859800  0.94657700  1
  Cu  Cu8  1  0.41101100  0.94657700  0.23140200  1
  Cu  Cu9  1  0.75257600  0.07830100  0.41654500  1
  Cu  Cu10  1  0.16912300  0.58345400  0.07830100  1
  Cu  Cu11  1  0.83087800  0.41654500  0.92169900  1
  Cu  Cu12  1  0.24742400  0.92169900  0.58345500  1
  C  C13  1  0.95988300  0.78928500  0.29094900  1
  C  C14  1  0.25083200  0.70905100  0.78928600  1
  C  C15  1  0.74916800  0.29094900  0.21071500  1
  C  C16  1  0.04011700  0.21071500  0.70905100  1
  C  C17  1  0.09951500  0.89009300  0.40650900  1
  C  C18  1  0.50602500  0.59349100  0.89009400  1
  C  C19  1  0.98960900  0.40650900  0.10990700  1
  C  C20  1  0.39611900  0.10990600  0.59349200  1
  C  C21  1  0.90048400  0.10990600  0.59349100  1
  C  C22  1  0.49397500  0.40650900  0.10990600  1
  C  C23  1  0.01039100  0.59349100  0.89009300  1
  C  C24  1  0.60388300  0.89009300  0.40650800  1
  C  C25  1  0.92953000  0.86879200  0.77443300  1
  C  C26  1  0.70396300  0.22556700  0.86879200  1
  C  C27  1  0.79832200  0.77443300  0.13120800  1
  C  C28  1  0.57275400  0.13120800  0.22556700  1
  C  C29  1  0.07047100  0.13120800  0.22556700  1
  C  C30  1  0.29603800  0.77443300  0.13120800  1
  C  C31  1  0.20167900  0.22556700  0.86879200  1
  C  C32  1  0.42724600  0.86879200  0.77443300  1
  C  C33  1  0.37590000  0.65842500  0.58977700  1
  C  C34  1  0.50000100  0.00000000  0.00000000  1
  C  C35  1  0.62410100  0.34157600  0.41022300  1
  C  C36  1  0.96567700  0.41022300  0.65842500  1
  C  C37  1  0.03432300  0.58977700  0.34157500  1
