# generated using pymatgen
data_Cu2Ni26C75
_symmetry_space_group_name_H-M   'P 1'
_cell_length_a   6.99159710
_cell_length_b   13.81818066
_cell_length_c   25.99447691
_cell_angle_alpha   90.00000000
_cell_angle_beta   89.95142788
_cell_angle_gamma   90.00000000
_symmetry_Int_Tables_number   1
_chemical_formula_structural   Cu2Ni26C75
_chemical_formula_sum   'Cu4 Ni52 C150'
_cell_volume   2511.35545249
_cell_formula_units_Z   2
loop_
 _symmetry_equiv_pos_site_id
 _symmetry_equiv_pos_as_xyz
  1  'x, y, z'
loop_
 _atom_site_type_symbol
 _atom_site_label
 _atom_site_symmetry_multiplicity
 _atom_site_fract_x
 _atom_site_fract_y
 _atom_site_fract_z
 _atom_site_occupancy
  C  C0  1  0.15717465  0.32432371  0.80365436  1
  C  C1  1  0.84282535  0.82432371  0.69634564  1
  C  C2  1  0.84282535  0.67567629  0.19634564  1
  C  C3  1  0.15717465  0.17567629  0.30365436  1
  C  C4  1  0.86387324  0.32689372  0.65274225  1
  C  C5  1  0.13612676  0.82689372  0.84725775  1
  C  C6  1  0.13612676  0.67310628  0.34725775  1
  C  C7  1  0.86387324  0.17310628  0.15274225  1
  C  C8  1  0.00000000  0.50000000  0.50000000  1
  C  C9  1  0.00000000  -0.00000000  0.00000000  1
  C  C10  1  0.81042117  0.52197666  0.91555847  1
  C  C11  1  0.18957883  0.02197666  0.58444153  1
  C  C12  1  0.18957883  0.47802334  0.08444153  1
  C  C13  1  0.81042117  0.97802334  0.41555847  1
  C  C14  1  0.48018005  0.56245759  0.72569558  1
  C  C15  1  0.51981995  0.06245759  0.77430442  1
  C  C16  1  0.51981995  0.43754241  0.27430442  1
  C  C17  1  0.48018005  0.93754241  0.22569558  1
  C  C18  1  0.67448601  0.21459966  0.90870084  1
  C  C19  1  0.32551399  0.71459966  0.59129916  1
  C  C20  1  0.32551399  0.78540034  0.09129916  1
  C  C21  1  0.67448601  0.28540034  0.40870084  1
  Ni  Ni22  1  0.01314065  0.57552930  0.73976027  1
  Ni  Ni23  1  0.98685935  0.07552930  0.76023973  1
  Ni  Ni24  1  0.98685935  0.42447070  0.26023973  1
  Ni  Ni25  1  0.01314065  0.92447070  0.23976027  1
  Ni  Ni26  1  0.80982885  0.65891951  0.80587301  1
  Ni  Ni27  1  0.19017115  0.15891951  0.69412699  1
  Ni  Ni28  1  0.19017115  0.34108049  0.19412699  1
  Ni  Ni29  1  0.80982885  0.84108049  0.30587301  1
  Ni  Ni30  1  0.01491601  0.07343574  0.85945460  1
  Ni  Ni31  1  0.98508399  0.57343574  0.64054540  1
  Ni  Ni32  1  0.98508399  0.92656426  0.14054540  1
  Ni  Ni33  1  0.01491601  0.42656426  0.35945460  1
  Ni  Ni34  1  0.30204356  0.47700742  0.60770204  1
  Ni  Ni35  1  0.69795644  0.97700742  0.89229796  1
  Ni  Ni36  1  0.69795644  0.52299258  0.39229796  1
  Ni  Ni37  1  0.30204356  0.02299258  0.10770204  1
  Ni  Ni38  1  0.48052585  0.65845716  0.85103151  1
  Ni  Ni39  1  0.51947415  0.15845716  0.64896849  1
  Ni  Ni40  1  0.51947415  0.34154284  0.14896849  1
  Ni  Ni41  1  0.48052585  0.84154284  0.35103151  1
  Ni  Ni42  1  0.66588710  0.53310185  0.59901041  1
  Ni  Ni43  1  0.33411290  0.03310185  0.90098959  1
  Ni  Ni44  1  0.33411290  0.46689815  0.40098959  1
  Ni  Ni45  1  0.66588710  0.96689815  0.09901041  1
  Ni  Ni46  1  0.51911896  0.39501918  0.54710954  1
  Ni  Ni47  1  0.48088104  0.89501918  0.95289046  1
  Ni  Ni48  1  0.48088104  0.60498082  0.45289046  1
  Ni  Ni49  1  0.51911896  0.10498082  0.04710954  1
  Ni  Ni50  1  0.32985002  0.31179962  0.65989801  1
  Ni  Ni51  1  0.67014998  0.81179962  0.84010199  1
  Ni  Ni52  1  0.67014998  0.68820038  0.34010199  1
  Ni  Ni53  1  0.32985002  0.18820038  0.15989801  1
  Ni  Ni54  1  0.34124535  0.52200099  0.90061857  1
  Ni  Ni55  1  0.65875465  0.02200099  0.59938143  1
  Ni  Ni56  1  0.65875465  0.47799901  0.09938143  1
  Ni  Ni57  1  0.34124535  0.97799901  0.40061857  1
  Ni  Ni58  1  0.14505050  0.58746412  0.82765053  1
  Ni  Ni59  1  0.85494950  0.08746412  0.67234947  1
  Ni  Ni60  1  0.85494950  0.41253588  0.17234947  1
  Ni  Ni61  1  0.14505050  0.91253588  0.32765053  1
  Ni  Ni62  1  0.15375621  0.19440411  0.92067061  1
  Ni  Ni63  1  0.84624379  0.69440411  0.57932939  1
  Ni  Ni64  1  0.84624379  0.80559589  0.07932939  1
  Ni  Ni65  1  0.15375621  0.30559589  0.42067061  1
  Ni  Ni66  1  0.26523125  0.36726366  0.94339621  1
  Ni  Ni67  1  0.73476875  0.86726366  0.55660379  1
  Ni  Ni68  1  0.73476875  0.63273634  0.05660379  1
  Ni  Ni69  1  0.26523125  0.13273634  0.44339621  1
  Ni  Ni70  1  0.99721080  0.29716980  0.99642497  1
  Ni  Ni71  1  0.00278920  0.79716980  0.50357503  1
  Ni  Ni72  1  0.00278920  0.70283020  0.00357503  1
  Ni  Ni73  1  0.99721080  0.20283020  0.49642497  1
  Cu  Cu74  1  0.66236082  0.34325774  0.79839592  1
  Cu  Cu75  1  0.33763918  0.84325774  0.70160408  1
  Cu  Cu76  1  0.33763918  0.65674226  0.20160408  1
  Cu  Cu77  1  0.66236082  0.15674226  0.29839592  1
  C  C78  1  0.88370967  0.77733533  0.94633725  1
  C  C79  1  0.11629033  0.27733533  0.55366275  1
  C  C80  1  0.11629033  0.22266467  0.05366275  1
  C  C81  1  0.88370967  0.72266467  0.44633725  1
  C  C82  1  0.72074873  0.33395149  0.01493217  1
  C  C83  1  0.27925127  0.83395149  0.48506783  1
  C  C84  1  0.27925127  0.66604851  0.98506783  1
  C  C85  1  0.72074873  0.16604851  0.51493217  1
  C  C86  1  0.41870399  0.20583223  0.00421341  1
  C  C87  1  0.58129601  0.70583223  0.49578659  1
  C  C88  1  0.58129601  0.79416777  0.99578659  1
  C  C89  1  0.41870399  0.29416777  0.50421341  1
  C  C90  1  0.47652469  0.26266643  0.63598444  1
  C  C91  1  0.52347531  0.76266643  0.86401556  1
  C  C92  1  0.52347531  0.73733357  0.36401556  1
  C  C93  1  0.47652469  0.23733357  0.13598444  1
  C  C94  1  0.07909079  0.56385099  0.69094967  1
  C  C95  1  0.92090921  0.06385099  0.80905033  1
  C  C96  1  0.92090921  0.43614901  0.30905033  1
  C  C97  1  0.07909079  0.93614901  0.19094967  1
  C  C98  1  0.21376054  0.26667956  0.69623095  1
  C  C99  1  0.78623946  0.76667956  0.80376905  1
  C  C100  1  0.78623946  0.73332044  0.30376905  1
  C  C101  1  0.21376054  0.23332044  0.19623095  1
  C  C102  1  0.85367404  0.63022081  0.75141423  1
  C  C103  1  0.14632596  0.13022081  0.74858577  1
  C  C104  1  0.14632596  0.36977919  0.24858577  1
  C  C105  1  0.85367404  0.86977919  0.25141423  1
  C  C106  1  0.96804364  0.63687855  0.84098173  1
  C  C107  1  0.03195636  0.13687855  0.65901827  1
  C  C108  1  0.03195636  0.36312145  0.15901827  1
  C  C109  1  0.96804364  0.86312145  0.34098173  1
  C  C110  1  0.04925237  0.17679959  0.87254095  1
  C  C111  1  0.95074763  0.67679959  0.62745905  1
  C  C112  1  0.95074763  0.82320041  0.12745905  1
  C  C113  1  0.04925237  0.32320041  0.37254095  1
  C  C114  1  0.63653586  0.61283576  0.82328735  1
  C  C115  1  0.36346414  0.11283576  0.67671265  1
  C  C116  1  0.36346414  0.38716424  0.17671265  1
  C  C117  1  0.63653586  0.88716424  0.32328735  1
  C  C118  1  0.45823355  0.60163489  0.90112137  1
  C  C119  1  0.54176645  0.10163489  0.59887863  1
  C  C120  1  0.54176645  0.39836511  0.09887863  1
  C  C121  1  0.45823355  0.89836511  0.40112137  1
  C  C122  1  0.18391570  0.51244865  0.86924275  1
  C  C123  1  0.81608430  0.01244865  0.63075725  1
  C  C124  1  0.81608430  0.48755135  0.13075725  1
  C  C125  1  0.18391570  0.98755135  0.36924275  1
  C  C126  1  0.33457397  0.42290191  0.55815219  1
  C  C127  1  0.66542603  0.92290191  0.94184781  1
  C  C128  1  0.66542603  0.57709809  0.44184781  1
  C  C129  1  0.33457397  0.07709809  0.05815219  1
  C  C130  1  0.80006923  0.52092045  0.64192917  1
  C  C131  1  0.19993077  0.02092045  0.85807083  1
  C  C132  1  0.19993077  0.47907955  0.35807083  1
  C  C133  1  0.80006923  0.97907955  0.14192917  1
  C  C134  1  0.53313339  0.04065127  0.88134029  1
  C  C135  1  0.46686661  0.54065127  0.61865971  1
  C  C136  1  0.46686661  0.95934873  0.11865971  1
  C  C137  1  0.53313339  0.45934873  0.38134029  1
  C  C138  1  0.71777993  0.61518580  0.56609116  1
  C  C139  1  0.28222007  0.11518580  0.93390884  1
  C  C140  1  0.28222007  0.38481420  0.43390884  1
  C  C141  1  0.71777993  0.88481420  0.06609116  1
  C  C142  1  0.54627354  0.18446946  0.01445591  1
  C  C143  1  0.45372646  0.68446946  0.48554409  1
  C  C144  1  0.45372646  0.81553054  0.98554409  1
  C  C145  1  0.54627354  0.31553054  0.51445591  1
  C  C146  1  0.27793610  0.40513575  0.64994855  1
  C  C147  1  0.72206390  0.90513575  0.85005145  1
  C  C148  1  0.72206390  0.59486425  0.35005145  1
  C  C149  1  0.27793610  0.09486425  0.14994855  1
  C  C150  1  0.12334416  0.53216110  0.60087663  1
  C  C151  1  0.87665584  0.03216110  0.89912337  1
  C  C152  1  0.87665584  0.46783890  0.39912337  1
  C  C153  1  0.12334416  0.96783890  0.10087663  1
  C  C154  1  0.77324219  0.37319355  0.84887503  1
  C  C155  1  0.22675781  0.87319355  0.65112497  1
  C  C156  1  0.22675781  0.62680645  0.15112497  1
  C  C157  1  0.77324219  0.12680645  0.34887503  1
  C  C158  1  0.27465355  0.28794767  0.91203168  1
  C  C159  1  0.72534645  0.78794767  0.58796832  1
  C  C160  1  0.72534645  0.71205233  0.08796832  1
  C  C161  1  0.27465355  0.21205233  0.41203168  1
  C  C162  1  0.30212476  0.65596101  0.82282755  1
  C  C163  1  0.69787524  0.15596101  0.67717245  1
  C  C164  1  0.69787524  0.34403899  0.17717245  1
  C  C165  1  0.30212476  0.84403899  0.32282755  1
  C  C166  1  0.67976088  0.05978753  0.06542122  1
  C  C167  1  0.32023912  0.55978753  0.43457878  1
  C  C168  1  0.32023912  0.94021247  0.93457878  1
  C  C169  1  0.67976088  0.44021247  0.56542122  1
  C  C170  1  0.12429744  0.53408989  0.77822877  1
  C  C171  1  0.87570256  0.03408989  0.72177123  1
  C  C172  1  0.87570256  0.46591011  0.22177123  1
  C  C173  1  0.12429744  0.96591011  0.27822877  1
  C  C174  1  0.38719164  0.44684619  0.93407471  1
  C  C175  1  0.61280836  0.94684619  0.56592529  1
  C  C176  1  0.61280836  0.55315381  0.06592529  1
  C  C177  1  0.38719164  0.05315381  0.43407471  1
  C  C178  1  0.57190122  0.24141801  0.80872809  1
  C  C179  1  0.42809878  0.74141801  0.69127191  1
  C  C180  1  0.42809878  0.75858199  0.19127191  1
  C  C181  1  0.57190122  0.25858199  0.30872809  1
  C  C182  1  0.81018677  0.34175314  0.75364267  1
  C  C183  1  0.18981323  0.84175314  0.74635733  1
  C  C184  1  0.18981323  0.65824686  0.24635733  1
  C  C185  1  0.81018677  0.15824686  0.25364267  1
  C  C186  1  0.49447270  0.41219290  0.78632559  1
  C  C187  1  0.50552730  0.91219290  0.71367441  1
  C  C188  1  0.50552730  0.58780710  0.21367441  1
  C  C189  1  0.49447270  0.08780710  0.28632559  1
  C  C190  1  0.01902886  0.21237511  0.96386203  1
  C  C191  1  0.98097114  0.71237511  0.53613797  1
  C  C192  1  0.98097114  0.78762489  0.03613797  1
  C  C193  1  0.01902886  0.28762489  0.46386203  1
  C  C194  1  0.14682205  0.37381131  0.98495264  1
  C  C195  1  0.85317795  0.87381131  0.51504736  1
  C  C196  1  0.85317795  0.62618869  0.01504736  1
  C  C197  1  0.14682205  0.12618869  0.48495264  1
  C  C198  1  0.98726462  0.73015835  0.94835806  1
  C  C199  1  0.01273538  0.23015835  0.55164194  1
  C  C200  1  0.01273538  0.26984165  0.05164194  1
  C  C201  1  0.98726462  0.76984165  0.44835806  1
  C  C202  1  0.81174562  0.34929991  0.98786853  1
  C  C203  1  0.18825438  0.84929991  0.51213147  1
  C  C204  1  0.18825438  0.65070009  0.01213147  1
  C  C205  1  0.81174562  0.15070009  0.48786853  1
