# generated using pymatgen
data_CuNiC3
_symmetry_space_group_name_H-M   'P 1'
_cell_length_a   5.67946391
_cell_length_b   5.67946391
_cell_length_c   13.10194900
_cell_angle_alpha   90.00000000
_cell_angle_beta   90.00000000
_cell_angle_gamma   119.99999895
_symmetry_Int_Tables_number   1
_chemical_formula_structural   CuNiC3
_chemical_formula_sum   'Cu6 Ni6 C18'
_cell_volume   366.00012121
_cell_formula_units_Z   6
loop_
 _symmetry_equiv_pos_site_id
 _symmetry_equiv_pos_as_xyz
  1  'x, y, z'
loop_
 _atom_site_type_symbol
 _atom_site_label
 _atom_site_symmetry_multiplicity
 _atom_site_fract_x
 _atom_site_fract_y
 _atom_site_fract_z
 _atom_site_occupancy
  Ni  Ni0  1  0.66666700  0.33333300  0.26609400  1
  Ni  Ni1  1  0.33333300  0.66666700  0.76609400  1
  Ni  Ni2  1  0.66666700  0.33333300  0.76609400  1
  Ni  Ni3  1  0.33333300  0.66666700  0.26609400  1
  Ni  Ni4  1  0.00000000  0.00000000  0.72990200  1
  Ni  Ni5  1  0.00000000  0.00000000  0.22990200  1
  Cu  Cu6  1  0.70323200  0.00000000  0.48394600  1
  Cu  Cu7  1  0.70323200  0.70323200  0.98394600  1
  Cu  Cu8  1  0.00000000  0.29676800  0.98394600  1
  Cu  Cu9  1  0.00000000  0.70323200  0.48394600  1
  Cu  Cu10  1  0.29676800  0.29676800  0.48394600  1
  Cu  Cu11  1  0.29676800  0.00000000  0.98394600  1
  C  C12  1  0.66666700  0.33333300  0.02714100  1
  C  C13  1  0.33333300  0.66666700  0.52714100  1
  C  C14  1  0.66666700  0.33333300  0.52714100  1
  C  C15  1  0.33333300  0.66666700  0.02714100  1
  C  C16  1  0.00000000  0.00000000  0.86428900  1
  C  C17  1  0.00000000  0.00000000  0.36428900  1
  C  C18  1  0.47346100  0.00000000  0.85179000  1
  C  C19  1  0.47346100  0.47346100  0.35179000  1
  C  C20  1  0.00000000  0.52653900  0.35179000  1
  C  C21  1  0.00000000  0.47346100  0.85179000  1
  C  C22  1  0.52653900  0.52653900  0.85179000  1
  C  C23  1  0.52653900  0.00000000  0.35179000  1
  C  C24  1  0.31561200  0.00000000  0.19571000  1
  C  C25  1  0.31561200  0.31561200  0.69571000  1
  C  C26  1  0.00000000  0.68438800  0.69571000  1
  C  C27  1  0.00000000  0.31561200  0.19571000  1
  C  C28  1  0.68438800  0.68438800  0.19571000  1
  C  C29  1  0.68438800  0.00000000  0.69571000  1
