# generated using pymatgen
data_CuNiC19
_symmetry_space_group_name_H-M   'P 1'
_cell_length_a   8.92409617
_cell_length_b   8.92409617
_cell_length_c   6.79166066
_cell_angle_alpha   72.33487679
_cell_angle_beta   72.33487679
_cell_angle_gamma   89.58480984
_symmetry_Int_Tables_number   1
_chemical_formula_structural   CuNiC19
_chemical_formula_sum   'Cu2 Ni2 C38'
_cell_volume   488.92912817
_cell_formula_units_Z   2
loop_
 _symmetry_equiv_pos_site_id
 _symmetry_equiv_pos_as_xyz
  1  'x, y, z'
loop_
 _atom_site_type_symbol
 _atom_site_label
 _atom_site_symmetry_multiplicity
 _atom_site_fract_x
 _atom_site_fract_y
 _atom_site_fract_z
 _atom_site_occupancy
  Ni  Ni0  1  0.95532200  0.04467800  0.75000000  1
  Ni  Ni1  1  0.04467800  0.95532200  0.25000000  1
  Cu  Cu2  1  0.28736700  0.71263300  0.75000000  1
  Cu  Cu3  1  0.71263300  0.28736700  0.25000000  1
  C  C4  1  0.38107900  0.05480900  0.86071500  1
  C  C5  1  0.94519100  0.61892100  0.63928500  1
  C  C6  1  0.61892100  0.94519100  0.13928500  1
  C  C7  1  0.05480900  0.38107900  0.36071500  1
  C  C8  1  0.68924800  0.31075200  0.75000000  1
  C  C9  1  0.31075200  0.68924800  0.25000000  1
  C  C10  1  0.68204100  0.89097300  0.61496900  1
  C  C11  1  0.10902700  0.31795900  0.88503100  1
  C  C12  1  0.31795900  0.10902700  0.38503100  1
  C  C13  1  0.89097300  0.68204100  0.11496900  1
  C  C14  1  0.37328700  0.37319300  0.80276200  1
  C  C15  1  0.62680700  0.62671300  0.69723800  1
  C  C16  1  0.62671300  0.62680700  0.19723800  1
  C  C17  1  0.37319300  0.37328700  0.30276200  1
  C  C18  1  0.28319800  0.80663300  0.04373200  1
  C  C19  1  0.19336700  0.71680200  0.45626800  1
  C  C20  1  0.71680200  0.19336700  0.95626800  1
  C  C21  1  0.80663300  0.28319800  0.54373200  1
  C  C22  1  0.51873400  0.28491700  0.74117500  1
  C  C23  1  0.71508300  0.48126600  0.75882500  1
  C  C24  1  0.48126600  0.71508300  0.25882500  1
  C  C25  1  0.28491700  0.51873400  0.24117500  1
  C  C26  1  0.32790400  0.99089000  0.59848800  1
  C  C27  1  0.00911000  0.67209600  0.90151200  1
  C  C28  1  0.67209600  0.00911000  0.40151200  1
  C  C29  1  0.99089000  0.32790400  0.09848800  1
  C  C30  1  0.26843700  0.42553600  0.84114000  1
  C  C31  1  0.57446400  0.73156300  0.65886000  1
  C  C32  1  0.73156300  0.57446400  0.15886000  1
  C  C33  1  0.42553600  0.26843700  0.34114000  1
  C  C34  1  0.61166900  0.95351500  0.80751100  1
  C  C35  1  0.04648500  0.38833100  0.69248900  1
  C  C36  1  0.38833100  0.04648500  0.19248900  1
  C  C37  1  0.95351500  0.61166900  0.30751100  1
  C  C38  1  0.15134900  0.14795800  0.90443200  1
  C  C39  1  0.85204200  0.84865100  0.59556800  1
  C  C40  1  0.84865100  0.85204200  0.09556800  1
  C  C41  1  0.14795800  0.15134900  0.40443200  1
