# generated using pymatgen
data_Cu2NiC5
_symmetry_space_group_name_H-M   'P 1'
_cell_length_a   5.22893097
_cell_length_b   5.22893097
_cell_length_c   11.35574100
_cell_angle_alpha   90.00000000
_cell_angle_beta   90.00000000
_cell_angle_gamma   138.36743142
_symmetry_Int_Tables_number   1
_chemical_formula_structural   Cu2NiC5
_chemical_formula_sum   'Cu4 Ni2 C10'
_cell_volume   206.27139430
_cell_formula_units_Z   2
loop_
 _symmetry_equiv_pos_site_id
 _symmetry_equiv_pos_as_xyz
  1  'x, y, z'
loop_
 _atom_site_type_symbol
 _atom_site_label
 _atom_site_symmetry_multiplicity
 _atom_site_fract_x
 _atom_site_fract_y
 _atom_site_fract_z
 _atom_site_occupancy
  Ni  Ni0  1  0.09961800  0.90038200  0.75000000  1
  Ni  Ni1  1  0.90038200  0.09961800  0.25000000  1
  Cu  Cu2  1  0.78759900  0.21240100  0.59847000  1
  Cu  Cu3  1  0.21240100  0.78759900  0.40153000  1
  Cu  Cu4  1  0.21240100  0.78759900  0.09847000  1
  Cu  Cu5  1  0.78759900  0.21240100  0.90153000  1
  C  C6  1  0.30008700  0.69991300  0.25000000  1
  C  C7  1  0.69991300  0.30008700  0.75000000  1
  C  C8  1  0.76045700  0.23954300  0.07940500  1
  C  C9  1  0.23954300  0.76045700  0.92059500  1
  C  C10  1  0.23954300  0.76045700  0.57940500  1
  C  C11  1  0.76045700  0.23954300  0.42059500  1
  C  C12  1  0.96137400  0.03862600  0.62337500  1
  C  C13  1  0.03862600  0.96137400  0.37662500  1
  C  C14  1  0.96137400  0.03862600  0.87662500  1
  C  C15  1  0.03862600  0.96137400  0.12337500  1
