# generated using pymatgen
data_Cu12Ni5C4
_symmetry_space_group_name_H-M   'P 1'
_cell_length_a   7.50399200
_cell_length_b   9.87483567
_cell_length_c   17.36787709
_cell_angle_alpha   104.99746001
_cell_angle_beta   90.12190294
_cell_angle_gamma   111.92491564
_symmetry_Int_Tables_number   1
_chemical_formula_structural   Cu12Ni5C4
_chemical_formula_sum   'Cu24 Ni10 C8'
_cell_volume   1146.19848277
_cell_formula_units_Z   2
loop_
 _symmetry_equiv_pos_site_id
 _symmetry_equiv_pos_as_xyz
  1  'x, y, z'
loop_
 _atom_site_type_symbol
 _atom_site_label
 _atom_site_symmetry_multiplicity
 _atom_site_fract_x
 _atom_site_fract_y
 _atom_site_fract_z
 _atom_site_occupancy
  C  C0  1  0.31260800  0.05964500  0.70198300  1
  C  C1  1  0.68739200  0.94035500  0.29801700  1
  C  C2  1  0.10140700  0.60788000  0.85466400  1
  C  C3  1  0.89859300  0.39212000  0.14533600  1
  C  C4  1  0.41740600  0.54022100  0.61265400  1
  C  C5  1  0.58259400  0.45977900  0.38734600  1
  C  C6  1  0.62462400  0.66057900  0.85683200  1
  C  C7  1  0.37537600  0.33942100  0.14316800  1
  Ni  Ni8  1  0.68314700  0.99187200  0.58249700  1
  Ni  Ni9  1  0.31685300  0.00812800  0.41750300  1
  Ni  Ni10  1  0.01777100  0.72634600  0.59724400  1
  Ni  Ni11  1  0.98222900  0.27365400  0.40275600  1
  Ni  Ni12  1  0.88446200  0.30181200  0.72998600  1
  Ni  Ni13  1  0.11553800  0.69818800  0.27001400  1
  Ni  Ni14  1  0.68758900  0.17984800  0.94751000  1
  Ni  Ni15  1  0.31241100  0.82015200  0.05249000  1
  Ni  Ni16  1  0.18471300  0.17719800  0.94212300  1
  Ni  Ni17  1  0.81528700  0.82280200  0.05787700  1
  Cu  Cu18  1  0.47158300  0.15418000  0.52190600  1
  Cu  Cu19  1  0.52841700  0.84582000  0.47809400  1
  Cu  Cu20  1  0.01213200  0.16200200  0.54555300  1
  Cu  Cu21  1  0.98786800  0.83799800  0.45444700  1
  Cu  Cu22  1  0.73051200  0.04113900  0.72150100  1
  Cu  Cu23  1  0.26948800  0.95886100  0.27849900  1
  Cu  Cu24  1  0.33036200  0.77047000  0.67282100  1
  Cu  Cu25  1  0.66963800  0.22953000  0.32717900  1
  Cu  Cu26  1  0.88197900  0.45879300  0.59270400  1
  Cu  Cu27  1  0.11802100  0.54120700  0.40729600  1
  Cu  Cu28  1  0.81043700  0.76884300  0.67068200  1
  Cu  Cu29  1  0.18956300  0.23115700  0.32931800  1
  Cu  Cu30  1  0.21046100  0.35416800  0.79813700  1
  Cu  Cu31  1  0.78953900  0.64583200  0.20186300  1
  Cu  Cu32  1  0.33742900  0.00624600  0.90801400  1
  Cu  Cu33  1  0.66257100  0.99375400  0.09198600  1
  Cu  Cu34  1  0.69342500  0.36054900  0.80325300  1
  Cu  Cu35  1  0.30657500  0.63945100  0.19674700  1
  Cu  Cu36  1  0.96189500  0.67162400  0.00798400  1
  Cu  Cu37  1  0.03810500  0.32837600  0.99201600  1
  Cu  Cu38  1  0.46995800  0.66191900  0.01685200  1
  Cu  Cu39  1  0.53004200  0.33808100  0.98314800  1
  Cu  Cu40  1  0.17035400  0.99443000  0.08759200  1
  Cu  Cu41  1  0.82964600  0.00557000  0.91240800  1
