# generated using pymatgen
data_Cu3NiC16
_symmetry_space_group_name_H-M   'P 1'
_cell_length_a   7.74918200
_cell_length_b   5.43699100
_cell_length_c   5.69207704
_cell_angle_alpha   89.32925465
_cell_angle_beta   90.00000000
_cell_angle_gamma   90.00000000
_symmetry_Int_Tables_number   1
_chemical_formula_structural   Cu3NiC16
_chemical_formula_sum   'Cu3 Ni1 C16'
_cell_volume   239.80348166
_cell_formula_units_Z   1
loop_
 _symmetry_equiv_pos_site_id
 _symmetry_equiv_pos_as_xyz
  1  'x, y, z'
loop_
 _atom_site_type_symbol
 _atom_site_label
 _atom_site_symmetry_multiplicity
 _atom_site_fract_x
 _atom_site_fract_y
 _atom_site_fract_z
 _atom_site_occupancy
  Ni  Ni0  1  0.50000000  0.48845700  0.55766400  1
  Cu  Cu1  1  0.50000000  0.01319000  0.06008900  1
  Cu  Cu2  1  0.00000000  0.51458900  0.44007700  1
  Cu  Cu3  1  0.00000000  0.98684400  0.94015100  1
  C  C4  1  0.25360000  0.00187000  0.50135900  1
  C  C5  1  0.74730000  0.49903800  0.99798800  1
  C  C6  1  0.74640000  0.00187000  0.50135900  1
  C  C7  1  0.25270000  0.49903800  0.99798800  1
  C  C8  1  0.50000000  0.58602600  0.97246700  1
  C  C9  1  0.50000000  0.91277900  0.47690400  1
  C  C10  1  0.00000000  0.41658400  0.02108200  1
  C  C11  1  0.00000000  0.08432300  0.51738800  1
  C  C12  1  0.79877100  0.71042400  0.70509900  1
  C  C13  1  0.20587700  0.78655800  0.19697100  1
  C  C14  1  0.29494600  0.29375200  0.29752200  1
  C  C15  1  0.71051100  0.20696400  0.80815100  1
  C  C16  1  0.70505400  0.29375200  0.29752200  1
  C  C17  1  0.28948900  0.20696400  0.80815100  1
  C  C18  1  0.20122900  0.71042400  0.70509900  1
  C  C19  1  0.79412300  0.78655800  0.19697100  1
