# generated using pymatgen
data_Cu14Ni2C15
_symmetry_space_group_name_H-M   'P 1'
_cell_length_a   12.26161300
_cell_length_b   7.95641800
_cell_length_c   9.57380063
_cell_angle_alpha   67.61131968
_cell_angle_beta   90.00000000
_cell_angle_gamma   90.00000000
_symmetry_Int_Tables_number   1
_chemical_formula_structural   Cu14Ni2C15
_chemical_formula_sum   'Cu28 Ni4 C30'
_cell_volume   863.60166291
_cell_formula_units_Z   2
loop_
 _symmetry_equiv_pos_site_id
 _symmetry_equiv_pos_as_xyz
  1  'x, y, z'
loop_
 _atom_site_type_symbol
 _atom_site_label
 _atom_site_symmetry_multiplicity
 _atom_site_fract_x
 _atom_site_fract_y
 _atom_site_fract_z
 _atom_site_occupancy
  C  C0  1  0.68114600  0.35468300  0.83797100  1
  C  C1  1  0.18114600  0.64531700  0.66202900  1
  C  C2  1  0.31885400  0.64531700  0.16202900  1
  C  C3  1  0.81885400  0.35468300  0.33797100  1
  C  C4  1  0.50000000  0.00000000  0.50000000  1
  C  C5  1  0.00000000  0.00000000  0.00000000  1
  C  C6  1  0.13800300  0.13837900  0.75586100  1
  C  C7  1  0.20394300  0.30138800  0.96780700  1
  C  C8  1  0.63800300  0.86162100  0.74413900  1
  C  C9  1  0.89618300  0.96518800  0.64334300  1
  C  C10  1  0.96447300  0.64089600  0.85275200  1
  C  C11  1  0.39618300  0.03481200  0.85665700  1
  C  C12  1  0.01932500  0.55500900  0.14225700  1
  C  C13  1  0.53552700  0.64089600  0.35275200  1
  C  C14  1  0.48067500  0.55500900  0.64225700  1
  C  C15  1  0.03552700  0.35910400  0.14724800  1
  C  C16  1  0.78082500  0.05177700  0.61760800  1
  C  C17  1  0.71917500  0.05177700  0.11760800  1
  C  C18  1  0.70394300  0.69861200  0.53219300  1
  C  C19  1  0.51932500  0.44499100  0.35774300  1
  C  C20  1  0.36199700  0.13837900  0.25586100  1
  C  C21  1  0.98067500  0.44499100  0.85774300  1
  C  C22  1  0.10381700  0.03481200  0.35665700  1
  C  C23  1  0.60381700  0.96518800  0.14334300  1
  C  C24  1  0.21917500  0.94822300  0.38239200  1
  C  C25  1  0.46447300  0.35910400  0.64724800  1
  C  C26  1  0.29605700  0.30138800  0.46780700  1
  C  C27  1  0.86199700  0.86162100  0.24413900  1
  C  C28  1  0.79605700  0.69861200  0.03219300  1
  C  C29  1  0.28082500  0.94822300  0.88239200  1
  Ni  Ni30  1  0.12035800  0.32338100  0.51232200  1
  Ni  Ni31  1  0.37964200  0.32338100  0.01232200  1
  Ni  Ni32  1  0.87964200  0.67661900  0.48767800  1
  Ni  Ni33  1  0.62035800  0.67661900  0.98767800  1
  Cu  Cu34  1  0.97160800  0.57258400  0.78586900  1
  Cu  Cu35  1  0.14083300  0.91984100  0.37537700  1
  Cu  Cu36  1  0.02839200  0.42741600  0.21413100  1
  Cu  Cu37  1  0.50007100  0.76038500  0.48038600  1
  Cu  Cu38  1  0.38821500  0.77966400  0.42115500  1
  Cu  Cu39  1  0.87219200  0.72607300  0.30473900  1
  Cu  Cu40  1  0.12780800  0.27392700  0.69526100  1
  Cu  Cu41  1  0.62780800  0.72607300  0.80473900  1
  Cu  Cu42  1  0.64083300  0.08015900  0.12462300  1
  Cu  Cu43  1  0.85462800  0.03985900  0.08728600  1
  Cu  Cu44  1  0.85916700  0.08015900  0.62462300  1
  Cu  Cu45  1  0.35462800  0.96014100  0.41271400  1
  Cu  Cu46  1  0.61178500  0.22033600  0.57884500  1
  Cu  Cu47  1  0.47160800  0.42741600  0.71413100  1
  Cu  Cu48  1  0.35916700  0.91984100  0.87537700  1
  Cu  Cu49  1  0.00007100  0.23961500  0.01961400  1
  Cu  Cu50  1  0.25403300  0.40297200  0.95282300  1
  Cu  Cu51  1  0.99992900  0.76038500  0.98038600  1
  Cu  Cu52  1  0.75403300  0.59702800  0.54717700  1
  Cu  Cu53  1  0.37219200  0.27392700  0.19526100  1
  Cu  Cu54  1  0.24596700  0.40297200  0.45282200  1
  Cu  Cu55  1  0.52839200  0.57258400  0.28586900  1
  Cu  Cu56  1  0.14537200  0.96014100  0.91271400  1
  Cu  Cu57  1  0.74596700  0.59702800  0.04717700  1
  Cu  Cu58  1  0.11178500  0.77966400  0.92115500  1
  Cu  Cu59  1  0.64537200  0.03985900  0.58728600  1
  Cu  Cu60  1  0.49992900  0.23961500  0.51961400  1
  Cu  Cu61  1  0.88821500  0.22033600  0.07884500  1
