# generated using pymatgen
data_Cu6Ni3C43
_symmetry_space_group_name_H-M   'P 1'
_cell_length_a   11.70030803
_cell_length_b   11.70030803
_cell_length_c   11.70030774
_cell_angle_alpha   98.41423743
_cell_angle_beta   98.41423743
_cell_angle_gamma   98.41423529
_symmetry_Int_Tables_number   1
_chemical_formula_structural   Cu6Ni3C43
_chemical_formula_sum   'Cu12 Ni6 C86'
_cell_volume   1544.24397852
_cell_formula_units_Z   2
loop_
 _symmetry_equiv_pos_site_id
 _symmetry_equiv_pos_as_xyz
  1  'x, y, z'
loop_
 _atom_site_type_symbol
 _atom_site_label
 _atom_site_symmetry_multiplicity
 _atom_site_fract_x
 _atom_site_fract_y
 _atom_site_fract_z
 _atom_site_occupancy
  Ni  Ni0  1  0.75000000  0.91991000  0.58009000  1
  Ni  Ni1  1  0.58009000  0.75000000  0.91991000  1
  Ni  Ni2  1  0.91991000  0.58009000  0.75000000  1
  Ni  Ni3  1  0.08009000  0.41991000  0.25000000  1
  Ni  Ni4  1  0.25000000  0.08009000  0.41991000  1
  Ni  Ni5  1  0.41991000  0.25000000  0.08009000  1
  C  C6  1  0.00000000  0.00000000  0.00000000  1
  C  C7  1  0.50000000  0.50000000  0.50000000  1
  Cu  Cu8  1  0.82302400  0.19933100  0.96788700  1
  Cu  Cu9  1  0.96788700  0.82302400  0.19933100  1
  Cu  Cu10  1  0.19933100  0.96788700  0.82302400  1
  Cu  Cu11  1  0.46788700  0.69933100  0.32302400  1
  Cu  Cu12  1  0.32302400  0.46788700  0.69933100  1
  Cu  Cu13  1  0.69933100  0.32302400  0.46788700  1
  Cu  Cu14  1  0.17697600  0.80066900  0.03211300  1
  Cu  Cu15  1  0.03211300  0.17697600  0.80066900  1
  Cu  Cu16  1  0.80066900  0.03211300  0.17697600  1
  Cu  Cu17  1  0.53211300  0.30066900  0.67697600  1
  Cu  Cu18  1  0.67697600  0.53211300  0.30066900  1
  Cu  Cu19  1  0.30066900  0.67697600  0.53211300  1
  C  C20  1  0.83193900  0.00718700  0.98295100  1
  C  C21  1  0.98295100  0.83193900  0.00718700  1
  C  C22  1  0.00718700  0.98295100  0.83193900  1
  C  C23  1  0.48295100  0.50718700  0.33193900  1
  C  C24  1  0.33193900  0.48295100  0.50718700  1
  C  C25  1  0.50718700  0.33193900  0.48295100  1
  C  C26  1  0.16806100  0.99281300  0.01704900  1
  C  C27  1  0.01704900  0.16806100  0.99281300  1
  C  C28  1  0.99281300  0.01704900  0.16806100  1
  C  C29  1  0.51704900  0.49281300  0.66806100  1
  C  C30  1  0.66806100  0.51704900  0.49281300  1
  C  C31  1  0.49281300  0.66806100  0.51704900  1
  C  C32  1  0.86291200  0.15876800  0.81265800  1
  C  C33  1  0.81265800  0.86291200  0.15876800  1
  C  C34  1  0.15876800  0.81265800  0.86291200  1
  C  C35  1  0.31265800  0.65876800  0.36291200  1
  C  C36  1  0.36291200  0.31265800  0.65876800  1
  C  C37  1  0.65876800  0.36291200  0.31265800  1
  C  C38  1  0.13708800  0.84123200  0.18734200  1
  C  C39  1  0.18734200  0.13708800  0.84123200  1
  C  C40  1  0.84123200  0.18734200  0.13708800  1
  C  C41  1  0.68734200  0.34123200  0.63708800  1
  C  C42  1  0.63708800  0.68734200  0.34123200  1
  C  C43  1  0.34123200  0.63708800  0.68734200  1
  C  C44  1  0.67218000  0.16787200  0.93196300  1
  C  C45  1  0.93196300  0.67218000  0.16787200  1
  C  C46  1  0.16787200  0.93196300  0.67218000  1
  C  C47  1  0.43196300  0.66787200  0.17218000  1
  C  C48  1  0.17218000  0.43196300  0.66787200  1
  C  C49  1  0.66787200  0.17218000  0.43196300  1
  C  C50  1  0.32782000  0.83212800  0.06803700  1
  C  C51  1  0.06803700  0.32782000  0.83212800  1
  C  C52  1  0.83212800  0.06803700  0.32782000  1
  C  C53  1  0.56803700  0.33212800  0.82782000  1
  C  C54  1  0.82782000  0.56803700  0.33212800  1
  C  C55  1  0.33212800  0.82782000  0.56803700  1
  C  C56  1  0.86192500  0.35402300  0.99081200  1
  C  C57  1  0.99081200  0.86192500  0.35402300  1
  C  C58  1  0.35402300  0.99081200  0.86192500  1
  C  C59  1  0.49081200  0.85402300  0.36192500  1
  C  C60  1  0.36192500  0.49081200  0.85402300  1
  C  C61  1  0.85402300  0.36192500  0.49081200  1
  C  C62  1  0.13807500  0.64597700  0.00918800  1
  C  C63  1  0.00918800  0.13807500  0.64597700  1
  C  C64  1  0.64597700  0.00918800  0.13807500  1
  C  C65  1  0.50918800  0.14597700  0.63807500  1
  C  C66  1  0.63807500  0.50918800  0.14597700  1
  C  C67  1  0.14597700  0.63807500  0.50918800  1
  C  C68  1  0.65111000  0.82177500  0.64818200  1
  C  C69  1  0.64818200  0.65111000  0.82177500  1
  C  C70  1  0.82177500  0.64818200  0.65111000  1
  C  C71  1  0.14818200  0.32177500  0.15111000  1
  C  C72  1  0.15111000  0.14818200  0.32177500  1
  C  C73  1  0.32177500  0.15111000  0.14818200  1
  C  C74  1  0.34889000  0.17822500  0.35181800  1
  C  C75  1  0.35181800  0.34889000  0.17822500  1
  C  C76  1  0.17822500  0.35181800  0.34889000  1
  C  C77  1  0.85181800  0.67822500  0.84889000  1
  C  C78  1  0.84889000  0.85181800  0.67822500  1
  C  C79  1  0.67822500  0.84889000  0.85181800  1
  C  C80  1  0.79774400  0.81202500  0.47715100  1
  C  C81  1  0.47715100  0.79774400  0.81202500  1
  C  C82  1  0.81202500  0.47715100  0.79774400  1
  C  C83  1  0.97715100  0.31202500  0.29774400  1
  C  C84  1  0.29774400  0.97715100  0.31202500  1
  C  C85  1  0.31202500  0.29774400  0.97715100  1
  C  C86  1  0.20225600  0.18797500  0.52284900  1
  C  C87  1  0.52284900  0.20225600  0.18797500  1
  C  C88  1  0.18797500  0.52284900  0.20225600  1
  C  C89  1  0.02284900  0.68797500  0.70225600  1
  C  C90  1  0.70225600  0.02284900  0.68797500  1
  C  C91  1  0.68797500  0.70225600  0.02284900  1
  C  C92  1  0.63858400  0.97214000  0.48281900  1
  C  C93  1  0.48281900  0.63858400  0.97214000  1
  C  C94  1  0.97214000  0.48281900  0.63858400  1
  C  C95  1  0.98281900  0.47214000  0.13858400  1
  C  C96  1  0.13858400  0.98281900  0.47214000  1
  C  C97  1  0.47214000  0.13858400  0.98281900  1
  C  C98  1  0.36141600  0.02786000  0.51718100  1
  C  C99  1  0.51718100  0.36141600  0.02786000  1
  C  C100  1  0.02786000  0.51718100  0.36141600  1
  C  C101  1  0.01718100  0.52786000  0.86141600  1
  C  C102  1  0.86141600  0.01718100  0.52786000  1
  C  C103  1  0.52786000  0.86141600  0.01718100  1
