# generated using pymatgen
data_Cu4Ni2C9
_symmetry_space_group_name_H-M   'P 1'
_cell_length_a   7.83688900
_cell_length_b   10.18344283
_cell_length_c   10.37658468
_cell_angle_alpha   93.40981959
_cell_angle_beta   90.00000000
_cell_angle_gamma   90.00000000
_symmetry_Int_Tables_number   1
_chemical_formula_structural   Cu4Ni2C9
_chemical_formula_sum   'Cu16 Ni8 C36'
_cell_volume   826.65295847
_cell_formula_units_Z   4
loop_
 _symmetry_equiv_pos_site_id
 _symmetry_equiv_pos_as_xyz
  1  'x, y, z'
loop_
 _atom_site_type_symbol
 _atom_site_label
 _atom_site_symmetry_multiplicity
 _atom_site_fract_x
 _atom_site_fract_y
 _atom_site_fract_z
 _atom_site_occupancy
  C  C0  1  0.77722200  0.92760500  0.89314000  1
  C  C1  1  0.72277800  0.42760500  0.39314000  1
  C  C2  1  0.22277800  0.07239500  0.10686000  1
  C  C3  1  0.27722200  0.57239500  0.60686000  1
  C  C4  1  0.99435100  0.27514900  0.77258300  1
  C  C5  1  0.50564900  0.77514900  0.27258300  1
  C  C6  1  0.00564900  0.72485100  0.22741700  1
  C  C7  1  0.49435100  0.22485100  0.72741700  1
  Ni  Ni8  1  0.74445900  0.08393500  0.20931800  1
  Ni  Ni9  1  0.75554100  0.58393500  0.70931800  1
  Ni  Ni10  1  0.25554100  0.91606500  0.79068200  1
  Ni  Ni11  1  0.24445900  0.41606500  0.29068200  1
  Ni  Ni12  1  0.75370800  0.24284200  0.07325700  1
  Ni  Ni13  1  0.74629200  0.74284200  0.57325700  1
  Ni  Ni14  1  0.24629200  0.75715800  0.92674300  1
  Ni  Ni15  1  0.25370800  0.25715800  0.42674300  1
  Cu  Cu16  1  0.95650700  0.14740900  0.34609700  1
  Cu  Cu17  1  0.54349300  0.64740900  0.84609700  1
  Cu  Cu18  1  0.04349300  0.85259100  0.65390300  1
  Cu  Cu19  1  0.45650700  0.35259100  0.15390300  1
  Cu  Cu20  1  0.98962400  0.34881000  0.14239200  1
  Cu  Cu21  1  0.51037600  0.84881000  0.64239200  1
  Cu  Cu22  1  0.01037600  0.65119000  0.85760800  1
  Cu  Cu23  1  0.48962400  0.15119000  0.35760800  1
  Cu  Cu24  1  0.30414700  0.47190900  0.88293200  1
  Cu  Cu25  1  0.19585300  0.97190900  0.38293200  1
  Cu  Cu26  1  0.69585300  0.52809100  0.11706800  1
  Cu  Cu27  1  0.80414700  0.02809100  0.61706800  1
  Cu  Cu28  1  0.28035500  0.36290400  0.97890900  1
  Cu  Cu29  1  0.21964500  0.86290400  0.47890900  1
  Cu  Cu30  1  0.71964500  0.63709600  0.02109100  1
  Cu  Cu31  1  0.78035500  0.13709600  0.52109100  1
  C  C32  1  0.85452200  0.97129200  0.15587400  1
  C  C33  1  0.64547800  0.47129200  0.65587400  1
  C  C34  1  0.14547800  0.02870800  0.84412600  1
  C  C35  1  0.35452200  0.52870800  0.34412600  1
  C  C36  1  0.55762900  0.05701200  0.23990800  1
  C  C37  1  0.94237100  0.55701200  0.73990800  1
  C  C38  1  0.44237100  0.94298800  0.76009200  1
  C  C39  1  0.05762900  0.44298800  0.26009200  1
  C  C40  1  0.82521300  0.15254400  0.34067600  1
  C  C41  1  0.67478700  0.65254400  0.84067600  1
  C  C42  1  0.17478700  0.84745600  0.65932400  1
  C  C43  1  0.32521300  0.34745600  0.15932400  1
  C  C44  1  0.70456600  0.18795900  0.94013400  1
  C  C45  1  0.79543400  0.68795900  0.44013400  1
  C  C46  1  0.29543400  0.81204100  0.05986600  1
  C  C47  1  0.20456600  0.31204100  0.55986600  1
  C  C48  1  0.65196400  0.35925900  0.13538000  1
  C  C49  1  0.84803600  0.85925900  0.63538000  1
  C  C50  1  0.34803600  0.64074100  0.86462000  1
  C  C51  1  0.15196400  0.14074100  0.36462000  1
  C  C52  1  0.95202400  0.28345100  0.06869700  1
  C  C53  1  0.54797600  0.78345100  0.56869700  1
  C  C54  1  0.04797600  0.71654900  0.93130300  1
  C  C55  1  0.45202400  0.21654900  0.43130300  1
  C  C56  1  0.28238600  0.37645900  0.88585400  1
  C  C57  1  0.21761400  0.87645900  0.38585400  1
  C  C58  1  0.71761400  0.62354100  0.11414600  1
  C  C59  1  0.78238600  0.12354100  0.61414600  1
