# generated using pymatgen
data_CuNiC11
_symmetry_space_group_name_H-M   'P 1'
_cell_length_a   13.18829166
_cell_length_b   13.18829166
_cell_length_c   13.18829166
_cell_angle_alpha   148.10669023
_cell_angle_beta   121.63015252
_cell_angle_gamma   68.07037650
_symmetry_Int_Tables_number   1
_chemical_formula_structural   CuNiC11
_chemical_formula_sum   'Cu4 Ni4 C44'
_cell_volume   1018.67498019
_cell_formula_units_Z   4
loop_
 _symmetry_equiv_pos_site_id
 _symmetry_equiv_pos_as_xyz
  1  'x, y, z'
loop_
 _atom_site_type_symbol
 _atom_site_label
 _atom_site_symmetry_multiplicity
 _atom_site_fract_x
 _atom_site_fract_y
 _atom_site_fract_z
 _atom_site_occupancy
  C  C0  1  0.24305300  0.68941700  0.61546800  1
  C  C1  1  0.57394900  0.62758500  0.88453200  1
  C  C2  1  0.92605100  0.81058300  0.05363600  1
  C  C3  1  0.25694700  0.87241500  0.44636400  1
  C  C4  1  0.75694700  0.31058300  0.38453200  1
  C  C5  1  0.42605100  0.37241500  0.11546800  1
  C  C6  1  0.07394900  0.18941700  0.94636400  1
  C  C7  1  0.74305300  0.12758500  0.55363600  1
  Ni  Ni8  1  0.83883400  0.75000000  0.58883400  1
  Ni  Ni9  1  0.66116600  0.25000000  0.91116600  1
  Ni  Ni10  1  0.16116600  0.25000000  0.41116600  1
  Ni  Ni11  1  0.33883400  0.75000000  0.08883400  1
  Cu  Cu12  1  0.07335600  0.75000000  0.82335600  1
  Cu  Cu13  1  0.42664400  0.25000000  0.67664400  1
  Cu  Cu14  1  0.92664400  0.25000000  0.17664400  1
  Cu  Cu15  1  0.57335600  0.75000000  0.32335600  1
  C  C16  1  0.90600400  0.65600400  0.25000000  1
  C  C17  1  0.59399600  0.84399600  0.75000000  1
  C  C18  1  0.09399600  0.34399600  0.75000000  1
  C  C19  1  0.40600400  0.15600400  0.25000000  1
  C  C20  1  0.15561200  0.58872000  0.72831600  1
  C  C21  1  0.36040300  0.42729600  0.77168400  1
  C  C22  1  0.13959700  0.91128000  0.06689200  1
  C  C23  1  0.34438800  0.07270400  0.43310800  1
  C  C24  1  0.84438800  0.41128000  0.27168400  1
  C  C25  1  0.63959700  0.57270400  0.22831600  1
  C  C26  1  0.86040300  0.08872000  0.93310800  1
  C  C27  1  0.65561200  0.92729600  0.56689200  1
  C  C28  1  0.94292800  0.67346600  0.72824600  1
  C  C29  1  0.44522000  0.21468100  0.77175400  1
  C  C30  1  0.05478000  0.82653400  0.76946200  1
  C  C31  1  0.55707200  0.28531900  0.73053800  1
  C  C32  1  0.05707200  0.32653400  0.27175400  1
  C  C33  1  0.55478000  0.78531900  0.22824600  1
  C  C34  1  0.94522000  0.17346600  0.23053800  1
  C  C35  1  0.44292800  0.71468100  0.26946200  1
  C  C36  1  0.89491100  0.80775100  0.48513900  1
  C  C37  1  0.82261200  0.40977200  0.01486100  1
  C  C38  1  0.67738800  0.69224900  0.58716000  1
  C  C39  1  0.60508900  0.09022800  0.91284000  1
  C  C40  1  0.10508900  0.19224900  0.51486100  1
  C  C41  1  0.17738800  0.59022800  0.98513900  1
  C  C42  1  0.32261200  0.30775100  0.41284000  1
  C  C43  1  0.39491100  0.90977200  0.08716000  1
  C  C44  1  0.84422800  0.76740500  0.20449400  1
  C  C45  1  0.06291100  0.63973400  0.29550600  1
  C  C46  1  0.43708900  0.73259500  0.57682300  1
  C  C47  1  0.65577200  0.86026600  0.92317700  1
  C  C48  1  0.15577200  0.23259500  0.79550600  1
  C  C49  1  0.93708900  0.36026600  0.70449400  1
  C  C50  1  0.56291100  0.26740500  0.42317700  1
  C  C51  1  0.34422800  0.13973400  0.07682300  1
