# generated using pymatgen
data_CuNi2C25
_symmetry_space_group_name_H-M   'P 1'
_cell_length_a   5.50842400
_cell_length_b   6.94513800
_cell_length_c   9.53835345
_cell_angle_alpha   90.00148917
_cell_angle_beta   90.01749205
_cell_angle_gamma   90.00177370
_symmetry_Int_Tables_number   1
_chemical_formula_structural   CuNi2C25
_chemical_formula_sum   'Cu1 Ni2 C25'
_cell_volume   364.90652771
_cell_formula_units_Z   1
loop_
 _symmetry_equiv_pos_site_id
 _symmetry_equiv_pos_as_xyz
  1  'x, y, z'
loop_
 _atom_site_type_symbol
 _atom_site_label
 _atom_site_symmetry_multiplicity
 _atom_site_fract_x
 _atom_site_fract_y
 _atom_site_fract_z
 _atom_site_occupancy
  Ni  Ni0  1  0.99999500  0.50011500  0.99940700  1
  Ni  Ni1  1  0.50006100  0.50021300  0.50061000  1
  Cu  Cu2  1  0.99786300  0.15839000  0.33284500  1
  C  C3  1  0.50340900  0.16529900  0.83384800  1
  C  C4  1  0.50024800  0.83394900  0.16538100  1
  C  C5  1  0.99970800  0.83460300  0.66789100  1
  C  C6  1  0.99977300  0.99985900  0.99798800  1
  C  C7  1  0.50028700  0.99961500  0.50210300  1
  C  C8  1  0.00028100  0.72918800  0.33345400  1
  C  C9  1  0.49972900  0.72629400  0.83321700  1
  C  C10  1  0.50141400  0.27330000  0.16377000  1
  C  C11  1  0.99839100  0.27317100  0.66954100  1
  C  C12  1  0.00081800  0.49708300  0.33338400  1
  C  C13  1  0.49934900  0.49252800  0.83328100  1
  C  C14  1  0.49950200  0.50719900  0.16579300  1
  C  C15  1  0.00040900  0.50703000  0.66750300  1
  C  C16  1  0.20660600  0.82396500  0.44046500  1
  C  C17  1  0.70619300  0.82107000  0.93985100  1
  C  C18  1  0.73657100  0.82259600  0.38365300  1
  C  C19  1  0.23671700  0.82228900  0.88261500  1
  C  C20  1  0.05674800  0.82366500  0.17656200  1
  C  C21  1  0.55735100  0.82119000  0.67686500  1
  C  C22  1  0.28737500  0.17792900  0.06277100  1
  C  C23  1  0.78228100  0.17787100  0.57034700  1
  C  C24  1  0.75645300  0.17882100  0.10323500  1
  C  C25  1  0.25833600  0.17688300  0.61534800  1
  C  C26  1  0.46613700  0.17758900  0.32224500  1
  C  C27  1  0.94799200  0.17829600  0.82602900  1
