# generated using pymatgen
data_Cu3Ni2
_symmetry_space_group_name_H-M   'P 1'
_cell_length_a   3.99897200
_cell_length_b   4.39672474
_cell_length_c   4.39672474
_cell_angle_alpha   119.20879819
_cell_angle_beta   90.00000000
_cell_angle_gamma   90.00000000
_symmetry_Int_Tables_number   1
_chemical_formula_structural   Cu3Ni2
_chemical_formula_sum   'Cu6 Ni4'
_cell_volume   67.47534548
_cell_formula_units_Z   2
loop_
 _symmetry_equiv_pos_site_id
 _symmetry_equiv_pos_as_xyz
  1  'x, y, z'
loop_
 _atom_site_type_symbol
 _atom_site_label
 _atom_site_symmetry_multiplicity
 _atom_site_fract_x
 _atom_site_fract_y
 _atom_site_fract_z
 _atom_site_occupancy
  Ni  Ni0  1  0.49798000  0.00670800  0.66961800  1
  Ni  Ni1  1  0.49798000  0.66961800  0.00670800  1
  Ni  Ni2  1  0.99798000  0.99329200  0.33038200  1
  Ni  Ni3  1  0.99798000  0.33038200  0.99329200  1
  Cu  Cu4  1  0.13730500  0.05627300  0.66925700  1
  Cu  Cu5  1  0.13730500  0.66925700  0.05627300  1
  Cu  Cu6  1  0.63730500  0.94372700  0.33074300  1
  Cu  Cu7  1  0.63730500  0.33074300  0.94372700  1
  Cu  Cu8  1  0.09143000  0.28994200  0.28994200  1
  Cu  Cu9  1  0.59143000  0.71005800  0.71005800  1
