# generated using pymatgen
data_CuNiC6
_symmetry_space_group_name_H-M   'P 1'
_cell_length_a   5.25492300
_cell_length_b   10.04216000
_cell_length_c   14.96318700
_cell_angle_alpha   90.00000000
_cell_angle_beta   90.00000000
_cell_angle_gamma   90.00000000
_symmetry_Int_Tables_number   1
_chemical_formula_structural   CuNiC6
_chemical_formula_sum   'Cu8 Ni8 C48'
_cell_volume   789.61901267
_cell_formula_units_Z   8
loop_
 _symmetry_equiv_pos_site_id
 _symmetry_equiv_pos_as_xyz
  1  'x, y, z'
loop_
 _atom_site_type_symbol
 _atom_site_label
 _atom_site_symmetry_multiplicity
 _atom_site_fract_x
 _atom_site_fract_y
 _atom_site_fract_z
 _atom_site_occupancy
  C  C0  1  0.51770200  0.37188600  0.56141100  1
  C  C1  1  0.01770200  0.12811400  0.56141100  1
  C  C2  1  0.01770200  0.62811400  0.93858900  1
  C  C3  1  0.98229800  0.37188600  0.06141100  1
  C  C4  1  0.48229800  0.12811400  0.06141100  1
  C  C5  1  0.98229800  0.87188600  0.43858900  1
  C  C6  1  0.48229800  0.62811400  0.43858900  1
  C  C7  1  0.51770200  0.87188600  0.93858900  1
  Ni  Ni8  1  0.03836000  0.40262800  0.42593700  1
  Ni  Ni9  1  0.46164000  0.90262800  0.57406300  1
  Ni  Ni10  1  0.96164000  0.59737200  0.57406300  1
  Ni  Ni11  1  0.53836000  0.09737200  0.42593700  1
  Ni  Ni12  1  0.96164000  0.09737200  0.92593700  1
  Ni  Ni13  1  0.03836000  0.90262800  0.07406300  1
  Ni  Ni14  1  0.46164000  0.40262800  0.92593700  1
  Ni  Ni15  1  0.53836000  0.59737200  0.07406300  1
  Cu  Cu16  1  0.98995300  0.85660800  0.74936600  1
  Cu  Cu17  1  0.01004700  0.14339200  0.25063400  1
  Cu  Cu18  1  0.51004700  0.35660800  0.25063400  1
  Cu  Cu19  1  0.01004700  0.64339200  0.24936600  1
  Cu  Cu20  1  0.48995300  0.14339200  0.75063400  1
  Cu  Cu21  1  0.48995300  0.64339200  0.74936600  1
  Cu  Cu22  1  0.51004700  0.85660800  0.24936600  1
  Cu  Cu23  1  0.98995300  0.35660800  0.75063400  1
  C  C24  1  0.85436000  0.31468900  0.32528900  1
  C  C25  1  0.25149200  0.01456200  0.97531800  1
  C  C26  1  0.24850800  0.51456200  0.02468200  1
  C  C27  1  0.30406900  0.79665400  0.83348700  1
  C  C28  1  0.19593100  0.29665400  0.16651300  1
  C  C29  1  0.85436000  0.81468900  0.17471100  1
  C  C30  1  0.19593100  0.79665400  0.33348700  1
  C  C31  1  0.64564000  0.81468900  0.67471100  1
  C  C32  1  0.25149200  0.51456200  0.52468200  1
  C  C33  1  0.14564000  0.68531100  0.67471100  1
  C  C34  1  0.64564000  0.31468900  0.82528900  1
  C  C35  1  0.70864000  0.22411500  0.49051200  1
  C  C36  1  0.75149200  0.98543800  0.52468200  1
  C  C37  1  0.69593100  0.70334600  0.33348700  1
  C  C38  1  0.25374700  0.00147700  0.16438400  1
  C  C39  1  0.75149200  0.48543800  0.97531800  1
  C  C40  1  0.14564000  0.18531100  0.82528900  1
  C  C41  1  0.80406900  0.20334600  0.66651300  1
  C  C42  1  0.20864000  0.77588500  0.00948800  1
  C  C43  1  0.24850800  0.01456200  0.47531800  1
  C  C44  1  0.29136000  0.77588500  0.50948800  1
  C  C45  1  0.74625300  0.99852300  0.83561600  1
  C  C46  1  0.69593100  0.20334600  0.16651300  1
  C  C47  1  0.75374700  0.99852300  0.33561600  1
  C  C48  1  0.29136000  0.27588500  0.99051200  1
  C  C49  1  0.20864000  0.27588500  0.49051200  1
  C  C50  1  0.74850800  0.48543800  0.47531800  1
  C  C51  1  0.74850800  0.98543800  0.02468200  1
  C  C52  1  0.75374700  0.49852300  0.16438400  1
  C  C53  1  0.79136000  0.72411500  0.50948800  1
  C  C54  1  0.79136000  0.22411500  0.99051200  1
  C  C55  1  0.70864000  0.72411500  0.00948800  1
  C  C56  1  0.74625300  0.49852300  0.66438400  1
  C  C57  1  0.80406900  0.70334600  0.83348700  1
  C  C58  1  0.30406900  0.29665400  0.66651300  1
  C  C59  1  0.25374700  0.50147700  0.33561600  1
  C  C60  1  0.24625300  0.50147700  0.83561600  1
  C  C61  1  0.35436000  0.18531100  0.32528900  1
  C  C62  1  0.24625300  0.00147700  0.66438400  1
  C  C63  1  0.35436000  0.68531100  0.17471100  1
