# generated using pymatgen
data_Cu2NiC18
_symmetry_space_group_name_H-M   'P 1'
_cell_length_a   9.24481500
_cell_length_b   11.52427400
_cell_length_c   12.68304400
_cell_angle_alpha   90.00000000
_cell_angle_beta   90.00000000
_cell_angle_gamma   90.00000000
_symmetry_Int_Tables_number   1
_chemical_formula_structural   Cu2NiC18
_chemical_formula_sum   'Cu8 Ni4 C72'
_cell_volume   1351.24873194
_cell_formula_units_Z   4
loop_
 _symmetry_equiv_pos_site_id
 _symmetry_equiv_pos_as_xyz
  1  'x, y, z'
loop_
 _atom_site_type_symbol
 _atom_site_label
 _atom_site_symmetry_multiplicity
 _atom_site_fract_x
 _atom_site_fract_y
 _atom_site_fract_z
 _atom_site_occupancy
  C  C0  1  0.03134700  0.21748400  0.68317500  1
  C  C1  1  0.46865300  0.78251600  0.18317500  1
  C  C2  1  0.46865300  0.71748400  0.81682500  1
  C  C3  1  0.96865300  0.71748400  0.68317500  1
  C  C4  1  0.96865300  0.78251600  0.31682500  1
  C  C5  1  0.53134700  0.21748400  0.81682500  1
  C  C6  1  0.53134700  0.28251600  0.18317500  1
  C  C7  1  0.03134700  0.28251600  0.31682500  1
  Ni  Ni8  1  0.12797300  0.25000000  0.00000000  1
  Ni  Ni9  1  0.37202700  0.75000000  0.50000000  1
  Ni  Ni10  1  0.87202700  0.75000000  0.00000000  1
  Ni  Ni11  1  0.62797300  0.25000000  0.50000000  1
  C  C12  1  0.25208100  0.98156100  0.87902600  1
  C  C13  1  0.75208100  0.51843900  0.37902600  1
  C  C14  1  0.75208100  0.98156100  0.62097400  1
  C  C15  1  0.74791900  0.01843900  0.12097400  1
  C  C16  1  0.25208100  0.51843900  0.12097400  1
  C  C17  1  0.24791900  0.01843900  0.37902600  1
  C  C18  1  0.74791900  0.48156100  0.87902600  1
  C  C19  1  0.24791900  0.48156100  0.62097400  1
  Cu  Cu20  1  0.63495200  0.99763900  0.36769100  1
  Cu  Cu21  1  0.63495200  0.50236100  0.63230900  1
  Cu  Cu22  1  0.86504800  0.49763900  0.13230900  1
  Cu  Cu23  1  0.86504800  0.00236100  0.86769100  1
  Cu  Cu24  1  0.36504800  0.00236100  0.63230900  1
  Cu  Cu25  1  0.36504800  0.49763900  0.36769100  1
  Cu  Cu26  1  0.13495200  0.50236100  0.86769100  1
  Cu  Cu27  1  0.13495200  0.99763900  0.13230900  1
  C  C28  1  0.64253700  0.13236600  0.36821700  1
  C  C29  1  0.64253700  0.36763400  0.63178300  1
  C  C30  1  0.85746300  0.63236600  0.13178300  1
  C  C31  1  0.85746300  0.86763400  0.86821700  1
  C  C32  1  0.35746300  0.86763400  0.63178300  1
  C  C33  1  0.35746300  0.63236600  0.36821700  1
  C  C34  1  0.14253700  0.36763400  0.86821700  1
  C  C35  1  0.14253700  0.13236600  0.13178300  1
  C  C36  1  0.52085200  0.45153300  0.36236200  1
  C  C37  1  0.52085200  0.04846700  0.63763800  1
  C  C38  1  0.97914800  0.95153300  0.13763800  1
  C  C39  1  0.97914800  0.54846700  0.86236200  1
  C  C40  1  0.47914800  0.54846700  0.63763800  1
  C  C41  1  0.47914800  0.95153300  0.36236200  1
  C  C42  1  0.02085200  0.04846700  0.86236200  1
  C  C43  1  0.02085200  0.45153300  0.13763800  1
  C  C44  1  0.70906000  0.55331900  0.53258400  1
  C  C45  1  0.70906000  0.94668100  0.46741600  1
  C  C46  1  0.79094000  0.05331900  0.96741600  1
  C  C47  1  0.79094000  0.44668100  0.03258400  1
  C  C48  1  0.31224700  0.34660000  0.66174900  1
  C  C49  1  0.29094000  0.44668100  0.46741600  1
  C  C50  1  0.20906000  0.94668100  0.03258400  1
  C  C51  1  0.20906000  0.55331900  0.96741600  1
  C  C52  1  0.68775300  0.65340000  0.33825100  1
  C  C53  1  0.68775300  0.84660000  0.66174900  1
  C  C54  1  0.81224700  0.15340000  0.16174900  1
  C  C55  1  0.81224700  0.34660000  0.83825100  1
  C  C56  1  0.26383100  0.34290100  0.07254300  1
  C  C57  1  0.26383100  0.15709900  0.92745700  1
  C  C58  1  0.23616900  0.84290100  0.42745700  1
  C  C59  1  0.23616900  0.65709900  0.57254300  1
  C  C60  1  0.73616900  0.65709900  0.92745700  1
  C  C61  1  0.73616900  0.84290100  0.07254300  1
  C  C62  1  0.76383100  0.15709900  0.57254300  1
  C  C63  1  0.76383100  0.34290100  0.42745700  1
  C  C64  1  0.27586700  0.45191000  0.27127200  1
  C  C65  1  0.27586700  0.04809000  0.72872800  1
  C  C66  1  0.22413300  0.95191000  0.22872800  1
  C  C67  1  0.22413300  0.54809000  0.77127200  1
  C  C68  1  0.72413300  0.54809000  0.72872800  1
  C  C69  1  0.72413300  0.95191000  0.27127200  1
  C  C70  1  0.77586700  0.04809000  0.77127200  1
  C  C71  1  0.77586700  0.45191000  0.22872800  1
  C  C72  1  0.43687000  0.54280300  0.11060600  1
  C  C73  1  0.43687000  0.95719700  0.88939400  1
  C  C74  1  0.06313000  0.04280300  0.38939400  1
  C  C75  1  0.06313000  0.45719700  0.61060600  1
  C  C76  1  0.56313000  0.45719700  0.88939400  1
  C  C77  1  0.56313000  0.04280300  0.11060600  1
  C  C78  1  0.93687000  0.95719700  0.61060600  1
  C  C79  1  0.93687000  0.54280300  0.38939400  1
  C  C80  1  0.18775300  0.65340000  0.16174900  1
  C  C81  1  0.18775300  0.84660000  0.83825100  1
  C  C82  1  0.31224700  0.15340000  0.33825100  1
  C  C83  1  0.29094000  0.05331900  0.53258400  1
