# generated using pymatgen
data_CuNi11C
_symmetry_space_group_name_H-M   'P 1'
_cell_length_a   4.67784600
_cell_length_b   6.46718127
_cell_length_c   6.46718127
_cell_angle_alpha   97.98557595
_cell_angle_beta   111.20220797
_cell_angle_gamma   68.79779203
_symmetry_Int_Tables_number   1
_chemical_formula_structural   CuNi11C
_chemical_formula_sum   'Cu1 Ni11 C1'
_cell_volume   170.05036573
_cell_formula_units_Z   1
loop_
 _symmetry_equiv_pos_site_id
 _symmetry_equiv_pos_as_xyz
  1  'x, y, z'
loop_
 _atom_site_type_symbol
 _atom_site_label
 _atom_site_symmetry_multiplicity
 _atom_site_fract_x
 _atom_site_fract_y
 _atom_site_fract_z
 _atom_site_occupancy
  C  C0  1  0.00562400  0.99437600  0.00562400  1
  Ni  Ni1  1  0.72852500  0.77147500  0.22852500  1
  Ni  Ni2  1  0.27097600  0.22902400  0.77097600  1
  Ni  Ni3  1  0.49837800  0.77719000  0.77394600  1
  Ni  Ni4  1  0.49837800  0.22605400  0.22281000  1
  Ni  Ni5  1  0.50041500  0.99897400  0.49996700  1
  Ni  Ni6  1  0.00057800  0.99897400  0.49996700  1
  Ni  Ni7  1  0.50041500  0.50003300  0.00102600  1
  Ni  Ni8  1  0.00057800  0.50003300  0.00102600  1
  Ni  Ni9  1  0.36015700  0.63984300  0.36015700  1
  Ni  Ni10  1  0.99910300  0.36011500  0.35832100  1
  Ni  Ni11  1  0.99910300  0.64167900  0.63988500  1
  Cu  Cu12  1  0.63777000  0.36223000  0.63777000  1
