# generated using pymatgen
data_Cu3Ni3C22
_symmetry_space_group_name_H-M   'P 1'
_cell_length_a   8.65926246
_cell_length_b   8.65926246
_cell_length_c   9.55055864
_cell_angle_alpha   58.24691423
_cell_angle_beta   58.24691423
_cell_angle_gamma   38.04722424
_symmetry_Int_Tables_number   1
_chemical_formula_structural   Cu3Ni3C22
_chemical_formula_sum   'Cu3 Ni3 C22'
_cell_volume   366.65271172
_cell_formula_units_Z   1
loop_
 _symmetry_equiv_pos_site_id
 _symmetry_equiv_pos_as_xyz
  1  'x, y, z'
loop_
 _atom_site_type_symbol
 _atom_site_label
 _atom_site_symmetry_multiplicity
 _atom_site_fract_x
 _atom_site_fract_y
 _atom_site_fract_z
 _atom_site_occupancy
  Ni  Ni0  1  0.00000000  0.00000000  0.50000000  1
  Ni  Ni1  1  0.33566300  0.33566300  0.83280800  1
  Ni  Ni2  1  0.66433700  0.66433700  0.16719200  1
  Cu  Cu3  1  0.15851200  0.15851200  0.68365100  1
  Cu  Cu4  1  0.50000000  0.50000000  0.00000000  1
  Cu  Cu5  1  0.84148800  0.84148800  0.31634900  1
  C  C6  1  0.08124100  0.08124100  0.08023900  1
  C  C7  1  0.41326100  0.41326100  0.42140200  1
  C  C8  1  0.75087200  0.75087200  0.74156300  1
  C  C9  1  0.24912800  0.24912800  0.25843700  1
  C  C10  1  0.58673900  0.58673900  0.57859800  1
  C  C11  1  0.91875900  0.91875900  0.91976100  1
  C  C12  1  0.71880500  0.24111100  0.24365300  1
  C  C13  1  0.06473600  0.56690800  0.56539900  1
  C  C14  1  0.41908900  0.89593600  0.89418400  1
  C  C15  1  0.24111100  0.71880500  0.24365300  1
  C  C16  1  0.56690800  0.06473600  0.56539900  1
  C  C17  1  0.89593600  0.41908900  0.89418400  1
  C  C18  1  0.93526400  0.43309200  0.43460100  1
  C  C19  1  0.28119500  0.75888900  0.75634700  1
  C  C20  1  0.58091100  0.10406400  0.10581600  1
  C  C21  1  0.43309200  0.93526400  0.43460100  1
  C  C22  1  0.75888900  0.28119500  0.75634700  1
  C  C23  1  0.10406400  0.58091100  0.10581600  1
  C  C24  1  0.15745200  0.15745200  0.16347100  1
  C  C25  1  0.50000000  0.50000000  0.50000000  1
  C  C26  1  0.84254800  0.84254800  0.83652900  1
  C  C27  1  0.00000000  0.00000000  0.00000000  1
