# generated using pymatgen
data_Cu2(NiC3)3
_symmetry_space_group_name_H-M   'P 1'
_cell_length_a   8.22270900
_cell_length_b   13.39833300
_cell_length_c   8.65047023
_cell_angle_alpha   90.00000000
_cell_angle_beta   90.10749832
_cell_angle_gamma   90.00000000
_symmetry_Int_Tables_number   1
_chemical_formula_structural   Cu2(NiC3)3
_chemical_formula_sum   'Cu8 Ni12 C36'
_cell_volume   953.02576005
_cell_formula_units_Z   4
loop_
 _symmetry_equiv_pos_site_id
 _symmetry_equiv_pos_as_xyz
  1  'x, y, z'
loop_
 _atom_site_type_symbol
 _atom_site_label
 _atom_site_symmetry_multiplicity
 _atom_site_fract_x
 _atom_site_fract_y
 _atom_site_fract_z
 _atom_site_occupancy
  C  C0  1  0.21574300  0.56214700  0.66409800  1
  C  C1  1  0.78425700  0.06214700  0.83590200  1
  C  C2  1  0.78425700  0.43785300  0.33590200  1
  C  C3  1  0.21574300  0.93785300  0.16409800  1
  Ni  Ni4  1  0.11820300  0.24406800  0.10599700  1
  Ni  Ni5  1  0.88179700  0.74406800  0.39400300  1
  Ni  Ni6  1  0.88179700  0.75593200  0.89400300  1
  Ni  Ni7  1  0.11820300  0.25593200  0.60599700  1
  Ni  Ni8  1  0.51574100  0.65244400  0.24654100  1
  Ni  Ni9  1  0.48425900  0.15244400  0.25345900  1
  Ni  Ni10  1  0.48425900  0.34755600  0.75345900  1
  Ni  Ni11  1  0.51574100  0.84755600  0.74654100  1
  Ni  Ni12  1  0.33422800  0.45086500  0.12785600  1
  Ni  Ni13  1  0.66577200  0.95086500  0.37214400  1
  Ni  Ni14  1  0.66577200  0.54913500  0.87214400  1
  Ni  Ni15  1  0.33422800  0.04913500  0.62785600  1
  Cu  Cu16  1  0.25528600  0.29400800  0.32198600  1
  Cu  Cu17  1  0.74471400  0.79400800  0.17801400  1
  Cu  Cu18  1  0.74471400  0.70599200  0.67801400  1
  Cu  Cu19  1  0.25528600  0.20599200  0.82198600  1
  Cu  Cu20  1  0.25055800  0.60811700  0.18490500  1
  Cu  Cu21  1  0.74944200  0.10811700  0.31509500  1
  Cu  Cu22  1  0.74944200  0.39188300  0.81509500  1
  Cu  Cu23  1  0.25055800  0.89188300  0.68490500  1
  C  C24  1  0.39208100  0.37336100  0.25218600  1
  C  C25  1  0.60791900  0.87336100  0.24781400  1
  C  C26  1  0.60791900  0.62663900  0.74781400  1
  C  C27  1  0.39208100  0.12663900  0.75218600  1
  C  C28  1  0.17186700  0.33471500  0.48450700  1
  C  C29  1  0.82813300  0.83471500  0.01549300  1
  C  C30  1  0.82813300  0.66528500  0.51549300  1
  C  C31  1  0.17186700  0.16528500  0.98450700  1
  C  C32  1  0.32771000  0.17862600  0.33590300  1
  C  C33  1  0.67229000  0.67862600  0.16409700  1
  C  C34  1  0.67229000  0.82137400  0.66409700  1
  C  C35  1  0.32771000  0.32137400  0.83590300  1
  C  C36  1  0.08956400  0.29272100  0.19459100  1
  C  C37  1  0.91043600  0.79272100  0.30540900  1
  C  C38  1  0.91043600  0.70727900  0.80540900  1
  C  C39  1  0.08956400  0.20727900  0.69459100  1
  C  C40  1  0.10524700  0.57130600  0.30057200  1
  C  C41  1  0.89475300  0.07130600  0.19942800  1
  C  C42  1  0.89475300  0.42869400  0.69942800  1
  C  C43  1  0.10524700  0.92869400  0.80057200  1
  C  C44  1  0.22773700  0.70506500  0.07384300  1
  C  C45  1  0.77226300  0.20506500  0.42615700  1
  C  C46  1  0.77226300  0.29493500  0.92615700  1
  C  C47  1  0.22773700  0.79493500  0.57384300  1
  C  C48  1  0.41809700  0.62247700  0.30798800  1
  C  C49  1  0.58190300  0.12247700  0.19201200  1
  C  C50  1  0.58190300  0.37752300  0.69201200  1
  C  C51  1  0.41809700  0.87752300  0.80798800  1
  C  C52  1  0.30477000  0.51129900  0.05888300  1
  C  C53  1  0.69523000  0.01129900  0.44111700  1
  C  C54  1  0.69523000  0.48870100  0.94111700  1
  C  C55  1  0.30477000  0.98870100  0.55888300  1
