# generated using pymatgen
data_Cu3NiC5
_symmetry_space_group_name_H-M   'P 1'
_cell_length_a   10.60505973
_cell_length_b   10.60505973
_cell_length_c   15.15119100
_cell_angle_alpha   90.00000000
_cell_angle_beta   90.00000000
_cell_angle_gamma   143.09635649
_symmetry_Int_Tables_number   1
_chemical_formula_structural   Cu3NiC5
_chemical_formula_sum   'Cu12 Ni4 C20'
_cell_volume   1023.21077309
_cell_formula_units_Z   4
loop_
 _symmetry_equiv_pos_site_id
 _symmetry_equiv_pos_as_xyz
  1  'x, y, z'
loop_
 _atom_site_type_symbol
 _atom_site_label
 _atom_site_symmetry_multiplicity
 _atom_site_fract_x
 _atom_site_fract_y
 _atom_site_fract_z
 _atom_site_occupancy
  C  C0  1  0.10274800  0.43670600  0.67680900  1
  C  C1  1  0.74086600  0.74086600  0.68003200  1
  C  C2  1  0.24086600  0.24086600  0.81996800  1
  C  C3  1  0.75913400  0.75913400  0.18003200  1
  C  C4  1  0.93670600  0.60274800  0.82319100  1
  C  C5  1  0.56329400  0.89725200  0.32319100  1
  C  C6  1  0.39725200  0.06329400  0.17680900  1
  C  C7  1  0.06329400  0.39725200  0.17680900  1
  C  C8  1  0.89725200  0.56329400  0.32319100  1
  C  C9  1  0.43670600  0.10274800  0.67680900  1
  C  C10  1  0.60274800  0.93670700  0.82319100  1
  C  C11  1  0.25913400  0.25913400  0.31996800  1
  C  C12  1  0.91917500  0.08082500  0.00000000  1
  C  C13  1  0.58082500  0.41917500  0.50000000  1
  C  C14  1  0.08082500  0.91917500  0.00000000  1
  C  C15  1  0.41917500  0.58082500  0.50000000  1
  C  C16  1  0.75519300  0.24480700  0.00000000  1
  C  C17  1  0.74480700  0.25519300  0.50000000  1
  C  C18  1  0.24480700  0.75519300  0.00000000  1
  C  C19  1  0.25519300  0.74480700  0.50000000  1
  Ni  Ni20  1  0.08815000  0.91185000  0.50000000  1
  Ni  Ni21  1  0.41185000  0.58815000  0.00000000  1
  Ni  Ni22  1  0.91185000  0.08815000  0.50000000  1
  Ni  Ni23  1  0.58815000  0.41185000  0.00000000  1
  Cu  Cu24  1  0.87696600  0.56148800  0.10357600  1
  Cu  Cu25  1  0.43851200  0.12303400  0.89642400  1
  Cu  Cu26  1  0.62303400  0.93851200  0.60357600  1
  Cu  Cu27  1  0.93851200  0.62303400  0.60357600  1
  Cu  Cu28  1  0.12303400  0.43851200  0.89642400  1
  Cu  Cu29  1  0.56148800  0.87696600  0.10357600  1
  Cu  Cu30  1  0.37696600  0.06148800  0.39642400  1
  Cu  Cu31  1  0.20337600  0.20337600  0.59243900  1
  Cu  Cu32  1  0.70337600  0.70337600  0.90756100  1
  Cu  Cu33  1  0.29662400  0.29662400  0.09243900  1
  Cu  Cu34  1  0.06148800  0.37696600  0.39642400  1
  Cu  Cu35  1  0.79662400  0.79662400  0.40756100  1
