# generated using pymatgen
data_Cu5Ni3C28
_symmetry_space_group_name_H-M   'P 1'
_cell_length_a   10.73687198
_cell_length_b   11.19320144
_cell_length_c   17.32815340
_cell_angle_alpha   108.91518556
_cell_angle_beta   108.21273384
_cell_angle_gamma   89.61993068
_symmetry_Int_Tables_number   1
_chemical_formula_structural   Cu5Ni3C28
_chemical_formula_sum   'Cu20 Ni12 C112'
_cell_volume   1860.92998889
_cell_formula_units_Z   4
loop_
 _symmetry_equiv_pos_site_id
 _symmetry_equiv_pos_as_xyz
  1  'x, y, z'
loop_
 _atom_site_type_symbol
 _atom_site_label
 _atom_site_symmetry_multiplicity
 _atom_site_fract_x
 _atom_site_fract_y
 _atom_site_fract_z
 _atom_site_occupancy
  Ni  Ni0  1  0.30849100  0.56724200  0.60835900  1
  Ni  Ni1  1  0.80571600  0.05854700  0.60864200  1
  Ni  Ni2  1  0.80340400  0.55918100  0.60963400  1
  Ni  Ni3  1  0.19450300  0.43959500  0.38396300  1
  Ni  Ni4  1  0.19777000  0.43716500  0.89367200  1
  Ni  Ni5  1  0.69262600  0.93130900  0.38364900  1
  Ni  Ni6  1  0.05713300  0.29558300  0.60881200  1
  Ni  Ni7  1  0.05698500  0.79989700  0.61072800  1
  Ni  Ni8  1  0.56078400  0.29653700  0.60985800  1
  Ni  Ni9  1  0.44752300  0.20364800  0.89008900  1
  Ni  Ni10  1  0.94404000  0.19983800  0.38413900  1
  Ni  Ni11  1  0.94678200  0.19836800  0.88962700  1
  Cu  Cu12  1  0.30666200  0.06848200  0.11201100  1
  Cu  Cu13  1  0.30931500  0.06584100  0.60582300  1
  Cu  Cu14  1  0.30815700  0.57054500  0.11370500  1
  Cu  Cu15  1  0.80296900  0.06651100  0.10979500  1
  Cu  Cu16  1  0.80405600  0.56823600  0.11209100  1
  Cu  Cu17  1  0.20027100  0.93113300  0.38841500  1
  Cu  Cu18  1  0.19234800  0.93614300  0.89409500  1
  Cu  Cu19  1  0.69372800  0.43007100  0.38939600  1
  Cu  Cu20  1  0.69671100  0.43167600  0.89376300  1
  Cu  Cu21  1  0.69751300  0.93529400  0.89090600  1
  Cu  Cu22  1  0.05673500  0.29134400  0.11092000  1
  Cu  Cu23  1  0.05435700  0.79478200  0.11145400  1
  Cu  Cu24  1  0.55103000  0.29460700  0.11199900  1
  Cu  Cu25  1  0.55567500  0.79246800  0.11052900  1
  Cu  Cu26  1  0.55212300  0.79289200  0.60760200  1
  Cu  Cu27  1  0.45086700  0.20773600  0.38964500  1
  Cu  Cu28  1  0.44340500  0.70305400  0.38959900  1
  Cu  Cu29  1  0.44700900  0.71443400  0.89479500  1
  Cu  Cu30  1  0.94665900  0.70444700  0.38816400  1
  Cu  Cu31  1  0.94343400  0.71224200  0.89432200  1
  C  C32  1  0.10827700  0.59731100  0.75373700  1
  C  C33  1  0.61084900  0.59877200  0.75478000  1
  C  C34  1  0.36355800  0.41284900  0.75302200  1
  C  C35  1  0.36279200  0.91054400  0.75253200  1
  C  C36  1  0.00966500  0.00358800  0.00620400  1
  C  C37  1  0.00291900  0.99594300  0.49591300  1
  C  C38  1  0.00719300  0.50274800  0.00629400  1
  C  C39  1  0.00034400  0.50077300  0.49675800  1
  C  C40  1  0.50623600  0.00094100  0.00213600  1
  C  C41  1  0.50254200  0.99522800  0.49600000  1
  C  C42  1  0.50640200  0.50116700  0.00426100  1
  C  C43  1  0.50297400  0.49987500  0.49495900  1
  C  C44  1  0.25820000  0.25330600  0.00734600  1
  C  C45  1  0.25502900  0.24837100  0.49577500  1
  C  C46  1  0.25694500  0.75375800  0.00318100  1
  C  C47  1  0.25448100  0.75309300  0.49937000  1
  C  C48  1  0.75900200  0.25458100  0.00972600  1
  C  C49  1  0.75102900  0.24565500  0.49408500  1
  C  C50  1  0.75629200  0.75124100  0.00111200  1
  C  C51  1  0.74992900  0.74368300  0.49372900  1
  C  C52  1  0.11074900  0.08932600  0.24725600  1
  C  C53  1  0.11231900  0.09000600  0.75114900  1
  C  C54  1  0.10636200  0.59627600  0.24590500  1
  C  C55  1  0.60383200  0.09268000  0.24681300  1
  C  C56  1  0.60668000  0.09187200  0.74852700  1
  C  C57  1  0.60723100  0.59017100  0.24840500  1
  C  C58  1  0.36053800  0.40601100  0.24755500  1
  C  C59  1  0.35581500  0.90441900  0.24951500  1
  C  C60  1  0.85356600  0.40860400  0.24822300  1
  C  C61  1  0.85866900  0.41011800  0.75535300  1
  C  C62  1  0.86061700  0.90169200  0.24567800  1
  C  C63  1  0.85596600  0.90023500  0.75052600  1
  C  C64  1  0.13253400  0.12524600  0.48932600  1
  C  C65  1  0.13042000  0.12446900  0.99448600  1
  C  C66  1  0.12014600  0.62952300  0.48455500  1
  C  C67  1  0.12968300  0.63480200  0.99346000  1
  C  C68  1  0.62501400  0.12234800  0.48573500  1
  C  C69  1  0.63347600  0.13071400  0.99510200  1
  C  C70  1  0.62334800  0.62023600  0.48288900  1
  C  C71  1  0.63119100  0.63009900  0.98984100  1
  C  C72  1  0.13173100  0.38896500  0.01691900  1
  C  C73  1  0.12568900  0.38515500  0.50468700  1
  C  C74  1  0.13087700  0.88778300  0.01445900  1
  C  C75  1  0.13227200  0.88471100  0.50313700  1
  C  C76  1  0.63454000  0.39150400  0.01751900  1
  C  C77  1  0.63018100  0.37085500  0.50185800  1
  C  C78  1  0.63257700  0.88866100  0.01615500  1
  C  C79  1  0.62339200  0.87362700  0.50451400  1
  C  C80  1  0.37767800  0.10944000  0.48521700  1
  C  C81  1  0.37944000  0.11075200  0.99343500  1
  C  C82  1  0.37368000  0.62474400  0.48656000  1
  C  C83  1  0.38546300  0.61761500  0.99412800  1
  C  C84  1  0.87835300  0.11450000  0.49130100  1
  C  C85  1  0.87821100  0.10889500  0.99369100  1
  C  C86  1  0.87249800  0.61107200  0.48584200  1
  C  C87  1  0.87832700  0.60972200  0.98940500  1
  C  C88  1  0.38449900  0.38323800  0.01812200  1
  C  C89  1  0.37646100  0.37199100  0.50279400  1
  C  C90  1  0.38303200  0.87767600  0.01614800  1
  C  C91  1  0.37866100  0.88108800  0.51015600  1
  C  C92  1  0.87979300  0.37566600  0.01483600  1
  C  C93  1  0.87427700  0.37111400  0.50367800  1
  C  C94  1  0.88309500  0.87577000  0.01632900  1
  C  C95  1  0.87815900  0.86852200  0.50229300  1
  C  C96  1  0.09377500  0.10419800  0.14262200  1
  C  C97  1  0.08767900  0.08607800  0.64085700  1
  C  C98  1  0.08553100  0.60640300  0.13926900  1
  C  C99  1  0.07673100  0.59476400  0.63988700  1
  C  C100  1  0.58757900  0.10689600  0.14268800  1
  C  C101  1  0.58219000  0.09087800  0.63934800  1
  C  C102  1  0.59032700  0.60545200  0.14351600  1
  C  C103  1  0.58116000  0.60118600  0.64250200  1
  C  C104  1  0.43990800  0.39842700  0.35395700  1
  C  C105  1  0.45206900  0.40440500  0.86303600  1
  C  C106  1  0.43529600  0.89438100  0.35654600  1
  C  C107  1  0.45907300  0.90301700  0.86357000  1
  C  C108  1  0.93561000  0.40492100  0.35558100  1
  C  C109  1  0.94295700  0.40113100  0.86123200  1
  C  C110  1  0.94231500  0.90154500  0.35535900  1
  C  C111  1  0.94520500  0.89930100  0.85990200  1
  C  C112  1  0.34403300  0.28657200  0.14366300  1
  C  C113  1  0.33634600  0.29204900  0.64203900  1
  C  C114  1  0.34118000  0.78940400  0.14391800  1
  C  C115  1  0.33735000  0.79571800  0.64205900  1
  C  C116  1  0.84147900  0.28824200  0.14339300  1
  C  C117  1  0.83019100  0.30376000  0.64552800  1
  C  C118  1  0.84027300  0.78308700  0.14081600  1
  C  C119  1  0.82632200  0.79555100  0.64098700  1
  C  C120  1  0.19131700  0.20131300  0.35449700  1
  C  C121  1  0.18982000  0.20501900  0.85772400  1
  C  C122  1  0.19122000  0.70804400  0.35130900  1
  C  C123  1  0.20482400  0.71723400  0.86257100  1
  C  C124  1  0.68512100  0.20192600  0.35597100  1
  C  C125  1  0.68678700  0.20840700  0.85551700  1
  C  C126  1  0.69536000  0.69920900  0.35422400  1
  C  C127  1  0.70500800  0.72017800  0.86298600  1
  C  C128  1  0.42478900  0.06463700  0.24942400  1
  C  C129  1  0.42294300  0.06646400  0.74406700  1
  C  C130  1  0.42640000  0.56824400  0.24882800  1
  C  C131  1  0.43258900  0.57571000  0.75872800  1
  C  C132  1  0.92782300  0.05671100  0.23965800  1
  C  C133  1  0.93339600  0.05606300  0.74947100  1
  C  C134  1  0.92538800  0.56702700  0.24774200  1
  C  C135  1  0.93342500  0.57311800  0.76087800  1
  C  C136  1  0.17645400  0.43477700  0.23938100  1
  C  C137  1  0.18419900  0.43993900  0.75240100  1
  C  C138  1  0.17454800  0.92775800  0.24774600  1
  C  C139  1  0.18686700  0.93373800  0.76025700  1
  C  C140  1  0.67210000  0.42767000  0.24767200  1
  C  C141  1  0.67927000  0.44056000  0.75941800  1
  C  C142  1  0.67861500  0.93330600  0.24090600  1
  C  C143  1  0.67467800  0.93139600  0.75175100  1
