# generated using pymatgen
data_CuNiC14
_symmetry_space_group_name_H-M   'P 1'
_cell_length_a   6.68242471
_cell_length_b   6.67847882
_cell_length_c   10.65395504
_cell_angle_alpha   90.00000000
_cell_angle_beta   90.00000000
_cell_angle_gamma   119.98047458
_symmetry_Int_Tables_number   1
_chemical_formula_structural   CuNiC14
_chemical_formula_sum   'Cu1 Ni1 C14'
_cell_volume   411.84949037
_cell_formula_units_Z   1
loop_
 _symmetry_equiv_pos_site_id
 _symmetry_equiv_pos_as_xyz
  1  'x, y, z'
loop_
 _atom_site_type_symbol
 _atom_site_label
 _atom_site_symmetry_multiplicity
 _atom_site_fract_x
 _atom_site_fract_y
 _atom_site_fract_z
 _atom_site_occupancy
  Ni  Ni0  1  0.16697130  0.83348515  0.12500000  1
  Cu  Cu1  1  0.17940489  0.33970195  0.12500000  1
  C  C2  1  0.16378339  0.33189120  0.62500000  1
  C  C3  1  0.16627015  0.83313458  0.62500000  1
  C  C4  1  0.66492631  0.33270023  0.12500000  1
  C  C5  1  0.66802079  0.33238855  0.62500000  1
  C  C6  1  0.66492631  0.83222508  0.12500000  1
  C  C7  1  0.66802079  0.83563124  0.62500000  1
  C  C8  1  0.33966335  0.17778353  0.39079260  1
  C  C9  1  0.33966335  0.17778353  0.85920740  1
  C  C10  1  0.33966335  0.66188081  0.39079260  1
  C  C11  1  0.33966335  0.66188081  0.85920740  1
  C  C12  1  0.83089896  0.16544998  0.37588082  1
  C  C13  1  0.83089896  0.16544998  0.87411918  1
  C  C14  1  0.81861239  0.65930669  0.38716749  1
  C  C15  1  0.81861239  0.65930669  0.86283251  1
