# generated using pymatgen
data_CuNi3
_symmetry_space_group_name_H-M   'P 1'
_cell_length_a   9.23985001
_cell_length_b   9.23985001
_cell_length_c   9.23985042
_cell_angle_alpha   90.10214759
_cell_angle_beta   90.10214759
_cell_angle_gamma   90.10214665
_symmetry_Int_Tables_number   1
_chemical_formula_structural   CuNi3
_chemical_formula_sum   'Cu13 Ni39'
_cell_volume   788.84687608
_cell_formula_units_Z   13
loop_
 _symmetry_equiv_pos_site_id
 _symmetry_equiv_pos_as_xyz
  1  'x, y, z'
loop_
 _atom_site_type_symbol
 _atom_site_label
 _atom_site_symmetry_multiplicity
 _atom_site_fract_x
 _atom_site_fract_y
 _atom_site_fract_z
 _atom_site_occupancy
  Ni  Ni0  1  0.84700800  0.84700800  0.84700800  1
  Ni  Ni1  1  0.83690800  0.16021200  0.16021200  1
  Ni  Ni2  1  0.16021200  0.16021200  0.83690800  1
  Ni  Ni3  1  0.16021200  0.83690800  0.16021200  1
  Ni  Ni4  1  0.59592400  0.59592400  0.59592400  1
  Ni  Ni5  1  0.58816700  0.40481200  0.40481200  1
  Ni  Ni6  1  0.40481200  0.40481200  0.58816700  1
  Ni  Ni7  1  0.40481200  0.58816700  0.40481200  1
  Ni  Ni8  1  0.49538300  0.85040600  0.49538300  1
  Ni  Ni9  1  0.49538300  0.49538300  0.85040600  1
  Ni  Ni10  1  0.85040600  0.49538300  0.49538300  1
  Ni  Ni11  1  0.49950300  0.15056100  0.49950300  1
  Ni  Ni12  1  0.49950300  0.49950300  0.15056100  1
  Ni  Ni13  1  0.15056100  0.49950300  0.49950300  1
  Ni  Ni14  1  0.02891800  0.32065700  0.32065700  1
  Ni  Ni15  1  0.32065700  0.02891800  0.32065700  1
  Ni  Ni16  1  0.32065700  0.32065700  0.02891800  1
  Ni  Ni17  1  0.06722100  0.71991100  0.71991100  1
  Ni  Ni18  1  0.28614700  0.93112000  0.70577200  1
  Ni  Ni19  1  0.28614700  0.70577200  0.93112000  1
  Ni  Ni20  1  0.93112000  0.70577200  0.28614700  1
  Ni  Ni21  1  0.70577200  0.93112000  0.28614700  1
  Ni  Ni22  1  0.71991100  0.71991100  0.06722100  1
  Ni  Ni23  1  0.93112000  0.28614700  0.70577200  1
  Ni  Ni24  1  0.71991100  0.06722100  0.71991100  1
  Ni  Ni25  1  0.70577200  0.28614700  0.93112000  1
  Ni  Ni26  1  0.33004000  0.33004000  0.33004000  1
  Ni  Ni27  1  0.34437100  0.65582500  0.65582500  1
  Ni  Ni28  1  0.65582500  0.65582500  0.34437100  1
  Ni  Ni29  1  0.65582500  0.34437100  0.65582500  1
  Ni  Ni30  1  0.99307100  0.34728300  0.99307100  1
  Ni  Ni31  1  0.99307100  0.99307100  0.34728300  1
  Ni  Ni32  1  0.34728300  0.99307100  0.99307100  1
  Ni  Ni33  1  0.99987200  0.66899700  0.99987200  1
  Ni  Ni34  1  0.99987200  0.99987200  0.66899700  1
  Ni  Ni35  1  0.66899700  0.99987200  0.99987200  1
  Ni  Ni36  1  0.10022700  0.90624600  0.90624600  1
  Ni  Ni37  1  0.90624600  0.90624600  0.10022700  1
  Ni  Ni38  1  0.90624600  0.10022700  0.90624600  1
  Cu  Cu39  1  0.54707100  0.81072400  0.81072400  1
  Cu  Cu40  1  0.81072400  0.54707100  0.81072400  1
  Cu  Cu41  1  0.81072400  0.81072400  0.54707100  1
  Cu  Cu42  1  0.54198100  0.18691300  0.18691300  1
  Cu  Cu43  1  0.79941200  0.45805400  0.17979900  1
  Cu  Cu44  1  0.79941200  0.17979900  0.45805400  1
  Cu  Cu45  1  0.45805400  0.17979900  0.79941200  1
  Cu  Cu46  1  0.17979900  0.45805400  0.79941200  1
  Cu  Cu47  1  0.18691300  0.18691300  0.54198100  1
  Cu  Cu48  1  0.45805400  0.79941200  0.17979900  1
  Cu  Cu49  1  0.18691300  0.54198100  0.18691300  1
  Cu  Cu50  1  0.17979900  0.79941200  0.45805400  1
  Cu  Cu51  1  0.12805200  0.12805200  0.12805200  1
