# generated using pymatgen
data_Cu(NiC5)2
_symmetry_space_group_name_H-M   'P 1'
_cell_length_a   3.84925100
_cell_length_b   3.91324600
_cell_length_c   11.82159700
_cell_angle_alpha   90.00000000
_cell_angle_beta   90.00000000
_cell_angle_gamma   90.00000000
_symmetry_Int_Tables_number   1
_chemical_formula_structural   Cu(NiC5)2
_chemical_formula_sum   'Cu1 Ni2 C10'
_cell_volume   178.06949677
_cell_formula_units_Z   1
loop_
 _symmetry_equiv_pos_site_id
 _symmetry_equiv_pos_as_xyz
  1  'x, y, z'
loop_
 _atom_site_type_symbol
 _atom_site_label
 _atom_site_symmetry_multiplicity
 _atom_site_fract_x
 _atom_site_fract_y
 _atom_site_fract_z
 _atom_site_occupancy
  Ni  Ni0  1  0.50000000  0.50000000  0.18435500  1
  Ni  Ni1  1  0.50000000  0.50000000  0.81564500  1
  Cu  Cu2  1  0.50000000  0.50000000  0.50000000  1
  C  C3  1  0.00000000  0.00000000  0.00000000  1
  C  C4  1  0.00000000  0.00000000  0.35945100  1
  C  C5  1  0.00000000  0.00000000  0.64054900  1
  C  C6  1  0.50000000  0.00000000  0.37931600  1
  C  C7  1  0.50000000  0.00000000  0.62068400  1
  C  C8  1  0.00000000  0.00000000  0.15313300  1
  C  C9  1  0.00000000  0.00000000  0.84686700  1
  C  C10  1  0.00000000  0.50000000  0.37922700  1
  C  C11  1  0.00000000  0.50000000  0.62077300  1
  C  C12  1  0.00000000  0.50000000  0.00000000  1
