# generated using pymatgen
data_Cu2NiC11
_symmetry_space_group_name_H-M   'P 1'
_cell_length_a   8.57489700
_cell_length_b   8.57489700
_cell_length_c   8.57489700
_cell_angle_alpha   125.18051784
_cell_angle_beta   106.77804071
_cell_angle_gamma   97.76906887
_symmetry_Int_Tables_number   1
_chemical_formula_structural   Cu2NiC11
_chemical_formula_sum   'Cu4 Ni2 C22'
_cell_volume   455.30809645
_cell_formula_units_Z   2
loop_
 _symmetry_equiv_pos_site_id
 _symmetry_equiv_pos_as_xyz
  1  'x, y, z'
loop_
 _atom_site_type_symbol
 _atom_site_label
 _atom_site_symmetry_multiplicity
 _atom_site_fract_x
 _atom_site_fract_y
 _atom_site_fract_z
 _atom_site_occupancy
  Ni  Ni0  1  0.75000000  0.75000000  0.00000000  1
  Ni  Ni1  1  0.25000000  0.25000000  0.00000000  1
  Cu  Cu2  1  0.68093400  0.13289200  0.81382600  1
  Cu  Cu3  1  0.31906600  0.86710800  0.18617400  1
  Cu  Cu4  1  0.18093400  0.36710800  0.54804300  1
  Cu  Cu5  1  0.81906600  0.63289200  0.45195700  1
  C  C6  1  0.50000000  0.00000000  0.50000000  1
  C  C7  1  0.00000000  0.50000000  0.50000000  1
  C  C8  1  0.78075300  0.36992400  0.15067700  1
  C  C9  1  0.21924700  0.63007600  0.84932300  1
  C  C10  1  0.28075300  0.13007600  0.41082900  1
  C  C11  1  0.71924700  0.86992400  0.58917100  1
  C  C12  1  0.70594900  0.39211500  0.84154300  1
  C  C13  1  0.55057200  0.86440600  0.15845700  1
  C  C14  1  0.94942800  0.10788500  0.31383400  1
  C  C15  1  0.79405100  0.63559400  0.68616600  1
  C  C16  1  0.29405100  0.60788500  0.15845700  1
  C  C17  1  0.44942800  0.13559400  0.84154300  1
  C  C18  1  0.05057200  0.89211500  0.68616600  1
  C  C19  1  0.20594900  0.36440600  0.31383400  1
  C  C20  1  0.94995200  0.23705100  0.91715900  1
  C  C21  1  0.31989200  0.03279400  0.08284100  1
  C  C22  1  0.18010800  0.26294900  0.71290100  1
  C  C23  1  0.55004800  0.46720600  0.28709900  1
  C  C24  1  0.05004800  0.76294900  0.08284100  1
  C  C25  1  0.68010800  0.96720600  0.91715900  1
  C  C26  1  0.81989200  0.73705100  0.28709900  1
  C  C27  1  0.44995200  0.53279400  0.71290100  1
