# generated using pymatgen
data_Cu2Ni2C11
_symmetry_space_group_name_H-M   'P 1'
_cell_length_a   9.01098862
_cell_length_b   9.01098862
_cell_length_c   8.25637236
_cell_angle_alpha   70.43905562
_cell_angle_beta   70.43905562
_cell_angle_gamma   51.40465622
_symmetry_Int_Tables_number   1
_chemical_formula_structural   Cu2Ni2C11
_chemical_formula_sum   'Cu4 Ni4 C22'
_cell_volume   486.45152358
_cell_formula_units_Z   2
loop_
 _symmetry_equiv_pos_site_id
 _symmetry_equiv_pos_as_xyz
  1  'x, y, z'
loop_
 _atom_site_type_symbol
 _atom_site_label
 _atom_site_symmetry_multiplicity
 _atom_site_fract_x
 _atom_site_fract_y
 _atom_site_fract_z
 _atom_site_occupancy
  Ni  Ni0  1  0.83796100  0.52601600  0.35165700  1
  Ni  Ni1  1  0.47398400  0.16203900  0.14834300  1
  Ni  Ni2  1  0.16203900  0.47398400  0.64834300  1
  Ni  Ni3  1  0.52601600  0.83796100  0.85165700  1
  Cu  Cu4  1  0.95322900  0.81120800  0.97271400  1
  Cu  Cu5  1  0.18879200  0.04677100  0.52728600  1
  Cu  Cu6  1  0.04677100  0.18879200  0.02728600  1
  Cu  Cu7  1  0.81120800  0.95322900  0.47271400  1
  C  C8  1  0.60876300  0.39123700  0.75000000  1
  C  C9  1  0.39123700  0.60876300  0.25000000  1
  C  C10  1  0.74769600  0.28550500  0.57323200  1
  C  C11  1  0.71449500  0.25230400  0.92676800  1
  C  C12  1  0.25230400  0.71449500  0.42676800  1
  C  C13  1  0.28550500  0.74769600  0.07323200  1
  C  C14  1  0.39630600  0.41902300  0.80714200  1
  C  C15  1  0.58097700  0.60369400  0.69285800  1
  C  C16  1  0.60369400  0.58097700  0.19285800  1
  C  C17  1  0.41902300  0.39630600  0.30714200  1
  C  C18  1  0.03686200  0.57089900  0.12306300  1
  C  C19  1  0.42910100  0.96313800  0.37693700  1
  C  C20  1  0.96313800  0.42910100  0.87693700  1
  C  C21  1  0.57089900  0.03686200  0.62306300  1
  C  C22  1  0.99799000  0.74855000  0.75246100  1
  C  C23  1  0.25145000  0.00201000  0.74753900  1
  C  C24  1  0.00201000  0.25145000  0.24753900  1
  C  C25  1  0.74855000  0.99799000  0.25246100  1
  C  C26  1  0.68578100  0.90555700  0.01161000  1
  C  C27  1  0.09444300  0.31421900  0.48839000  1
  C  C28  1  0.31421900  0.09444300  0.98839000  1
  C  C29  1  0.90555700  0.68578100  0.51161000  1
