# generated using pymatgen
data_Cu21(NiC4)2
_symmetry_space_group_name_H-M   'P 1'
_cell_length_a   7.39434000
_cell_length_b   8.80647300
_cell_length_c   17.11396769
_cell_angle_alpha   59.50490399
_cell_angle_beta   90.00000000
_cell_angle_gamma   90.00000000
_symmetry_Int_Tables_number   1
_chemical_formula_structural   Cu21(NiC4)2
_chemical_formula_sum   'Cu42 Ni4 C16'
_cell_volume   960.27232753
_cell_formula_units_Z   2
loop_
 _symmetry_equiv_pos_site_id
 _symmetry_equiv_pos_as_xyz
  1  'x, y, z'
loop_
 _atom_site_type_symbol
 _atom_site_label
 _atom_site_symmetry_multiplicity
 _atom_site_fract_x
 _atom_site_fract_y
 _atom_site_fract_z
 _atom_site_occupancy
  C  C0  1  0.56053200  0.99525500  0.00405000  1
  C  C1  1  0.43946800  0.99525500  0.50405000  1
  C  C2  1  0.69713300  0.44129900  0.39826900  1
  C  C3  1  0.30286700  0.44129900  0.89826900  1
  C  C4  1  0.40485000  0.22585200  0.62213500  1
  C  C5  1  0.59515000  0.22585200  0.12213500  1
  C  C6  1  0.56072600  0.89026100  0.34459600  1
  C  C7  1  0.43927400  0.89026100  0.84459600  1
  C  C8  1  0.54089000  0.55189500  0.18199800  1
  C  C9  1  0.45911000  0.55189500  0.68199800  1
  C  C10  1  0.41989400  0.78390200  0.73086800  1
  C  C11  1  0.58010600  0.78390200  0.23086800  1
  C  C12  1  0.49078800  0.65866600  0.01397800  1
  C  C13  1  0.50921200  0.65866600  0.51397800  1
  C  C14  1  0.45952000  0.21779700  0.80485600  1
  C  C15  1  0.54048000  0.21779700  0.30485600  1
  Ni  Ni16  1  0.93649000  0.04059500  0.81101300  1
  Ni  Ni17  1  0.06351000  0.04059500  0.31101300  1
  Ni  Ni18  1  0.99932900  0.68451600  0.52727000  1
  Ni  Ni19  1  0.00067100  0.68451600  0.02727000  1
  Cu  Cu20  1  0.58267700  0.76443900  0.31861800  1
  Cu  Cu21  1  0.41732300  0.76443900  0.81861800  1
  Cu  Cu22  1  0.54046300  0.82996800  0.43642000  1
  Cu  Cu23  1  0.45953700  0.82996800  0.93642000  1
  Cu  Cu24  1  0.44137300  0.06718100  0.78322600  1
  Cu  Cu25  1  0.55862700  0.06718100  0.28322600  1
  Cu  Cu26  1  0.57198700  0.61053400  0.24296600  1
  Cu  Cu27  1  0.42801300  0.61053400  0.74296600  1
  Cu  Cu28  1  0.54615800  0.37758900  0.20844900  1
  Cu  Cu29  1  0.45384200  0.37758900  0.70844900  1
  Cu  Cu30  1  0.50665800  0.67908000  0.09210900  1
  Cu  Cu31  1  0.49334200  0.67908000  0.59210900  1
  Cu  Cu32  1  0.40790500  0.93394900  0.65345000  1
  Cu  Cu33  1  0.59209500  0.93394900  0.15345000  1
  Cu  Cu34  1  0.84402300  0.84466900  0.67644700  1
  Cu  Cu35  1  0.15597700  0.84466900  0.17644700  1
  Cu  Cu36  1  0.60899800  0.53399100  0.00565400  1
  Cu  Cu37  1  0.39100200  0.53399100  0.50565400  1
  Cu  Cu38  1  0.40210400  0.50182000  0.02195500  1
  Cu  Cu39  1  0.59789600  0.50182000  0.52195500  1
  Cu  Cu40  1  0.32616200  0.21664600  0.86503800  1
  Cu  Cu41  1  0.67383800  0.21664600  0.36503800  1
  Cu  Cu42  1  0.62131200  0.20216500  0.85431000  1
  Cu  Cu43  1  0.37868800  0.20216500  0.35431000  1
  Cu  Cu44  1  0.50887500  0.24347000  0.49453100  1
  Cu  Cu45  1  0.49112500  0.24347000  0.99453100  1
  Cu  Cu46  1  0.91091300  0.16669200  0.68345700  1
  Cu  Cu47  1  0.08908700  0.16669200  0.18345700  1
  Cu  Cu48  1  0.05584600  0.21607600  0.63683300  1
  Cu  Cu49  1  0.94415400  0.21607600  0.13683300  1
  Cu  Cu50  1  0.03285900  0.32023300  0.45944700  1
  Cu  Cu51  1  0.96714100  0.32023300  0.95944700  1
  Cu  Cu52  1  0.17126200  0.94112300  0.09329000  1
  Cu  Cu53  1  0.82873800  0.94112300  0.59329000  1
  Cu  Cu54  1  0.95083300  0.64355400  0.45427400  1
  Cu  Cu55  1  0.04916700  0.64355400  0.95427400  1
  Cu  Cu56  1  0.88843900  0.85102900  0.99560600  1
  Cu  Cu57  1  0.11156100  0.85102900  0.49560600  1
  Cu  Cu58  1  0.00541900  0.51628800  0.31259800  1
  Cu  Cu59  1  0.99458100  0.51628800  0.81259800  1
  Cu  Cu60  1  0.11472700  0.41276200  0.38008400  1
  Cu  Cu61  1  0.88527300  0.41276200  0.88008400  1
