# generated using pymatgen
data_Cu2Ni2C5
_symmetry_space_group_name_H-M   'P 1'
_cell_length_a   3.34871316
_cell_length_b   3.34871316
_cell_length_c   31.06646300
_cell_angle_alpha   90.00000000
_cell_angle_beta   90.00000000
_cell_angle_gamma   120.00002289
_symmetry_Int_Tables_number   1
_chemical_formula_structural   Cu2Ni2C5
_chemical_formula_sum   'Cu2 Ni2 C5'
_cell_volume   301.70203491
_cell_formula_units_Z   1
loop_
 _symmetry_equiv_pos_site_id
 _symmetry_equiv_pos_as_xyz
  1  'x, y, z'
loop_
 _atom_site_type_symbol
 _atom_site_label
 _atom_site_symmetry_multiplicity
 _atom_site_fract_x
 _atom_site_fract_y
 _atom_site_fract_z
 _atom_site_occupancy
  C  C0  1  0.00000000  0.00000000  0.40831600  1
  C  C1  1  0.00000000  0.00000000  0.28569400  1
  C  C2  1  0.00000000  0.00000000  0.11557800  1
  C  C3  1  0.00000000  0.00000000  0.57835300  1
  C  C4  1  0.33333300  0.66666700  0.34701100  1
  Ni  Ni5  1  0.33333300  0.66666700  0.06200900  1
  Ni  Ni6  1  0.33333300  0.66666700  0.16919800  1
  Cu  Cu7  1  0.33333300  0.66666700  0.52939600  1
  Cu  Cu8  1  0.33333300  0.66666700  0.62728700  1
