# generated using pymatgen
data_Cu19(Ni3C2)2
_symmetry_space_group_name_H-M   'P 1'
_cell_length_a   13.97759403
_cell_length_b   13.97759403
_cell_length_c   13.97759403
_cell_angle_alpha   90.00000000
_cell_angle_beta   90.00000000
_cell_angle_gamma   90.00000000
_symmetry_Int_Tables_number   1
_chemical_formula_structural   Cu19(Ni3C2)2
_chemical_formula_sum   'Cu152 Ni48 C32'
_cell_volume   2730.84636355
_cell_formula_units_Z   8
loop_
 _symmetry_equiv_pos_site_id
 _symmetry_equiv_pos_as_xyz
  1  'x, y, z'
loop_
 _atom_site_type_symbol
 _atom_site_label
 _atom_site_symmetry_multiplicity
 _atom_site_fract_x
 _atom_site_fract_y
 _atom_site_fract_z
 _atom_site_occupancy
  C  C0  1  0.30067706  0.69932294  0.19932294  1
  C  C1  1  0.69932294  0.19932294  0.30067706  1
  C  C2  1  0.19932294  0.30067706  0.69932294  1
  C  C3  1  0.80067706  0.80067706  0.80067706  1
  C  C4  1  0.69932294  0.30067706  0.80067706  1
  C  C5  1  0.30067706  0.80067706  0.69932294  1
  C  C6  1  0.80067706  0.69932294  0.30067706  1
  C  C7  1  0.19932294  0.19932294  0.19932294  1
  C  C8  1  0.12084438  0.73777921  0.25323602  1
  C  C9  1  0.87915562  0.23777921  0.24676398  1
  C  C10  1  0.37915562  0.26222079  0.75323602  1
  C  C11  1  0.62084438  0.76222079  0.74676398  1
  C  C12  1  0.25323602  0.12084438  0.73777921  1
  C  C13  1  0.24676398  0.87915562  0.23777921  1
  C  C14  1  0.75323602  0.37915562  0.26222079  1
  C  C15  1  0.74676398  0.62084438  0.76222079  1
  C  C16  1  0.73777921  0.25323602  0.12084438  1
  C  C17  1  0.23777921  0.24676398  0.87915562  1
  C  C18  1  0.26222079  0.75323602  0.37915562  1
  C  C19  1  0.76222079  0.74676398  0.62084438  1
  C  C20  1  0.87915562  0.26222079  0.74676398  1
  C  C21  1  0.12084438  0.76222079  0.75323602  1
  C  C22  1  0.62084438  0.73777921  0.24676398  1
  C  C23  1  0.37915562  0.23777921  0.25323602  1
  C  C24  1  0.74676398  0.87915562  0.26222079  1
  C  C25  1  0.75323602  0.12084438  0.76222079  1
  C  C26  1  0.24676398  0.62084438  0.73777921  1
  C  C27  1  0.25323602  0.37915562  0.23777921  1
  C  C28  1  0.26222079  0.74676398  0.87915562  1
  C  C29  1  0.76222079  0.75323602  0.12084438  1
  C  C30  1  0.73777921  0.24676398  0.62084438  1
  C  C31  1  0.23777921  0.25323602  0.37915562  1
  Ni  Ni32  1  0.15558226  0.61937940  0.11375837  1
  Ni  Ni33  1  0.84441774  0.11937940  0.38624163  1
  Ni  Ni34  1  0.34441774  0.38062060  0.61375837  1
  Ni  Ni35  1  0.65558226  0.88062060  0.88624163  1
  Ni  Ni36  1  0.11375837  0.15558226  0.61937940  1
  Ni  Ni37  1  0.38624163  0.84441774  0.11937940  1
  Ni  Ni38  1  0.61375837  0.34441774  0.38062060  1
  Ni  Ni39  1  0.88624163  0.65558226  0.88062060  1
  Ni  Ni40  1  0.61937940  0.11375837  0.15558226  1
  Ni  Ni41  1  0.11937940  0.38624163  0.84441774  1
  Ni  Ni42  1  0.38062060  0.61375837  0.34441774  1
  Ni  Ni43  1  0.88062060  0.88624163  0.65558226  1
  Ni  Ni44  1  0.84441774  0.38062060  0.88624163  1
  Ni  Ni45  1  0.15558226  0.88062060  0.61375837  1
  Ni  Ni46  1  0.65558226  0.61937940  0.38624163  1
  Ni  Ni47  1  0.34441774  0.11937940  0.11375837  1
  Ni  Ni48  1  0.88624163  0.84441774  0.38062060  1
  Ni  Ni49  1  0.61375837  0.15558226  0.88062060  1
  Ni  Ni50  1  0.38624163  0.65558226  0.61937940  1
  Ni  Ni51  1  0.11375837  0.34441774  0.11937940  1
  Ni  Ni52  1  0.38062060  0.88624163  0.84441774  1
  Ni  Ni53  1  0.88062060  0.61375837  0.15558226  1
  Ni  Ni54  1  0.61937940  0.38624163  0.65558226  1
  Ni  Ni55  1  0.11937940  0.11375837  0.34441774  1
  Ni  Ni56  1  0.09509215  0.69285679  0.43040475  1
  Ni  Ni57  1  0.90490785  0.19285679  0.06959525  1
  Ni  Ni58  1  0.40490785  0.30714321  0.93040475  1
  Ni  Ni59  1  0.59509215  0.80714321  0.56959525  1
  Ni  Ni60  1  0.43040475  0.09509215  0.69285679  1
  Ni  Ni61  1  0.06959525  0.90490785  0.19285679  1
  Ni  Ni62  1  0.93040475  0.40490785  0.30714321  1
  Ni  Ni63  1  0.56959525  0.59509215  0.80714321  1
  Ni  Ni64  1  0.69285679  0.43040475  0.09509215  1
  Ni  Ni65  1  0.19285679  0.06959525  0.90490785  1
  Ni  Ni66  1  0.30714321  0.93040475  0.40490785  1
  Ni  Ni67  1  0.80714321  0.56959525  0.59509215  1
  Ni  Ni68  1  0.90490785  0.30714321  0.56959525  1
  Ni  Ni69  1  0.09509215  0.80714321  0.93040475  1
  Ni  Ni70  1  0.59509215  0.69285679  0.06959525  1
  Ni  Ni71  1  0.40490785  0.19285679  0.43040475  1
  Ni  Ni72  1  0.56959525  0.90490785  0.30714321  1
  Ni  Ni73  1  0.93040475  0.09509215  0.80714321  1
  Ni  Ni74  1  0.06959525  0.59509215  0.69285679  1
  Ni  Ni75  1  0.43040475  0.40490785  0.19285679  1
  Ni  Ni76  1  0.30714321  0.56959525  0.90490785  1
  Ni  Ni77  1  0.80714321  0.93040475  0.09509215  1
  Ni  Ni78  1  0.69285679  0.06959525  0.59509215  1
  Ni  Ni79  1  0.19285679  0.43040475  0.40490785  1
  Cu  Cu80  1  0.23332257  0.76667743  0.26667743  1
  Cu  Cu81  1  0.76667743  0.26667743  0.23332257  1
  Cu  Cu82  1  0.26667743  0.23332257  0.76667743  1
  Cu  Cu83  1  0.73332257  0.73332257  0.73332257  1
  Cu  Cu84  1  0.76667743  0.23332257  0.73332257  1
  Cu  Cu85  1  0.23332257  0.73332257  0.76667743  1
  Cu  Cu86  1  0.73332257  0.76667743  0.23332257  1
  Cu  Cu87  1  0.26667743  0.26667743  0.26667743  1
  Cu  Cu88  1  0.24173797  0.61132523  0.14855090  1
  Cu  Cu89  1  0.75826203  0.11132523  0.35144910  1
  Cu  Cu90  1  0.25826203  0.38867477  0.64855090  1
  Cu  Cu91  1  0.74173797  0.88867477  0.85144910  1
  Cu  Cu92  1  0.14855090  0.24173797  0.61132523  1
  Cu  Cu93  1  0.35144910  0.75826203  0.11132523  1
  Cu  Cu94  1  0.64855090  0.25826203  0.38867477  1
  Cu  Cu95  1  0.85144910  0.74173797  0.88867477  1
  Cu  Cu96  1  0.61132523  0.14855090  0.24173797  1
  Cu  Cu97  1  0.11132523  0.35144910  0.75826203  1
  Cu  Cu98  1  0.38867477  0.64855090  0.25826203  1
  Cu  Cu99  1  0.88867477  0.85144910  0.74173797  1
  Cu  Cu100  1  0.75826203  0.38867477  0.85144910  1
  Cu  Cu101  1  0.24173797  0.88867477  0.64855090  1
  Cu  Cu102  1  0.74173797  0.61132523  0.35144910  1
  Cu  Cu103  1  0.25826203  0.11132523  0.14855090  1
  Cu  Cu104  1  0.85144910  0.75826203  0.38867477  1
  Cu  Cu105  1  0.64855090  0.24173797  0.88867477  1
  Cu  Cu106  1  0.35144910  0.74173797  0.61132523  1
  Cu  Cu107  1  0.14855090  0.25826203  0.11132523  1
  Cu  Cu108  1  0.38867477  0.85144910  0.75826203  1
  Cu  Cu109  1  0.88867477  0.64855090  0.24173797  1
  Cu  Cu110  1  0.61132523  0.35144910  0.74173797  1
  Cu  Cu111  1  0.11132523  0.14855090  0.25826203  1
  Cu  Cu112  1  0.09776138  0.68059223  0.15347774  1
  Cu  Cu113  1  0.90223862  0.18059223  0.34652226  1
  Cu  Cu114  1  0.40223862  0.31940777  0.65347774  1
  Cu  Cu115  1  0.59776138  0.81940777  0.84652226  1
  Cu  Cu116  1  0.15347774  0.09776138  0.68059223  1
  Cu  Cu117  1  0.34652226  0.90223862  0.18059223  1
  Cu  Cu118  1  0.65347774  0.40223862  0.31940777  1
  Cu  Cu119  1  0.84652226  0.59776138  0.81940777  1
  Cu  Cu120  1  0.68059223  0.15347774  0.09776138  1
  Cu  Cu121  1  0.18059223  0.34652226  0.90223862  1
  Cu  Cu122  1  0.31940777  0.65347774  0.40223862  1
  Cu  Cu123  1  0.81940777  0.84652226  0.59776138  1
  Cu  Cu124  1  0.90223862  0.31940777  0.84652226  1
  Cu  Cu125  1  0.09776138  0.81940777  0.65347774  1
  Cu  Cu126  1  0.59776138  0.68059223  0.34652226  1
  Cu  Cu127  1  0.40223862  0.18059223  0.15347774  1
  Cu  Cu128  1  0.84652226  0.90223862  0.31940777  1
  Cu  Cu129  1  0.65347774  0.09776138  0.81940777  1
  Cu  Cu130  1  0.34652226  0.59776138  0.68059223  1
  Cu  Cu131  1  0.15347774  0.40223862  0.18059223  1
  Cu  Cu132  1  0.31940777  0.84652226  0.90223862  1
  Cu  Cu133  1  0.81940777  0.65347774  0.09776138  1
  Cu  Cu134  1  0.68059223  0.34652226  0.59776138  1
  Cu  Cu135  1  0.18059223  0.15347774  0.40223862  1
  Cu  Cu136  1  0.12996073  0.57103148  0.04699184  1
  Cu  Cu137  1  0.87003927  0.07103148  0.45300816  1
  Cu  Cu138  1  0.37003927  0.42896852  0.54699184  1
  Cu  Cu139  1  0.62996073  0.92896852  0.95300816  1
  Cu  Cu140  1  0.04699184  0.12996073  0.57103148  1
  Cu  Cu141  1  0.45300816  0.87003927  0.07103148  1
  Cu  Cu142  1  0.54699184  0.37003927  0.42896852  1
  Cu  Cu143  1  0.95300816  0.62996073  0.92896852  1
  Cu  Cu144  1  0.57103148  0.04699184  0.12996073  1
  Cu  Cu145  1  0.07103148  0.45300816  0.87003927  1
  Cu  Cu146  1  0.42896852  0.54699184  0.37003927  1
  Cu  Cu147  1  0.92896852  0.95300816  0.62996073  1
  Cu  Cu148  1  0.87003927  0.42896852  0.95300816  1
  Cu  Cu149  1  0.12996073  0.92896852  0.54699184  1
  Cu  Cu150  1  0.62996073  0.57103148  0.45300816  1
  Cu  Cu151  1  0.37003927  0.07103148  0.04699184  1
  Cu  Cu152  1  0.95300816  0.87003927  0.42896852  1
  Cu  Cu153  1  0.54699184  0.12996073  0.92896852  1
  Cu  Cu154  1  0.45300816  0.62996073  0.57103148  1
  Cu  Cu155  1  0.04699184  0.37003927  0.07103148  1
  Cu  Cu156  1  0.42896852  0.95300816  0.87003927  1
  Cu  Cu157  1  0.92896852  0.54699184  0.12996073  1
  Cu  Cu158  1  0.57103148  0.45300816  0.62996073  1
  Cu  Cu159  1  0.07103148  0.04699184  0.37003927  1
  Cu  Cu160  1  0.08043419  0.67097240  0.34113452  1
  Cu  Cu161  1  0.91956581  0.17097240  0.15886548  1
  Cu  Cu162  1  0.41956581  0.32902760  0.84113452  1
  Cu  Cu163  1  0.58043419  0.82902760  0.65886548  1
  Cu  Cu164  1  0.34113452  0.08043419  0.67097240  1
  Cu  Cu165  1  0.15886548  0.91956581  0.17097240  1
  Cu  Cu166  1  0.84113452  0.41956581  0.32902760  1
  Cu  Cu167  1  0.65886548  0.58043419  0.82902760  1
  Cu  Cu168  1  0.67097240  0.34113452  0.08043419  1
  Cu  Cu169  1  0.17097240  0.15886548  0.91956581  1
  Cu  Cu170  1  0.32902760  0.84113452  0.41956581  1
  Cu  Cu171  1  0.82902760  0.65886548  0.58043419  1
  Cu  Cu172  1  0.91956581  0.32902760  0.65886548  1
  Cu  Cu173  1  0.08043419  0.82902760  0.84113452  1
  Cu  Cu174  1  0.58043419  0.67097240  0.15886548  1
  Cu  Cu175  1  0.41956581  0.17097240  0.34113452  1
  Cu  Cu176  1  0.65886548  0.91956581  0.32902760  1
  Cu  Cu177  1  0.84113452  0.08043419  0.82902760  1
  Cu  Cu178  1  0.15886548  0.58043419  0.67097240  1
  Cu  Cu179  1  0.34113452  0.41956581  0.17097240  1
  Cu  Cu180  1  0.32902760  0.65886548  0.91956581  1
  Cu  Cu181  1  0.82902760  0.84113452  0.08043419  1
  Cu  Cu182  1  0.67097240  0.15886548  0.58043419  1
  Cu  Cu183  1  0.17097240  0.34113452  0.41956581  1
  Cu  Cu184  1  0.16784435  0.74846727  0.45007794  1
  Cu  Cu185  1  0.83215565  0.24846727  0.04992206  1
  Cu  Cu186  1  0.33215565  0.25153273  0.95007794  1
  Cu  Cu187  1  0.66784435  0.75153273  0.54992206  1
  Cu  Cu188  1  0.45007794  0.16784435  0.74846727  1
  Cu  Cu189  1  0.04992206  0.83215565  0.24846727  1
  Cu  Cu190  1  0.95007794  0.33215565  0.25153273  1
  Cu  Cu191  1  0.54992206  0.66784435  0.75153273  1
  Cu  Cu192  1  0.74846727  0.45007794  0.16784435  1
  Cu  Cu193  1  0.24846727  0.04992206  0.83215565  1
  Cu  Cu194  1  0.25153273  0.95007794  0.33215565  1
  Cu  Cu195  1  0.75153273  0.54992206  0.66784435  1
  Cu  Cu196  1  0.83215565  0.25153273  0.54992206  1
  Cu  Cu197  1  0.16784435  0.75153273  0.95007794  1
  Cu  Cu198  1  0.66784435  0.74846727  0.04992206  1
  Cu  Cu199  1  0.33215565  0.24846727  0.45007794  1
  Cu  Cu200  1  0.54992206  0.83215565  0.25153273  1
  Cu  Cu201  1  0.95007794  0.16784435  0.75153273  1
  Cu  Cu202  1  0.04992206  0.66784435  0.74846727  1
  Cu  Cu203  1  0.45007794  0.33215565  0.24846727  1
  Cu  Cu204  1  0.25153273  0.54992206  0.83215565  1
  Cu  Cu205  1  0.75153273  0.95007794  0.16784435  1
  Cu  Cu206  1  0.74846727  0.04992206  0.66784435  1
  Cu  Cu207  1  0.24846727  0.45007794  0.33215565  1
  Cu  Cu208  1  0.04345916  0.66322195  0.49272436  1
  Cu  Cu209  1  0.95654084  0.16322195  0.00727564  1
  Cu  Cu210  1  0.45654084  0.33677805  0.99272436  1
  Cu  Cu211  1  0.54345916  0.83677805  0.50727564  1
  Cu  Cu212  1  0.49272436  0.04345916  0.66322195  1
  Cu  Cu213  1  0.00727564  0.95654084  0.16322195  1
  Cu  Cu214  1  0.99272436  0.45654084  0.33677805  1
  Cu  Cu215  1  0.50727564  0.54345916  0.83677805  1
  Cu  Cu216  1  0.66322195  0.49272436  0.04345916  1
  Cu  Cu217  1  0.16322195  0.00727564  0.95654084  1
  Cu  Cu218  1  0.33677805  0.99272436  0.45654084  1
  Cu  Cu219  1  0.83677805  0.50727564  0.54345916  1
  Cu  Cu220  1  0.95654084  0.33677805  0.50727564  1
  Cu  Cu221  1  0.04345916  0.83677805  0.99272436  1
  Cu  Cu222  1  0.54345916  0.66322195  0.00727564  1
  Cu  Cu223  1  0.45654084  0.16322195  0.49272436  1
  Cu  Cu224  1  0.50727564  0.95654084  0.33677805  1
  Cu  Cu225  1  0.99272436  0.04345916  0.83677805  1
  Cu  Cu226  1  0.00727564  0.54345916  0.66322195  1
  Cu  Cu227  1  0.49272436  0.45654084  0.16322195  1
  Cu  Cu228  1  0.33677805  0.50727564  0.95654084  1
  Cu  Cu229  1  0.83677805  0.99272436  0.04345916  1
  Cu  Cu230  1  0.66322195  0.00727564  0.54345916  1
  Cu  Cu231  1  0.16322195  0.49272436  0.45654084  1
