# generated using pymatgen
data_CuNiC7
_symmetry_space_group_name_H-M   'P 1'
_cell_length_a   3.86879900
_cell_length_b   11.50853200
_cell_length_c   16.62014200
_cell_angle_alpha   90.00000000
_cell_angle_beta   90.00000000
_cell_angle_gamma   90.00000000
_symmetry_Int_Tables_number   1
_chemical_formula_structural   CuNiC7
_chemical_formula_sum   'Cu4 Ni4 C28'
_cell_volume   739.99847812
_cell_formula_units_Z   4
loop_
 _symmetry_equiv_pos_site_id
 _symmetry_equiv_pos_as_xyz
  1  'x, y, z'
loop_
 _atom_site_type_symbol
 _atom_site_label
 _atom_site_symmetry_multiplicity
 _atom_site_fract_x
 _atom_site_fract_y
 _atom_site_fract_z
 _atom_site_occupancy
  C  C0  1  0.25000000  0.13439000  0.40414800  1
  C  C1  1  0.25000000  0.63439000  0.09585200  1
  C  C2  1  0.75000000  0.86561000  0.59585200  1
  C  C3  1  0.75000000  0.36561000  0.90414800  1
  C  C4  1  0.25000000  0.47414600  0.32007000  1
  C  C5  1  0.25000000  0.97414600  0.17993000  1
  C  C6  1  0.75000000  0.52585400  0.67993000  1
  C  C7  1  0.75000000  0.02585400  0.82007000  1
  Ni  Ni8  1  0.25000000  0.19457000  0.63851100  1
  Ni  Ni9  1  0.25000000  0.69457000  0.86148900  1
  Ni  Ni10  1  0.75000000  0.80543000  0.36148900  1
  Ni  Ni11  1  0.75000000  0.30543000  0.13851100  1
  Cu  Cu12  1  0.25000000  0.58208200  0.49588700  1
  Cu  Cu13  1  0.25000000  0.08208200  0.00411300  1
  Cu  Cu14  1  0.75000000  0.41791800  0.50411300  1
  Cu  Cu15  1  0.75000000  0.91791800  0.99588700  1
  C  C16  1  0.25000000  0.74125600  0.26827500  1
  C  C17  1  0.25000000  0.24125600  0.23172500  1
  C  C18  1  0.75000000  0.25874400  0.73172500  1
  C  C19  1  0.75000000  0.75874400  0.76827500  1
  C  C20  1  0.25000000  0.89111900  0.46460800  1
  C  C21  1  0.25000000  0.39111900  0.03539200  1
  C  C22  1  0.75000000  0.10888100  0.53539200  1
  C  C23  1  0.75000000  0.60888100  0.96460800  1
  C  C24  1  0.25000000  0.68425300  0.61248900  1
  C  C25  1  0.25000000  0.18425300  0.88751100  1
  C  C26  1  0.75000000  0.31574700  0.38751100  1
  C  C27  1  0.75000000  0.81574700  0.11248900  1
  C  C28  1  0.25000000  0.40400300  0.58040800  1
  C  C29  1  0.25000000  0.90400300  0.91959200  1
  C  C30  1  0.75000000  0.59599700  0.41959200  1
  C  C31  1  0.75000000  0.09599700  0.08040800  1
  C  C32  1  0.25000000  0.48608900  0.80501100  1
  C  C33  1  0.25000000  0.98608900  0.69498900  1
  C  C34  1  0.75000000  0.51391100  0.19498900  1
  C  C35  1  0.75000000  0.01391100  0.30501100  1
