# generated using pymatgen
data_Cu3Ni2C31
_symmetry_space_group_name_H-M   'P 1'
_cell_length_a   8.36875291
_cell_length_b   8.36875291
_cell_length_c   8.36875271
_cell_angle_alpha   62.34614096
_cell_angle_beta   62.34614096
_cell_angle_gamma   62.34613963
_symmetry_Int_Tables_number   1
_chemical_formula_structural   Cu3Ni2C31
_chemical_formula_sum   'Cu3 Ni2 C31'
_cell_volume   436.13919631
_cell_formula_units_Z   1
loop_
 _symmetry_equiv_pos_site_id
 _symmetry_equiv_pos_as_xyz
  1  'x, y, z'
loop_
 _atom_site_type_symbol
 _atom_site_label
 _atom_site_symmetry_multiplicity
 _atom_site_fract_x
 _atom_site_fract_y
 _atom_site_fract_z
 _atom_site_occupancy
  Ni  Ni0  1  0.00159400  0.00159400  0.00159400  1
  Ni  Ni1  1  0.50082700  0.50082700  0.50082700  1
  Cu  Cu2  1  0.64682100  0.64682100  0.64682100  1
  Cu  Cu3  1  0.85387900  0.85387900  0.85387900  1
  Cu  Cu4  1  0.35241700  0.35241700  0.35241700  1
  C  C5  1  0.14507900  0.14507900  0.14507900  1
  C  C6  1  0.95178000  0.24946500  0.54719900  1
  C  C7  1  0.54719900  0.95178000  0.24946500  1
  C  C8  1  0.24946500  0.54719900  0.95178000  1
  C  C9  1  0.74960200  0.45156000  0.04842300  1
  C  C10  1  0.45156000  0.04842300  0.74960200  1
  C  C11  1  0.04842300  0.74960200  0.45156000  1
  C  C12  1  0.50666300  0.10689900  0.32378900  1
  C  C13  1  0.32378900  0.50666300  0.10689900  1
  C  C14  1  0.10689900  0.32378900  0.50666300  1
  C  C15  1  0.93758600  0.09778100  0.75560700  1
  C  C16  1  0.98798200  0.17531300  0.39748400  1
  C  C17  1  0.74695600  0.40361600  0.56732700  1
  C  C18  1  0.75560700  0.93758600  0.09778100  1
  C  C19  1  0.56732700  0.74695600  0.40361600  1
  C  C20  1  0.82452100  0.60674900  0.00527100  1
  C  C21  1  0.40361600  0.56732700  0.74695600  1
  C  C22  1  0.89996100  0.24671500  0.06039100  1
  C  C23  1  0.60674900  0.00527100  0.82452100  1
  C  C24  1  0.39748400  0.98798200  0.17531300  1
  C  C25  1  0.09778100  0.75560700  0.93758600  1
  C  C26  1  0.59740200  0.43685600  0.25218200  1
  C  C27  1  0.17531300  0.39748400  0.98798200  1
  C  C28  1  0.43685600  0.25218200  0.59740200  1
  C  C29  1  0.24671500  0.06039100  0.89996100  1
  C  C30  1  0.25218200  0.59740200  0.43685600  1
  C  C31  1  0.00527100  0.82452100  0.60674900  1
  C  C32  1  0.06039100  0.89996100  0.24671500  1
  C  C33  1  0.89392800  0.67299500  0.49736500  1
  C  C34  1  0.67299500  0.49736500  0.89392800  1
  C  C35  1  0.49736500  0.89392800  0.67299500  1
