# generated using pymatgen
data_Cu3NiC3
_symmetry_space_group_name_H-M   'P 1'
_cell_length_a   5.81511360
_cell_length_b   9.32129400
_cell_length_c   10.63193660
_cell_angle_alpha   90.00000000
_cell_angle_beta   99.34533194
_cell_angle_gamma   90.00000000
_symmetry_Int_Tables_number   1
_chemical_formula_structural   Cu3NiC3
_chemical_formula_sum   'Cu24 Ni8 C24'
_cell_volume   568.64868701
_cell_formula_units_Z   8
loop_
 _symmetry_equiv_pos_site_id
 _symmetry_equiv_pos_as_xyz
  1  'x, y, z'
loop_
 _atom_site_type_symbol
 _atom_site_label
 _atom_site_symmetry_multiplicity
 _atom_site_fract_x
 _atom_site_fract_y
 _atom_site_fract_z
 _atom_site_occupancy
  C  C0  1  0.84058300  0.31523600  0.54616800  1
  C  C1  1  0.34058300  0.18476400  0.04616800  1
  C  C2  1  0.15941700  0.68476400  0.45383200  1
  C  C3  1  0.65941700  0.81523600  0.95383200  1
  C  C4  1  0.59779400  0.53639400  0.23416300  1
  C  C5  1  0.09779400  0.96360600  0.73416300  1
  C  C6  1  0.40220600  0.46360600  0.76583700  1
  C  C7  1  0.90220600  0.03639400  0.26583700  1
  C  C8  1  0.74829900  0.64813600  0.57405200  1
  C  C9  1  0.24829900  0.85186400  0.07405200  1
  C  C10  1  0.25170100  0.35186400  0.42594800  1
  C  C11  1  0.75170100  0.14813600  0.92594800  1
  C  C12  1  0.95874200  0.59223100  0.67580400  1
  C  C13  1  0.45874200  0.90776900  0.17580400  1
  C  C14  1  0.04125800  0.40776900  0.32419600  1
  C  C15  1  0.54125800  0.09223100  0.82419600  1
  C  C16  1  0.43886200  0.13979500  0.40722600  1
  C  C17  1  0.93886200  0.36020500  0.90722600  1
  C  C18  1  0.56113800  0.86020500  0.59277400  1
  C  C19  1  0.06113800  0.63979500  0.09277400  1
  C  C20  1  0.39095500  0.14827500  0.54831000  1
  C  C21  1  0.89095500  0.35172500  0.04831000  1
  C  C22  1  0.60904500  0.85172500  0.45169000  1
  C  C23  1  0.10904500  0.64827500  0.95169000  1
  Ni  Ni24  1  0.88213400  0.58107000  0.58662400  1
  Ni  Ni25  1  0.38213400  0.91893000  0.08662400  1
  Ni  Ni26  1  0.11786600  0.41893000  0.41337600  1
  Ni  Ni27  1  0.61786600  0.08107000  0.91337600  1
  Ni  Ni28  1  0.45520400  0.20229000  0.48200400  1
  Ni  Ni29  1  0.95520400  0.29771000  0.98200400  1
  Ni  Ni30  1  0.54479600  0.79771000  0.51799600  1
  Ni  Ni31  1  0.04479600  0.70229000  0.01799600  1
  Cu  Cu32  1  0.39954500  0.41591800  0.15887200  1
  Cu  Cu33  1  0.89954500  0.08408200  0.65887200  1
  Cu  Cu34  1  0.60045500  0.58408200  0.84112800  1
  Cu  Cu35  1  0.10045500  0.91591800  0.34112800  1
  Cu  Cu36  1  0.80322700  0.65260100  0.31349200  1
  Cu  Cu37  1  0.30322700  0.84739900  0.81349200  1
  Cu  Cu38  1  0.19677300  0.34739900  0.68650800  1
  Cu  Cu39  1  0.69677300  0.15260100  0.18650800  1
  Cu  Cu40  1  0.37738900  0.63224700  0.28674600  1
  Cu  Cu41  1  0.87738900  0.86775300  0.78674600  1
  Cu  Cu42  1  0.62261100  0.36775300  0.71325400  1
  Cu  Cu43  1  0.12261100  0.13224700  0.21325400  1
  Cu  Cu44  1  0.82472900  0.44564500  0.18230200  1
  Cu  Cu45  1  0.32472900  0.05435500  0.68230200  1
  Cu  Cu46  1  0.17527100  0.55435500  0.81769800  1
  Cu  Cu47  1  0.67527100  0.94564500  0.31769800  1
  Cu  Cu48  1  0.56979600  0.64140900  0.10193100  1
  Cu  Cu49  1  0.06979600  0.85859100  0.60193100  1
  Cu  Cu50  1  0.43020400  0.35859100  0.89806900  1
  Cu  Cu51  1  0.93020400  0.14140900  0.39806900  1
  Cu  Cu52  1  0.62656800  0.43236500  0.36891100  1
  Cu  Cu53  1  0.12656800  0.06763500  0.86891100  1
  Cu  Cu54  1  0.37343200  0.56763500  0.63108900  1
  Cu  Cu55  1  0.87343200  0.93236500  0.13108900  1
