# generated using pymatgen
data_CuNiC5
_symmetry_space_group_name_H-M   'P 1'
_cell_length_a   6.35564788
_cell_length_b   6.35564788
_cell_length_c   7.41387000
_cell_angle_alpha   90.00000000
_cell_angle_beta   90.00000000
_cell_angle_gamma   102.68118599
_symmetry_Int_Tables_number   1
_chemical_formula_structural   CuNiC5
_chemical_formula_sum   'Cu4 Ni4 C20'
_cell_volume   292.17253524
_cell_formula_units_Z   4
loop_
 _symmetry_equiv_pos_site_id
 _symmetry_equiv_pos_as_xyz
  1  'x, y, z'
loop_
 _atom_site_type_symbol
 _atom_site_label
 _atom_site_symmetry_multiplicity
 _atom_site_fract_x
 _atom_site_fract_y
 _atom_site_fract_z
 _atom_site_occupancy
  C  C0  1  0.93433600  0.69271100  0.01338600  1
  C  C1  1  0.06566400  0.30728900  0.51338600  1
  C  C2  1  0.30728900  0.06566400  0.51338600  1
  C  C3  1  0.69271100  0.93433600  0.01338600  1
  C  C4  1  0.87753300  0.12686800  0.26240800  1
  C  C5  1  0.12246700  0.87313200  0.76240800  1
  C  C6  1  0.87313200  0.12246700  0.76240800  1
  C  C7  1  0.12686800  0.87753300  0.26240800  1
  C  C8  1  0.15214300  0.15214300  0.01213500  1
  C  C9  1  0.84785700  0.84785700  0.51213500  1
  C  C10  1  0.80988200  0.51365800  0.32224500  1
  C  C11  1  0.19011800  0.48634200  0.82224500  1
  C  C12  1  0.48634200  0.19011800  0.82224500  1
  C  C13  1  0.51365800  0.80988200  0.32224500  1
  C  C14  1  0.19362700  0.48818100  0.20119300  1
  C  C15  1  0.80637300  0.51181900  0.70119300  1
  C  C16  1  0.51181900  0.80637300  0.70119300  1
  C  C17  1  0.48818100  0.19362700  0.20119300  1
  C  C18  1  0.53330500  0.53330500  0.00354800  1
  C  C19  1  0.46669500  0.46669500  0.50354900  1
  Ni  Ni20  1  0.82105500  0.32653400  0.01169800  1
  Ni  Ni21  1  0.17894500  0.67346600  0.51169800  1
  Ni  Ni22  1  0.67346600  0.17894500  0.51169800  1
  Ni  Ni23  1  0.32653400  0.82105500  0.01169800  1
  Cu  Cu24  1  0.18868200  0.18868200  0.72634500  1
  Cu  Cu25  1  0.81131800  0.81131800  0.22634500  1
  Cu  Cu26  1  0.19393000  0.19393000  0.30091100  1
  Cu  Cu27  1  0.80607000  0.80607000  0.80091100  1
