# generated using pymatgen
data_Cu4Ni29C13
_symmetry_space_group_name_H-M   'P 1'
_cell_length_a   11.18675800
_cell_length_b   11.18675800
_cell_length_c   7.86063200
_cell_angle_alpha   90.00000000
_cell_angle_beta   90.00000000
_cell_angle_gamma   90.00000000
_symmetry_Int_Tables_number   1
_chemical_formula_structural   Cu4Ni29C13
_chemical_formula_sum   'Cu8 Ni58 C26'
_cell_volume   983.70742949
_cell_formula_units_Z   2
loop_
 _symmetry_equiv_pos_site_id
 _symmetry_equiv_pos_as_xyz
  1  'x, y, z'
loop_
 _atom_site_type_symbol
 _atom_site_label
 _atom_site_symmetry_multiplicity
 _atom_site_fract_x
 _atom_site_fract_y
 _atom_site_fract_z
 _atom_site_occupancy
  C  C0  1  0.25000000  0.75000000  0.00000000  1
  C  C1  1  0.25000000  0.25000000  0.00000000  1
  C  C2  1  0.75000000  0.75000000  0.00000000  1
  C  C3  1  0.75000000  0.25000000  0.00000000  1
  C  C4  1  0.00000000  0.00000000  0.50000000  1
  C  C5  1  0.50000000  0.50000000  0.50000000  1
  Ni  Ni6  1  0.33824500  0.67491400  0.33735600  1
  Ni  Ni7  1  0.27468700  0.00000000  0.52516300  1
  Ni  Ni8  1  0.50000000  0.77468700  0.52516300  1
  Ni  Ni9  1  0.50000000  0.22531300  0.52516300  1
  Ni  Ni10  1  0.83625700  0.50000000  0.97175400  1
  Ni  Ni11  1  0.00000000  0.66374300  0.97175400  1
  Ni  Ni12  1  0.00000000  0.33625700  0.97175400  1
  Ni  Ni13  1  0.16374300  0.50000000  0.97175400  1
  Ni  Ni14  1  0.66374300  0.00000000  0.02824600  1
  Ni  Ni15  1  0.33625700  0.00000000  0.02824600  1
  Ni  Ni16  1  0.50000000  0.83625700  0.02824600  1
  Ni  Ni17  1  0.50000000  0.16374300  0.02824600  1
  Ni  Ni18  1  0.88640300  0.38640300  0.25305900  1
  Ni  Ni19  1  0.88640300  0.61359700  0.25305900  1
  Ni  Ni20  1  0.11359700  0.38640300  0.25305900  1
  Ni  Ni21  1  0.11359700  0.61359700  0.25305900  1
  Ni  Ni22  1  0.61359700  0.88640300  0.74694100  1
  Ni  Ni23  1  0.38640300  0.11359700  0.74694100  1
  Ni  Ni24  1  0.38640300  0.88640300  0.74694100  1
  Ni  Ni25  1  0.61359700  0.11359700  0.74694100  1
  Ni  Ni26  1  0.89052500  0.39052500  0.69824400  1
  Ni  Ni27  1  0.89052500  0.60947500  0.69824400  1
  Ni  Ni28  1  0.10947500  0.39052500  0.69824400  1
  Ni  Ni29  1  0.10947500  0.60947500  0.69824400  1
  Ni  Ni30  1  0.60947500  0.89052500  0.30175600  1
  Ni  Ni31  1  0.39052500  0.10947500  0.30175600  1
  Ni  Ni32  1  0.39052500  0.89052500  0.30175600  1
  Ni  Ni33  1  0.60947500  0.10947500  0.30175600  1
  Ni  Ni34  1  0.33824500  0.32508600  0.33735600  1
  Ni  Ni35  1  0.82508600  0.16175500  0.33735600  1
  Ni  Ni36  1  0.17491400  0.83824500  0.33735600  1
  Ni  Ni37  1  0.66175500  0.67491400  0.33735600  1
  Ni  Ni38  1  0.16175500  0.82508600  0.66264400  1
  Ni  Ni39  1  0.83824500  0.17491400  0.66264400  1
  Ni  Ni40  1  0.32508600  0.33824500  0.66264400  1
  Ni  Ni41  1  0.61021400  0.50000000  0.88903700  1
  Ni  Ni42  1  0.16175500  0.17491400  0.66264400  1
  Ni  Ni43  1  0.67491400  0.33824500  0.66264400  1
  Ni  Ni44  1  0.32508600  0.66175500  0.66264400  1
  Ni  Ni45  1  0.83824500  0.82508600  0.66264400  1
  Ni  Ni46  1  0.72531300  0.00000000  0.52516300  1
  Ni  Ni47  1  0.00000000  0.88978600  0.88903700  1
  Ni  Ni48  1  0.17491400  0.16175500  0.33735600  1
  Ni  Ni49  1  0.82508600  0.83824500  0.33735600  1
  Ni  Ni50  1  0.00000000  0.11021400  0.88903700  1
  Ni  Ni51  1  0.38978600  0.50000000  0.88903700  1
  Ni  Ni52  1  0.50000000  0.00000000  0.53089300  1
  Ni  Ni53  1  0.00000000  0.50000000  0.46910700  1
  Ni  Ni54  1  0.11021400  0.00000000  0.11096300  1
  Ni  Ni55  1  0.22531300  0.50000000  0.47483700  1
  Ni  Ni56  1  0.00000000  0.27468700  0.47483700  1
  Ni  Ni57  1  0.00000000  0.72531300  0.47483700  1
  Ni  Ni58  1  0.77468700  0.50000000  0.47483700  1
  Ni  Ni59  1  0.50000000  0.61021400  0.11096300  1
  Ni  Ni60  1  0.50000000  0.38978600  0.11096300  1
  Ni  Ni61  1  0.88978600  0.00000000  0.11096300  1
  Ni  Ni62  1  0.67491400  0.66175500  0.66264400  1
  Ni  Ni63  1  0.66175500  0.32508600  0.33735600  1
  Cu  Cu64  1  0.50000000  0.68133400  0.82395300  1
  Cu  Cu65  1  0.31866600  0.50000000  0.17604700  1
  Cu  Cu66  1  0.00000000  0.18133400  0.17604700  1
  Cu  Cu67  1  0.00000000  0.81866600  0.17604700  1
  Cu  Cu68  1  0.68133400  0.50000000  0.17604700  1
  Cu  Cu69  1  0.18133400  0.00000000  0.82395300  1
  Cu  Cu70  1  0.81866600  0.00000000  0.82395300  1
  Cu  Cu71  1  0.50000000  0.31866600  0.82395300  1
  C  C72  1  0.68629800  0.18629800  0.51753100  1
  C  C73  1  0.31370200  0.81370200  0.51753100  1
  C  C74  1  0.31370200  0.18629800  0.51753100  1
  C  C75  1  0.68629800  0.81370200  0.51753100  1
  C  C76  1  0.18629800  0.68629800  0.48246900  1
  C  C77  1  0.18629800  0.31370200  0.48246900  1
  C  C78  1  0.50000000  0.25593300  0.26179300  1
  C  C79  1  0.50000000  0.74406700  0.26179300  1
  C  C80  1  0.24406700  0.00000000  0.26179300  1
  C  C81  1  0.75593300  0.00000000  0.26179300  1
  C  C82  1  0.25593300  0.50000000  0.73820700  1
  C  C83  1  0.00000000  0.24406700  0.73820700  1
  C  C84  1  0.00000000  0.75593300  0.73820700  1
  C  C85  1  0.74406700  0.50000000  0.73820700  1
  C  C86  1  0.50000000  0.00000000  0.14828300  1
  C  C87  1  0.00000000  0.50000000  0.85171700  1
  C  C88  1  0.50000000  0.00000000  0.89333500  1
  C  C89  1  0.00000000  0.50000000  0.10666500  1
  C  C90  1  0.81370200  0.68629800  0.48246900  1
  C  C91  1  0.81370200  0.31370200  0.48246900  1
