# generated using pymatgen
data_Cu7NiC32
_symmetry_space_group_name_H-M   'P 1'
_cell_length_a   7.85490346
_cell_length_b   7.85490346
_cell_length_c   7.85490406
_cell_angle_alpha   90.00485847
_cell_angle_beta   90.00485847
_cell_angle_gamma   90.00485867
_symmetry_Int_Tables_number   1
_chemical_formula_structural   Cu7NiC32
_chemical_formula_sum   'Cu7 Ni1 C32'
_cell_volume   484.64371382
_cell_formula_units_Z   1
loop_
 _symmetry_equiv_pos_site_id
 _symmetry_equiv_pos_as_xyz
  1  'x, y, z'
loop_
 _atom_site_type_symbol
 _atom_site_label
 _atom_site_symmetry_multiplicity
 _atom_site_fract_x
 _atom_site_fract_y
 _atom_site_fract_z
 _atom_site_occupancy
  C  C0  1  0.74967300  0.74967300  0.74967300  1
  C  C1  1  0.74971500  0.25026500  0.74971500  1
  C  C2  1  0.74973500  0.25029800  0.25029800  1
  C  C3  1  0.74971500  0.74971500  0.25026500  1
  C  C4  1  0.25029800  0.25029800  0.74973500  1
  C  C5  1  0.25021800  0.25021800  0.25021800  1
  C  C6  1  0.25026500  0.74971500  0.74971500  1
  C  C7  1  0.25029800  0.74973500  0.25029800  1
  Ni  Ni8  1  0.49907700  0.49907700  0.49907700  1
  Cu  Cu9  1  0.49900700  0.00098400  0.00098400  1
  Cu  Cu10  1  0.49916700  0.00095700  0.49916700  1
  Cu  Cu11  1  0.49916700  0.49916700  0.00095700  1
  Cu  Cu12  1  0.00085000  0.00085000  0.00085000  1
  Cu  Cu13  1  0.00098400  0.00098400  0.49900700  1
  Cu  Cu14  1  0.00098400  0.49900700  0.00098400  1
  Cu  Cu15  1  0.00095700  0.49916700  0.49916700  1
  C  C16  1  0.74952100  0.00379300  0.00379300  1
  C  C17  1  0.75171300  0.00375400  0.49615400  1
  C  C18  1  0.75171300  0.49615400  0.00375400  1
  C  C19  1  0.74518800  0.49604900  0.49604900  1
  C  C20  1  0.25036500  0.00091900  0.00091900  1
  C  C21  1  0.24845100  0.00091000  0.49913300  1
  C  C22  1  0.24845100  0.49913300  0.00091000  1
  C  C23  1  0.25448300  0.49928900  0.49928900  1
  C  C24  1  0.49913300  0.24845100  0.00091000  1
  C  C25  1  0.49928900  0.25448300  0.49928900  1
  C  C26  1  0.49615400  0.75171300  0.00375400  1
  C  C27  1  0.49604900  0.74518800  0.49604900  1
  C  C28  1  0.00091900  0.25036500  0.00091900  1
  C  C29  1  0.00091000  0.24845100  0.49913300  1
  C  C30  1  0.00379300  0.74952100  0.00379300  1
  C  C31  1  0.00375400  0.75171300  0.49615400  1
  C  C32  1  0.49615400  0.00375400  0.75171300  1
  C  C33  1  0.49913300  0.00091000  0.24845100  1
  C  C34  1  0.49604900  0.49604900  0.74518800  1
  C  C35  1  0.49928900  0.49928900  0.25448300  1
  C  C36  1  0.00379300  0.00379300  0.74952100  1
  C  C37  1  0.00091900  0.00091900  0.25036500  1
  C  C38  1  0.00375400  0.49615400  0.75171300  1
  C  C39  1  0.00091000  0.49913300  0.24845100  1
