# generated using pymatgen
data_Cu2(Ni2C)3
_symmetry_space_group_name_H-M   'P 1'
_cell_length_a   6.80041959
_cell_length_b   6.80041959
_cell_length_c   8.77766538
_cell_angle_alpha   88.20249481
_cell_angle_beta   88.20249481
_cell_angle_gamma   91.23066291
_symmetry_Int_Tables_number   1
_chemical_formula_structural   Cu2(Ni2C)3
_chemical_formula_sum   'Cu4 Ni12 C6'
_cell_volume   405.42743001
_cell_formula_units_Z   2
loop_
 _symmetry_equiv_pos_site_id
 _symmetry_equiv_pos_as_xyz
  1  'x, y, z'
loop_
 _atom_site_type_symbol
 _atom_site_label
 _atom_site_symmetry_multiplicity
 _atom_site_fract_x
 _atom_site_fract_y
 _atom_site_fract_z
 _atom_site_occupancy
  C  C0  1  0.97731500  0.02268500  0.25000000  1
  C  C1  1  0.02268500  0.97731500  0.75000000  1
  Ni  Ni2  1  0.28991900  0.71008100  0.25000000  1
  Ni  Ni3  1  0.71008100  0.28991900  0.75000000  1
  Ni  Ni4  1  0.15774300  0.84225700  0.25000000  1
  Ni  Ni5  1  0.84225700  0.15774300  0.75000000  1
  Ni  Ni6  1  0.58778400  0.27807900  0.29800700  1
  Ni  Ni7  1  0.72192100  0.41221600  0.20199300  1
  Ni  Ni8  1  0.41221600  0.72192100  0.70199300  1
  Ni  Ni9  1  0.27807900  0.58778400  0.79800700  1
  Ni  Ni10  1  0.71334200  0.20170100  0.17719800  1
  Ni  Ni11  1  0.79829900  0.28665800  0.32280200  1
  Ni  Ni12  1  0.28665800  0.79829900  0.82280200  1
  Ni  Ni13  1  0.20170100  0.71334200  0.67719800  1
  C  C14  1  0.78746500  0.84979900  0.40671700  1
  C  C15  1  0.15020100  0.21253500  0.09328300  1
  C  C16  1  0.21253500  0.15020100  0.59328300  1
  C  C17  1  0.84979900  0.78746500  0.90671700  1
  Cu  Cu18  1  0.28893300  0.58907400  0.36083700  1
  Cu  Cu19  1  0.41092600  0.71106700  0.13916300  1
  Cu  Cu20  1  0.71106700  0.41092600  0.63916300  1
  Cu  Cu21  1  0.58907400  0.28893300  0.86083700  1
