# generated using pymatgen
data_Cu6Ni2C17
_symmetry_space_group_name_H-M   'P 1'
_cell_length_a   6.30030531
_cell_length_b   6.30030531
_cell_length_c   14.42973856
_cell_angle_alpha   82.64461720
_cell_angle_beta   97.35538280
_cell_angle_gamma   89.35429225
_symmetry_Int_Tables_number   1
_chemical_formula_structural   Cu6Ni2C17
_chemical_formula_sum   'Cu12 Ni4 C34'
_cell_volume   563.16132725
_cell_formula_units_Z   2
loop_
 _symmetry_equiv_pos_site_id
 _symmetry_equiv_pos_as_xyz
  1  'x, y, z'
loop_
 _atom_site_type_symbol
 _atom_site_label
 _atom_site_symmetry_multiplicity
 _atom_site_fract_x
 _atom_site_fract_y
 _atom_site_fract_z
 _atom_site_occupancy
  C  C0  1  0.73651900  0.04595300  0.47128300  1
  C  C1  1  0.95404700  0.26348100  0.97128300  1
  C  C2  1  0.25499000  0.50021600  0.56922400  1
  C  C3  1  0.49978400  0.74501000  0.06922400  1
  Ni  Ni4  1  0.25108200  0.02154000  0.52120300  1
  Ni  Ni5  1  0.97846000  0.74891800  0.02120300  1
  Ni  Ni6  1  0.74756300  0.52144600  0.52591600  1
  Ni  Ni7  1  0.47855400  0.25243700  0.02591600  1
  Cu  Cu8  1  0.82378600  0.03604300  0.30241800  1
  Cu  Cu9  1  0.96395700  0.17621400  0.80241800  1
  Cu  Cu10  1  0.14767800  0.42074200  0.76414800  1
  Cu  Cu11  1  0.57925800  0.85232200  0.26414800  1
  Cu  Cu12  1  0.34721200  0.56901300  0.76273400  1
  Cu  Cu13  1  0.43098700  0.65278800  0.26273400  1
  Cu  Cu14  1  0.11621400  0.92872100  0.70312700  1
  Cu  Cu15  1  0.07127900  0.88378600  0.20312700  1
  Cu  Cu16  1  0.77857100  0.57873800  0.78612000  1
  Cu  Cu17  1  0.42126200  0.22142900  0.28612000  1
  Cu  Cu18  1  0.89376300  0.79656700  0.77831400  1
  Cu  Cu19  1  0.20343300  0.10623700  0.27831400  1
  C  C20  1  0.48864200  0.04136400  0.78990200  1
  C  C21  1  0.95863600  0.51135800  0.28990200  1
  C  C22  1  0.78715600  0.02825600  0.58630500  1
  C  C23  1  0.97174400  0.21284400  0.08630500  1
  C  C24  1  0.43173100  0.04142000  0.45902200  1
  C  C25  1  0.95858000  0.56826900  0.95902200  1
  C  C26  1  0.04160600  0.05931200  0.45367800  1
  C  C27  1  0.94068800  0.95839400  0.95367800  1
  C  C28  1  0.72735500  0.36161200  0.45206100  1
  C  C29  1  0.63838800  0.27264500  0.95206100  1
  C  C30  1  0.74301200  0.73951700  0.46501600  1
  C  C31  1  0.26048300  0.25698800  0.96501600  1
  C  C32  1  0.21161900  0.52247000  0.45502900  1
  C  C33  1  0.47753000  0.78838100  0.95502900  1
  C  C34  1  0.26053300  0.79984200  0.58396500  1
  C  C35  1  0.20015800  0.73946700  0.08396500  1
  C  C36  1  0.96313600  0.48569600  0.59296600  1
  C  C37  1  0.51430400  0.03686400  0.09296600  1
  C  C38  1  0.56539000  0.49586900  0.58896900  1
  C  C39  1  0.50413100  0.43461000  0.08896900  1
  C  C40  1  0.27858500  0.18657800  0.59449200  1
  C  C41  1  0.81342200  0.72141500  0.09449200  1
  C  C42  1  0.69050900  0.06872600  0.32679300  1
  C  C43  1  0.93127400  0.30949100  0.82679300  1
  C  C44  1  0.28594800  0.44488300  0.73591300  1
  C  C45  1  0.55511700  0.71405200  0.23591300  1
  C  C46  1  0.15714200  0.90680100  0.77147300  1
  C  C47  1  0.09319900  0.84285800  0.27147300  1
  C  C48  1  0.74847000  0.73450700  0.76929900  1
  C  C49  1  0.26549300  0.25153000  0.26929900  1
