# generated using pymatgen
data_Cu3NiC6
_symmetry_space_group_name_H-M   'P 1'
_cell_length_a   6.82650200
_cell_length_b   7.18685100
_cell_length_c   18.19439500
_cell_angle_alpha   90.00000000
_cell_angle_beta   90.00000000
_cell_angle_gamma   90.00000000
_symmetry_Int_Tables_number   1
_chemical_formula_structural   Cu3NiC6
_chemical_formula_sum   'Cu12 Ni4 C24'
_cell_volume   892.63617240
_cell_formula_units_Z   4
loop_
 _symmetry_equiv_pos_site_id
 _symmetry_equiv_pos_as_xyz
  1  'x, y, z'
loop_
 _atom_site_type_symbol
 _atom_site_label
 _atom_site_symmetry_multiplicity
 _atom_site_fract_x
 _atom_site_fract_y
 _atom_site_fract_z
 _atom_site_occupancy
  C  C0  1  0.00000000  0.50000000  0.00000000  1
  C  C1  1  0.50000000  0.00000000  0.50000000  1
  C  C2  1  0.00000000  0.00000000  0.00000000  1
  C  C3  1  0.50000000  0.50000000  0.50000000  1
  C  C4  1  0.49752100  0.75000000  0.14753600  1
  C  C5  1  0.00247900  0.75000000  0.64753600  1
  C  C6  1  0.50247900  0.25000000  0.85246400  1
  C  C7  1  0.99752100  0.25000000  0.35246400  1
  C  C8  1  0.81569500  0.65223700  0.22792900  1
  C  C9  1  0.68430500  0.84776300  0.72792900  1
  C  C10  1  0.18430500  0.15223700  0.77207100  1
  C  C11  1  0.31569500  0.34776300  0.27207100  1
  C  C12  1  0.18430500  0.34776300  0.77207100  1
  C  C13  1  0.31569500  0.15223700  0.27207100  1
  C  C14  1  0.81569500  0.84776300  0.22792900  1
  C  C15  1  0.68430500  0.65223700  0.72792900  1
  Ni  Ni16  1  0.65104700  0.75000000  0.18002500  1
  Ni  Ni17  1  0.84895300  0.75000000  0.68002500  1
  Ni  Ni18  1  0.34895300  0.25000000  0.81997500  1
  Ni  Ni19  1  0.15104700  0.25000000  0.31997500  1
  Cu  Cu20  1  0.07530400  0.75000000  0.91555700  1
  Cu  Cu21  1  0.42469600  0.75000000  0.41555700  1
  Cu  Cu22  1  0.92469600  0.25000000  0.08444300  1
  Cu  Cu23  1  0.57530400  0.25000000  0.58444300  1
  Cu  Cu24  1  0.04002700  0.75000000  0.17102600  1
  Cu  Cu25  1  0.45997300  0.75000000  0.67102600  1
  Cu  Cu26  1  0.95997300  0.25000000  0.82897400  1
  Cu  Cu27  1  0.54002700  0.25000000  0.32897400  1
  Cu  Cu28  1  0.62383500  0.75000000  0.96720800  1
  Cu  Cu29  1  0.87616500  0.75000000  0.46720800  1
  Cu  Cu30  1  0.37616500  0.25000000  0.03279200  1
  Cu  Cu31  1  0.12383500  0.25000000  0.53279200  1
  C  C32  1  0.71385900  0.56833300  0.00437600  1
  C  C33  1  0.78614100  0.93166700  0.50437600  1
  C  C34  1  0.28614100  0.06833300  0.99562400  1
  C  C35  1  0.21385900  0.43166700  0.49562400  1
  C  C36  1  0.28614100  0.43166700  0.99562400  1
  C  C37  1  0.21385900  0.06833300  0.49562400  1
  C  C38  1  0.71385900  0.93166700  0.00437600  1
  C  C39  1  0.78614100  0.56833300  0.50437600  1
