# generated using pymatgen
data_Cu4Ni3C7
_symmetry_space_group_name_H-M   'P 1'
_cell_length_a   6.87837793
_cell_length_b   7.74922940
_cell_length_c   10.76382100
_cell_angle_alpha   90.00000000
_cell_angle_beta   90.00000000
_cell_angle_gamma   100.12959711
_symmetry_Int_Tables_number   1
_chemical_formula_structural   Cu4Ni3C7
_chemical_formula_sum   'Cu16 Ni12 C28'
_cell_volume   564.79145910
_cell_formula_units_Z   4
loop_
 _symmetry_equiv_pos_site_id
 _symmetry_equiv_pos_as_xyz
  1  'x, y, z'
loop_
 _atom_site_type_symbol
 _atom_site_label
 _atom_site_symmetry_multiplicity
 _atom_site_fract_x
 _atom_site_fract_y
 _atom_site_fract_z
 _atom_site_occupancy
  C  C0  1  0.74324100  0.46092900  0.54536900  1
  C  C1  1  0.25675900  0.03907100  0.04536900  1
  C  C2  1  0.25675900  0.53907100  0.45463100  1
  C  C3  1  0.74324100  0.96092900  0.95463100  1
  C  C4  1  0.59739700  0.38240600  0.12285800  1
  C  C5  1  0.40260300  0.11759400  0.62285800  1
  C  C6  1  0.40260300  0.61759400  0.87714200  1
  C  C7  1  0.59739700  0.88240600  0.37714200  1
  C  C8  1  0.81361800  0.38255600  0.08248600  1
  C  C9  1  0.18638200  0.11744400  0.58248600  1
  C  C10  1  0.18638200  0.61744400  0.91751400  1
  C  C11  1  0.81361800  0.88255600  0.41751400  1
  C  C12  1  0.76328200  0.34221900  0.29341900  1
  C  C13  1  0.23671800  0.15778100  0.79341900  1
  C  C14  1  0.23671800  0.65778100  0.70658100  1
  C  C15  1  0.76328200  0.84221900  0.20658100  1
  C  C16  1  0.75355500  0.16243200  0.37485200  1
  C  C17  1  0.24644500  0.33756800  0.87485200  1
  C  C18  1  0.24644500  0.83756800  0.62514800  1
  C  C19  1  0.75355500  0.66243200  0.12514800  1
  C  C20  1  0.73557900  0.56959200  0.80005700  1
  C  C21  1  0.26442100  0.93040800  0.30005700  1
  C  C22  1  0.26442100  0.43040800  0.19994300  1
  C  C23  1  0.73557900  0.06959200  0.69994300  1
  C  C24  1  0.76347000  0.36806900  0.80435600  1
  C  C25  1  0.23653000  0.13193100  0.30435600  1
  C  C26  1  0.23653000  0.63193100  0.19564400  1
  C  C27  1  0.76347000  0.86806900  0.69564400  1
  Ni  Ni28  1  0.73544800  0.43780400  0.14170900  1
  Ni  Ni29  1  0.26455200  0.06219600  0.64170900  1
  Ni  Ni30  1  0.26455200  0.56219600  0.85829100  1
  Ni  Ni31  1  0.73544800  0.93780400  0.35829100  1
  Ni  Ni32  1  0.75610500  0.29199000  0.37856700  1
  Ni  Ni33  1  0.24389500  0.20801000  0.87856700  1
  Ni  Ni34  1  0.24389500  0.70801000  0.62143300  1
  Ni  Ni35  1  0.75610500  0.79199000  0.12143300  1
  Ni  Ni36  1  0.77673900  0.47402300  0.75019000  1
  Ni  Ni37  1  0.22326100  0.02597700  0.25019000  1
  Ni  Ni38  1  0.22326100  0.52597700  0.24981000  1
  Ni  Ni39  1  0.77673900  0.97402300  0.74981000  1
  Cu  Cu40  1  0.03010000  0.39329100  0.57811800  1
  Cu  Cu41  1  0.96990000  0.10670900  0.07811800  1
  Cu  Cu42  1  0.96990000  0.60670900  0.42188200  1
  Cu  Cu43  1  0.03010000  0.89329100  0.92188200  1
  Cu  Cu44  1  0.43415200  0.44324500  0.59808000  1
  Cu  Cu45  1  0.56584800  0.05675500  0.09808000  1
  Cu  Cu46  1  0.56584800  0.55675500  0.40192000  1
  Cu  Cu47  1  0.43415200  0.94324500  0.90192000  1
  Cu  Cu48  1  0.76298900  0.71851900  0.59554800  1
  Cu  Cu49  1  0.23701100  0.78148100  0.09554800  1
  Cu  Cu50  1  0.23701100  0.28148100  0.40445200  1
  Cu  Cu51  1  0.76298900  0.21851900  0.90445200  1
  Cu  Cu52  1  0.65728000  0.20222500  0.60592300  1
  Cu  Cu53  1  0.34272000  0.29777500  0.10592300  1
  Cu  Cu54  1  0.34272000  0.79777500  0.39407700  1
  Cu  Cu55  1  0.65728000  0.70222500  0.89407700  1
