# generated using pymatgen
data_Cu4Ni5C2
_symmetry_space_group_name_H-M   'P 1'
_cell_length_a   6.48843854
_cell_length_b   6.56472278
_cell_length_c   8.47681495
_cell_angle_alpha   69.44942248
_cell_angle_beta   81.69124079
_cell_angle_gamma   84.57943019
_symmetry_Int_Tables_number   1
_chemical_formula_structural   Cu4Ni5C2
_chemical_formula_sum   'Cu4 Ni5 C2'
_cell_volume   334.16915751
_cell_formula_units_Z   1
loop_
 _symmetry_equiv_pos_site_id
 _symmetry_equiv_pos_as_xyz
  1  'x, y, z'
loop_
 _atom_site_type_symbol
 _atom_site_label
 _atom_site_symmetry_multiplicity
 _atom_site_fract_x
 _atom_site_fract_y
 _atom_site_fract_z
 _atom_site_occupancy
  C  C0  1  0.36709600  0.45825400  0.56471400  1
  C  C1  1  0.00905500  0.99207400  0.00337900  1
  Ni  Ni2  1  0.95672400  0.97345400  0.74646300  1
  Ni  Ni3  1  0.15019700  0.12416100  0.17853500  1
  Ni  Ni4  1  0.31195000  0.78786700  0.98838500  1
  Ni  Ni5  1  0.80457000  0.30911700  0.93280300  1
  Ni  Ni6  1  0.58382700  0.29935700  0.41023300  1
  Cu  Cu7  1  0.30793900  0.28262900  0.77134600  1
  Cu  Cu8  1  0.84778000  0.80571000  0.14110500  1
  Cu  Cu9  1  0.13855100  0.54045100  0.47452900  1
  Cu  Cu10  1  0.48031200  0.68342700  0.56760900  1
