# generated using pymatgen
data_Cu2NiC16
_symmetry_space_group_name_H-M   'P 1'
_cell_length_a   10.05279312
_cell_length_b   10.05279312
_cell_length_c   5.07496700
_cell_angle_alpha   90.00000000
_cell_angle_beta   90.00000000
_cell_angle_gamma   90.17390897
_symmetry_Int_Tables_number   1
_chemical_formula_structural   Cu2NiC16
_chemical_formula_sum   'Cu4 Ni2 C32'
_cell_volume   512.86694899
_cell_formula_units_Z   2
loop_
 _symmetry_equiv_pos_site_id
 _symmetry_equiv_pos_as_xyz
  1  'x, y, z'
loop_
 _atom_site_type_symbol
 _atom_site_label
 _atom_site_symmetry_multiplicity
 _atom_site_fract_x
 _atom_site_fract_y
 _atom_site_fract_z
 _atom_site_occupancy
  Ni  Ni0  1  0.50000000  0.50000000  0.50000000  1
  Ni  Ni1  1  0.00000000  0.00000000  0.50000000  1
  Cu  Cu2  1  0.00000000  0.50000000  0.50000000  1
  Cu  Cu3  1  0.50000000  0.00000000  0.50000000  1
  Cu  Cu4  1  0.75000000  0.75000000  0.50000000  1
  Cu  Cu5  1  0.25000000  0.25000000  0.50000000  1
  C  C6  1  0.74964700  0.01943100  0.99702700  1
  C  C7  1  0.25035300  0.98056900  0.00297300  1
  C  C8  1  0.24964700  0.51943100  0.00297300  1
  C  C9  1  0.75035300  0.48056900  0.99702700  1
  C  C10  1  0.01943100  0.74964700  0.00297300  1
  C  C11  1  0.98056900  0.25035300  0.99702700  1
  C  C12  1  0.51943100  0.24964700  0.99702700  1
  C  C13  1  0.48056900  0.75035300  0.00297300  1
  C  C14  1  0.57152900  0.67717800  0.25349500  1
  C  C15  1  0.05869000  0.32899700  0.26257300  1
  C  C16  1  0.44131000  0.17100300  0.26257300  1
  C  C17  1  0.92847100  0.82282200  0.25349500  1
  C  C18  1  0.42847100  0.32282200  0.74650500  1
  C  C19  1  0.94131000  0.67100300  0.73742700  1
  C  C20  1  0.55869000  0.82899700  0.73742700  1
  C  C21  1  0.07152900  0.17717800  0.74650500  1
  C  C22  1  0.67717800  0.57152900  0.74650500  1
  C  C23  1  0.32899700  0.05869000  0.73742700  1
  C  C24  1  0.17100300  0.44131000  0.73742700  1
  C  C25  1  0.82282200  0.92847100  0.74650500  1
  C  C26  1  0.32282200  0.42847100  0.25349500  1
  C  C27  1  0.67100300  0.94131000  0.26257300  1
  C  C28  1  0.82899700  0.55869000  0.26257300  1
  C  C29  1  0.17717800  0.07152900  0.25349500  1
  C  C30  1  0.87029100  0.12970900  0.15126500  1
  C  C31  1  0.37744400  0.87744400  0.16875900  1
  C  C32  1  0.12255600  0.62255600  0.16875900  1
  C  C33  1  0.62970900  0.37029100  0.15126500  1
  C  C34  1  0.12970900  0.87029100  0.84873500  1
  C  C35  1  0.62255600  0.12255600  0.83124100  1
  C  C36  1  0.87744400  0.37744400  0.83124100  1
  C  C37  1  0.37029100  0.62970900  0.84873500  1
