# generated using pymatgen
data_CuNiC8
_symmetry_space_group_name_H-M   'P 1'
_cell_length_a   5.68495168
_cell_length_b   5.87422685
_cell_length_c   8.13702843
_cell_angle_alpha   90.00000000
_cell_angle_beta   90.00000000
_cell_angle_gamma   90.00000000
_symmetry_Int_Tables_number   1
_chemical_formula_structural   CuNiC8
_chemical_formula_sum   'Cu2 Ni2 C16'
_cell_volume   271.73358913
_cell_formula_units_Z   2
loop_
 _symmetry_equiv_pos_site_id
 _symmetry_equiv_pos_as_xyz
  1  'x, y, z'
loop_
 _atom_site_type_symbol
 _atom_site_label
 _atom_site_symmetry_multiplicity
 _atom_site_fract_x
 _atom_site_fract_y
 _atom_site_fract_z
 _atom_site_occupancy
  Ni  Ni0  1  0.49508422  0.77521771  -0.00000000  1
  Ni  Ni1  1  0.99508422  0.22478229  0.50000000  1
  Cu  Cu2  1  0.51581530  0.68601093  0.50000000  1
  Cu  Cu3  1  0.01581530  0.31398907  -0.00000000  1
  C  C4  1  0.00143722  0.76059460  0.25160987  1
  C  C5  1  0.50143722  0.23940540  0.24839013  1
  C  C6  1  0.00143722  0.76059460  0.74839013  1
  C  C7  1  0.50143722  0.23940540  0.75160987  1
  C  C8  1  0.45000771  0.28490550  0.50000000  1
  C  C9  1  0.95000771  0.71509450  -0.00000000  1
  C  C10  1  0.60293304  0.23612928  -0.00000000  1
  C  C11  1  0.10293304  0.76387072  0.50000000  1
  C  C12  1  0.19166282  0.05590224  0.20064980  1
  C  C13  1  0.69166282  0.94409776  0.29935020  1
  C  C14  1  0.77497982  0.47664190  0.71668134  1
  C  C15  1  0.27497982  0.52335810  0.78331866  1
  C  C16  1  0.77497982  0.47664190  0.28331866  1
  C  C17  1  0.27497982  0.52335810  0.21668134  1
  C  C18  1  0.19166282  0.05590224  0.79935020  1
  C  C19  1  0.69166282  0.94409776  0.70064980  1
