# generated using pymatgen
data_Cu28NiC20
_symmetry_space_group_name_H-M   'P 1'
_cell_length_a   9.48772700
_cell_length_b   9.48772700
_cell_length_c   9.48772700
_cell_angle_alpha   90.00000000
_cell_angle_beta   90.00000000
_cell_angle_gamma   90.00000000
_symmetry_Int_Tables_number   1
_chemical_formula_structural   Cu28NiC20
_chemical_formula_sum   'Cu28 Ni1 C20'
_cell_volume   854.05637626
_cell_formula_units_Z   1
loop_
 _symmetry_equiv_pos_site_id
 _symmetry_equiv_pos_as_xyz
  1  'x, y, z'
loop_
 _atom_site_type_symbol
 _atom_site_label
 _atom_site_symmetry_multiplicity
 _atom_site_fract_x
 _atom_site_fract_y
 _atom_site_fract_z
 _atom_site_occupancy
  C  C0  1  0.79717500  0.79717500  0.79717500  1
  C  C1  1  0.20282500  0.20282500  0.79717500  1
  C  C2  1  0.20282500  0.79717500  0.20282500  1
  C  C3  1  0.79717500  0.20282500  0.20282500  1
  C  C4  1  0.23310800  0.23310800  0.23310800  1
  C  C5  1  0.76689200  0.76689200  0.23310800  1
  C  C6  1  0.76689200  0.23310800  0.76689200  1
  C  C7  1  0.23310800  0.76689200  0.76689200  1
  C  C8  1  0.25101300  0.50000000  0.00000000  1
  C  C9  1  0.74898700  0.50000000  0.00000000  1
  C  C10  1  0.00000000  0.25101300  0.50000000  1
  C  C11  1  0.50000000  0.25101300  0.00000000  1
  C  C12  1  0.00000000  0.74898700  0.50000000  1
  C  C13  1  0.50000000  0.74898700  0.00000000  1
  C  C14  1  0.50000000  0.00000000  0.25101300  1
  C  C15  1  0.25101300  0.00000000  0.50000000  1
  C  C16  1  0.50000000  0.00000000  0.74898700  1
  C  C17  1  0.74898700  0.00000000  0.50000000  1
  C  C18  1  0.00000000  0.50000000  0.25101300  1
  C  C19  1  0.00000000  0.50000000  0.74898700  1
  Ni  Ni20  1  0.00000000  0.00000000  0.00000000  1
  Cu  Cu21  1  0.09085100  0.09085100  0.09085100  1
  Cu  Cu22  1  0.90914900  0.90914900  0.09085100  1
  Cu  Cu23  1  0.90914900  0.09085100  0.90914900  1
  Cu  Cu24  1  0.09085100  0.90914900  0.90914900  1
  Cu  Cu25  1  0.34932800  0.34932800  0.04091300  1
  Cu  Cu26  1  0.65067200  0.65067200  0.04091300  1
  Cu  Cu27  1  0.65067200  0.34932800  0.95908700  1
  Cu  Cu28  1  0.04091300  0.34932800  0.34932800  1
  Cu  Cu29  1  0.34932800  0.65067200  0.95908700  1
  Cu  Cu30  1  0.04091300  0.65067200  0.65067200  1
  Cu  Cu31  1  0.95908700  0.65067200  0.34932800  1
  Cu  Cu32  1  0.95908700  0.34932800  0.65067200  1
  Cu  Cu33  1  0.34932800  0.04091300  0.34932800  1
  Cu  Cu34  1  0.34932800  0.95908700  0.65067200  1
  Cu  Cu35  1  0.65067200  0.95908700  0.34932800  1
  Cu  Cu36  1  0.65067200  0.04091300  0.65067200  1
  Cu  Cu37  1  0.14589300  0.14589300  0.54342600  1
  Cu  Cu38  1  0.85410700  0.85410700  0.54342600  1
  Cu  Cu39  1  0.85410700  0.14589300  0.45657400  1
  Cu  Cu40  1  0.54342600  0.14589300  0.14589300  1
  Cu  Cu41  1  0.14589300  0.85410700  0.45657400  1
  Cu  Cu42  1  0.54342600  0.85410700  0.85410700  1
  Cu  Cu43  1  0.45657400  0.85410700  0.14589300  1
  Cu  Cu44  1  0.45657400  0.14589300  0.85410700  1
  Cu  Cu45  1  0.14589300  0.54342600  0.14589300  1
  Cu  Cu46  1  0.14589300  0.45657400  0.85410700  1
  Cu  Cu47  1  0.85410700  0.45657400  0.14589300  1
  Cu  Cu48  1  0.85410700  0.54342600  0.85410700  1
