# generated using pymatgen
data_CuNiC6
_symmetry_space_group_name_H-M   'P 1'
_cell_length_a   5.86842600
_cell_length_b   7.52921700
_cell_length_c   8.85417500
_cell_angle_alpha   90.00000000
_cell_angle_beta   90.00000000
_cell_angle_gamma   90.00000000
_symmetry_Int_Tables_number   1
_chemical_formula_structural   CuNiC6
_chemical_formula_sum   'Cu4 Ni4 C24'
_cell_volume   391.21864823
_cell_formula_units_Z   4
loop_
 _symmetry_equiv_pos_site_id
 _symmetry_equiv_pos_as_xyz
  1  'x, y, z'
loop_
 _atom_site_type_symbol
 _atom_site_label
 _atom_site_symmetry_multiplicity
 _atom_site_fract_x
 _atom_site_fract_y
 _atom_site_fract_z
 _atom_site_occupancy
  C  C0  1  0.97378500  0.84907600  0.66678700  1
  C  C1  1  0.52621500  0.15092400  0.16678700  1
  C  C2  1  0.02621500  0.34907600  0.83321300  1
  C  C3  1  0.47378500  0.65092400  0.33321300  1
  Ni  Ni4  1  0.25102700  0.75419300  0.99611200  1
  Ni  Ni5  1  0.24897300  0.24580700  0.49611200  1
  Ni  Ni6  1  0.74897300  0.25419300  0.50388800  1
  Ni  Ni7  1  0.75102700  0.74580700  0.00388800  1
  Cu  Cu8  1  0.48267000  0.10690300  0.80717700  1
  Cu  Cu9  1  0.01733000  0.89309700  0.30717700  1
  Cu  Cu10  1  0.51733000  0.60690300  0.69282300  1
  Cu  Cu11  1  0.98267000  0.39309700  0.19282300  1
  C  C12  1  0.50827500  0.92298900  0.92691000  1
  C  C13  1  0.99172500  0.07701100  0.42691000  1
  C  C14  1  0.49172500  0.42298900  0.57309000  1
  C  C15  1  0.00827500  0.57701100  0.07309000  1
  C  C16  1  0.41326900  0.27389800  0.92783100  1
  C  C17  1  0.08673100  0.72610200  0.42783100  1
  C  C18  1  0.58673100  0.77389800  0.57216900  1
  C  C19  1  0.91326900  0.22610200  0.07216900  1
  C  C20  1  0.74072500  0.13346000  0.71592300  1
  C  C21  1  0.75927500  0.86654000  0.21592300  1
  C  C22  1  0.25927500  0.63346000  0.78407700  1
  C  C23  1  0.24072500  0.36654000  0.28407700  1
  C  C24  1  0.24873300  0.09298800  0.68956000  1
  C  C25  1  0.25126700  0.90701200  0.18956000  1
  C  C26  1  0.75126700  0.59298800  0.81044000  1
  C  C27  1  0.74873300  0.40701200  0.31044000  1
  C  C28  1  0.99556300  0.87333400  0.92575800  1
  C  C29  1  0.50443700  0.12666600  0.42575800  1
  C  C30  1  0.00443700  0.37333400  0.57424200  1
  C  C31  1  0.49556300  0.62666600  0.07424200  1
