# generated using pymatgen
data_Cu6Ni2C21
_symmetry_space_group_name_H-M   'P 1'
_cell_length_a   7.68996888
_cell_length_b   8.32341100
_cell_length_c   12.48792869
_cell_angle_alpha   90.00000000
_cell_angle_beta   95.91933496
_cell_angle_gamma   90.00000000
_symmetry_Int_Tables_number   1
_chemical_formula_structural   Cu6Ni2C21
_chemical_formula_sum   'Cu12 Ni4 C42'
_cell_volume   795.05012559
_cell_formula_units_Z   2
loop_
 _symmetry_equiv_pos_site_id
 _symmetry_equiv_pos_as_xyz
  1  'x, y, z'
loop_
 _atom_site_type_symbol
 _atom_site_label
 _atom_site_symmetry_multiplicity
 _atom_site_fract_x
 _atom_site_fract_y
 _atom_site_fract_z
 _atom_site_occupancy
  Ni  Ni0  1  0.63537600  0.99407500  0.82685700  1
  Ni  Ni1  1  0.86462400  0.49407500  0.17314300  1
  Ni  Ni2  1  0.36462400  0.00592500  0.17314300  1
  Ni  Ni3  1  0.13537600  0.50592500  0.82685700  1
  C  C4  1  0.50000000  0.50000000  0.50000000  1
  C  C5  1  0.00000000  0.00000000  0.50000000  1
  C  C6  1  0.37132500  0.12293900  0.62010900  1
  C  C7  1  0.12867500  0.62293900  0.37989100  1
  C  C8  1  0.62867500  0.87706100  0.37989100  1
  C  C9  1  0.87132500  0.37706100  0.62010900  1
  Cu  Cu10  1  0.55298800  0.40255100  0.78540400  1
  Cu  Cu11  1  0.94701200  0.90255100  0.21459600  1
  Cu  Cu12  1  0.44701200  0.59744900  0.21459600  1
  Cu  Cu13  1  0.05298800  0.09744900  0.78540400  1
  Cu  Cu14  1  0.31166400  0.18759500  0.39192500  1
  Cu  Cu15  1  0.18833600  0.68759500  0.60807500  1
  Cu  Cu16  1  0.68833600  0.81240500  0.60807500  1
  Cu  Cu17  1  0.81166400  0.31240500  0.39192500  1
  Cu  Cu18  1  0.63724000  0.19730100  0.04415900  1
  Cu  Cu19  1  0.86276000  0.69730100  0.95584100  1
  Cu  Cu20  1  0.36276000  0.80269900  0.95584100  1
  Cu  Cu21  1  0.13724000  0.30269900  0.04415900  1
  C  C22  1  0.34937400  0.48459800  0.74675500  1
  C  C23  1  0.15062600  0.98459800  0.25324500  1
  C  C24  1  0.65062600  0.51540200  0.25324500  1
  C  C25  1  0.84937400  0.01540200  0.74675500  1
  C  C26  1  0.65324600  0.46811600  0.67618700  1
  C  C27  1  0.84675400  0.96811600  0.32381300  1
  C  C28  1  0.34675400  0.53188400  0.32381300  1
  C  C29  1  0.15324600  0.03188400  0.67618700  1
  C  C30  1  0.51239100  0.19794200  0.74992000  1
  C  C31  1  0.98760900  0.69794200  0.25008000  1
  C  C32  1  0.48760900  0.80205800  0.25008000  1
  C  C33  1  0.01239100  0.30205800  0.74992000  1
  C  C34  1  0.45682200  0.26596200  0.50075400  1
  C  C35  1  0.04317800  0.76596200  0.49924600  1
  C  C36  1  0.54317800  0.73403800  0.49924600  1
  C  C37  1  0.95682200  0.23403800  0.50075400  1
  C  C38  1  0.46514500  0.09379700  0.32222500  1
  C  C39  1  0.03485500  0.59379700  0.67777500  1
  C  C40  1  0.53485500  0.90620300  0.67777500  1
  C  C41  1  0.96514500  0.40620300  0.32222500  1
  C  C42  1  0.25520300  0.03626500  0.48378100  1
  C  C43  1  0.24479700  0.53626500  0.51621900  1
  C  C44  1  0.74479700  0.96373500  0.51621900  1
  C  C45  1  0.75520300  0.46373500  0.48378100  1
  C  C46  1  0.75773900  0.10992400  0.94735900  1
  C  C47  1  0.74226100  0.60992400  0.05264100  1
  C  C48  1  0.24226100  0.89007600  0.05264100  1
  C  C49  1  0.25773900  0.39007600  0.94735900  1
  C  C50  1  0.58864500  0.02462800  0.11339100  1
  C  C51  1  0.91135500  0.52462800  0.88660900  1
  C  C52  1  0.41135500  0.97537200  0.88660900  1
  C  C53  1  0.08864500  0.47537200  0.11339100  1
  C  C54  1  0.80930800  0.26669700  0.13269900  1
  C  C55  1  0.69069200  0.76669700  0.86730100  1
  C  C56  1  0.19069200  0.73330300  0.86730100  1
  C  C57  1  0.30930800  0.23330300  0.13269900  1
