# generated using pymatgen
data_Cu6Ni3C2
_symmetry_space_group_name_H-M   'P 1'
_cell_length_a   10.63746859
_cell_length_b   5.38146842
_cell_length_c   30.53145411
_cell_angle_alpha   89.99999981
_cell_angle_beta   162.76416670
_cell_angle_gamma   75.34792991
_symmetry_Int_Tables_number   1
_chemical_formula_structural   Cu6Ni3C2
_chemical_formula_sum   'Cu12 Ni6 C4'
_cell_volume   269.71275432
_cell_formula_units_Z   2
loop_
 _symmetry_equiv_pos_site_id
 _symmetry_equiv_pos_as_xyz
  1  'x, y, z'
loop_
 _atom_site_type_symbol
 _atom_site_label
 _atom_site_symmetry_multiplicity
 _atom_site_fract_x
 _atom_site_fract_y
 _atom_site_fract_z
 _atom_site_occupancy
  C  C0  1  0.89551581  0.02359094  0.13221633  1
  C  C1  1  0.89551581  0.08089325  0.63221633  1
  C  C2  1  0.10449485  0.97641517  0.86780567  1
  C  C3  1  0.10449485  0.91908998  0.36780567  1
  Ni  Ni4  1  0.96242337  0.68185533  0.06487010  1
  Ni  Ni5  1  0.99999428  0.67310108  0.75000793  1
  Ni  Ni6  1  0.03758107  0.64427709  0.43514905  1
  Ni  Ni7  1  0.96242337  0.35572130  0.56487010  1
  Ni  Ni8  1  0.03758107  0.31814184  0.93514905  1
  Ni  Ni9  1  0.99999428  0.32690465  0.25000793  1
  Cu  Cu10  1  0.89140972  0.74595297  0.08123247  1
  Cu  Cu11  1  0.16433928  0.59549825  0.84409277  1
  Cu  Cu12  1  0.99210885  0.63053503  0.45972201  1
  Cu  Cu13  1  0.89140972  0.36263731  0.58123247  1
  Cu  Cu14  1  0.99210885  0.37735613  0.95972201  1
  Cu  Cu15  1  0.16433928  0.24016348  0.34409277  1
  Cu  Cu16  1  0.10858451  0.25405999  0.91878253  1
  Cu  Cu17  1  0.83566712  0.40450819  0.15592964  1
  Cu  Cu18  1  0.00788114  0.36948122  0.54029250  1
  Cu  Cu19  1  0.10858451  0.63735449  0.41878253  1
  Cu  Cu20  1  0.00788114  0.62263763  0.04029250  1
  Cu  Cu21  1  0.83566712  0.75982568  0.65592964  1
