# generated using pymatgen
data_Cu3Ni3C26
_symmetry_space_group_name_H-M   'P 1'
_cell_length_a   10.84278247
_cell_length_b   10.84278247
_cell_length_c   12.46148966
_cell_angle_alpha   55.01790794
_cell_angle_beta   55.01790794
_cell_angle_gamma   70.68628494
_symmetry_Int_Tables_number   1
_chemical_formula_structural   Cu3Ni3C26
_chemical_formula_sum   'Cu6 Ni6 C52'
_cell_volume   983.48673398
_cell_formula_units_Z   2
loop_
 _symmetry_equiv_pos_site_id
 _symmetry_equiv_pos_as_xyz
  1  'x, y, z'
loop_
 _atom_site_type_symbol
 _atom_site_label
 _atom_site_symmetry_multiplicity
 _atom_site_fract_x
 _atom_site_fract_y
 _atom_site_fract_z
 _atom_site_occupancy
  C  C0  1  0.00538500  0.00538500  0.32667300  1
  C  C1  1  0.99461500  0.99461500  0.67332700  1
  C  C2  1  0.33925700  0.66074300  0.00000000  1
  C  C3  1  0.66074300  0.33925700  0.00000000  1
  C  C4  1  0.65039800  0.65039800  0.34265400  1
  C  C5  1  0.34960200  0.34960200  0.65734600  1
  C  C6  1  0.50000000  0.00000000  0.50000000  1
  C  C7  1  0.00000000  0.50000000  0.00000000  1
  C  C8  1  0.50000000  0.00000000  0.00000000  1
  C  C9  1  0.00000000  0.50000000  0.50000000  1
  C  C10  1  0.66831100  0.93929600  0.69564300  1
  C  C11  1  0.93929600  0.66831100  0.69564300  1
  C  C12  1  0.33168900  0.06070400  0.30435700  1
  C  C13  1  0.06070400  0.33168900  0.30435700  1
  C  C14  1  0.65050300  0.65050300  0.04929100  1
  C  C15  1  0.36812900  0.36812900  0.32828400  1
  C  C16  1  0.34949700  0.34949700  0.95070900  1
  C  C17  1  0.63187100  0.63187100  0.67171600  1
  C  C18  1  0.69727500  0.29962200  0.35523500  1
  C  C19  1  0.70037800  0.30272500  0.64476500  1
  C  C20  1  0.30272500  0.70037800  0.64476500  1
  C  C21  1  0.29962200  0.69727500  0.35523500  1
  Ni  Ni22  1  0.79354100  0.20459500  0.18564900  1
  Ni  Ni23  1  0.20645900  0.79540500  0.81435100  1
  Ni  Ni24  1  0.20459500  0.79354100  0.18564900  1
  Ni  Ni25  1  0.79540500  0.20645900  0.81435100  1
  Ni  Ni26  1  0.81422800  0.81422800  0.98130400  1
  Ni  Ni27  1  0.18577200  0.18577200  0.01869600  1
  Cu  Cu28  1  0.38497300  0.02637200  0.79308500  1
  Cu  Cu29  1  0.61502700  0.97362800  0.20691500  1
  Cu  Cu30  1  0.97362800  0.61502700  0.20691500  1
  Cu  Cu31  1  0.02637200  0.38497300  0.79308500  1
  Cu  Cu32  1  0.82061900  0.82061900  0.38244800  1
  Cu  Cu33  1  0.17938100  0.17938100  0.61755200  1
  C  C34  1  0.69998700  0.07378700  0.50176300  1
  C  C35  1  0.07492100  0.70119600  0.72167700  1
  C  C36  1  0.29880400  0.92507900  0.27832300  1
  C  C37  1  0.92621300  0.30001300  0.49823700  1
  C  C38  1  0.56931300  0.79832500  0.92362600  1
  C  C39  1  0.42677300  0.20214700  0.29674600  1
  C  C40  1  0.20167500  0.43068700  0.07637400  1
  C  C41  1  0.79785300  0.57322700  0.70325400  1
  C  C42  1  0.71966000  0.50201700  0.20507100  1
  C  C43  1  0.49798300  0.28034000  0.79492900  1
  C  C44  1  0.50820500  0.72367600  0.56716000  1
  C  C45  1  0.27632400  0.49179500  0.43284000  1
  C  C46  1  0.30001300  0.92621300  0.49823700  1
  C  C47  1  0.92507900  0.29880400  0.27832300  1
  C  C48  1  0.70119600  0.07492100  0.72167700  1
  C  C49  1  0.07378700  0.69998700  0.50176300  1
  C  C50  1  0.43068700  0.20167500  0.07637400  1
  C  C51  1  0.57322700  0.79785300  0.70325400  1
  C  C52  1  0.79832500  0.56931300  0.92362600  1
  C  C53  1  0.20214700  0.42677300  0.29674600  1
  C  C54  1  0.28034000  0.49798300  0.79492900  1
  C  C55  1  0.50201700  0.71966000  0.20507100  1
  C  C56  1  0.49179500  0.27632400  0.43284000  1
  C  C57  1  0.72367600  0.50820500  0.56716000  1
  C  C58  1  0.87311200  0.87311200  0.62724500  1
  C  C59  1  0.12688800  0.12688800  0.37275500  1
  C  C60  1  0.50050700  0.50050700  0.12929700  1
  C  C61  1  0.49949300  0.49949300  0.87070300  1
  C  C62  1  0.62905100  0.37094900  0.50000000  1
  C  C63  1  0.37094900  0.62905100  0.50000000  1
