# generated using pymatgen
data_CuNi3C16
_symmetry_space_group_name_H-M   'P 1'
_cell_length_a   7.87506200
_cell_length_b   7.87413000
_cell_length_c   7.87526910
_cell_angle_alpha   89.99090574
_cell_angle_beta   90.00000000
_cell_angle_gamma   90.00000000
_symmetry_Int_Tables_number   1
_chemical_formula_structural   CuNi3C16
_chemical_formula_sum   'Cu2 Ni6 C32'
_cell_volume   488.33961832
_cell_formula_units_Z   2
loop_
 _symmetry_equiv_pos_site_id
 _symmetry_equiv_pos_as_xyz
  1  'x, y, z'
loop_
 _atom_site_type_symbol
 _atom_site_label
 _atom_site_symmetry_multiplicity
 _atom_site_fract_x
 _atom_site_fract_y
 _atom_site_fract_z
 _atom_site_occupancy
  Ni  Ni0  1  0.24971000  0.74912300  0.75029600  1
  Ni  Ni1  1  0.75029000  0.74912300  0.75029600  1
  Ni  Ni2  1  0.24969100  0.25083500  0.75029100  1
  Ni  Ni3  1  0.75030900  0.25083500  0.75029100  1
  Ni  Ni4  1  0.24970000  0.25084500  0.24968600  1
  Ni  Ni5  1  0.75030000  0.25084500  0.24968600  1
  Cu  Cu6  1  0.24969700  0.74912000  0.24969700  1
  Cu  Cu7  1  0.75030300  0.74912000  0.24969700  1
  C  C8  1  0.00000000  0.50054100  0.00057800  1
  C  C9  1  0.50000000  0.50050000  0.00053800  1
  C  C10  1  0.00000000  0.50054000  0.49947500  1
  C  C11  1  0.00000000  0.99935600  0.00060200  1
  C  C12  1  0.50000000  0.99934800  0.00060300  1
  C  C13  1  0.00000000  0.99935800  0.49937300  1
  C  C14  1  0.50000000  0.99936900  0.49937900  1
  C  C15  1  0.50000000  0.50060900  0.49935000  1
  C  C16  1  0.00000000  0.99985600  0.75012300  1
  C  C17  1  0.50000000  0.99987600  0.75024600  1
  C  C18  1  0.00000000  0.50007500  0.75020200  1
  C  C19  1  0.50000000  0.50008300  0.75054000  1
  C  C20  1  0.00000000  0.99775400  0.24986200  1
  C  C21  1  0.50000000  0.99777700  0.24975700  1
  C  C22  1  0.00000000  0.50256200  0.24982300  1
  C  C23  1  0.50000000  0.50239000  0.24939500  1
  C  C24  1  0.00000000  0.74898500  0.00238200  1
  C  C25  1  0.50000000  0.74912200  0.00238700  1
  C  C26  1  0.00000000  0.25095900  0.00010100  1
  C  C27  1  0.50000000  0.25077500  0.00009700  1
  C  C28  1  0.00000000  0.74913400  0.49762000  1
  C  C29  1  0.50000000  0.74932300  0.49776100  1
  C  C30  1  0.00000000  0.25079600  0.49988200  1
  C  C31  1  0.50000000  0.25069200  0.49988700  1
  C  C32  1  0.24987100  0.99879000  0.00117200  1
  C  C33  1  0.75012900  0.99879000  0.00117200  1
  C  C34  1  0.24981200  0.50133300  0.00133900  1
  C  C35  1  0.75018800  0.50133300  0.00133900  1
  C  C36  1  0.24976000  0.99880600  0.49882100  1
  C  C37  1  0.75024000  0.99880600  0.49882100  1
  C  C38  1  0.24942600  0.50125900  0.49871800  1
  C  C39  1  0.75057400  0.50125900  0.49871800  1
