# generated using pymatgen
data_Cu22(Ni2C11)3
_symmetry_space_group_name_H-M   'P 1'
_cell_length_a   9.21765294
_cell_length_b   9.40835522
_cell_length_c   9.76366518
_cell_angle_alpha   94.33854028
_cell_angle_beta   108.26172686
_cell_angle_gamma   119.39370824
_symmetry_Int_Tables_number   1
_chemical_formula_structural   Cu22(Ni2C11)3
_chemical_formula_sum   'Cu22 Ni6 C33'
_cell_volume   673.09839499
_cell_formula_units_Z   1
loop_
 _symmetry_equiv_pos_site_id
 _symmetry_equiv_pos_as_xyz
  1  'x, y, z'
loop_
 _atom_site_type_symbol
 _atom_site_label
 _atom_site_symmetry_multiplicity
 _atom_site_fract_x
 _atom_site_fract_y
 _atom_site_fract_z
 _atom_site_occupancy
  C  C0  1  0.94857200  0.89309500  0.11276100  1
  C  C1  1  0.05142800  0.10690500  0.88723900  1
  C  C2  1  0.45908600  0.79623500  0.40099300  1
  C  C3  1  0.54091400  0.20376500  0.59900700  1
  C  C4  1  0.50000000  0.50000000  0.50000000  1
  C  C5  1  0.66059700  0.58553800  0.26229400  1
  C  C6  1  0.33940300  0.41446200  0.73770600  1
  C  C7  1  0.78699500  0.34705200  0.24078000  1
  C  C8  1  0.21300500  0.65294800  0.75922000  1
  C  C9  1  0.58553200  0.77041800  0.78638500  1
  C  C10  1  0.41446800  0.22958200  0.21361500  1
  C  C11  1  0.90035900  0.58011800  0.43210400  1
  C  C12  1  0.09964100  0.41988200  0.56789600  1
  C  C13  1  0.54025700  0.06782800  0.18295400  1
  C  C14  1  0.45974300  0.93217200  0.81704600  1
  C  C15  1  0.41457700  0.38267100  0.03743500  1
  C  C16  1  0.58542300  0.61732900  0.96256500  1
  C  C17  1  0.86793000  0.56942300  0.66722000  1
  C  C18  1  0.13207000  0.43057600  0.33278000  1
  C  C19  1  0.79105100  0.55846700  0.79064000  1
  C  C20  1  0.20894900  0.44153300  0.20936000  1
  C  C21  1  0.58111900  0.82025900  0.17398200  1
  C  C22  1  0.41888100  0.17974100  0.82601800  1
  C  C23  1  0.38577300  0.77541600  0.07549100  1
  C  C24  1  0.61422700  0.22458400  0.92450900  1
  C  C25  1  0.22608800  0.82660200  0.53687900  1
  C  C26  1  0.77391200  0.17339800  0.46312100  1
  C  C27  1  0.19395200  0.91786800  0.41669200  1
  C  C28  1  0.80604800  0.08213200  0.58330800  1
  C  C29  1  0.05876600  0.67718900  0.99596600  1
  C  C30  1  0.94123400  0.32281100  0.00403400  1
  C  C31  1  0.91493600  0.56532500  0.05946000  1
  C  C32  1  0.08506400  0.43467500  0.94054000  1
  Ni  Ni33  1  0.80930800  0.52628500  0.32121900  1
  Ni  Ni34  1  0.19069200  0.47371500  0.67878100  1
  Ni  Ni35  1  0.57237600  0.19157400  0.20758600  1
  Ni  Ni36  1  0.42762400  0.80842600  0.79241400  1
  Ni  Ni37  1  0.46742500  0.40398700  0.15261400  1
  Ni  Ni38  1  0.53257500  0.59601300  0.84738600  1
  Cu  Cu39  1  0.64337000  0.65148500  0.40059500  1
  Cu  Cu40  1  0.35663000  0.34851500  0.59940500  1
  Cu  Cu41  1  0.70846000  0.71152600  0.17014600  1
  Cu  Cu42  1  0.29154000  0.28847400  0.82985400  1
  Cu  Cu43  1  0.92050800  0.32149400  0.35686100  1
  Cu  Cu44  1  0.07949200  0.67850600  0.64313900  1
  Cu  Cu45  1  0.80476900  0.35767000  0.09098200  1
  Cu  Cu46  1  0.19523100  0.64233000  0.90901800  1
  Cu  Cu47  1  0.77377900  0.91569800  0.89066500  1
  Cu  Cu48  1  0.22622100  0.08430200  0.10933500  1
  Cu  Cu49  1  0.55136600  0.71624000  0.62164000  1
  Cu  Cu50  1  0.44863400  0.28376000  0.37836000  1
  Cu  Cu51  1  0.75598000  0.50447100  0.68571400  1
  Cu  Cu52  1  0.24402000  0.49552900  0.31428600  1
  Cu  Cu53  1  0.49111800  0.84871300  0.17347100  1
  Cu  Cu54  1  0.50888200  0.15128700  0.82652900  1
  Cu  Cu55  1  0.28369600  0.89605000  0.47603000  1
  Cu  Cu56  1  0.71630400  0.10395000  0.52397000  1
  Cu  Cu57  1  0.96347900  0.67010100  0.02635300  1
  Cu  Cu58  1  0.03652100  0.32989900  0.97364700  1
  Cu  Cu59  1  0.02222300  0.01501400  0.44702200  1
  Cu  Cu60  1  0.97777700  0.98498600  0.55297800  1
