# generated using pymatgen
data_CuNiC24
_symmetry_space_group_name_H-M   'P 1'
_cell_length_a   3.86870500
_cell_length_b   3.94435800
_cell_length_c   23.77481600
_cell_angle_alpha   90.00000000
_cell_angle_beta   90.00000000
_cell_angle_gamma   90.00000000
_symmetry_Int_Tables_number   1
_chemical_formula_structural   CuNiC24
_chemical_formula_sum   'Cu1 Ni1 C24'
_cell_volume   362.79317219
_cell_formula_units_Z   1
loop_
 _symmetry_equiv_pos_site_id
 _symmetry_equiv_pos_as_xyz
  1  'x, y, z'
loop_
 _atom_site_type_symbol
 _atom_site_label
 _atom_site_symmetry_multiplicity
 _atom_site_fract_x
 _atom_site_fract_y
 _atom_site_fract_z
 _atom_site_occupancy
  C  C0  1  0.50000000  0.50000000  0.83970300  1
  C  C1  1  0.50000000  0.50000000  0.34052400  1
  C  C2  1  0.50000000  0.50000000  0.16029700  1
  C  C3  1  0.50000000  0.50000000  0.65947600  1
  Ni  Ni4  1  0.50000000  0.50000000  0.00000000  1
  Cu  Cu5  1  0.50000000  0.50000000  0.50000000  1
  C  C6  1  0.00000000  0.00000000  0.92322900  1
  C  C7  1  0.00000000  0.00000000  0.42644900  1
  C  C8  1  0.00000000  0.00000000  0.07677100  1
  C  C9  1  0.00000000  0.00000000  0.57355100  1
  C  C10  1  0.00000000  0.00000000  0.74980400  1
  C  C11  1  0.00000000  0.00000000  0.25019600  1
  C  C12  1  0.00000000  0.00000000  0.82891800  1
  C  C13  1  0.00000000  0.00000000  0.32974400  1
  C  C14  1  0.00000000  0.00000000  0.17108200  1
  C  C15  1  0.00000000  0.00000000  0.67025600  1
  C  C16  1  0.50000000  0.00000000  0.93519600  1
  C  C17  1  0.50000000  0.00000000  0.44064600  1
  C  C18  1  0.50000000  0.00000000  0.06480400  1
  C  C19  1  0.50000000  0.00000000  0.55935400  1
  C  C20  1  0.00000000  0.50000000  0.93464900  1
  C  C21  1  0.00000000  0.50000000  0.44021000  1
  C  C22  1  0.00000000  0.50000000  0.06535100  1
  C  C23  1  0.00000000  0.50000000  0.55979000  1
  C  C24  1  0.00000000  0.50000000  0.74952500  1
  C  C25  1  0.00000000  0.50000000  0.25047500  1
