# generated using pymatgen
data_CuNiC61
_symmetry_space_group_name_H-M   'P 1'
_cell_length_a   8.48097700
_cell_length_b   8.67500800
_cell_length_c   8.68983400
_cell_angle_alpha   90.00000000
_cell_angle_beta   90.00000000
_cell_angle_gamma   90.00000000
_symmetry_Int_Tables_number   1
_chemical_formula_structural   CuNiC61
_chemical_formula_sum   'Cu1 Ni1 C61'
_cell_volume   639.33318843
_cell_formula_units_Z   1
loop_
 _symmetry_equiv_pos_site_id
 _symmetry_equiv_pos_as_xyz
  1  'x, y, z'
loop_
 _atom_site_type_symbol
 _atom_site_label
 _atom_site_symmetry_multiplicity
 _atom_site_fract_x
 _atom_site_fract_y
 _atom_site_fract_z
 _atom_site_occupancy
  Ni  Ni0  1  0.10088700  0.00000000  0.50000000  1
  Cu  Cu1  1  0.99277700  0.00000000  0.00000000  1
  C  C2  1  0.99413200  0.50000000  0.00000000  1
  C  C3  1  0.99008300  0.50000000  0.50000000  1
  C  C4  1  0.50114100  0.00000000  0.00000000  1
  C  C5  1  0.52016900  0.00000000  0.50000000  1
  C  C6  1  0.50058500  0.50000000  0.00000000  1
  C  C7  1  0.50458800  0.50000000  0.50000000  1
  C  C8  1  0.99652900  0.25005100  0.24615700  1
  C  C9  1  0.99652900  0.25005100  0.75384300  1
  C  C10  1  0.99652900  0.74994900  0.24615700  1
  C  C11  1  0.99652900  0.74994900  0.75384300  1
  C  C12  1  0.49831100  0.24740800  0.25170700  1
  C  C13  1  0.49831100  0.24740800  0.74829300  1
  C  C14  1  0.49831100  0.75259200  0.25170700  1
  C  C15  1  0.49831100  0.75259200  0.74829300  1
  C  C16  1  0.24457000  0.00000000  0.21793600  1
  C  C17  1  0.24457000  0.00000000  0.78206400  1
  C  C18  1  0.24715100  0.50000000  0.24502800  1
  C  C19  1  0.24715100  0.50000000  0.75497200  1
  C  C20  1  0.75916900  0.00000000  0.25162900  1
  C  C21  1  0.75916900  0.00000000  0.74837100  1
  C  C22  1  0.74777200  0.50000000  0.24913600  1
  C  C23  1  0.74777200  0.50000000  0.75086400  1
  C  C24  1  0.24651500  0.25448900  0.00000000  1
  C  C25  1  0.24873500  0.28052100  0.50000000  1
  C  C26  1  0.24651500  0.74551100  0.00000000  1
  C  C27  1  0.24873500  0.71947900  0.50000000  1
  C  C28  1  0.74885000  0.24727400  0.00000000  1
  C  C29  1  0.75834400  0.24417600  0.50000000  1
  C  C30  1  0.74885000  0.75272600  0.00000000  1
  C  C31  1  0.75834400  0.75582400  0.50000000  1
  C  C32  1  0.26533000  0.00000000  0.00000000  1
  C  C33  1  0.25257500  0.50000000  0.00000000  1
  C  C34  1  0.25687300  0.50000000  0.50000000  1
  C  C35  1  0.73185500  0.00000000  0.00000000  1
  C  C36  1  0.74933300  0.00000000  0.50000000  1
  C  C37  1  0.74398000  0.50000000  0.00000000  1
  C  C38  1  0.74352800  0.50000000  0.50000000  1
  C  C39  1  0.24731000  0.24540900  0.25578300  1
  C  C40  1  0.24731000  0.24540900  0.74421700  1
  C  C41  1  0.24731000  0.75459100  0.25578300  1
  C  C42  1  0.24731000  0.75459100  0.74421700  1
  C  C43  1  0.74693400  0.24902300  0.25122300  1
  C  C44  1  0.74693400  0.24902300  0.74877700  1
  C  C45  1  0.74693400  0.75097700  0.25122300  1
  C  C46  1  0.74693400  0.75097700  0.74877700  1
  C  C47  1  0.00042100  0.00000000  0.24221900  1
  C  C48  1  0.00042100  0.00000000  0.75778100  1
  C  C49  1  0.99920800  0.50000000  0.24877900  1
  C  C50  1  0.99920800  0.50000000  0.75122100  1
  C  C51  1  0.48767900  0.00000000  0.26115100  1
  C  C52  1  0.48767900  0.00000000  0.73884900  1
  C  C53  1  0.49619500  0.50000000  0.25192600  1
  C  C54  1  0.49619500  0.50000000  0.74807400  1
  C  C55  1  0.00007400  0.26590900  0.00000000  1
  C  C56  1  0.00186400  0.27174800  0.50000000  1
  C  C57  1  0.00007400  0.73409100  0.00000000  1
  C  C58  1  0.00186400  0.72825200  0.50000000  1
  C  C59  1  0.49555500  0.25145100  0.00000000  1
  C  C60  1  0.49081000  0.24340600  0.50000000  1
  C  C61  1  0.49555500  0.74854900  0.00000000  1
  C  C62  1  0.49081000  0.75659400  0.50000000  1
