# generated using pymatgen
data_Cu3Ni3C7
_symmetry_space_group_name_H-M   'P 1'
_cell_length_a   6.47138607
_cell_length_b   6.41837992
_cell_length_c   13.01908507
_cell_angle_alpha   98.08382448
_cell_angle_beta   97.62870060
_cell_angle_gamma   94.51162995
_symmetry_Int_Tables_number   1
_chemical_formula_structural   Cu3Ni3C7
_chemical_formula_sum   'Cu12 Ni12 C28'
_cell_volume   528.02983382
_cell_formula_units_Z   4
loop_
 _symmetry_equiv_pos_site_id
 _symmetry_equiv_pos_as_xyz
  1  'x, y, z'
loop_
 _atom_site_type_symbol
 _atom_site_label
 _atom_site_symmetry_multiplicity
 _atom_site_fract_x
 _atom_site_fract_y
 _atom_site_fract_z
 _atom_site_occupancy
  C  C0  1  0.99889100  0.99968600  0.49976600  1
  C  C1  1  0.00072500  0.00029500  0.00029900  1
  C  C2  1  0.50245000  0.49651400  0.24954500  1
  C  C3  1  0.49755000  0.50340200  0.75047100  1
  C  C4  1  0.17857500  0.67918900  0.38957700  1
  C  C5  1  0.17381600  0.68208100  0.88994100  1
  C  C6  1  0.21932200  0.81264500  0.15469700  1
  C  C7  1  0.21818100  0.81993900  0.65407500  1
  C  C8  1  0.33575300  0.22431000  0.40724200  1
  C  C9  1  0.33357700  0.22368000  0.90733600  1
  C  C10  1  0.66663100  0.77672400  0.09260700  1
  C  C11  1  0.66434100  0.77577200  0.59280400  1
  C  C12  1  0.78108700  0.18000600  0.34515300  1
  C  C13  1  0.78082900  0.18674400  0.84546400  1
  C  C14  1  0.82664600  0.31785400  0.11045600  1
  C  C15  1  0.82140100  0.32103300  0.61032000  1
  C  C16  1  0.06465000  0.40200800  0.10381300  1
  C  C17  1  0.05776800  0.40639000  0.60275500  1
  C  C18  1  0.21736300  0.05729700  0.19994300  1
  C  C19  1  0.21434900  0.06530000  0.69821800  1
  C  C20  1  0.57308400  0.78688100  0.47472400  1
  C  C21  1  0.57285600  0.79224900  0.97544400  1
  C  C22  1  0.42774800  0.20844900  0.02455500  1
  C  C23  1  0.42647900  0.21287200  0.52534600  1
  C  C24  1  0.78479800  0.93451600  0.30109900  1
  C  C25  1  0.78301100  0.94206200  0.80054200  1
  C  C26  1  0.94226900  0.59339000  0.39713900  1
  C  C27  1  0.93593700  0.59818400  0.89656100  1
  Ni  Ni28  1  0.06164100  0.69555300  0.43042500  1
  Ni  Ni29  1  0.05675800  0.69770500  0.93076500  1
  Ni  Ni30  1  0.14461000  0.93891300  0.14842100  1
  Ni  Ni31  1  0.14216000  0.94537300  0.64737500  1
  Ni  Ni32  1  0.32013200  0.14862200  0.46647900  1
  Ni  Ni33  1  0.31938600  0.14648100  0.96620100  1
  Ni  Ni34  1  0.68033000  0.85503800  0.03410800  1
  Ni  Ni35  1  0.67970800  0.85121100  0.53344800  1
  Ni  Ni36  1  0.85744100  0.05470100  0.35164300  1
  Ni  Ni37  1  0.85576700  0.06068900  0.85196400  1
  Ni  Ni38  1  0.94390300  0.30233000  0.06972900  1
  Ni  Ni39  1  0.93828500  0.30446000  0.56946400  1
  Cu  Cu40  1  0.32953700  0.30245100  0.27812500  1
  Cu  Cu41  1  0.32483600  0.30814000  0.77845200  1
  Cu  Cu42  1  0.31044100  0.55893700  0.15651600  1
  Cu  Cu43  1  0.30516800  0.56643100  0.65798400  1
  Cu  Cu44  1  0.42172900  0.67535100  0.34337900  1
  Cu  Cu45  1  0.41787900  0.68290200  0.84430300  1
  Cu  Cu46  1  0.58204300  0.31695300  0.15578900  1
  Cu  Cu47  1  0.57817200  0.32447900  0.65665000  1
  Cu  Cu48  1  0.69480200  0.43354400  0.34203400  1
  Cu  Cu49  1  0.68957900  0.44105400  0.84348800  1
  Cu  Cu50  1  0.67516000  0.69169700  0.22149100  1
  Cu  Cu51  1  0.67044800  0.69751300  0.72187500  1
