# generated using pymatgen
data_Cu39Ni13C3
_symmetry_space_group_name_H-M   'P 1'
_cell_length_a   13.76525928
_cell_length_b   13.76525928
_cell_length_c   13.76525944
_cell_angle_alpha   109.29745848
_cell_angle_beta   109.29745848
_cell_angle_gamma   109.29745664
_symmetry_Int_Tables_number   1
_chemical_formula_structural   Cu39Ni13C3
_chemical_formula_sum   'Cu78 Ni26 C6'
_cell_volume   2020.66423949
_cell_formula_units_Z   2
loop_
 _symmetry_equiv_pos_site_id
 _symmetry_equiv_pos_as_xyz
  1  'x, y, z'
loop_
 _atom_site_type_symbol
 _atom_site_label
 _atom_site_symmetry_multiplicity
 _atom_site_fract_x
 _atom_site_fract_y
 _atom_site_fract_z
 _atom_site_occupancy
  C  C0  1  0.09383300  0.86475000  0.73855900  1
  C  C1  1  0.73855900  0.09383300  0.86475000  1
  C  C2  1  0.86475000  0.73855900  0.09383300  1
  C  C3  1  0.23855900  0.36475000  0.59383300  1
  C  C4  1  0.59383300  0.23855900  0.36475000  1
  C  C5  1  0.36475000  0.59383300  0.23855900  1
  Ni  Ni6  1  0.91691600  0.91691600  0.91691600  1
  Ni  Ni7  1  0.41691600  0.41691600  0.41691600  1
  Ni  Ni8  1  0.87107700  0.97905900  0.63841900  1
  Ni  Ni9  1  0.63841900  0.87107700  0.97905900  1
  Ni  Ni10  1  0.97905900  0.63841900  0.87107700  1
  Ni  Ni11  1  0.13841900  0.47905900  0.37107700  1
  Ni  Ni12  1  0.37107700  0.13841900  0.47905900  1
  Ni  Ni13  1  0.47905900  0.37107700  0.13841900  1
  Ni  Ni14  1  0.25577400  0.20296200  0.79840700  1
  Ni  Ni15  1  0.79840700  0.25577400  0.20296200  1
  Ni  Ni16  1  0.20296200  0.79840700  0.25577400  1
  Ni  Ni17  1  0.29840700  0.70296200  0.75577400  1
  Ni  Ni18  1  0.75577400  0.29840700  0.70296200  1
  Ni  Ni19  1  0.70296200  0.75577400  0.29840700  1
  Ni  Ni20  1  0.99453200  0.70478200  0.39175000  1
  Ni  Ni21  1  0.39175000  0.99453200  0.70478200  1
  Ni  Ni22  1  0.70478200  0.39175000  0.99453200  1
  Ni  Ni23  1  0.89175000  0.20478200  0.49453200  1
  Ni  Ni24  1  0.49453200  0.89175000  0.20478200  1
  Ni  Ni25  1  0.20478200  0.49453200  0.89175000  1
  Ni  Ni26  1  0.91148500  0.51073700  0.53443300  1
  Ni  Ni27  1  0.53443300  0.91148500  0.51073700  1
  Ni  Ni28  1  0.51073700  0.53443300  0.91148500  1
  Ni  Ni29  1  0.03443300  0.01073700  0.41148500  1
  Ni  Ni30  1  0.41148500  0.03443300  0.01073700  1
  Ni  Ni31  1  0.01073700  0.41148500  0.03443300  1
  Cu  Cu32  1  0.04621900  0.98403800  0.90131400  1
  Cu  Cu33  1  0.90131400  0.04621900  0.98403800  1
  Cu  Cu34  1  0.98403800  0.90131400  0.04621900  1
  Cu  Cu35  1  0.40131400  0.48403800  0.54621900  1
  Cu  Cu36  1  0.54621900  0.40131400  0.48403800  1
  Cu  Cu37  1  0.48403800  0.54621900  0.40131400  1
  Cu  Cu38  1  0.90310700  0.86260500  0.64673800  1
  Cu  Cu39  1  0.64673800  0.90310700  0.86260500  1
  Cu  Cu40  1  0.86260500  0.64673800  0.90310700  1
  Cu  Cu41  1  0.14673800  0.36260500  0.40310700  1
  Cu  Cu42  1  0.40310700  0.14673800  0.36260500  1
  Cu  Cu43  1  0.36260500  0.40310700  0.14673800  1
  Cu  Cu44  1  0.82568600  0.00423400  0.75123800  1
  Cu  Cu45  1  0.75123800  0.82568600  0.00423400  1
  Cu  Cu46  1  0.00423400  0.75123800  0.82568600  1
  Cu  Cu47  1  0.25123800  0.50423400  0.32568600  1
  Cu  Cu48  1  0.32568600  0.25123800  0.50423400  1
  Cu  Cu49  1  0.50423400  0.32568600  0.25123800  1
  Cu  Cu50  1  0.72097800  0.88484300  0.50799800  1
  Cu  Cu51  1  0.50799800  0.72097800  0.88484300  1
  Cu  Cu52  1  0.88484300  0.50799800  0.72097800  1
  Cu  Cu53  1  0.00799800  0.38484300  0.22097800  1
  Cu  Cu54  1  0.22097700  0.00799800  0.38484300  1
  Cu  Cu55  1  0.38484300  0.22097800  0.00799800  1
  Cu  Cu56  1  0.13027500  0.05782100  0.74141300  1
  Cu  Cu57  1  0.74141300  0.13027500  0.05782100  1
  Cu  Cu58  1  0.05782100  0.74141300  0.13027500  1
  Cu  Cu59  1  0.24141300  0.55782100  0.63027500  1
  Cu  Cu60  1  0.63027500  0.24141300  0.55782100  1
  Cu  Cu61  1  0.55782100  0.63027500  0.24141300  1
  Cu  Cu62  1  0.20527800  0.21234800  0.66168100  1
  Cu  Cu63  1  0.66168100  0.20527800  0.21234800  1
  Cu  Cu64  1  0.21234800  0.66168100  0.20527800  1
  Cu  Cu65  1  0.16168100  0.71234800  0.70527800  1
  Cu  Cu66  1  0.70527800  0.16168100  0.71234800  1
  Cu  Cu67  1  0.71234800  0.70527800  0.16168100  1
  Cu  Cu68  1  0.21132500  0.29751000  0.87895400  1
  Cu  Cu69  1  0.87895400  0.21132500  0.29751000  1
  Cu  Cu70  1  0.29751000  0.87895400  0.21132500  1
  Cu  Cu71  1  0.37895400  0.79751000  0.71132500  1
  Cu  Cu72  1  0.71132500  0.37895400  0.79751000  1
  Cu  Cu73  1  0.79751000  0.71132500  0.37895400  1
  Cu  Cu74  1  0.09399800  0.83323700  0.54036600  1
  Cu  Cu75  1  0.54036600  0.09399800  0.83323700  1
  Cu  Cu76  1  0.83323700  0.54036600  0.09399800  1
  Cu  Cu77  1  0.04036600  0.33323700  0.59399800  1
  Cu  Cu78  1  0.59399800  0.04036600  0.33323700  1
  Cu  Cu79  1  0.33323700  0.59399800  0.04036600  1
  Cu  Cu80  1  0.10234500  0.66990500  0.35988900  1
  Cu  Cu81  1  0.35988900  0.10234500  0.66990500  1
  Cu  Cu82  1  0.66990500  0.35988900  0.10234500  1
  Cu  Cu83  1  0.85988900  0.16990500  0.60234500  1
  Cu  Cu84  1  0.60234500  0.85988900  0.16990500  1
  Cu  Cu85  1  0.16990500  0.60234500  0.85988900  1
  Cu  Cu86  1  0.98323300  0.78792600  0.31093400  1
  Cu  Cu87  1  0.31093400  0.98323300  0.78792600  1
  Cu  Cu88  1  0.78792600  0.31093400  0.98323300  1
  Cu  Cu89  1  0.81093400  0.28792600  0.48323300  1
  Cu  Cu90  1  0.48323300  0.81093400  0.28792600  1
  Cu  Cu91  1  0.28792600  0.48323300  0.81093400  1
  Cu  Cu92  1  0.93816900  0.66060600  0.56708700  1
  Cu  Cu93  1  0.56708700  0.93816900  0.66060600  1
  Cu  Cu94  1  0.66060600  0.56708700  0.93816900  1
  Cu  Cu95  1  0.06708700  0.16060600  0.43816900  1
  Cu  Cu96  1  0.43816900  0.06708700  0.16060600  1
  Cu  Cu97  1  0.16060600  0.43816900  0.06708700  1
  Cu  Cu98  1  0.75094600  0.44344300  0.45099800  1
  Cu  Cu99  1  0.45099800  0.75094600  0.44344300  1
  Cu  Cu100  1  0.44344300  0.45099800  0.75094600  1
  Cu  Cu101  1  0.95099800  0.94344300  0.25094600  1
  Cu  Cu102  1  0.25094600  0.95099800  0.94344300  1
  Cu  Cu103  1  0.94344300  0.25094600  0.95099800  1
  Cu  Cu104  1  0.94240500  0.47723900  0.40941600  1
  Cu  Cu105  1  0.40941600  0.94240500  0.47723900  1
  Cu  Cu106  1  0.47723900  0.40941600  0.94240500  1
  Cu  Cu107  1  0.90941600  0.97723900  0.44240500  1
  Cu  Cu108  1  0.44240500  0.90941600  0.97723900  1
  Cu  Cu109  1  0.97723900  0.44240500  0.90941600  1
