# generated using pymatgen
data_CuNiC5
_symmetry_space_group_name_H-M   'P 1'
_cell_length_a   4.67785900
_cell_length_b   6.28476800
_cell_length_c   10.95634000
_cell_angle_alpha   90.00000000
_cell_angle_beta   90.00000000
_cell_angle_gamma   90.00000000
_symmetry_Int_Tables_number   1
_chemical_formula_structural   CuNiC5
_chemical_formula_sum   'Cu4 Ni4 C20'
_cell_volume   322.10827244
_cell_formula_units_Z   4
loop_
 _symmetry_equiv_pos_site_id
 _symmetry_equiv_pos_as_xyz
  1  'x, y, z'
loop_
 _atom_site_type_symbol
 _atom_site_label
 _atom_site_symmetry_multiplicity
 _atom_site_fract_x
 _atom_site_fract_y
 _atom_site_fract_z
 _atom_site_occupancy
  Ni  Ni0  1  0.02293900  0.75000000  0.72325400  1
  Ni  Ni1  1  0.97706100  0.25000000  0.27674600  1
  Ni  Ni2  1  0.52293900  0.25000000  0.77674600  1
  Ni  Ni3  1  0.47706100  0.75000000  0.22325400  1
  Cu  Cu4  1  0.50000000  0.50000000  0.50000000  1
  Cu  Cu5  1  0.00000000  0.50000000  0.00000000  1
  Cu  Cu6  1  0.50000000  0.00000000  0.50000000  1
  Cu  Cu7  1  0.00000000  0.00000000  0.00000000  1
  C  C8  1  0.59551500  0.75000000  0.91888700  1
  C  C9  1  0.40448500  0.25000000  0.08111300  1
  C  C10  1  0.09551500  0.25000000  0.58111300  1
  C  C11  1  0.90448500  0.75000000  0.41888700  1
  C  C12  1  0.72365300  0.54899400  0.85398400  1
  C  C13  1  0.27634700  0.45100600  0.14601600  1
  C  C14  1  0.22365300  0.45100600  0.64601600  1
  C  C15  1  0.27634700  0.04899400  0.14601600  1
  C  C16  1  0.77634700  0.54899400  0.35398400  1
  C  C17  1  0.72365300  0.95100600  0.85398400  1
  C  C18  1  0.77634700  0.95100600  0.35398400  1
  C  C19  1  0.22365300  0.04899400  0.64601600  1
  C  C20  1  0.75326200  0.75000000  0.54890900  1
  C  C21  1  0.24673800  0.25000000  0.45109100  1
  C  C22  1  0.25326200  0.25000000  0.95109100  1
  C  C23  1  0.74673800  0.75000000  0.04890900  1
  C  C24  1  0.26492500  0.75000000  0.92275600  1
  C  C25  1  0.73507500  0.25000000  0.07724400  1
  C  C26  1  0.76492500  0.25000000  0.57724400  1
  C  C27  1  0.23507500  0.75000000  0.42275600  1
