# generated using pymatgen
data_Cu2NiC8
_symmetry_space_group_name_H-M   'P 1'
_cell_length_a   11.06007167
_cell_length_b   11.06007167
_cell_length_c   11.06007167
_cell_angle_alpha   137.88447240
_cell_angle_beta   137.88447240
_cell_angle_gamma   61.07998054
_symmetry_Int_Tables_number   1
_chemical_formula_structural   Cu2NiC8
_chemical_formula_sum   'Cu4 Ni2 C16'
_cell_volume   601.74381702
_cell_formula_units_Z   2
loop_
 _symmetry_equiv_pos_site_id
 _symmetry_equiv_pos_as_xyz
  1  'x, y, z'
loop_
 _atom_site_type_symbol
 _atom_site_label
 _atom_site_symmetry_multiplicity
 _atom_site_fract_x
 _atom_site_fract_y
 _atom_site_fract_z
 _atom_site_occupancy
  C  C0  1  0.38257700  0.38257700  0.00000000  1
  C  C1  1  0.88257700  0.88257700  0.00000000  1
  C  C2  1  0.61742300  0.61742300  0.00000000  1
  C  C3  1  0.11742300  0.11742300  0.00000000  1
  Ni  Ni4  1  0.75000000  0.25000000  0.50000000  1
  Ni  Ni5  1  0.25000000  0.75000000  0.50000000  1
  Cu  Cu6  1  0.91504900  0.41504900  0.50000000  1
  Cu  Cu7  1  0.41504900  0.91504900  0.50000000  1
  Cu  Cu8  1  0.08495100  0.58495100  0.50000000  1
  Cu  Cu9  1  0.58495100  0.08495100  0.50000000  1
  C  C10  1  0.83808800  0.33808800  0.17617600  1
  C  C11  1  0.16191200  0.66191200  0.82382400  1
  C  C12  1  0.33808800  0.16191200  0.50000000  1
  C  C13  1  0.66191200  0.83808800  0.50000000  1
  C  C14  1  0.67213700  0.50527400  0.50000000  1
  C  C15  1  0.00527400  0.17213700  0.50000000  1
  C  C16  1  0.17213700  0.67213700  0.16686300  1
  C  C17  1  0.50527400  0.00527400  0.83313700  1
  C  C18  1  0.32786300  0.49472600  0.50000000  1
  C  C19  1  0.99472600  0.82786300  0.50000000  1
  C  C20  1  0.82786300  0.32786300  0.83313700  1
  C  C21  1  0.49472600  0.99472600  0.16686300  1
