# generated using pymatgen
data_Cu3Ni3C14
_symmetry_space_group_name_H-M   'P 1'
_cell_length_a   8.09155400
_cell_length_b   8.29527900
_cell_length_c   16.30354603
_cell_angle_alpha   60.33392324
_cell_angle_beta   90.00000000
_cell_angle_gamma   90.00000000
_symmetry_Int_Tables_number   1
_chemical_formula_structural   Cu3Ni3C14
_chemical_formula_sum   'Cu12 Ni12 C56'
_cell_volume   950.88315891
_cell_formula_units_Z   4
loop_
 _symmetry_equiv_pos_site_id
 _symmetry_equiv_pos_as_xyz
  1  'x, y, z'
loop_
 _atom_site_type_symbol
 _atom_site_label
 _atom_site_symmetry_multiplicity
 _atom_site_fract_x
 _atom_site_fract_y
 _atom_site_fract_z
 _atom_site_occupancy
  Ni  Ni0  1  0.84980000  0.81361900  0.75970200  1
  Ni  Ni1  1  0.65984000  0.16389500  0.40660400  1
  Ni  Ni2  1  0.15984000  0.83610500  0.09339600  1
  Ni  Ni3  1  0.34016000  0.83610500  0.59339600  1
  Ni  Ni4  1  0.84016000  0.16389500  0.90660400  1
  Ni  Ni5  1  0.15450500  0.47169200  0.40980700  1
  Ni  Ni6  1  0.65450500  0.52830800  0.09019300  1
  Ni  Ni7  1  0.84549500  0.52830800  0.59019300  1
  Ni  Ni8  1  0.34549500  0.47169200  0.90980700  1
  Ni  Ni9  1  0.65020000  0.81361900  0.25970200  1
  Ni  Ni10  1  0.15020000  0.18638100  0.24029800  1
  Ni  Ni11  1  0.34980000  0.18638100  0.74029800  1
  Cu  Cu12  1  0.22799800  0.81067200  0.75925700  1
  Cu  Cu13  1  0.72799800  0.18932800  0.74074300  1
  Cu  Cu14  1  0.77200200  0.18932800  0.24074300  1
  Cu  Cu15  1  0.27200200  0.81067200  0.25925700  1
  Cu  Cu16  1  0.73758500  0.47682500  0.91994900  1
  Cu  Cu17  1  0.23758500  0.52317500  0.58005100  1
  Cu  Cu18  1  0.26241500  0.52317500  0.08005100  1
  Cu  Cu19  1  0.76241500  0.47682500  0.41994900  1
  Cu  Cu20  1  0.20639800  0.17095400  0.89730900  1
  Cu  Cu21  1  0.70639800  0.82904600  0.60269100  1
  Cu  Cu22  1  0.79360200  0.82904600  0.10269100  1
  Cu  Cu23  1  0.29360200  0.17095400  0.39730900  1
  C  C24  1  0.49226600  0.16213600  0.09417100  1
  C  C25  1  0.00773400  0.16213600  0.59417100  1
  C  C26  1  0.50773400  0.83786400  0.90582900  1
  C  C27  1  0.99226600  0.83786400  0.40582900  1
  C  C28  1  0.55369700  0.82633700  0.42153000  1
  C  C29  1  0.05369700  0.17366300  0.07847000  1
  C  C30  1  0.44630300  0.17366300  0.57847000  1
  C  C31  1  0.94630300  0.82633700  0.92153000  1
  C  C32  1  0.13829200  0.71752600  0.03278700  1
  C  C33  1  0.04315800  0.79624000  0.80952900  1
  C  C34  1  0.54315800  0.20376000  0.69047100  1
  C  C35  1  0.95684200  0.20376000  0.19047100  1
  C  C36  1  0.45684200  0.79624000  0.30952900  1
  C  C37  1  0.54445600  0.40072400  0.94790400  1
  C  C38  1  0.04445600  0.59927600  0.55209600  1
  C  C39  1  0.45554400  0.59927600  0.05209600  1
  C  C40  1  0.95554400  0.40072400  0.44790400  1
  C  C41  1  0.02219700  0.10566600  0.87754300  1
  C  C42  1  0.52219700  0.89433400  0.62245700  1
  C  C43  1  0.97780300  0.89433400  0.12245700  1
  C  C44  1  0.16157700  0.08305400  0.35408000  1
  C  C45  1  0.66157700  0.91694600  0.14592000  1
  C  C46  1  0.83842300  0.91694600  0.64592000  1
  C  C47  1  0.33842300  0.08305400  0.85408000  1
  C  C48  1  0.63829200  0.28247400  0.46721300  1
  C  C49  1  0.47780300  0.10566600  0.37754300  1
  C  C50  1  0.36170800  0.71752600  0.53278700  1
  C  C51  1  0.86170800  0.28247400  0.96721300  1
  C  C52  1  0.71311000  0.94211100  0.48342900  1
  C  C53  1  0.65229600  0.30600300  0.14789600  1
  C  C54  1  0.84770400  0.30600300  0.64789600  1
  C  C55  1  0.34770400  0.69399700  0.85210400  1
  C  C56  1  0.72056100  0.24602900  0.82096500  1
  C  C57  1  0.22056100  0.75397100  0.67903500  1
  C  C58  1  0.27943900  0.75397100  0.17903500  1
  C  C59  1  0.77943900  0.24602900  0.32096500  1
  C  C60  1  0.76064500  0.62482800  0.81183200  1
  C  C61  1  0.26064500  0.37517200  0.68816800  1
  C  C62  1  0.23935500  0.37517200  0.18816800  1
  C  C63  1  0.73935500  0.62482800  0.31183200  1
  C  C64  1  0.23414200  0.38145500  0.86756300  1
  C  C65  1  0.73414200  0.61854500  0.63243700  1
  C  C66  1  0.76585800  0.61854500  0.13243700  1
  C  C67  1  0.26585800  0.38145500  0.36756300  1
  C  C68  1  0.79034700  0.96608200  0.79412600  1
  C  C69  1  0.29034700  0.03391800  0.70587400  1
  C  C70  1  0.20965300  0.03391800  0.20587400  1
  C  C71  1  0.70965300  0.96608200  0.29412600  1
  C  C72  1  0.78820700  0.58856100  0.98053000  1
  C  C73  1  0.28820700  0.41143900  0.51947000  1
  C  C74  1  0.21179300  0.41143900  0.01947000  1
  C  C75  1  0.71179300  0.58856100  0.48053000  1
  C  C76  1  0.78689000  0.94211100  0.98342900  1
  C  C77  1  0.28689000  0.05788900  0.51657100  1
  C  C78  1  0.21311000  0.05788900  0.01657100  1
  C  C79  1  0.15229600  0.69399700  0.35210400  1
