# generated using pymatgen
data_Cu4NiC6
_symmetry_space_group_name_H-M   'P 1'
_cell_length_a   9.27588746
_cell_length_b   9.27588746
_cell_length_c   7.11688248
_cell_angle_alpha   89.36646217
_cell_angle_beta   89.36646217
_cell_angle_gamma   119.44215419
_symmetry_Int_Tables_number   1
_chemical_formula_structural   Cu4NiC6
_chemical_formula_sum   'Cu8 Ni2 C12'
_cell_volume   533.13947251
_cell_formula_units_Z   2
loop_
 _symmetry_equiv_pos_site_id
 _symmetry_equiv_pos_as_xyz
  1  'x, y, z'
loop_
 _atom_site_type_symbol
 _atom_site_label
 _atom_site_symmetry_multiplicity
 _atom_site_fract_x
 _atom_site_fract_y
 _atom_site_fract_z
 _atom_site_occupancy
  C  C0  1  0.05509800  0.52655400  0.61277600  1
  C  C1  1  0.52655400  0.05509800  0.11277600  1
  C  C2  1  0.27529500  0.13456600  0.80666200  1
  C  C3  1  0.86858600  0.71823500  0.78552100  1
  C  C4  1  0.86473400  0.14872500  0.79268500  1
  C  C5  1  0.71823500  0.86858600  0.28552100  1
  C  C6  1  0.13456600  0.27529500  0.30666200  1
  C  C7  1  0.14872500  0.86473400  0.29268500  1
  C  C8  1  0.47030900  0.94881100  0.61575200  1
  C  C9  1  0.46721300  0.51990600  0.61540400  1
  C  C10  1  0.94881100  0.47030900  0.11575200  1
  C  C11  1  0.51990600  0.46721300  0.11540400  1
  Ni  Ni12  1  0.67158700  0.33661100  0.49842600  1
  Ni  Ni13  1  0.33661100  0.67158700  0.99842600  1
  Cu  Cu14  1  0.60672800  0.79842200  0.88782800  1
  Cu  Cu15  1  0.19817100  0.39457700  0.90787100  1
  Cu  Cu16  1  0.19302500  0.79912300  0.89943100  1
  Cu  Cu17  1  0.39457700  0.19817100  0.40787100  1
  Cu  Cu18  1  0.79842200  0.60672800  0.38782800  1
  Cu  Cu19  1  0.79912300  0.19302500  0.39943100  1
  Cu  Cu20  1  0.66283900  0.34004400  0.82468100  1
  Cu  Cu21  1  0.34004400  0.66283900  0.32468100  1
