# generated using pymatgen
data_Cu3NiC
_symmetry_space_group_name_H-M   'P 1'
_cell_length_a   7.57435031
_cell_length_b   7.57435031
_cell_length_c   8.03802279
_cell_angle_alpha   102.12167333
_cell_angle_beta   112.37810172
_cell_angle_gamma   111.90902277
_symmetry_Int_Tables_number   1
_chemical_formula_structural   Cu3NiC
_chemical_formula_sum   'Cu12 Ni4 C4'
_cell_volume   360.77821410
_cell_formula_units_Z   4
loop_
 _symmetry_equiv_pos_site_id
 _symmetry_equiv_pos_as_xyz
  1  'x, y, z'
loop_
 _atom_site_type_symbol
 _atom_site_label
 _atom_site_symmetry_multiplicity
 _atom_site_fract_x
 _atom_site_fract_y
 _atom_site_fract_z
 _atom_site_occupancy
  C  C0  1  0.58792100  0.33792100  0.25000000  1
  C  C1  1  0.41207900  0.66207900  0.75000000  1
  C  C2  1  0.94791200  0.69791200  0.25000000  1
  C  C3  1  0.05208800  0.30208800  0.75000000  1
  Ni  Ni4  1  0.98806300  0.17474900  0.19778400  1
  Ni  Ni5  1  0.01193700  0.82525100  0.80221600  1
  Ni  Ni6  1  0.47696500  0.79027900  0.30221600  1
  Ni  Ni7  1  0.52303500  0.20972100  0.69778400  1
  Cu  Cu8  1  0.65264400  0.04834300  0.39738200  1
  Cu  Cu9  1  0.34735600  0.95165700  0.60261800  1
  Cu  Cu10  1  0.15096100  0.25526200  0.10261800  1
  Cu  Cu11  1  0.84903900  0.74473800  0.89738200  1
  Cu  Cu12  1  0.73108100  0.09752200  0.01769700  1
  Cu  Cu13  1  0.26891900  0.90247800  0.98230300  1
  Cu  Cu14  1  0.57982400  0.71338400  0.48230300  1
  Cu  Cu15  1  0.42017600  0.28661600  0.51769700  1
  Cu  Cu16  1  0.52888700  0.67949600  0.13415100  1
  Cu  Cu17  1  0.47111300  0.32050400  0.86584900  1
  Cu  Cu18  1  0.04534500  0.39473600  0.36584900  1
  Cu  Cu19  1  0.95465500  0.60526400  0.63415100  1
