# generated using pymatgen
data_CuNiC7
_symmetry_space_group_name_H-M   'P 1'
_cell_length_a   5.69337000
_cell_length_b   7.67101700
_cell_length_c   10.32440000
_cell_angle_alpha   90.00000000
_cell_angle_beta   90.00000000
_cell_angle_gamma   90.00000000
_symmetry_Int_Tables_number   1
_chemical_formula_structural   CuNiC7
_chemical_formula_sum   'Cu4 Ni4 C28'
_cell_volume   450.90720608
_cell_formula_units_Z   4
loop_
 _symmetry_equiv_pos_site_id
 _symmetry_equiv_pos_as_xyz
  1  'x, y, z'
loop_
 _atom_site_type_symbol
 _atom_site_label
 _atom_site_symmetry_multiplicity
 _atom_site_fract_x
 _atom_site_fract_y
 _atom_site_fract_z
 _atom_site_occupancy
  C  C0  1  0.25007900  0.59798400  0.43989300  1
  C  C1  1  0.24992100  0.09798400  0.06010700  1
  C  C2  1  0.74992100  0.40201600  0.93989300  1
  C  C3  1  0.75007900  0.90201600  0.56010700  1
  C  C4  1  0.74992100  0.40201600  0.56010700  1
  C  C5  1  0.75007900  0.90201600  0.93989300  1
  C  C6  1  0.25007900  0.59798400  0.06010700  1
  C  C7  1  0.24992100  0.09798400  0.43989300  1
  Ni  Ni8  1  0.42818800  0.66289100  0.75000000  1
  Ni  Ni9  1  0.07181200  0.16289100  0.75000000  1
  Ni  Ni10  1  0.57181200  0.33710900  0.25000000  1
  Ni  Ni11  1  0.92818800  0.83710900  0.25000000  1
  Cu  Cu12  1  0.20208400  0.73407200  0.75000000  1
  Cu  Cu13  1  0.29791600  0.23407200  0.75000000  1
  Cu  Cu14  1  0.79791600  0.26592800  0.25000000  1
  Cu  Cu15  1  0.70208400  0.76592800  0.25000000  1
  C  C16  1  0.44947500  0.55103000  0.62618700  1
  C  C17  1  0.05052500  0.05103000  0.87381300  1
  C  C18  1  0.55052500  0.44897000  0.12618700  1
  C  C19  1  0.94947500  0.94897000  0.37381300  1
  C  C20  1  0.55052500  0.44897000  0.37381300  1
  C  C21  1  0.94947500  0.94897000  0.12618700  1
  C  C22  1  0.44947500  0.55103000  0.87381300  1
  C  C23  1  0.05052500  0.05103000  0.62618700  1
  C  C24  1  0.10640600  0.68371200  0.25000000  1
  C  C25  1  0.39359400  0.18371200  0.25000000  1
  C  C26  1  0.89359400  0.31628800  0.75000000  1
  C  C27  1  0.60640600  0.81628800  0.75000000  1
  C  C28  1  0.42663100  0.84575100  0.45657900  1
  C  C29  1  0.07336900  0.34575100  0.04342100  1
  C  C30  1  0.57336900  0.15424900  0.95657900  1
  C  C31  1  0.92663100  0.65424900  0.54342100  1
  C  C32  1  0.57336900  0.15424900  0.54342100  1
  C  C33  1  0.92663100  0.65424900  0.95657900  1
  C  C34  1  0.42663100  0.84575100  0.04342100  1
  C  C35  1  0.07336900  0.34575100  0.45657900  1
