# generated using pymatgen
data_Cu2Ni2C15
_symmetry_space_group_name_H-M   'P 1'
_cell_length_a   3.86865400
_cell_length_b   8.21490500
_cell_length_c   8.69893900
_cell_angle_alpha   90.00000000
_cell_angle_beta   90.00000000
_cell_angle_gamma   90.00000000
_symmetry_Int_Tables_number   1
_chemical_formula_structural   Cu2Ni2C15
_chemical_formula_sum   'Cu2 Ni2 C15'
_cell_volume   276.45771902
_cell_formula_units_Z   1
loop_
 _symmetry_equiv_pos_site_id
 _symmetry_equiv_pos_as_xyz
  1  'x, y, z'
loop_
 _atom_site_type_symbol
 _atom_site_label
 _atom_site_symmetry_multiplicity
 _atom_site_fract_x
 _atom_site_fract_y
 _atom_site_fract_z
 _atom_site_occupancy
  Ni  Ni0  1  0.00000000  0.07735700  0.45342900  1
  Ni  Ni1  1  0.00000000  0.07735700  0.04657100  1
  Cu  Cu2  1  0.00000000  0.53930900  0.02799100  1
  Cu  Cu3  1  0.00000000  0.53930900  0.47200900  1
  C  C4  1  0.00000000  0.90504300  0.75000000  1
  C  C5  1  0.49999900  0.75148900  0.25000000  1
  C  C6  1  0.49999900  0.25983800  0.75000000  1
  C  C7  1  0.49999900  0.32219800  0.25000000  1
  C  C8  1  0.49999900  0.65955500  0.75000000  1
  C  C9  1  0.49999900  0.68171300  0.48856200  1
  C  C10  1  0.49999900  0.32857800  0.50909200  1
  C  C11  1  0.49999900  0.68171300  0.01143700  1
  C  C12  1  0.49999900  0.32857800  0.99090800  1
  C  C13  1  0.00000000  0.62179800  0.75000000  1
  C  C14  1  0.00000000  0.35808100  0.25000000  1
  C  C15  1  0.00000000  0.69950000  0.25000000  1
  C  C16  1  0.00000000  0.16497100  0.75000000  1
  C  C17  1  0.49999900  0.04100000  0.25000000  1
  C  C18  1  0.49999900  0.91261200  0.75000000  1
