# generated using pymatgen
data_Cu8NiC6
_symmetry_space_group_name_H-M   'P 1'
_cell_length_a   6.94301700
_cell_length_b   8.00499700
_cell_length_c   9.40238100
_cell_angle_alpha   90.00000000
_cell_angle_beta   90.00000000
_cell_angle_gamma   90.00000000
_symmetry_Int_Tables_number   1
_chemical_formula_structural   Cu8NiC6
_chemical_formula_sum   'Cu16 Ni2 C12'
_cell_volume   522.57333760
_cell_formula_units_Z   2
loop_
 _symmetry_equiv_pos_site_id
 _symmetry_equiv_pos_as_xyz
  1  'x, y, z'
loop_
 _atom_site_type_symbol
 _atom_site_label
 _atom_site_symmetry_multiplicity
 _atom_site_fract_x
 _atom_site_fract_y
 _atom_site_fract_z
 _atom_site_occupancy
  C  C0  1  0.66757000  0.50000000  0.50000000  1
  C  C1  1  0.33153600  0.00000000  0.00000000  1
  C  C2  1  0.00203400  0.24290200  0.75466500  1
  C  C3  1  0.00203400  0.24290200  0.24533500  1
  C  C4  1  0.00203400  0.75709800  0.75466500  1
  C  C5  1  0.86586200  0.00000000  0.00000000  1
  C  C6  1  0.10941800  0.50000000  0.50000000  1
  C  C7  1  0.00203400  0.75709800  0.24533500  1
  C  C8  1  0.55455900  0.00000000  0.68771300  1
  C  C9  1  0.44606500  0.50000000  0.81203200  1
  C  C10  1  0.55455900  0.00000000  0.31228700  1
  C  C11  1  0.44606500  0.50000000  0.18796800  1
  Ni  Ni12  1  0.91385100  0.50000000  0.00000000  1
  Ni  Ni13  1  0.08674200  0.00000000  0.50000000  1
  Cu  Cu14  1  0.86058700  0.50000000  0.63765600  1
  Cu  Cu15  1  0.46759000  0.50000000  0.62615000  1
  Cu  Cu16  1  0.53445900  0.00000000  0.12473600  1
  Cu  Cu17  1  0.70330800  0.16972000  0.66794500  1
  Cu  Cu18  1  0.29750000  0.32962000  0.16804200  1
  Cu  Cu19  1  0.29750000  0.67038000  0.16804200  1
  Cu  Cu20  1  0.14401500  0.00000000  0.85960100  1
  Cu  Cu21  1  0.70330800  0.83028000  0.66794500  1
  Cu  Cu22  1  0.70330800  0.83028000  0.33205500  1
  Cu  Cu23  1  0.29750000  0.67038000  0.83195800  1
  Cu  Cu24  1  0.86058700  0.50000000  0.36234400  1
  Cu  Cu25  1  0.14401500  0.00000000  0.14039900  1
  Cu  Cu26  1  0.29750000  0.32962000  0.83195800  1
  Cu  Cu27  1  0.70330800  0.16972000  0.33205500  1
  Cu  Cu28  1  0.53445900  0.00000000  0.87526400  1
  Cu  Cu29  1  0.46759000  0.50000000  0.37385000  1
