# generated using pymatgen
data_Cu11Ni9C10
_symmetry_space_group_name_H-M   'P 1'
_cell_length_a   4.76786200
_cell_length_b   4.77967705
_cell_length_c   15.50422209
_cell_angle_alpha   90.09877248
_cell_angle_beta   90.03018850
_cell_angle_gamma   93.32230428
_symmetry_Int_Tables_number   1
_chemical_formula_structural   Cu11Ni9C10
_chemical_formula_sum   'Cu11 Ni9 C10'
_cell_volume   352.72883290
_cell_formula_units_Z   1
loop_
 _symmetry_equiv_pos_site_id
 _symmetry_equiv_pos_as_xyz
  1  'x, y, z'
loop_
 _atom_site_type_symbol
 _atom_site_label
 _atom_site_symmetry_multiplicity
 _atom_site_fract_x
 _atom_site_fract_y
 _atom_site_fract_z
 _atom_site_occupancy
  C  C0  1  0.99961400  0.97695300  0.00334900  1
  C  C1  1  0.03874300  0.01570400  0.19410500  1
  C  C2  1  0.99116800  0.98812000  0.40145500  1
  C  C3  1  0.02132000  0.01249800  0.60520400  1
  C  C4  1  0.03503900  0.00803000  0.79263600  1
  C  C5  1  0.46102500  0.51444500  0.09409000  1
  C  C6  1  0.48972600  0.48306900  0.49517700  1
  C  C7  1  0.49421800  0.48429200  0.30453100  1
  C  C8  1  0.45241000  0.50500700  0.70004600  1
  C  C9  1  0.49671800  0.47599400  0.90592600  1
  Ni  Ni10  1  0.18673400  0.81070000  0.10162000  1
  Ni  Ni11  1  0.20230500  0.80570900  0.70503200  1
  Ni  Ni12  1  0.28910100  0.29423600  0.99963100  1
  Ni  Ni13  1  0.31571600  0.31916100  0.20198800  1
  Ni  Ni14  1  0.29512200  0.28726600  0.39789000  1
  Ni  Ni15  1  0.31791700  0.32083100  0.59602300  1
  Ni  Ni16  1  0.30994800  0.31402500  0.80417000  1
  Ni  Ni17  1  0.68854900  0.69112900  0.99928100  1
  Ni  Ni18  1  0.69838000  0.69020100  0.39839700  1
  Cu  Cu19  1  0.19485100  0.80689700  0.29872800  1
  Cu  Cu20  1  0.20191800  0.79566300  0.49434600  1
  Cu  Cu21  1  0.19130000  0.80220100  0.89896600  1
  Cu  Cu22  1  0.70539900  0.71183700  0.20377900  1
  Cu  Cu23  1  0.70100600  0.70187500  0.59768700  1
  Cu  Cu24  1  0.70419400  0.70705200  0.80282400  1
  Cu  Cu25  1  0.80168000  0.19656600  0.10277900  1
  Cu  Cu26  1  0.80308000  0.19385300  0.49641500  1
  Cu  Cu27  1  0.81162700  0.18782700  0.29747900  1
  Cu  Cu28  1  0.80841200  0.18333400  0.89919000  1
  Cu  Cu29  1  0.79277500  0.21552500  0.70725700  1
