# generated using pymatgen
data_Cu6Ni2C55
_symmetry_space_group_name_H-M   'P 1'
_cell_length_a   10.82576978
_cell_length_b   10.82576978
_cell_length_c   24.98767745
_cell_angle_alpha   90.00000000
_cell_angle_beta   90.00000000
_cell_angle_gamma   90.00000000
_symmetry_Int_Tables_number   1
_chemical_formula_structural   Cu6Ni2C55
_chemical_formula_sum   'Cu24 Ni8 C220'
_cell_volume   2928.48811376
_cell_formula_units_Z   4
loop_
 _symmetry_equiv_pos_site_id
 _symmetry_equiv_pos_as_xyz
  1  'x, y, z'
loop_
 _atom_site_type_symbol
 _atom_site_label
 _atom_site_symmetry_multiplicity
 _atom_site_fract_x
 _atom_site_fract_y
 _atom_site_fract_z
 _atom_site_occupancy
  C  C0  1  0.52384612  0.47615388  0.75000000  1
  C  C1  1  0.47615388  0.52384612  0.25000000  1
  C  C2  1  0.97615388  0.97615388  0.50000000  1
  C  C3  1  0.02384612  0.02384612  -0.00000000  1
  C  C4  1  0.28288326  0.21573878  0.76274683  1
  C  C5  1  0.71711674  0.78426122  0.26274683  1
  C  C6  1  0.71573878  0.21711674  0.51274683  1
  C  C7  1  0.28426122  0.78288326  0.01274683  1
  C  C8  1  0.78426122  0.71711674  0.73725317  1
  C  C9  1  0.21573878  0.28288326  0.23725317  1
  C  C10  1  0.21711674  0.71573878  0.48725317  1
  C  C11  1  0.78288326  0.28426122  0.98725317  1
  C  C12  1  0.23907425  0.35967915  0.67517473  1
  C  C13  1  0.76092575  0.64032085  0.17517473  1
  C  C14  1  0.85967915  0.26092575  0.42517473  1
  C  C15  1  0.14032085  0.73907425  0.92517473  1
  C  C16  1  0.64032085  0.76092575  0.82482527  1
  C  C17  1  0.35967915  0.23907425  0.32482527  1
  C  C18  1  0.26092575  0.85967915  0.57482527  1
  C  C19  1  0.73907425  0.14032085  0.07482527  1
  C  C20  1  0.09110691  0.28751890  0.66764125  1
  C  C21  1  0.90889309  0.71248110  0.16764125  1
  C  C22  1  0.78751890  0.40889309  0.41764125  1
  C  C23  1  0.21248110  0.59110691  0.91764125  1
  C  C24  1  0.71248110  0.90889309  0.83235875  1
  C  C25  1  0.28751890  0.09110691  0.33235875  1
  C  C26  1  0.40889309  0.78751890  0.58235875  1
  C  C27  1  0.59110691  0.21248110  0.08235875  1
  C  C28  1  0.21552059  0.24482656  0.62477903  1
  C  C29  1  0.78447941  0.75517344  0.12477903  1
  C  C30  1  0.74482656  0.28447941  0.37477903  1
  C  C31  1  0.25517344  0.71552059  0.87477903  1
  C  C32  1  0.75517344  0.78447941  0.87522097  1
  C  C33  1  0.24482656  0.21552059  0.37522097  1
  C  C34  1  0.28447941  0.74482656  0.62522097  1
  C  C35  1  0.71552059  0.25517344  0.12522097  1
  C  C36  1  0.22281859  0.98331914  0.71673313  1
  C  C37  1  0.77718141  0.01668086  0.21673313  1
  C  C38  1  0.48331914  0.27718141  0.46673313  1
  C  C39  1  0.51668086  0.72281859  0.96673313  1
  C  C40  1  0.01668086  0.77718141  0.78326687  1
  C  C41  1  0.98331914  0.22281859  0.28326687  1
  C  C42  1  0.27718141  0.48331914  0.53326687  1
  C  C43  1  0.72281859  0.51668086  0.03326687  1
  C  C44  1  0.23695653  0.02924607  0.64829862  1
  C  C45  1  0.76304347  0.97075393  0.14829862  1
  C  C46  1  0.52924607  0.26304347  0.39829862  1
  C  C47  1  0.47075393  0.73695653  0.89829862  1
  C  C48  1  0.97075393  0.76304347  0.85170138  1
  C  C49  1  0.02924607  0.23695653  0.35170138  1
  C  C50  1  0.26304347  0.52924607  0.60170138  1
  C  C51  1  0.73695653  0.47075393  0.10170138  1
  C  C52  1  0.09305579  0.04543299  0.68140298  1
  C  C53  1  0.90694421  0.95456701  0.18140298  1
  C  C54  1  0.54543299  0.40694421  0.43140298  1
  C  C55  1  0.45456701  0.59305579  0.93140298  1
  C  C56  1  0.95456701  0.90694421  0.81859702  1
  C  C57  1  0.04543299  0.09305579  0.31859702  1
  C  C58  1  0.40694421  0.54543299  0.56859702  1
  C  C59  1  0.59305579  0.45456701  0.06859702  1
  C  C60  1  0.28294051  0.38551519  0.84411394  1
  C  C61  1  0.71705949  0.61448481  0.34411394  1
  C  C62  1  0.88551519  0.21705949  0.59411394  1
  C  C63  1  0.11448481  0.78294051  0.09411394  1
  C  C64  1  0.61448481  0.71705949  0.65588606  1
  C  C65  1  0.38551519  0.28294051  0.15588606  1
  C  C66  1  0.21705949  0.88551519  0.40588606  1
  C  C67  1  0.78294051  0.11448481  0.90588606  1
  C  C68  1  0.17800909  0.29900407  0.88494226  1
  C  C69  1  0.82199091  0.70099593  0.38494226  1
  C  C70  1  0.79900407  0.32199091  0.63494226  1
  C  C71  1  0.20099593  0.67800909  0.13494226  1
  C  C72  1  0.70099593  0.82199091  0.61505774  1
  C  C73  1  0.29900407  0.17800909  0.11505774  1
  C  C74  1  0.32199091  0.79900407  0.36505774  1
  C  C75  1  0.67800909  0.20099593  0.86505774  1
  C  C76  1  0.12283771  0.42284669  0.84365376  1
  C  C77  1  0.87716229  0.57715331  0.34365376  1
  C  C78  1  0.92284669  0.37716229  0.59365376  1
  C  C79  1  0.07715331  0.62283771  0.09365376  1
  C  C80  1  0.57715331  0.87716229  0.65634624  1
  C  C81  1  0.42284669  0.12283771  0.15634624  1
  C  C82  1  0.37716229  0.92284669  0.40634624  1
  C  C83  1  0.62283771  0.07715331  0.90634624  1
  C  C84  1  0.03668826  0.14190917  0.76694280  1
  C  C85  1  0.96331174  0.85809083  0.26694280  1
  C  C86  1  0.64190917  0.46331174  0.51694280  1
  C  C87  1  0.35809083  0.53668826  0.01694280  1
  C  C88  1  0.85809083  0.96331174  0.73305720  1
  C  C89  1  0.14190917  0.03668826  0.23305720  1
  C  C90  1  0.46331174  0.64190917  0.48305720  1
  C  C91  1  0.53668826  0.35809083  0.98305720  1
  C  C92  1  0.97572040  0.27961768  0.79510249  1
  C  C93  1  0.02427960  0.72038232  0.29510249  1
  C  C94  1  0.77961768  0.52427960  0.54510249  1
  C  C95  1  0.22038232  0.47572040  0.04510249  1
  C  C96  1  0.72038232  0.02427960  0.70489751  1
  C  C97  1  0.27961768  0.97572040  0.20489751  1
  C  C98  1  0.52427960  0.77961768  0.45489751  1
  C  C99  1  0.47572040  0.22038232  0.95489751  1
  C  C100  1  0.02640374  0.15743539  0.83793788  1
  C  C101  1  0.97359626  0.84256461  0.33793788  1
  C  C102  1  0.65743539  0.47359626  0.58793788  1
  C  C103  1  0.34256461  0.52640374  0.08793788  1
  C  C104  1  0.84256461  0.97359626  0.66206212  1
  C  C105  1  0.15743539  0.02640374  0.16206212  1
  C  C106  1  0.47359626  0.65743539  0.41206212  1
  C  C107  1  0.52640374  0.34256461  0.91206212  1
  C  C108  1  0.47281353  0.08080113  0.72448103  1
  C  C109  1  0.52718647  0.91919887  0.22448103  1
  C  C110  1  0.58080113  0.02718647  0.47448103  1
  C  C111  1  0.41919887  0.97281353  0.97448103  1
  C  C112  1  0.91919887  0.52718647  0.77551897  1
  C  C113  1  0.08080113  0.47281353  0.27551897  1
  C  C114  1  0.02718647  0.58080113  0.52551897  1
  C  C115  1  0.97281353  0.41919887  0.02551897  1
  C  C116  1  0.44912616  0.93864984  0.75961124  1
  C  C117  1  0.55087384  0.06135016  0.25961124  1
  C  C118  1  0.43864984  0.05087384  0.50961124  1
  C  C119  1  0.56135016  0.94912616  0.00961124  1
  C  C120  1  0.06135016  0.55087384  0.74038876  1
  C  C121  1  0.93864984  0.44912616  0.24038876  1
  C  C122  1  0.05087384  0.43864984  0.49038876  1
  C  C123  1  0.94912616  0.56135016  0.99038876  1
  C  C124  1  0.53762198  0.06169799  0.78918855  1
  C  C125  1  0.46237802  0.93830201  0.28918855  1
  C  C126  1  0.56169799  0.96237802  0.53918855  1
  C  C127  1  0.43830201  0.03762198  0.03918855  1
  C  C128  1  0.93830201  0.46237802  0.71081145  1
  C  C129  1  0.06169799  0.53762198  0.21081145  1
  C  C130  1  0.96237802  0.56169799  0.46081145  1
  C  C131  1  0.03762198  0.43830201  0.96081145  1
  C  C132  1  0.22093198  0.06672491  0.85328507  1
  C  C133  1  0.77906802  0.93327509  0.35328507  1
  C  C134  1  0.56672491  0.27906802  0.60328507  1
  C  C135  1  0.43327509  0.72093198  0.10328507  1
  C  C136  1  0.93327509  0.77906802  0.64671493  1
  C  C137  1  0.06672491  0.22093198  0.14671493  1
  C  C138  1  0.27906802  0.56672491  0.39671493  1
  C  C139  1  0.72093198  0.43327509  0.89671493  1
  C  C140  1  0.38022510  0.05001365  0.86944209  1
  C  C141  1  0.61977490  0.94998635  0.36944209  1
  C  C142  1  0.55001365  0.11977490  0.61944209  1
  C  C143  1  0.44998635  0.88022510  0.11944209  1
  C  C144  1  0.94998635  0.61977490  0.63055791  1
  C  C145  1  0.05001365  0.38022510  0.13055791  1
  C  C146  1  0.11977490  0.55001365  0.38055791  1
  C  C147  1  0.88022510  0.44998635  0.88055791  1
  C  C148  1  0.30189928  0.93179762  0.83278957  1
  C  C149  1  0.69810072  0.06820238  0.33278957  1
  C  C150  1  0.43179762  0.19810072  0.58278957  1
  C  C151  1  0.56820238  0.80189928  0.08278957  1
  C  C152  1  0.06820238  0.69810072  0.66721043  1
  C  C153  1  0.93179762  0.30189928  0.16721043  1
  C  C154  1  0.19810072  0.43179762  0.41721043  1
  C  C155  1  0.80189928  0.56820238  0.91721043  1
  C  C156  1  0.19197681  0.27275912  0.66587111  1
  C  C157  1  0.80802319  0.72724088  0.16587111  1
  C  C158  1  0.77275912  0.30802319  0.41587111  1
  C  C159  1  0.22724088  0.69197681  0.91587111  1
  C  C160  1  0.72724088  0.80802319  0.83412889  1
  C  C161  1  0.27275912  0.19197681  0.33412889  1
  C  C162  1  0.30802319  0.77275912  0.58412889  1
  C  C163  1  0.69197681  0.22724088  0.08412889  1
  C  C164  1  0.19401028  0.05180887  0.68701896  1
  C  C165  1  0.80598972  0.94819113  0.18701896  1
  C  C166  1  0.55180887  0.30598972  0.43701896  1
  C  C167  1  0.44819113  0.69401028  0.93701896  1
  C  C168  1  0.94819113  0.80598972  0.81298104  1
  C  C169  1  0.05180887  0.19401028  0.31298104  1
  C  C170  1  0.30598972  0.55180887  0.56298104  1
  C  C171  1  0.69401028  0.44819113  0.06298104  1
  C  C172  1  0.18984108  0.34632856  0.84618797  1
  C  C173  1  0.81015892  0.65367144  0.34618797  1
  C  C174  1  0.84632856  0.31015892  0.59618797  1
  C  C175  1  0.15367144  0.68984108  0.09618797  1
  C  C176  1  0.65367144  0.81015892  0.65381203  1
  C  C177  1  0.34632856  0.18984108  0.15381203  1
  C  C178  1  0.31015892  0.84632856  0.40381203  1
  C  C179  1  0.68984108  0.15367144  0.90381203  1
  C  C180  1  0.04599062  0.20703180  0.80029415  1
  C  C181  1  0.95400938  0.79296820  0.30029415  1
  C  C182  1  0.70703180  0.45400938  0.55029415  1
  C  C183  1  0.29296820  0.54599062  0.05029415  1
  C  C184  1  0.79296820  0.95400938  0.69970585  1
  C  C185  1  0.20703180  0.04599062  0.19970585  1
  C  C186  1  0.45400938  0.70703180  0.44970585  1
  C  C187  1  0.54599062  0.29296820  0.94970585  1
  C  C188  1  0.45709095  0.03967831  0.76392608  1
  C  C189  1  0.54290905  0.96032169  0.26392608  1
  C  C190  1  0.53967831  0.04290905  0.51392608  1
  C  C191  1  0.46032169  0.95709095  0.01392608  1
  C  C192  1  0.96032169  0.54290905  0.73607392  1
  C  C193  1  0.03967831  0.45709095  0.23607392  1
  C  C194  1  0.04290905  0.53967831  0.48607392  1
  C  C195  1  0.95709095  0.46032169  0.98607392  1
  C  C196  1  0.30964276  0.03248461  0.83846443  1
  C  C197  1  0.69035724  0.96751539  0.33846443  1
  C  C198  1  0.53248461  0.19035724  0.58846443  1
  C  C199  1  0.46751539  0.80964276  0.08846443  1
  C  C200  1  0.96751539  0.69035724  0.66153557  1
  C  C201  1  0.03248461  0.30964276  0.16153557  1
  C  C202  1  0.19035724  0.53248461  0.41153557  1
  C  C203  1  0.80964276  0.46751539  0.91153557  1
  Ni  Ni204  1  0.70939484  0.29060516  0.75000000  1
  Ni  Ni205  1  0.29060516  0.70939484  0.25000000  1
  Ni  Ni206  1  0.79060516  0.79060516  0.50000000  1
  Ni  Ni207  1  0.20939484  0.20939484  -0.00000000  1
  Ni  Ni208  1  0.33695117  0.66304883  0.75000000  1
  Ni  Ni209  1  0.66304883  0.33695117  0.25000000  1
  Ni  Ni210  1  0.16304883  0.16304883  0.50000000  1
  Ni  Ni211  1  0.83695117  0.83695117  -0.00000000  1
  Cu  Cu212  1  0.23095623  0.17610212  0.70314052  1
  Cu  Cu213  1  0.76904377  0.82389788  0.20314052  1
  Cu  Cu214  1  0.67610212  0.26904377  0.45314052  1
  Cu  Cu215  1  0.32389788  0.73095623  0.95314052  1
  Cu  Cu216  1  0.82389788  0.76904377  0.79685948  1
  Cu  Cu217  1  0.17610212  0.23095623  0.29685948  1
  Cu  Cu218  1  0.26904377  0.67610212  0.54685948  1
  Cu  Cu219  1  0.73095623  0.32389788  0.04685948  1
  Cu  Cu220  1  0.16906436  0.26203775  0.80144508  1
  Cu  Cu221  1  0.83093564  0.73796225  0.30144508  1
  Cu  Cu222  1  0.76203775  0.33093564  0.55144508  1
  Cu  Cu223  1  0.23796225  0.66906436  0.05144508  1
  Cu  Cu224  1  0.73796225  0.83093564  0.69855492  1
  Cu  Cu225  1  0.26203775  0.16906436  0.19855492  1
  Cu  Cu226  1  0.33093564  0.76203775  0.44855492  1
  Cu  Cu227  1  0.66906436  0.23796225  0.94855492  1
  Cu  Cu228  1  0.34411820  0.08899744  0.78771865  1
  Cu  Cu229  1  0.65588180  0.91100256  0.28771865  1
  Cu  Cu230  1  0.58899744  0.15588180  0.53771865  1
  Cu  Cu231  1  0.41100256  0.84411820  0.03771865  1
  Cu  Cu232  1  0.91100256  0.65588180  0.71228135  1
  Cu  Cu233  1  0.08899744  0.34411820  0.21228135  1
  Cu  Cu234  1  0.15588180  0.58899744  0.46228135  1
  Cu  Cu235  1  0.84411820  0.41100256  0.96228135  1
  C  C236  1  0.37511059  0.32164154  0.75718203  1
  C  C237  1  0.62488941  0.67835846  0.25718203  1
  C  C238  1  0.82164154  0.12488941  0.50718203  1
  C  C239  1  0.17835846  0.87511059  0.00718203  1
  C  C240  1  0.67835846  0.62488941  0.74281797  1
  C  C241  1  0.32164154  0.37511059  0.24281797  1
  C  C242  1  0.12488941  0.82164154  0.49281797  1
  C  C243  1  0.87511059  0.17835846  0.99281797  1
  C  C244  1  0.51525000  0.46870965  0.67767271  1
  C  C245  1  0.48475000  0.53129035  0.17767271  1
  C  C246  1  0.96870965  0.98475000  0.42767271  1
  C  C247  1  0.03129035  0.01525000  0.92767271  1
  C  C248  1  0.53129035  0.48475000  0.82232729  1
  C  C249  1  0.46870965  0.51525000  0.32232729  1
  C  C250  1  0.98475000  0.96870965  0.57232729  1
  C  C251  1  0.01525000  0.03129035  0.07232729  1
