# generated using pymatgen
data_CuNiC
_symmetry_space_group_name_H-M   'P 1'
_cell_length_a   4.21684800
_cell_length_b   4.21684800
_cell_length_c   8.11798675
_cell_angle_alpha   105.05359829
_cell_angle_beta   105.05359829
_cell_angle_gamma   90.00000000
_symmetry_Int_Tables_number   1
_chemical_formula_structural   CuNiC
_chemical_formula_sum   'Cu2 Ni2 C2'
_cell_volume   134.26242326
_cell_formula_units_Z   2
loop_
 _symmetry_equiv_pos_site_id
 _symmetry_equiv_pos_as_xyz
  1  'x, y, z'
loop_
 _atom_site_type_symbol
 _atom_site_label
 _atom_site_symmetry_multiplicity
 _atom_site_fract_x
 _atom_site_fract_y
 _atom_site_fract_z
 _atom_site_occupancy
  C  C0  1  0.25032700  0.75032700  0.50065400  1
  C  C1  1  0.00032700  0.00032700  0.00065400  1
  Ni  Ni2  1  0.83025600  0.33025600  0.66051200  1
  Ni  Ni3  1  0.58025600  0.58025600  0.16051200  1
  Cu  Cu4  1  0.66521600  0.16521600  0.33043200  1
  Cu  Cu5  1  0.41521600  0.41521600  0.83043200  1
