# generated using pymatgen
data_Cu20Ni4C11
_symmetry_space_group_name_H-M   'P 1'
_cell_length_a   12.57811560
_cell_length_b   8.02626373
_cell_length_c   7.04289923
_cell_angle_alpha   88.23948418
_cell_angle_beta   64.33371419
_cell_angle_gamma   55.05455805
_symmetry_Int_Tables_number   1
_chemical_formula_structural   Cu20Ni4C11
_chemical_formula_sum   'Cu20 Ni4 C11'
_cell_volume   502.06319867
_cell_formula_units_Z   1
loop_
 _symmetry_equiv_pos_site_id
 _symmetry_equiv_pos_as_xyz
  1  'x, y, z'
loop_
 _atom_site_type_symbol
 _atom_site_label
 _atom_site_symmetry_multiplicity
 _atom_site_fract_x
 _atom_site_fract_y
 _atom_site_fract_z
 _atom_site_occupancy
  C  C0  1  0.00000000  0.50000000  0.50000000  1
  C  C1  1  0.50000000  0.50000000  0.50000000  1
  C  C2  1  0.10248000  0.28876800  0.90772000  1
  C  C3  1  0.24309500  0.52749300  0.01293700  1
  C  C4  1  0.89752000  0.71123200  0.09228000  1
  C  C5  1  0.75690500  0.47250700  0.98706300  1
  C  C6  1  0.31289000  0.19037700  0.55083500  1
  C  C7  1  0.25389400  0.75928600  0.36340100  1
  C  C8  1  0.50000000  0.50000000  0.00000000  1
  C  C9  1  0.74610600  0.24071400  0.63659900  1
  C  C10  1  0.68711000  0.80962300  0.44916500  1
  Ni  Ni11  1  0.57431100  0.94346000  0.07002800  1
  Ni  Ni12  1  0.01563800  0.96598900  0.83526800  1
  Ni  Ni13  1  0.98436200  0.03401100  0.16473200  1
  Ni  Ni14  1  0.42568900  0.05654000  0.92997200  1
  Cu  Cu15  1  0.06759100  0.11481100  0.13442300  1
  Cu  Cu16  1  0.05120300  0.82467900  0.21061000  1
  Cu  Cu17  1  0.27909500  0.14354400  0.11855600  1
  Cu  Cu18  1  0.23675100  0.16922100  0.61366200  1
  Cu  Cu19  1  0.11355700  0.50457200  0.97065300  1
  Cu  Cu20  1  0.37197800  0.56137400  0.07568600  1
  Cu  Cu21  1  0.29607600  0.77028100  0.21298700  1
  Cu  Cu22  1  0.50095500  0.12620300  0.24562900  1
  Cu  Cu23  1  0.17797600  0.81527000  0.68302900  1
  Cu  Cu24  1  0.42563800  0.23173600  0.84056700  1
  Cu  Cu25  1  0.57436200  0.76826400  0.15943300  1
  Cu  Cu26  1  0.82202400  0.18473000  0.31697100  1
  Cu  Cu27  1  0.49904500  0.87379700  0.75437100  1
  Cu  Cu28  1  0.70392400  0.22971900  0.78701300  1
  Cu  Cu29  1  0.62802200  0.43862600  0.92431400  1
  Cu  Cu30  1  0.88644300  0.49542800  0.02934700  1
  Cu  Cu31  1  0.76324900  0.83077900  0.38633800  1
  Cu  Cu32  1  0.72090500  0.85645600  0.88144400  1
  Cu  Cu33  1  0.94879700  0.17532100  0.78939000  1
  Cu  Cu34  1  0.93240900  0.88518900  0.86557700  1
