# generated using pymatgen
data_CuNiC9
_symmetry_space_group_name_H-M   'P 1'
_cell_length_a   7.39069028
_cell_length_b   7.39069028
_cell_length_c   7.39069028
_cell_angle_alpha   119.81259006
_cell_angle_beta   119.67050183
_cell_angle_gamma   90.44828524
_symmetry_Int_Tables_number   1
_chemical_formula_structural   CuNiC9
_chemical_formula_sum   'Cu2 Ni2 C18'
_cell_volume   286.56165009
_cell_formula_units_Z   2
loop_
 _symmetry_equiv_pos_site_id
 _symmetry_equiv_pos_as_xyz
  1  'x, y, z'
loop_
 _atom_site_type_symbol
 _atom_site_label
 _atom_site_symmetry_multiplicity
 _atom_site_fract_x
 _atom_site_fract_y
 _atom_site_fract_z
 _atom_site_occupancy
  Ni  Ni0  1  0.50000000  0.00000000  0.00000000  1
  Ni  Ni1  1  0.50000000  0.50000000  0.50000000  1
  Cu  Cu2  1  0.00000000  0.00000000  0.00000000  1
  Cu  Cu3  1  0.50000000  0.00000000  0.50000000  1
  C  C4  1  0.00000000  0.50000000  0.50000000  1
  C  C5  1  0.50000000  0.50000000  0.00000000  1
  C  C6  1  0.00000000  0.00000000  0.50000000  1
  C  C7  1  0.00000000  0.50000000  0.00000000  1
  C  C8  1  0.36816300  0.11816300  0.25000000  1
  C  C9  1  0.63183700  0.88183700  0.75000000  1
  C  C10  1  0.67645300  0.82524100  0.25518000  1
  C  C11  1  0.07006100  0.82524100  0.64878800  1
  C  C12  1  0.67657400  0.42657400  0.25000000  1
  C  C13  1  0.07006100  0.42127300  0.24482000  1
  C  C14  1  0.67645300  0.42127300  0.85121200  1
  C  C15  1  0.07786800  0.82786800  0.25000000  1
  C  C16  1  0.32354700  0.17475900  0.74482000  1
  C  C17  1  0.92993900  0.17475900  0.35121200  1
  C  C18  1  0.32342600  0.57342600  0.75000000  1
  C  C19  1  0.92993900  0.57872700  0.75518000  1
  C  C20  1  0.32354700  0.57872700  0.14878800  1
  C  C21  1  0.92213200  0.17213200  0.75000000  1
