# generated using pymatgen
data_CuNi14C17
_symmetry_space_group_name_H-M   'P 1'
_cell_length_a   4.31675500
_cell_length_b   8.60421000
_cell_length_c   8.62557900
_cell_angle_alpha   90.00000000
_cell_angle_beta   90.00000000
_cell_angle_gamma   90.00000000
_symmetry_Int_Tables_number   1
_chemical_formula_structural   CuNi14C17
_chemical_formula_sum   'Cu1 Ni14 C17'
_cell_volume   320.37355427
_cell_formula_units_Z   1
loop_
 _symmetry_equiv_pos_site_id
 _symmetry_equiv_pos_as_xyz
  1  'x, y, z'
loop_
 _atom_site_type_symbol
 _atom_site_label
 _atom_site_symmetry_multiplicity
 _atom_site_fract_x
 _atom_site_fract_y
 _atom_site_fract_z
 _atom_site_occupancy
  Ni  Ni0  1  0.00000000  0.00000000  0.50000000  1
  Ni  Ni1  1  0.00000000  0.50000000  0.50000000  1
  Ni  Ni2  1  0.50000000  0.75608000  0.00000000  1
  Ni  Ni3  1  0.50000000  0.24392000  0.00000000  1
  Ni  Ni4  1  0.50000000  0.75099900  0.50000000  1
  Ni  Ni5  1  0.50000000  0.24900100  0.50000000  1
  Ni  Ni6  1  0.50000000  0.00000000  0.74922900  1
  Ni  Ni7  1  0.50000000  0.50000000  0.74442900  1
  Ni  Ni8  1  0.50000000  0.00000000  0.25077100  1
  Ni  Ni9  1  0.50000000  0.50000000  0.25557100  1
  Ni  Ni10  1  0.00000000  0.75313200  0.74685800  1
  Ni  Ni11  1  0.00000000  0.24686800  0.74685800  1
  Ni  Ni12  1  0.00000000  0.75313200  0.25314200  1
  Ni  Ni13  1  0.00000000  0.24686800  0.25314200  1
  C  C14  1  0.00000000  0.00000000  0.00000000  1
  Cu  Cu15  1  0.00000000  0.50000000  0.00000000  1
  C  C16  1  0.00000000  0.00000000  0.74187900  1
  C  C17  1  0.00000000  0.50000000  0.73471400  1
  C  C18  1  0.00000000  0.00000000  0.25812100  1
  C  C19  1  0.00000000  0.50000000  0.26528600  1
  C  C20  1  0.50000000  0.74964100  0.75122500  1
  C  C21  1  0.50000000  0.25035900  0.75122500  1
  C  C22  1  0.50000000  0.74964100  0.24877500  1
  C  C23  1  0.50000000  0.25035900  0.24877500  1
  C  C24  1  0.50000000  0.00000000  0.00000000  1
  C  C25  1  0.50000000  0.50000000  0.00000000  1
  C  C26  1  0.50000000  0.00000000  0.50000000  1
  C  C27  1  0.50000000  0.50000000  0.50000000  1
  C  C28  1  0.00000000  0.76412300  0.00000000  1
  C  C29  1  0.00000000  0.23587700  0.00000000  1
  C  C30  1  0.00000000  0.75178200  0.50000000  1
  C  C31  1  0.00000000  0.24821800  0.50000000  1
