# generated using pymatgen
data_Cu23Ni6C7
_symmetry_space_group_name_H-M   'P 1'
_cell_length_a   9.68407255
_cell_length_b   9.68407255
_cell_length_c   9.95159400
_cell_angle_alpha   90.00000000
_cell_angle_beta   90.00000000
_cell_angle_gamma   120.00000376
_symmetry_Int_Tables_number   1
_chemical_formula_structural   Cu23Ni6C7
_chemical_formula_sum   'Cu23 Ni6 C7'
_cell_volume   808.23812716
_cell_formula_units_Z   1
loop_
 _symmetry_equiv_pos_site_id
 _symmetry_equiv_pos_as_xyz
  1  'x, y, z'
loop_
 _atom_site_type_symbol
 _atom_site_label
 _atom_site_symmetry_multiplicity
 _atom_site_fract_x
 _atom_site_fract_y
 _atom_site_fract_z
 _atom_site_occupancy
  C  C0  1  0.47909400  0.52090600  0.30586300  1
  C  C1  1  0.52090600  0.47909400  0.69413700  1
  C  C2  1  0.47909400  0.95818900  0.30586300  1
  C  C3  1  0.52090600  0.04181100  0.69413700  1
  C  C4  1  0.04181100  0.52090600  0.30586300  1
  C  C5  1  0.95818900  0.47909400  0.69413700  1
  C  C6  1  0.00000000  0.00000000  0.00000000  1
  Ni  Ni7  1  0.83235800  0.16764200  0.19772900  1
  Ni  Ni8  1  0.16764200  0.83235800  0.80227100  1
  Ni  Ni9  1  0.83235800  0.66471700  0.19772900  1
  Ni  Ni10  1  0.16764200  0.33528300  0.80227100  1
  Ni  Ni11  1  0.33528300  0.16764200  0.19772900  1
  Ni  Ni12  1  0.66471700  0.83235800  0.80227100  1
  Cu  Cu13  1  0.11830400  0.88169600  0.27488800  1
  Cu  Cu14  1  0.88169600  0.11830400  0.72511200  1
  Cu  Cu15  1  0.11830400  0.23660800  0.27488800  1
  Cu  Cu16  1  0.88169600  0.76339200  0.72511200  1
  Cu  Cu17  1  0.76339200  0.88169600  0.27488800  1
  Cu  Cu18  1  0.23660800  0.11830400  0.72511200  1
  Cu  Cu19  1  0.78084600  0.21915400  0.45263400  1
  Cu  Cu20  1  0.21915400  0.78084600  0.54736600  1
  Cu  Cu21  1  0.78084600  0.56169200  0.45263400  1
  Cu  Cu22  1  0.21915400  0.43830800  0.54736600  1
  Cu  Cu23  1  0.43830800  0.21915400  0.45263400  1
  Cu  Cu24  1  0.56169200  0.78084600  0.54736600  1
  Cu  Cu25  1  0.34585000  0.00000000  0.00000000  1
  Cu  Cu26  1  0.65415000  0.00000000  0.00000000  1
  Cu  Cu27  1  0.00000000  0.34585000  0.00000000  1
  Cu  Cu28  1  0.00000000  0.65415000  0.00000000  1
  Cu  Cu29  1  0.65415000  0.65415000  0.00000000  1
  Cu  Cu30  1  0.34585000  0.34585000  0.00000000  1
  Cu  Cu31  1  0.33333300  0.66666700  0.11836900  1
  Cu  Cu32  1  0.66666700  0.33333300  0.88163100  1
  Cu  Cu33  1  0.33333300  0.66666700  0.81777400  1
  Cu  Cu34  1  0.66666700  0.33333300  0.18222600  1
  Cu  Cu35  1  0.00000000  0.00000000  0.50000000  1
