# generated using pymatgen
data_Cu8NiC19
_symmetry_space_group_name_H-M   'P 1'
_cell_length_a   5.74035949
_cell_length_b   5.74035949
_cell_length_c   18.50777400
_cell_angle_alpha   90.00000000
_cell_angle_beta   90.00000000
_cell_angle_gamma   119.99999414
_symmetry_Int_Tables_number   1
_chemical_formula_structural   Cu8NiC19
_chemical_formula_sum   'Cu16 Ni2 C38'
_cell_volume   528.15698417
_cell_formula_units_Z   2
loop_
 _symmetry_equiv_pos_site_id
 _symmetry_equiv_pos_as_xyz
  1  'x, y, z'
loop_
 _atom_site_type_symbol
 _atom_site_label
 _atom_site_symmetry_multiplicity
 _atom_site_fract_x
 _atom_site_fract_y
 _atom_site_fract_z
 _atom_site_occupancy
  C  C0  1  0.00000000  0.00000000  0.00008700  1
  C  C1  1  0.00000000  0.00000000  0.50008700  1
  C  C2  1  0.00000000  0.00000000  0.20060000  1
  C  C3  1  0.00000000  0.00000000  0.70060000  1
  C  C4  1  0.66666700  0.33333300  0.26657100  1
  C  C5  1  0.33333300  0.66666700  0.76657100  1
  Ni  Ni6  1  0.66666700  0.33333300  0.00371700  1
  Ni  Ni7  1  0.33333300  0.66666700  0.50371700  1
  Cu  Cu8  1  0.49829500  0.99659000  0.60638200  1
  Cu  Cu9  1  0.99659000  0.49829500  0.10638200  1
  Cu  Cu10  1  0.66588500  0.83294300  0.36077200  1
  Cu  Cu11  1  0.83294300  0.66588500  0.86077200  1
  Cu  Cu12  1  0.83294300  0.16705700  0.86077200  1
  Cu  Cu13  1  0.16705700  0.83294300  0.36077200  1
  Cu  Cu14  1  0.16705700  0.33411500  0.36077200  1
  Cu  Cu15  1  0.33411500  0.16705700  0.86077200  1
  Cu  Cu16  1  0.66666700  0.33333300  0.45024200  1
  Cu  Cu17  1  0.33333300  0.66666700  0.95024200  1
  Cu  Cu18  1  0.49829500  0.50170500  0.60638200  1
  Cu  Cu19  1  0.50170500  0.49829500  0.10638200  1
  Cu  Cu20  1  0.50170500  0.00341000  0.10638200  1
  Cu  Cu21  1  0.00341000  0.50170500  0.60638200  1
  Cu  Cu22  1  0.33333300  0.66666700  0.23279700  1
  Cu  Cu23  1  0.66666700  0.33333300  0.73279700  1
  C  C24  1  0.62849100  0.81424500  0.16541400  1
  C  C25  1  0.37150900  0.18575500  0.66541400  1
  C  C26  1  0.81424500  0.18575500  0.66541400  1
  C  C27  1  0.18575500  0.37150900  0.16541400  1
  C  C28  1  0.81424500  0.62849100  0.66541400  1
  C  C29  1  0.18575500  0.81424500  0.16541400  1
  C  C30  1  0.33333300  0.66666700  0.66145300  1
  C  C31  1  0.66666700  0.33333300  0.16145300  1
  C  C32  1  0.62898500  0.81449300  0.54740800  1
  C  C33  1  0.81449300  0.62898500  0.04740800  1
  C  C34  1  0.81449300  0.18550700  0.04740800  1
  C  C35  1  0.18550700  0.81449300  0.54740800  1
  C  C36  1  0.18550700  0.37101500  0.54740800  1
  C  C37  1  0.37101500  0.18550700  0.04740800  1
  C  C38  1  0.66666700  0.33333300  0.54793800  1
  C  C39  1  0.33333300  0.66666700  0.04793800  1
  C  C40  1  0.83807000  0.67613900  0.41724300  1
  C  C41  1  0.16193000  0.83807000  0.91724300  1
  C  C42  1  0.67613900  0.83807000  0.91724300  1
  C  C43  1  0.32386100  0.16193000  0.41724300  1
  C  C44  1  0.83807000  0.16193000  0.41724300  1
  C  C45  1  0.16193000  0.32386100  0.91724300  1
  C  C46  1  0.00000000  0.00000000  0.80875700  1
  C  C47  1  0.00000000  0.00000000  0.30875700  1
  C  C48  1  0.51951600  0.03903200  0.80017500  1
  C  C49  1  0.48048400  0.51951600  0.30017500  1
  C  C50  1  0.03903200  0.51951600  0.30017500  1
  C  C51  1  0.96096800  0.48048400  0.80017500  1
  C  C52  1  0.51951600  0.48048400  0.80017500  1
  C  C53  1  0.48048400  0.96096800  0.30017500  1
  C  C54  1  0.66666700  0.33333300  0.91655600  1
  C  C55  1  0.33333300  0.66666700  0.41655600  1
