# generated using pymatgen
data_CuNi3C34
_symmetry_space_group_name_H-M   'P 1'
_cell_length_a   6.46181256
_cell_length_b   6.46181256
_cell_length_c   12.89306694
_cell_angle_alpha   82.89839720
_cell_angle_beta   82.89839720
_cell_angle_gamma   82.73402616
_symmetry_Int_Tables_number   1
_chemical_formula_structural   CuNi3C34
_chemical_formula_sum   'Cu1 Ni3 C34'
_cell_volume   526.73159364
_cell_formula_units_Z   1
loop_
 _symmetry_equiv_pos_site_id
 _symmetry_equiv_pos_as_xyz
  1  'x, y, z'
loop_
 _atom_site_type_symbol
 _atom_site_label
 _atom_site_symmetry_multiplicity
 _atom_site_fract_x
 _atom_site_fract_y
 _atom_site_fract_z
 _atom_site_occupancy
  Ni  Ni0  1  0.65956000  0.65956000  0.82941000  1
  Ni  Ni1  1  0.34167900  0.34167900  0.17093800  1
  Ni  Ni2  1  0.34021500  0.34021500  0.67045400  1
  Cu  Cu3  1  0.66085200  0.66085200  0.33032900  1
  C  C4  1  0.28854600  0.71127400  0.00079500  1
  C  C5  1  0.29312500  0.70832100  0.49850000  1
  C  C6  1  0.70888300  0.99888500  0.14695200  1
  C  C7  1  0.71069100  0.00099600  0.64388500  1
  C  C8  1  0.99797200  0.29228200  0.35423600  1
  C  C9  1  0.99912200  0.28921500  0.85545600  1
  C  C10  1  0.29228200  0.99797200  0.35423600  1
  C  C11  1  0.28921500  0.99912200  0.85545600  1
  C  C12  1  0.99888500  0.70888300  0.14695200  1
  C  C13  1  0.00099600  0.71069100  0.64388500  1
  C  C14  1  0.71127400  0.28854600  0.00079500  1
  C  C15  1  0.70832100  0.29312500  0.49850000  1
  C  C16  1  0.90308700  0.90308700  0.45086800  1
  C  C17  1  0.90406000  0.90406000  0.95211900  1
  C  C18  1  0.09541700  0.09541700  0.04887300  1
  C  C19  1  0.09571500  0.09571500  0.54721500  1
  C  C20  1  0.99892400  0.99892400  0.25068300  1
  C  C21  1  0.99995000  0.99995000  0.74972500  1
  C  C22  1  0.99924100  0.50084200  0.49883500  1
  C  C23  1  0.99980800  0.50002000  0.00070500  1
  C  C24  1  0.50002000  0.99980800  0.00070500  1
  C  C25  1  0.50084200  0.99924100  0.49883500  1
  C  C26  1  0.34362800  0.34362800  0.42180900  1
  C  C27  1  0.34103000  0.34103000  0.92276400  1
  C  C28  1  0.34358700  0.84396300  0.17205300  1
  C  C29  1  0.34128500  0.84537600  0.66973600  1
  C  C30  1  0.84396300  0.34358700  0.17205300  1
  C  C31  1  0.84537600  0.34128500  0.66973600  1
  C  C32  1  0.65865500  0.65865500  0.07922500  1
  C  C33  1  0.65806200  0.65806200  0.57543800  1
  C  C34  1  0.65811900  0.15447100  0.32916300  1
  C  C35  1  0.65844700  0.15469500  0.82975900  1
  C  C36  1  0.15447100  0.65811900  0.32916300  1
  C  C37  1  0.15469500  0.65844700  0.82975900  1
