# generated using pymatgen
data_Cu12Ni10C7
_symmetry_space_group_name_H-M   'P 1'
_cell_length_a   6.00492300
_cell_length_b   10.06713748
_cell_length_c   10.29787238
_cell_angle_alpha   91.41505637
_cell_angle_beta   90.00000000
_cell_angle_gamma   90.00000000
_symmetry_Int_Tables_number   1
_chemical_formula_structural   Cu12Ni10C7
_chemical_formula_sum   'Cu24 Ni20 C14'
_cell_volume   622.34109932
_cell_formula_units_Z   2
loop_
 _symmetry_equiv_pos_site_id
 _symmetry_equiv_pos_as_xyz
  1  'x, y, z'
loop_
 _atom_site_type_symbol
 _atom_site_label
 _atom_site_symmetry_multiplicity
 _atom_site_fract_x
 _atom_site_fract_y
 _atom_site_fract_z
 _atom_site_occupancy
  C  C0  1  0.74751200  0.44783900  0.04961200  1
  C  C1  1  0.25248800  0.55216100  0.95038800  1
  C  C2  1  0.74751200  0.05216100  0.45038800  1
  C  C3  1  0.25248800  0.94783900  0.54961200  1
  Ni  Ni4  1  0.70346500  0.18683300  0.13489200  1
  Ni  Ni5  1  0.29653500  0.81316700  0.86510800  1
  Ni  Ni6  1  0.70346500  0.31316700  0.36510800  1
  Ni  Ni7  1  0.29653500  0.68683300  0.63489200  1
  Ni  Ni8  1  0.60481900  0.19435000  0.99324700  1
  Ni  Ni9  1  0.39518100  0.80565000  0.00675300  1
  Ni  Ni10  1  0.60481900  0.30565000  0.50675300  1
  Ni  Ni11  1  0.39518100  0.69435000  0.49324700  1
  Ni  Ni12  1  0.01242700  0.37114000  0.25394300  1
  Ni  Ni13  1  0.98757300  0.62886000  0.74605700  1
  Ni  Ni14  1  0.01242700  0.12886000  0.24605700  1
  Ni  Ni15  1  0.98757300  0.87114000  0.75394300  1
  Ni  Ni16  1  0.88092000  0.50162700  0.30335800  1
  Ni  Ni17  1  0.11908000  0.49837300  0.69664200  1
  Ni  Ni18  1  0.88092000  0.99837300  0.19664200  1
  Ni  Ni19  1  0.11908000  0.00162700  0.80335800  1
  Ni  Ni20  1  0.32919300  0.25110100  0.17485000  1
  Ni  Ni21  1  0.67080700  0.74889900  0.82515000  1
  Ni  Ni22  1  0.32919300  0.24889900  0.32515000  1
  Ni  Ni23  1  0.67080700  0.75110100  0.67485000  1
  Cu  Cu24  1  0.04847100  0.37595900  0.96510900  1
  Cu  Cu25  1  0.95152900  0.62404100  0.03489100  1
  Cu  Cu26  1  0.04847100  0.12404100  0.53489100  1
  Cu  Cu27  1  0.95152900  0.87595900  0.46510900  1
  Cu  Cu28  1  0.09858300  0.26459600  0.93072600  1
  Cu  Cu29  1  0.90141700  0.73540400  0.06927400  1
  Cu  Cu30  1  0.09858300  0.23540400  0.56927400  1
  Cu  Cu31  1  0.90141700  0.76459600  0.43072600  1
  Cu  Cu32  1  0.15101800  0.15741400  0.89931500  1
  Cu  Cu33  1  0.84898200  0.84258600  0.10068500  1
  Cu  Cu34  1  0.15101800  0.34258600  0.60068500  1
  Cu  Cu35  1  0.84898200  0.65741400  0.39931500  1
  Cu  Cu36  1  0.45493700  0.54124000  0.12110200  1
  Cu  Cu37  1  0.54506300  0.45876000  0.87889800  1
  Cu  Cu38  1  0.45493700  0.95876000  0.37889800  1
  Cu  Cu39  1  0.54506300  0.04124000  0.62110200  1
  Cu  Cu40  1  0.40166700  0.56812100  0.23161800  1
  Cu  Cu41  1  0.59833300  0.43187900  0.76838200  1
  Cu  Cu42  1  0.40166700  0.93187900  0.26838200  1
  Cu  Cu43  1  0.59833300  0.06812100  0.73161800  1
  Cu  Cu44  1  0.34757400  0.59266300  0.33773300  1
  Cu  Cu45  1  0.65242600  0.40733700  0.66226700  1
  Cu  Cu46  1  0.34757400  0.90733700  0.16226700  1
  Cu  Cu47  1  0.65242600  0.09266300  0.83773300  1
  C  C48  1  0.61102500  0.24333200  0.07784700  1
  C  C49  1  0.38897500  0.75666800  0.92215300  1
  C  C50  1  0.61102500  0.25666800  0.42215300  1
  C  C51  1  0.38897500  0.74333200  0.57784700  1
  C  C52  1  0.86335100  0.41488600  0.25641500  1
  C  C53  1  0.13664900  0.58511400  0.74358500  1
  C  C54  1  0.86335100  0.08511400  0.24358500  1
  C  C55  1  0.13664900  0.91488600  0.75641500  1
  C  C56  1  0.22687400  0.25000000  0.25000000  1
  C  C57  1  0.77312600  0.75000000  0.75000000  1
