# generated using pymatgen
data_Cu2NiC12
_symmetry_space_group_name_H-M   'P 1'
_cell_length_a   9.97840794
_cell_length_b   9.03269116
_cell_length_c   6.47860569
_cell_angle_alpha   78.17033789
_cell_angle_beta   62.37458523
_cell_angle_gamma   39.45507687
_symmetry_Int_Tables_number   1
_chemical_formula_structural   Cu2NiC12
_chemical_formula_sum   'Cu4 Ni2 C24'
_cell_volume   316.39276254
_cell_formula_units_Z   2
loop_
 _symmetry_equiv_pos_site_id
 _symmetry_equiv_pos_as_xyz
  1  'x, y, z'
loop_
 _atom_site_type_symbol
 _atom_site_label
 _atom_site_symmetry_multiplicity
 _atom_site_fract_x
 _atom_site_fract_y
 _atom_site_fract_z
 _atom_site_occupancy
  Ni  Ni0  1  0.75000000  0.75000000  0.75000000  1
  Ni  Ni1  1  0.50000000  0.50000000  0.50000000  1
  C  C2  1  0.12500000  0.12500000  0.62500000  1
  C  C3  1  0.12500000  0.62500000  0.12500000  1
  C  C4  1  0.12500000  0.12500000  0.12500000  1
  C  C5  1  0.62500000  0.12500000  0.12500000  1
  Cu  Cu6  1  0.29369600  0.29369600  0.70630400  1
  Cu  Cu7  1  0.95630400  0.95630400  0.54369600  1
  Cu  Cu8  1  0.70630400  0.70630400  0.29369600  1
  Cu  Cu9  1  0.54369600  0.54369600  0.95630400  1
  C  C10  1  0.46099100  0.83800900  0.51288700  1
  C  C11  1  0.92340500  0.92340500  0.07659500  1
  C  C12  1  0.40826600  0.56878700  0.86471600  1
  C  C13  1  0.73711300  0.06188700  0.78900900  1
  C  C14  1  0.83800900  0.46099100  0.18811300  1
  C  C15  1  0.84173400  0.68121300  0.38528400  1
  C  C16  1  0.32659500  0.32659500  0.17340500  1
  C  C17  1  0.07659500  0.07659500  0.92340500  1
  C  C18  1  0.17340500  0.17340500  0.32659500  1
  C  C19  1  0.78900900  0.41199100  0.73711300  1
  C  C20  1  0.18811300  0.51288700  0.83800900  1
  C  C21  1  0.06188700  0.73711300  0.41199100  1
  C  C22  1  0.51288700  0.18811300  0.46099100  1
  C  C23  1  0.56878700  0.40826600  0.15823000  1
  C  C24  1  0.09177000  0.38528400  0.68121300  1
  C  C25  1  0.86471600  0.15823000  0.40826600  1
  C  C26  1  0.38528400  0.09177000  0.84173400  1
  C  C27  1  0.15823000  0.86471600  0.56878700  1
  C  C28  1  0.41199100  0.78900900  0.06188700  1
  C  C29  1  0.68121300  0.84173400  0.09177000  1
