# generated using pymatgen
data_Cu2Ni4C21
_symmetry_space_group_name_H-M   'P 1'
_cell_length_a   11.87382382
_cell_length_b   11.87382382
_cell_length_c   6.99597997
_cell_angle_alpha   89.74641235
_cell_angle_beta   89.74641235
_cell_angle_gamma   120.10517927
_symmetry_Int_Tables_number   1
_chemical_formula_structural   Cu2Ni4C21
_chemical_formula_sum   'Cu4 Ni8 C42'
_cell_volume   853.26131152
_cell_formula_units_Z   2
loop_
 _symmetry_equiv_pos_site_id
 _symmetry_equiv_pos_as_xyz
  1  'x, y, z'
loop_
 _atom_site_type_symbol
 _atom_site_label
 _atom_site_symmetry_multiplicity
 _atom_site_fract_x
 _atom_site_fract_y
 _atom_site_fract_z
 _atom_site_occupancy
  Ni  Ni0  1  0.66760000  0.33464400  0.98335500  1
  Ni  Ni1  1  0.33464400  0.66760000  0.48335500  1
  Ni  Ni2  1  0.34475600  0.17141300  0.66697300  1
  Ni  Ni3  1  0.82549000  0.65300100  0.66287400  1
  Ni  Ni4  1  0.82580300  0.17442500  0.66607900  1
  Ni  Ni5  1  0.65300100  0.82549000  0.16287400  1
  Ni  Ni6  1  0.17141300  0.34475600  0.16697300  1
  Ni  Ni7  1  0.17442500  0.82580300  0.16607900  1
  Cu  Cu8  1  0.99977200  0.00011500  0.48265000  1
  Cu  Cu9  1  0.00011500  0.99977200  0.98265000  1
  Cu  Cu10  1  0.95018800  0.47357000  0.32572700  1
  Cu  Cu11  1  0.47357000  0.95018800  0.82572700  1
  C  C12  1  0.52195200  0.04643200  0.32588100  1
  C  C13  1  0.52277300  0.47566200  0.32920700  1
  C  C14  1  0.04643200  0.52195200  0.82588100  1
  C  C15  1  0.47566200  0.52277300  0.82920700  1
  C  C16  1  0.34720100  0.17192500  0.15915300  1
  C  C17  1  0.82773000  0.64931500  0.15855600  1
  C  C18  1  0.82373100  0.17306700  0.15791600  1
  C  C19  1  0.64931500  0.82773000  0.65855600  1
  C  C20  1  0.17192500  0.34720100  0.65915300  1
  C  C21  1  0.17306700  0.82373100  0.65791600  1
  C  C22  1  0.66787100  0.33338800  0.52685000  1
  C  C23  1  0.33338800  0.66787100  0.02685000  1
  C  C24  1  0.60582000  0.66998400  0.52550400  1
  C  C25  1  0.06845600  0.39510800  0.52939300  1
  C  C26  1  0.32873100  0.93672800  0.51530600  1
  C  C27  1  0.33156300  0.39464600  0.52730200  1
  C  C28  1  0.60724100  0.93354600  0.51821900  1
  C  C29  1  0.06884100  0.67379900  0.52545900  1
  C  C30  1  0.39464600  0.33156300  0.02730200  1
  C  C31  1  0.93354600  0.60724100  0.01821900  1
  C  C32  1  0.67379900  0.06884100  0.02545900  1
  C  C33  1  0.66998400  0.60582000  0.02550400  1
  C  C34  1  0.39510800  0.06845600  0.02939300  1
  C  C35  1  0.93672800  0.32873100  0.01530600  1
  C  C36  1  0.83213400  0.41754100  0.66774000  1
  C  C37  1  0.58619500  0.17377700  0.65381800  1
  C  C38  1  0.58473800  0.41829800  0.66398000  1
  C  C39  1  0.17377700  0.58619500  0.15381800  1
  C  C40  1  0.41754100  0.83213400  0.16774000  1
  C  C41  1  0.41829800  0.58473800  0.16398000  1
  C  C42  1  0.49247500  0.24770800  0.33388300  1
  C  C43  1  0.74661400  0.50183100  0.33285100  1
  C  C44  1  0.75010500  0.24291900  0.33324600  1
  C  C45  1  0.50183100  0.74661400  0.83285100  1
  C  C46  1  0.24770800  0.49247500  0.83388300  1
  C  C47  1  0.24291900  0.75010500  0.83324600  1
  C  C48  1  0.81684000  0.90547400  0.74348700  1
  C  C49  1  0.09429200  0.17977100  0.74223000  1
  C  C50  1  0.09688600  0.91494000  0.74415100  1
  C  C51  1  0.17977100  0.09429200  0.24223000  1
  C  C52  1  0.90547400  0.81684000  0.24348700  1
  C  C53  1  0.91494000  0.09688600  0.24415100  1
