# generated using pymatgen
data_CuNiC10
_symmetry_space_group_name_H-M   'P 1'
_cell_length_a   7.54539800
_cell_length_b   7.54539800
_cell_length_c   5.92887600
_cell_angle_alpha   90.00000000
_cell_angle_beta   90.00000000
_cell_angle_gamma   90.00000000
_symmetry_Int_Tables_number   1
_chemical_formula_structural   CuNiC10
_chemical_formula_sum   'Cu2 Ni2 C20'
_cell_volume   337.54888098
_cell_formula_units_Z   2
loop_
 _symmetry_equiv_pos_site_id
 _symmetry_equiv_pos_as_xyz
  1  'x, y, z'
loop_
 _atom_site_type_symbol
 _atom_site_label
 _atom_site_symmetry_multiplicity
 _atom_site_fract_x
 _atom_site_fract_y
 _atom_site_fract_z
 _atom_site_occupancy
  Ni  Ni0  1  0.00000000  0.50000000  0.75000000  1
  Ni  Ni1  1  0.50000000  0.00000000  0.25000000  1
  Cu  Cu2  1  0.00000000  0.50000000  0.25000000  1
  Cu  Cu3  1  0.50000000  0.00000000  0.75000000  1
  C  C4  1  0.77617400  0.72382600  0.75000000  1
  C  C5  1  0.22382600  0.27617400  0.75000000  1
  C  C6  1  0.72382600  0.22382600  0.25000000  1
  C  C7  1  0.27617400  0.77617400  0.25000000  1
  C  C8  1  0.91148500  0.68488800  0.56816700  1
  C  C9  1  0.08851500  0.31511200  0.56816700  1
  C  C10  1  0.58851500  0.18488800  0.06816700  1
  C  C11  1  0.41148500  0.81511200  0.06816700  1
  C  C12  1  0.68488800  0.08851500  0.43183300  1
  C  C13  1  0.31511200  0.91148500  0.43183300  1
  C  C14  1  0.81511200  0.58851500  0.93183300  1
  C  C15  1  0.18488800  0.41148500  0.93183300  1
  C  C16  1  0.59434700  0.70890900  0.65753400  1
  C  C17  1  0.40565300  0.29109100  0.65753400  1
  C  C18  1  0.90565300  0.20890900  0.15753400  1
  C  C19  1  0.09434700  0.79109100  0.15753400  1
  C  C20  1  0.29109100  0.59434700  0.34246600  1
  C  C21  1  0.70890900  0.40565300  0.34246600  1
  C  C22  1  0.20890900  0.09434700  0.84246600  1
  C  C23  1  0.79109100  0.90565300  0.84246600  1
