# generated using pymatgen
data_Cu3NiC3
_symmetry_space_group_name_H-M   'P 1'
_cell_length_a   5.07117200
_cell_length_b   5.16346500
_cell_length_c   10.06342043
_cell_angle_alpha   80.83273926
_cell_angle_beta   90.00000000
_cell_angle_gamma   90.00000000
_symmetry_Int_Tables_number   1
_chemical_formula_structural   Cu3NiC3
_chemical_formula_sum   'Cu12 Ni4 C12'
_cell_volume   260.14316681
_cell_formula_units_Z   4
loop_
 _symmetry_equiv_pos_site_id
 _symmetry_equiv_pos_as_xyz
  1  'x, y, z'
loop_
 _atom_site_type_symbol
 _atom_site_label
 _atom_site_symmetry_multiplicity
 _atom_site_fract_x
 _atom_site_fract_y
 _atom_site_fract_z
 _atom_site_occupancy
  C  C0  1  0.62118700  0.69055400  0.71797800  1
  C  C1  1  0.12118700  0.30944600  0.78202200  1
  C  C2  1  0.37881300  0.30944600  0.28202200  1
  C  C3  1  0.87881300  0.69055400  0.21797800  1
  C  C4  1  0.67628500  0.00024300  0.84936200  1
  C  C5  1  0.17628500  0.99975700  0.65063800  1
  C  C6  1  0.32371500  0.99975700  0.15063800  1
  C  C7  1  0.82371500  0.00024300  0.34936200  1
  C  C8  1  0.44221800  0.79690100  0.89543300  1
  C  C9  1  0.94221800  0.20309900  0.60456700  1
  C  C10  1  0.55778200  0.20309900  0.10456700  1
  C  C11  1  0.05778200  0.79690100  0.39543300  1
  Ni  Ni12  1  0.47793700  0.59586700  0.55078800  1
  Ni  Ni13  1  0.97793700  0.40413300  0.94921200  1
  Ni  Ni14  1  0.52206300  0.40413300  0.44921200  1
  Ni  Ni15  1  0.02206300  0.59586700  0.05078800  1
  Cu  Cu16  1  0.65270500  0.56497900  0.64718100  1
  Cu  Cu17  1  0.15270500  0.43502100  0.85281900  1
  Cu  Cu18  1  0.34729500  0.43502100  0.35281900  1
  Cu  Cu19  1  0.84729500  0.56497900  0.14718100  1
  Cu  Cu20  1  0.29487900  0.75682000  0.53699800  1
  Cu  Cu21  1  0.79487900  0.24318000  0.96300200  1
  Cu  Cu22  1  0.70512100  0.24318000  0.46300200  1
  Cu  Cu23  1  0.20512100  0.75682000  0.03699800  1
  Cu  Cu24  1  0.58042200  0.84736100  0.82698300  1
  Cu  Cu25  1  0.08042200  0.15263900  0.67301700  1
  Cu  Cu26  1  0.41957800  0.15263900  0.17301700  1
  Cu  Cu27  1  0.91957800  0.84736100  0.32698300  1
