# generated using pymatgen
data_CuNiC3
_symmetry_space_group_name_H-M   'P 1'
_cell_length_a   5.87563440
_cell_length_b   5.87563440
_cell_length_c   7.12123000
_cell_angle_alpha   90.00000000
_cell_angle_beta   90.00000000
_cell_angle_gamma   140.77726350
_symmetry_Int_Tables_number   1
_chemical_formula_structural   CuNiC3
_chemical_formula_sum   'Cu2 Ni2 C6'
_cell_volume   155.45796579
_cell_formula_units_Z   2
loop_
 _symmetry_equiv_pos_site_id
 _symmetry_equiv_pos_as_xyz
  1  'x, y, z'
loop_
 _atom_site_type_symbol
 _atom_site_label
 _atom_site_symmetry_multiplicity
 _atom_site_fract_x
 _atom_site_fract_y
 _atom_site_fract_z
 _atom_site_occupancy
  C  C0  1  0.54570100  0.45429900  0.25000000  1
  C  C1  1  0.45429900  0.54570100  0.75000000  1
  Ni  Ni2  1  0.26939300  0.73060700  0.25000000  1
  Ni  Ni3  1  0.73060700  0.26939300  0.75000000  1
  C  C4  1  0.83258100  0.16741900  0.05331000  1
  C  C5  1  0.16741900  0.83258100  0.94669000  1
  C  C6  1  0.16741900  0.83258100  0.55331000  1
  C  C7  1  0.83258100  0.16741900  0.44669000  1
  Cu  Cu8  1  0.00000000  0.00000000  0.00000000  1
  Cu  Cu9  1  0.00000000  0.00000000  0.50000000  1
