# generated using pymatgen
data_Cu(Ni4C9)2
_symmetry_space_group_name_H-M   'P 1'
_cell_length_a   8.04780600
_cell_length_b   8.04780600
_cell_length_c   8.04780600
_cell_angle_alpha   90.00000000
_cell_angle_beta   90.00000000
_cell_angle_gamma   90.00000000
_symmetry_Int_Tables_number   1
_chemical_formula_structural   Cu(Ni4C9)2
_chemical_formula_sum   'Cu1 Ni8 C18'
_cell_volume   521.23371118
_cell_formula_units_Z   1
loop_
 _symmetry_equiv_pos_site_id
 _symmetry_equiv_pos_as_xyz
  1  'x, y, z'
loop_
 _atom_site_type_symbol
 _atom_site_label
 _atom_site_symmetry_multiplicity
 _atom_site_fract_x
 _atom_site_fract_y
 _atom_site_fract_z
 _atom_site_occupancy
  Ni  Ni0  1  0.73798200  0.73798200  0.26201800  1
  Ni  Ni1  1  0.26201800  0.26201800  0.73798200  1
  Ni  Ni2  1  0.73798200  0.26201800  0.73798200  1
  Ni  Ni3  1  0.26201800  0.73798200  0.26201800  1
  Ni  Ni4  1  0.26201800  0.73798200  0.73798200  1
  Ni  Ni5  1  0.73798200  0.26201800  0.26201800  1
  Ni  Ni6  1  0.73798200  0.73798200  0.73798200  1
  Ni  Ni7  1  0.26201800  0.26201800  0.26201800  1
  Cu  Cu8  1  0.00000000  0.00000000  0.00000000  1
  C  C9  1  0.50000000  0.00000000  0.00000000  1
  C  C10  1  0.00000000  0.50000000  0.50000000  1
  C  C11  1  0.00000000  0.00000000  0.50000000  1
  C  C12  1  0.50000000  0.50000000  0.00000000  1
  C  C13  1  0.00000000  0.50000000  0.00000000  1
  C  C14  1  0.50000000  0.00000000  0.50000000  1
  C  C15  1  0.50000000  0.50000000  0.16756500  1
  C  C16  1  0.00000000  0.00000000  0.66894300  1
  C  C17  1  0.00000000  0.33105700  0.00000000  1
  C  C18  1  0.50000000  0.83243500  0.50000000  1
  C  C19  1  0.33105700  0.00000000  0.00000000  1
  C  C20  1  0.83243500  0.50000000  0.50000000  1
  C  C21  1  0.00000000  0.00000000  0.33105700  1
  C  C22  1  0.50000000  0.50000000  0.83243500  1
  C  C23  1  0.00000000  0.66894300  0.00000000  1
  C  C24  1  0.50000000  0.16756500  0.50000000  1
  C  C25  1  0.66894300  0.00000000  0.00000000  1
  C  C26  1  0.16756500  0.50000000  0.50000000  1
