# generated using pymatgen
data_Cu8NiC26
_symmetry_space_group_name_H-M   'P 1'
_cell_length_a   12.12027400
_cell_length_b   12.12027400
_cell_length_c   12.12027400
_cell_angle_alpha   90.00000000
_cell_angle_beta   90.00000000
_cell_angle_gamma   90.00000000
_symmetry_Int_Tables_number   1
_chemical_formula_structural   Cu8NiC26
_chemical_formula_sum   'Cu32 Ni4 C104'
_cell_volume   1780.48087793
_cell_formula_units_Z   4
loop_
 _symmetry_equiv_pos_site_id
 _symmetry_equiv_pos_as_xyz
  1  'x, y, z'
loop_
 _atom_site_type_symbol
 _atom_site_label
 _atom_site_symmetry_multiplicity
 _atom_site_fract_x
 _atom_site_fract_y
 _atom_site_fract_z
 _atom_site_occupancy
  C  C0  1  0.12500000  0.04405200  0.29405200  1
  C  C1  1  0.62500000  0.45594800  0.70594800  1
  C  C2  1  0.95594800  0.79405200  0.37500000  1
  C  C3  1  0.04405200  0.29405200  0.12500000  1
  C  C4  1  0.70594800  0.62500000  0.45594800  1
  C  C5  1  0.79405200  0.37500000  0.95594800  1
  C  C6  1  0.20594800  0.87500000  0.54405200  1
  C  C7  1  0.54405200  0.20594800  0.87500000  1
  C  C8  1  0.45594800  0.70594800  0.62500000  1
  C  C9  1  0.29405200  0.12500000  0.04405200  1
  C  C10  1  0.37500000  0.95594800  0.79405200  1
  C  C11  1  0.87500000  0.54405200  0.20594800  1
  Ni  Ni12  1  0.12500000  0.62500000  0.87500000  1
  Ni  Ni13  1  0.37500000  0.37500000  0.37500000  1
  Ni  Ni14  1  0.87500000  0.12500000  0.62500000  1
  Ni  Ni15  1  0.62500000  0.87500000  0.12500000  1
  Cu  Cu16  1  0.06894500  0.36156600  0.85440500  1
  Cu  Cu17  1  0.89559500  0.38843400  0.68105500  1
  Cu  Cu18  1  0.36156600  0.85440500  0.06894500  1
  Cu  Cu19  1  0.86156600  0.64559500  0.93105500  1
  Cu  Cu20  1  0.63843400  0.35440500  0.43105500  1
  Cu  Cu21  1  0.64559500  0.93105500  0.86156600  1
  Cu  Cu22  1  0.43105500  0.63843400  0.35440500  1
  Cu  Cu23  1  0.93105500  0.86156600  0.64559500  1
  Cu  Cu24  1  0.85440500  0.06894500  0.36156600  1
  Cu  Cu25  1  0.60440500  0.61156600  0.18105500  1
  Cu  Cu26  1  0.35440500  0.43105500  0.63843400  1
  Cu  Cu27  1  0.14559500  0.56894500  0.13843400  1
  Cu  Cu28  1  0.81894500  0.10440500  0.88843400  1
  Cu  Cu29  1  0.39559500  0.11156600  0.31894500  1
  Cu  Cu30  1  0.10440500  0.88843400  0.81894500  1
  Cu  Cu31  1  0.68105500  0.89559500  0.38843400  1
  Cu  Cu32  1  0.31894500  0.39559500  0.11156600  1
  Cu  Cu33  1  0.88843400  0.81894500  0.10440500  1
  Cu  Cu34  1  0.38843400  0.68105500  0.89559500  1
  Cu  Cu35  1  0.13843400  0.14559500  0.56894500  1
  Cu  Cu36  1  0.18105500  0.60440500  0.61156600  1
  Cu  Cu37  1  0.11156600  0.31894500  0.39559500  1
  Cu  Cu38  1  0.61156600  0.18105500  0.60440500  1
  Cu  Cu39  1  0.01771900  0.01771900  0.01771900  1
  Cu  Cu40  1  0.26771900  0.23228100  0.76771900  1
  Cu  Cu41  1  0.76771900  0.26771900  0.23228100  1
  Cu  Cu42  1  0.23228100  0.76771900  0.26771900  1
  Cu  Cu43  1  0.48228100  0.98228100  0.51771900  1
  Cu  Cu44  1  0.51771900  0.48228100  0.98228100  1
  Cu  Cu45  1  0.98228100  0.51771900  0.48228100  1
  Cu  Cu46  1  0.73228100  0.73228100  0.73228100  1
  Cu  Cu47  1  0.56894500  0.13843400  0.14559500  1
  C  C48  1  0.66165900  0.66165900  0.66165900  1
  C  C49  1  0.91165900  0.58834100  0.41165900  1
  C  C50  1  0.58834100  0.41165900  0.91165900  1
  C  C51  1  0.41165900  0.91165900  0.58834100  1
  C  C52  1  0.16165900  0.83834100  0.33834100  1
  C  C53  1  0.83834100  0.33834100  0.16165900  1
  C  C54  1  0.33834100  0.16165900  0.83834100  1
  C  C55  1  0.08834100  0.08834100  0.08834100  1
  C  C56  1  0.43728300  0.51142500  0.67950000  1
  C  C57  1  0.93728300  0.98857500  0.32050000  1
  C  C58  1  0.51142500  0.67950000  0.43728300  1
  C  C59  1  0.48857500  0.17950000  0.06271700  1
  C  C60  1  0.67950000  0.43728300  0.51142500  1
  C  C61  1  0.82050000  0.56271700  0.01142500  1
  C  C62  1  0.18728300  0.92950000  0.73857500  1
  C  C63  1  0.68728300  0.57050000  0.26142500  1
  C  C64  1  0.81271700  0.42950000  0.76142500  1
  C  C65  1  0.57050000  0.26142500  0.68728300  1
  C  C66  1  0.76142500  0.81271700  0.42950000  1
  C  C67  1  0.26142500  0.68728300  0.57050000  1
  C  C68  1  0.92950000  0.73857500  0.18728300  1
  C  C69  1  0.73857500  0.18728300  0.92950000  1
  C  C70  1  0.42950000  0.76142500  0.81271700  1
  C  C71  1  0.07050000  0.23857500  0.31271700  1
  C  C72  1  0.23857500  0.31271700  0.07050000  1
  C  C73  1  0.32050000  0.93728300  0.98857500  1
  C  C74  1  0.17950000  0.06271700  0.48857500  1
  C  C75  1  0.01142500  0.82050000  0.56271700  1
  C  C76  1  0.98857500  0.32050000  0.93728300  1
  C  C77  1  0.06271700  0.48857500  0.17950000  1
  C  C78  1  0.56271700  0.01142500  0.82050000  1
  C  C79  1  0.31271700  0.07050000  0.23857500  1
  C  C80  1  0.37500000  0.73323800  0.01676200  1
  C  C81  1  0.51676200  0.12500000  0.26676200  1
  C  C82  1  0.73830800  0.32750300  0.34411400  1
  C  C83  1  0.23323800  0.48323800  0.62500000  1
  C  C84  1  0.98323800  0.87500000  0.76676200  1
  C  C85  1  0.01676200  0.37500000  0.73323800  1
  C  C86  1  0.48323800  0.62500000  0.23323800  1
  C  C87  1  0.26676200  0.51676200  0.12500000  1
  C  C88  1  0.73323800  0.01676200  0.37500000  1
  C  C89  1  0.62500000  0.23323800  0.48323800  1
  C  C90  1  0.12500000  0.26676200  0.51676200  1
  C  C91  1  0.87500000  0.76676200  0.98323800  1
  C  C92  1  0.32750300  0.34411400  0.73830800  1
  C  C93  1  0.82750300  0.15588600  0.26169200  1
  C  C94  1  0.34411400  0.73830800  0.32750300  1
  C  C95  1  0.65588600  0.23830800  0.17249700  1
  C  C96  1  0.03736500  0.12127700  0.63654500  1
  C  C97  1  0.28736500  0.61345500  0.87127700  1
  C  C98  1  0.78736500  0.88654500  0.12872300  1
  C  C99  1  0.38654500  0.37127700  0.21263500  1
  C  C100  1  0.61345500  0.87127700  0.28736500  1
  C  C101  1  0.12872300  0.78736500  0.88654500  1
  C  C102  1  0.37127700  0.21263500  0.38654500  1
  C  C103  1  0.63654500  0.03736500  0.12127700  1
  C  C104  1  0.12127700  0.63654500  0.03736500  1
  C  C105  1  0.37872300  0.36345500  0.53736500  1
  C  C106  1  0.13654500  0.46263500  0.87872300  1
  C  C107  1  0.87872300  0.13654500  0.46263500  1
  C  C108  1  0.86345500  0.96263500  0.62127700  1
  C  C109  1  0.36345500  0.53736500  0.37872300  1
  C  C110  1  0.62127700  0.86345500  0.96263500  1
  C  C111  1  0.53736500  0.37872300  0.36345500  1
  C  C112  1  0.96263500  0.62127700  0.86345500  1
  C  C113  1  0.46263500  0.87872300  0.13654500  1
  C  C114  1  0.87127700  0.28736500  0.61345500  1
  C  C115  1  0.62872300  0.71263500  0.11345500  1
  C  C116  1  0.88654500  0.12872300  0.78736500  1
  C  C117  1  0.11345500  0.62872300  0.71263500  1
  C  C118  1  0.21263500  0.38654500  0.37127700  1
  C  C119  1  0.71263500  0.11345500  0.62872300  1
  C  C120  1  0.42249700  0.01169200  0.40588600  1
  C  C121  1  0.67249700  0.84411400  0.76169200  1
  C  C122  1  0.17249700  0.65588600  0.23830800  1
  C  C123  1  0.15588600  0.26169200  0.82750300  1
  C  C124  1  0.84411400  0.76169200  0.67249700  1
  C  C125  1  0.23830800  0.17249700  0.65588600  1
  C  C126  1  0.26169200  0.82750300  0.15588600  1
  C  C127  1  0.40588600  0.42249700  0.01169200  1
  C  C128  1  0.01169200  0.40588600  0.42249700  1
  C  C129  1  0.48830800  0.59411400  0.92249700  1
  C  C130  1  0.90588600  0.07750300  0.98830800  1
  C  C131  1  0.98830800  0.90588600  0.07750300  1
  C  C132  1  0.09411400  0.57750300  0.51169200  1
  C  C133  1  0.59411400  0.92249700  0.48830800  1
  C  C134  1  0.51169200  0.09411400  0.57750300  1
  C  C135  1  0.92249700  0.48830800  0.59411400  1
  C  C136  1  0.57750300  0.51169200  0.09411400  1
  C  C137  1  0.07750300  0.98830800  0.90588600  1
  C  C138  1  0.76169200  0.67249700  0.84411400  1
  C  C139  1  0.76676200  0.98323800  0.87500000  1
