# generated using pymatgen
data_CuNiC5
_symmetry_space_group_name_H-M   'P 1'
_cell_length_a   7.41104753
_cell_length_b   7.40097446
_cell_length_c   7.40168370
_cell_angle_alpha   59.92220580
_cell_angle_beta   59.95725984
_cell_angle_gamma   59.95626446
_symmetry_Int_Tables_number   1
_chemical_formula_structural   CuNiC5
_chemical_formula_sum   'Cu2 Ni2 C10'
_cell_volume   286.71092306
_cell_formula_units_Z   2
loop_
 _symmetry_equiv_pos_site_id
 _symmetry_equiv_pos_as_xyz
  1  'x, y, z'
loop_
 _atom_site_type_symbol
 _atom_site_label
 _atom_site_symmetry_multiplicity
 _atom_site_fract_x
 _atom_site_fract_y
 _atom_site_fract_z
 _atom_site_occupancy
  Ni  Ni0  1  0.87420300  0.87578300  0.87580600  1
  Ni  Ni1  1  0.12581400  0.12420500  0.12417700  1
  C  C2  1  0.50000300  0.50000200  0.49997700  1
  C  C3  1  0.00000000  0.49996500  0.50001400  1
  Cu  Cu4  1  0.49992300  0.49998900  0.00007600  1
  Cu  Cu5  1  0.50006400  0.00004300  0.49999200  1
  C  C6  1  0.72253100  0.74682300  0.74687800  1
  C  C7  1  0.26678500  0.24441600  0.72202100  1
  C  C8  1  0.26678700  0.72200900  0.24439300  1
  C  C9  1  0.71624000  0.25318500  0.25309400  1
  C  C10  1  0.73317300  0.27798600  0.75560500  1
  C  C11  1  0.28376300  0.74684600  0.74685400  1
  C  C12  1  0.27748400  0.25314900  0.25315100  1
  C  C13  1  0.73323500  0.75559400  0.27796100  1
