# generated using pymatgen
data_Cu(Ni3C7)2
_symmetry_space_group_name_H-M   'P 1'
_cell_length_a   13.43347425
_cell_length_b   13.43347425
_cell_length_c   13.43347399
_cell_angle_alpha   31.45023655
_cell_angle_beta   31.45023655
_cell_angle_gamma   31.45023435
_symmetry_Int_Tables_number   1
_chemical_formula_structural   Cu(Ni3C7)2
_chemical_formula_sum   'Cu2 Ni12 C28'
_cell_volume   585.84739700
_cell_formula_units_Z   2
loop_
 _symmetry_equiv_pos_site_id
 _symmetry_equiv_pos_as_xyz
  1  'x, y, z'
loop_
 _atom_site_type_symbol
 _atom_site_label
 _atom_site_symmetry_multiplicity
 _atom_site_fract_x
 _atom_site_fract_y
 _atom_site_fract_z
 _atom_site_occupancy
  C  C0  1  0.14885600  0.14885600  0.14885600  1
  C  C1  1  0.64885600  0.64885600  0.64885600  1
  C  C2  1  0.85114400  0.85114400  0.85114400  1
  C  C3  1  0.35114400  0.35114400  0.35114400  1
  Ni  Ni4  1  0.49858900  0.24591800  0.63382000  1
  Ni  Ni5  1  0.63382000  0.49858900  0.24591800  1
  Ni  Ni6  1  0.24591800  0.63382000  0.49858900  1
  Ni  Ni7  1  0.13382000  0.74591800  0.99858900  1
  Ni  Ni8  1  0.99858900  0.13382000  0.74591800  1
  Ni  Ni9  1  0.74591800  0.99858900  0.13382000  1
  Ni  Ni10  1  0.50141100  0.75408200  0.36618000  1
  Ni  Ni11  1  0.36618000  0.50141100  0.75408200  1
  Ni  Ni12  1  0.75408200  0.36618000  0.50141100  1
  Ni  Ni13  1  0.86618000  0.25408200  0.00141100  1
  Ni  Ni14  1  0.00141100  0.86618000  0.25408200  1
  Ni  Ni15  1  0.25408200  0.00141100  0.86618000  1
  Cu  Cu16  1  0.25000000  0.25000000  0.25000000  1
  Cu  Cu17  1  0.75000000  0.75000000  0.75000000  1
  C  C18  1  0.28887500  0.42087100  0.66507100  1
  C  C19  1  0.66507100  0.28887500  0.42087100  1
  C  C20  1  0.42087100  0.66507100  0.28887500  1
  C  C21  1  0.16507100  0.92087100  0.78887500  1
  C  C22  1  0.78887500  0.16507100  0.92087100  1
  C  C23  1  0.92087100  0.78887500  0.16507100  1
  C  C24  1  0.71112500  0.57912900  0.33492900  1
  C  C25  1  0.33492900  0.71112500  0.57912900  1
  C  C26  1  0.57912900  0.33492900  0.71112500  1
  C  C27  1  0.83492900  0.07912900  0.21112500  1
  C  C28  1  0.21112500  0.83492900  0.07912900  1
  C  C29  1  0.07912900  0.21112500  0.83492900  1
  C  C30  1  0.05329200  0.80252700  0.53126200  1
  C  C31  1  0.53126200  0.05329200  0.80252800  1
  C  C32  1  0.80252800  0.53126200  0.05329200  1
  C  C33  1  0.03126200  0.30252700  0.55329200  1
  C  C34  1  0.55329200  0.03126200  0.30252800  1
  C  C35  1  0.30252800  0.55329200  0.03126200  1
  C  C36  1  0.94670800  0.19747200  0.46873800  1
  C  C37  1  0.46873800  0.94670800  0.19747300  1
  C  C38  1  0.19747200  0.46873800  0.94670800  1
  C  C39  1  0.96873800  0.69747200  0.44670800  1
  C  C40  1  0.44670800  0.96873800  0.69747200  1
  C  C41  1  0.69747200  0.44670800  0.96873800  1
