# generated using pymatgen
data_Cu5NiC2
_symmetry_space_group_name_H-M   'P 1'
_cell_length_a   7.02491779
_cell_length_b   7.02491779
_cell_length_c   7.02491779
_cell_angle_alpha   130.78918778
_cell_angle_beta   120.29512200
_cell_angle_gamma   80.92473054
_symmetry_Int_Tables_number   1
_chemical_formula_structural   Cu5NiC2
_chemical_formula_sum   'Cu10 Ni2 C4'
_cell_volume   218.66311306
_cell_formula_units_Z   2
loop_
 _symmetry_equiv_pos_site_id
 _symmetry_equiv_pos_as_xyz
  1  'x, y, z'
loop_
 _atom_site_type_symbol
 _atom_site_label
 _atom_site_symmetry_multiplicity
 _atom_site_fract_x
 _atom_site_fract_y
 _atom_site_fract_z
 _atom_site_occupancy
  C  C0  1  0.00000000  0.00000000  0.00000000  1
  C  C1  1  0.50000000  0.00000000  0.50000000  1
  C  C2  1  0.50000000  0.00000000  0.00000000  1
  C  C3  1  0.50000000  0.50000000  0.50000000  1
  Ni  Ni4  1  0.74448200  0.49448200  0.25000000  1
  Ni  Ni5  1  0.25551800  0.50551800  0.75000000  1
  Cu  Cu6  1  0.86329900  0.61329900  0.25000000  1
  Cu  Cu7  1  0.13670100  0.38670100  0.75000000  1
  Cu  Cu8  1  0.68774200  0.24159300  0.05385100  1
  Cu  Cu9  1  0.31225800  0.75840700  0.94614900  1
  Cu  Cu10  1  0.31225800  0.36610900  0.55385100  1
  Cu  Cu11  1  0.68774200  0.63389100  0.44614900  1
  Cu  Cu12  1  0.31444000  0.22149200  0.09294800  1
  Cu  Cu13  1  0.37145500  0.77850800  0.59294800  1
  Cu  Cu14  1  0.68556000  0.77850800  0.90705200  1
  Cu  Cu15  1  0.62854500  0.22149200  0.40705200  1
