# generated using pymatgen
data_Cu6Ni5C3
_symmetry_space_group_name_H-M   'P 1'
_cell_length_a   4.65838100
_cell_length_b   10.26978200
_cell_length_c   13.78062800
_cell_angle_alpha   90.00000000
_cell_angle_beta   90.00000000
_cell_angle_gamma   90.00000000
_symmetry_Int_Tables_number   1
_chemical_formula_structural   Cu6Ni5C3
_chemical_formula_sum   'Cu12 Ni10 C6'
_cell_volume   659.27292406
_cell_formula_units_Z   2
loop_
 _symmetry_equiv_pos_site_id
 _symmetry_equiv_pos_as_xyz
  1  'x, y, z'
loop_
 _atom_site_type_symbol
 _atom_site_label
 _atom_site_symmetry_multiplicity
 _atom_site_fract_x
 _atom_site_fract_y
 _atom_site_fract_z
 _atom_site_occupancy
  C  C0  1  0.50000000  0.75659900  0.50000000  1
  C  C1  1  0.00000000  0.24340100  0.00000000  1
  C  C2  1  0.50000000  0.75459500  0.81682900  1
  C  C3  1  0.50000000  0.75459500  0.18317100  1
  C  C4  1  0.00000000  0.24540500  0.68317100  1
  C  C5  1  0.00000000  0.24540500  0.31682900  1
  Ni  Ni6  1  0.50000000  0.47715800  0.64061500  1
  Ni  Ni7  1  0.50000000  0.47715800  0.35938500  1
  Ni  Ni8  1  0.00000000  0.52284200  0.85938500  1
  Ni  Ni9  1  0.00000000  0.52284200  0.14061500  1
  Ni  Ni10  1  0.50000000  0.12100000  0.83696500  1
  Ni  Ni11  1  0.50000000  0.12100000  0.16303500  1
  Ni  Ni12  1  0.00000000  0.87900000  0.66303500  1
  Ni  Ni13  1  0.00000000  0.87900000  0.33696500  1
  Ni  Ni14  1  0.50000000  0.22319600  0.50000000  1
  Ni  Ni15  1  0.00000000  0.77680400  0.00000000  1
  Cu  Cu16  1  0.50000000  0.02281200  0.64653700  1
  Cu  Cu17  1  0.50000000  0.02281200  0.35346300  1
  Cu  Cu18  1  0.00000000  0.97718800  0.85346300  1
  Cu  Cu19  1  0.00000000  0.97718800  0.14653700  1
  Cu  Cu20  1  0.00000000  0.03901000  0.50000000  1
  Cu  Cu21  1  0.50000000  0.96099000  0.00000000  1
  Cu  Cu22  1  0.50000000  0.38119300  0.83684800  1
  Cu  Cu23  1  0.50000000  0.38119300  0.16315200  1
  Cu  Cu24  1  0.00000000  0.61880700  0.66315200  1
  Cu  Cu25  1  0.00000000  0.61880700  0.33684800  1
  Cu  Cu26  1  0.00000000  0.43978200  0.50000000  1
  Cu  Cu27  1  0.50000000  0.56021800  0.00000000  1
