# generated using pymatgen
data_CuNiC
_symmetry_space_group_name_H-M   'P 1'
_cell_length_a   6.71668500
_cell_length_b   6.71668500
_cell_length_c   6.71668500
_cell_angle_alpha   90.00000000
_cell_angle_beta   90.00000000
_cell_angle_gamma   90.00000000
_symmetry_Int_Tables_number   1
_chemical_formula_structural   CuNiC
_chemical_formula_sum   'Cu4 Ni4 C4'
_cell_volume   303.01556922
_cell_formula_units_Z   4
loop_
 _symmetry_equiv_pos_site_id
 _symmetry_equiv_pos_as_xyz
  1  'x, y, z'
loop_
 _atom_site_type_symbol
 _atom_site_label
 _atom_site_symmetry_multiplicity
 _atom_site_fract_x
 _atom_site_fract_y
 _atom_site_fract_z
 _atom_site_occupancy
  C  C0  1  0.88190700  0.88190700  0.88190700  1
  C  C1  1  0.61809300  0.11809300  0.38190700  1
  C  C2  1  0.11809300  0.38190700  0.61809300  1
  C  C3  1  0.38190700  0.61809300  0.11809300  1
  Ni  Ni4  1  0.59480200  0.59480200  0.59480200  1
  Ni  Ni5  1  0.90519800  0.40519800  0.09480200  1
  Ni  Ni6  1  0.40519800  0.09480200  0.90519800  1
  Ni  Ni7  1  0.09480200  0.90519800  0.40519800  1
  Cu  Cu8  1  0.15605600  0.15605600  0.15605600  1
  Cu  Cu9  1  0.34394400  0.84394400  0.65605600  1
  Cu  Cu10  1  0.84394400  0.65605600  0.34394400  1
  Cu  Cu11  1  0.65605600  0.34394400  0.84394400  1
