# generated using pymatgen
data_Cu17(NiC2)2
_symmetry_space_group_name_H-M   'P 1'
_cell_length_a   8.93353286
_cell_length_b   8.93353286
_cell_length_c   10.09362500
_cell_angle_alpha   90.00000000
_cell_angle_beta   90.00000000
_cell_angle_gamma   118.96792532
_symmetry_Int_Tables_number   1
_chemical_formula_structural   Cu17(NiC2)2
_chemical_formula_sum   'Cu34 Ni4 C8'
_cell_volume   704.77027511
_cell_formula_units_Z   2
loop_
 _symmetry_equiv_pos_site_id
 _symmetry_equiv_pos_as_xyz
  1  'x, y, z'
loop_
 _atom_site_type_symbol
 _atom_site_label
 _atom_site_symmetry_multiplicity
 _atom_site_fract_x
 _atom_site_fract_y
 _atom_site_fract_z
 _atom_site_occupancy
  C  C0  1  0.84628300  0.70007000  0.75000000  1
  C  C1  1  0.85239300  0.15158000  0.75000000  1
  C  C2  1  0.31540100  0.13575000  0.75000000  1
  C  C3  1  0.70007000  0.84628300  0.25000000  1
  C  C4  1  0.15158000  0.85239300  0.25000000  1
  C  C5  1  0.13575000  0.31540100  0.25000000  1
  C  C6  1  0.95744600  0.95744600  0.00000000  1
  C  C7  1  0.95744600  0.95744600  0.50000000  1
  Ni  Ni8  1  0.67347800  0.33773800  0.97246200  1
  Ni  Ni9  1  0.67347800  0.33773800  0.52753800  1
  Ni  Ni10  1  0.33773800  0.67347800  0.47246200  1
  Ni  Ni11  1  0.33773800  0.67347800  0.02753800  1
  Cu  Cu12  1  0.67896400  0.34649900  0.11656500  1
  Cu  Cu13  1  0.67896400  0.34649900  0.38343500  1
  Cu  Cu14  1  0.34649900  0.67896400  0.61656500  1
  Cu  Cu15  1  0.34649900  0.67896400  0.88343500  1
  Cu  Cu16  1  0.50413500  0.48093500  0.75000000  1
  Cu  Cu17  1  0.97697100  0.49309300  0.75000000  1
  Cu  Cu18  1  0.53782300  0.03533700  0.75000000  1
  Cu  Cu19  1  0.48093500  0.50413500  0.25000000  1
  Cu  Cu20  1  0.49309300  0.97697100  0.25000000  1
  Cu  Cu21  1  0.03533700  0.53782300  0.25000000  1
  Cu  Cu22  1  0.09109000  0.90839900  0.88561100  1
  Cu  Cu23  1  0.79546400  0.90546700  0.88669000  1
  Cu  Cu24  1  0.10604900  0.16100000  0.89720200  1
  Cu  Cu25  1  0.09109000  0.90839900  0.61438900  1
  Cu  Cu26  1  0.79546400  0.90546700  0.61331000  1
  Cu  Cu27  1  0.10604900  0.16100000  0.60279800  1
  Cu  Cu28  1  0.90839900  0.09109000  0.38561100  1
  Cu  Cu29  1  0.90546700  0.79546400  0.38669000  1
  Cu  Cu30  1  0.16100000  0.10604900  0.39720200  1
  Cu  Cu31  1  0.90839900  0.09109000  0.11438900  1
  Cu  Cu32  1  0.90546700  0.79546400  0.11331000  1
  Cu  Cu33  1  0.16100000  0.10604900  0.10279800  1
  Cu  Cu34  1  0.80505800  0.50591200  0.91592000  1
  Cu  Cu35  1  0.71122600  0.20045200  0.92425600  1
  Cu  Cu36  1  0.50161000  0.29924300  0.92099200  1
  Cu  Cu37  1  0.80505800  0.50591200  0.58408000  1
  Cu  Cu38  1  0.71122600  0.20045200  0.57574400  1
  Cu  Cu39  1  0.50161000  0.29924300  0.57900800  1
  Cu  Cu40  1  0.50591200  0.80505800  0.41592000  1
  Cu  Cu41  1  0.20045200  0.71122600  0.42425600  1
  Cu  Cu42  1  0.29924300  0.50161000  0.42099200  1
  Cu  Cu43  1  0.50591200  0.80505800  0.08408000  1
  Cu  Cu44  1  0.20045200  0.71122600  0.07574400  1
  Cu  Cu45  1  0.29924300  0.50161000  0.07900800  1
