# generated using pymatgen
data_CuNi2C3
_symmetry_space_group_name_H-M   'P 1'
_cell_length_a   3.34445389
_cell_length_b   3.34445389
_cell_length_c   38.09317400
_cell_angle_alpha   90.00000000
_cell_angle_beta   90.00000000
_cell_angle_gamma   119.99999785
_symmetry_Int_Tables_number   1
_chemical_formula_structural   CuNi2C3
_chemical_formula_sum   'Cu2 Ni4 C6'
_cell_volume   369.00158131
_cell_formula_units_Z   2
loop_
 _symmetry_equiv_pos_site_id
 _symmetry_equiv_pos_as_xyz
  1  'x, y, z'
loop_
 _atom_site_type_symbol
 _atom_site_label
 _atom_site_symmetry_multiplicity
 _atom_site_fract_x
 _atom_site_fract_y
 _atom_site_fract_z
 _atom_site_occupancy
  C  C0  1  0.33333300  0.66666700  0.70735100  1
  C  C1  1  0.33333300  0.66666700  0.60778000  1
  C  C2  1  0.33333300  0.66666700  0.09392400  1
  C  C3  1  0.33333300  0.66666700  0.46962800  1
  C  C4  1  0.66666700  0.33333300  0.65759700  1
  C  C5  1  0.66666700  0.33333300  0.28178700  1
  Ni  Ni6  1  0.33333300  0.66666700  0.32580400  1
  Ni  Ni7  1  0.66666700  0.33333300  0.42583300  1
  Ni  Ni8  1  0.66666700  0.33333300  0.51343200  1
  Ni  Ni9  1  0.33333300  0.66666700  0.23777000  1
  Cu  Cu10  1  0.66666700  0.33333300  0.05412000  1
  Cu  Cu11  1  0.66666700  0.33333300  0.13372300  1
