# generated using pymatgen
data_CuNiC6
_symmetry_space_group_name_H-M   'P 1'
_cell_length_a   10.55296900
_cell_length_b   5.35216500
_cell_length_c   8.28313249
_cell_angle_alpha   69.55751804
_cell_angle_beta   90.00000000
_cell_angle_gamma   90.00000000
_symmetry_Int_Tables_number   1
_chemical_formula_structural   CuNiC6
_chemical_formula_sum   'Cu4 Ni4 C24'
_cell_volume   438.37839918
_cell_formula_units_Z   4
loop_
 _symmetry_equiv_pos_site_id
 _symmetry_equiv_pos_as_xyz
  1  'x, y, z'
loop_
 _atom_site_type_symbol
 _atom_site_label
 _atom_site_symmetry_multiplicity
 _atom_site_fract_x
 _atom_site_fract_y
 _atom_site_fract_z
 _atom_site_occupancy
  Ni  Ni0  1  0.08582400  0.54504000  0.82435700  1
  Ni  Ni1  1  0.91417600  0.45496000  0.17564300  1
  Ni  Ni2  1  0.58582400  0.45496000  0.67564300  1
  Ni  Ni3  1  0.41417600  0.54504000  0.32435700  1
  Cu  Cu4  1  0.37652400  0.15764700  0.04308600  1
  Cu  Cu5  1  0.62347600  0.84235300  0.95691400  1
  Cu  Cu6  1  0.87652400  0.84235300  0.45691400  1
  Cu  Cu7  1  0.12347600  0.15764700  0.54308600  1
  C  C8  1  0.89472100  0.02786100  0.84338600  1
  C  C9  1  0.10527900  0.97213900  0.15661400  1
  C  C10  1  0.60527900  0.02786100  0.34338600  1
  C  C11  1  0.39472100  0.97213900  0.65661400  1
  C  C12  1  0.94117400  0.82124000  0.66833900  1
  C  C13  1  0.03595800  0.30018000  0.68316300  1
  C  C14  1  0.79580200  0.16838700  0.32382400  1
  C  C15  1  0.45843400  0.75361200  0.49360800  1
  C  C16  1  0.71553500  0.69323200  0.50718000  1
  C  C17  1  0.78446500  0.69323200  0.00718000  1
  C  C18  1  0.46404200  0.30018000  0.18316300  1
  C  C19  1  0.53595800  0.69982000  0.81683700  1
  C  C20  1  0.54156600  0.24638800  0.50639200  1
  C  C21  1  0.44117400  0.17876000  0.83166100  1
  C  C22  1  0.28446500  0.30676800  0.49282000  1
  C  C23  1  0.05882600  0.17876000  0.33166100  1
  C  C24  1  0.55882600  0.82124000  0.16833900  1
  C  C25  1  0.21553500  0.30676800  0.99282000  1
  C  C26  1  0.95843400  0.24638800  0.00639200  1
  C  C27  1  0.04156600  0.75361200  0.99360800  1
  C  C28  1  0.20419800  0.83161300  0.67617600  1
  C  C29  1  0.96404200  0.69982000  0.31683700  1
  C  C30  1  0.29580200  0.83161300  0.17617600  1
  C  C31  1  0.70419800  0.16838700  0.82382400  1
