# generated using pymatgen
data_Cu5Ni3C17
_symmetry_space_group_name_H-M   'P 1'
_cell_length_a   5.73327193
_cell_length_b   5.79642759
_cell_length_c   8.93097122
_cell_angle_alpha   89.84556700
_cell_angle_beta   92.30034439
_cell_angle_gamma   118.80033096
_symmetry_Int_Tables_number   1
_chemical_formula_structural   Cu5Ni3C17
_chemical_formula_sum   'Cu5 Ni3 C17'
_cell_volume   259.82911939
_cell_formula_units_Z   1
loop_
 _symmetry_equiv_pos_site_id
 _symmetry_equiv_pos_as_xyz
  1  'x, y, z'
loop_
 _atom_site_type_symbol
 _atom_site_label
 _atom_site_symmetry_multiplicity
 _atom_site_fract_x
 _atom_site_fract_y
 _atom_site_fract_z
 _atom_site_occupancy
  C  C0  1  0.82582500  0.17316600  0.44690100  1
  Ni  Ni1  1  0.65122100  0.82340500  0.19012500  1
  Ni  Ni2  1  0.85308100  0.66635200  0.70761300  1
  Ni  Ni3  1  0.82681400  0.15064000  0.74273100  1
  Cu  Cu4  1  0.16040000  0.84153700  0.20130800  1
  Cu  Cu5  1  0.34052600  0.66536100  0.48153600  1
  Cu  Cu6  1  0.16620000  0.34406300  0.20042200  1
  Cu  Cu7  1  0.34226100  0.16771800  0.70536700  1
  Cu  Cu8  1  0.66080100  0.33958200  0.98476600  1
  C  C9  1  0.19094700  0.83473700  0.60153500  1
  C  C10  1  0.04235500  0.50685500  0.34149800  1
  C  C11  1  0.29505400  0.66013700  0.09472600  1
  C  C12  1  0.00725200  0.01974500  0.30526300  1
  C  C13  1  0.03324000  0.00776300  0.81911200  1
  C  C14  1  0.17510400  0.33766900  0.59739000  1
  C  C15  1  0.46523500  0.94811400  0.34326600  1
  C  C16  1  0.46616100  0.51767400  0.33866500  1
  C  C17  1  0.34351300  0.19390400  0.10419500  1
  C  C18  1  0.68096700  0.85073400  0.59559800  1
  C  C19  1  0.51812300  0.46681100  0.83734400  1
  C  C20  1  0.49890200  0.04156800  0.85233600  1
  C  C21  1  0.67216800  0.31385700  0.60480200  1
  C  C22  1  0.83685800  0.66471000  0.09406200  1
  C  C23  1  0.95518800  0.45820400  0.86046300  1
  C  C24  1  0.82513800  0.18297700  0.10219500  1
