# generated using pymatgen
data_Cu2Ni7C
_symmetry_space_group_name_H-M   'P 1'
_cell_length_a   6.44701500
_cell_length_b   6.44701500
_cell_length_c   14.83117400
_cell_angle_alpha   90.00000000
_cell_angle_beta   90.00000000
_cell_angle_gamma   90.00000000
_symmetry_Int_Tables_number   1
_chemical_formula_structural   Cu2Ni7C
_chemical_formula_sum   'Cu8 Ni28 C4'
_cell_volume   616.44295188
_cell_formula_units_Z   4
loop_
 _symmetry_equiv_pos_site_id
 _symmetry_equiv_pos_as_xyz
  1  'x, y, z'
loop_
 _atom_site_type_symbol
 _atom_site_label
 _atom_site_symmetry_multiplicity
 _atom_site_fract_x
 _atom_site_fract_y
 _atom_site_fract_z
 _atom_site_occupancy
  Ni  Ni0  1  0.16025000  0.66025000  0.25000000  1
  Ni  Ni1  1  0.83975000  0.33975000  0.75000000  1
  Ni  Ni2  1  0.83975000  0.33975000  0.25000000  1
  Ni  Ni3  1  0.33975000  0.16025000  0.25000000  1
  Ni  Ni4  1  0.16025000  0.66025000  0.75000000  1
  Ni  Ni5  1  0.66025000  0.83975000  0.75000000  1
  Ni  Ni6  1  0.66025000  0.83975000  0.25000000  1
  Ni  Ni7  1  0.33975000  0.16025000  0.75000000  1
  Ni  Ni8  1  0.00000000  0.00000000  0.12914500  1
  Ni  Ni9  1  0.00000000  0.00000000  0.87085500  1
  Ni  Ni10  1  0.50000000  0.50000000  0.37085500  1
  Ni  Ni11  1  0.50000000  0.50000000  0.62914500  1
  Ni  Ni12  1  0.20013800  0.41534400  0.09803400  1
  Ni  Ni13  1  0.79986200  0.58465600  0.90196600  1
  Ni  Ni14  1  0.79986200  0.58465600  0.09803400  1
  Ni  Ni15  1  0.58465600  0.20013800  0.09803400  1
  Ni  Ni16  1  0.29986200  0.91534400  0.40196600  1
  Ni  Ni17  1  0.20013800  0.41534400  0.90196600  1
  Ni  Ni18  1  0.41534400  0.79986200  0.90196600  1
  Ni  Ni19  1  0.70013800  0.08465600  0.59803400  1
  Ni  Ni20  1  0.41534400  0.79986200  0.09803400  1
  Ni  Ni21  1  0.70013800  0.08465600  0.40196600  1
  Ni  Ni22  1  0.58465600  0.20013800  0.90196600  1
  Ni  Ni23  1  0.29986200  0.91534400  0.59803400  1
  Ni  Ni24  1  0.91534400  0.70013800  0.40196600  1
  Ni  Ni25  1  0.08465600  0.29986200  0.59803400  1
  Ni  Ni26  1  0.08465600  0.29986200  0.40196600  1
  Ni  Ni27  1  0.91534400  0.70013800  0.59803400  1
  Cu  Cu28  1  0.26819800  0.08597200  0.00000000  1
  Cu  Cu29  1  0.73180200  0.91402800  0.00000000  1
  Cu  Cu30  1  0.91402800  0.26819800  0.00000000  1
  Cu  Cu31  1  0.23180200  0.58597200  0.50000000  1
  Cu  Cu32  1  0.08597200  0.73180200  0.00000000  1
  Cu  Cu33  1  0.76819800  0.41402800  0.50000000  1
  Cu  Cu34  1  0.58597200  0.76819800  0.50000000  1
  Cu  Cu35  1  0.41402800  0.23180200  0.50000000  1
  C  C36  1  0.00000000  0.00000000  0.30037900  1
  C  C37  1  0.00000000  0.00000000  0.69962100  1
  C  C38  1  0.50000000  0.50000000  0.19962100  1
  C  C39  1  0.50000000  0.50000000  0.80037900  1
