# generated using pymatgen
data_CuNiC6
_symmetry_space_group_name_H-M   'P 1'
_cell_length_a   5.37077400
_cell_length_b   5.37132904
_cell_length_c   7.02319378
_cell_angle_alpha   105.02914307
_cell_angle_beta   105.03336117
_cell_angle_gamma   99.25638501
_symmetry_Int_Tables_number   1
_chemical_formula_structural   CuNiC6
_chemical_formula_sum   'Cu2 Ni2 C12'
_cell_volume   183.24048016
_cell_formula_units_Z   2
loop_
 _symmetry_equiv_pos_site_id
 _symmetry_equiv_pos_as_xyz
  1  'x, y, z'
loop_
 _atom_site_type_symbol
 _atom_site_label
 _atom_site_symmetry_multiplicity
 _atom_site_fract_x
 _atom_site_fract_y
 _atom_site_fract_z
 _atom_site_occupancy
  Ni  Ni0  1  0.39009900  0.24084700  0.81908800  1
  Ni  Ni1  1  0.75272700  0.88510800  0.32213500  1
  Cu  Cu2  1  0.99800000  0.50664700  0.51156900  1
  Cu  Cu3  1  0.01370300  0.48715300  0.01175400  1
  C  C4  1  0.64233700  0.82945900  0.75548300  1
  C  C5  1  0.33720100  0.12978200  0.25622800  1
  C  C6  1  0.67036900  0.61513800  0.86600600  1
  C  C7  1  0.80789900  0.80357700  0.60291400  1
  C  C8  1  0.30312500  0.28525100  0.09676500  1
  C  C9  1  0.12258600  0.15882500  0.36667600  1
  C  C10  1  0.62192900  0.22662400  0.41621100  1
  C  C11  1  0.32802100  0.83529200  0.14655500  1
  C  C12  1  0.34889800  0.81451300  0.63860600  1
  C  C13  1  0.73050300  0.11466600  0.91460200  1
  C  C14  1  0.90754200  0.58218700  0.25333700  1
  C  C15  1  0.09304500  0.40367300  0.75493900  1
