# generated using pymatgen
data_Cu9Ni3C
_symmetry_space_group_name_H-M   'P 1'
_cell_length_a   7.14023200
_cell_length_b   8.20679100
_cell_length_c   6.69585900
_cell_angle_alpha   90.00000000
_cell_angle_beta   90.00000000
_cell_angle_gamma   90.00000000
_symmetry_Int_Tables_number   1
_chemical_formula_structural   Cu9Ni3C
_chemical_formula_sum   'Cu18 Ni6 C2'
_cell_volume   392.36656855
_cell_formula_units_Z   2
loop_
 _symmetry_equiv_pos_site_id
 _symmetry_equiv_pos_as_xyz
  1  'x, y, z'
loop_
 _atom_site_type_symbol
 _atom_site_label
 _atom_site_symmetry_multiplicity
 _atom_site_fract_x
 _atom_site_fract_y
 _atom_site_fract_z
 _atom_site_occupancy
  C  C0  1  0.50000000  0.00000000  0.60765800  1
  C  C1  1  0.00000000  0.50000000  0.39234200  1
  Ni  Ni2  1  0.00000000  0.79398000  0.85475100  1
  Ni  Ni3  1  0.00000000  0.20602000  0.85475100  1
  Ni  Ni4  1  0.50000000  0.70602000  0.14524900  1
  Ni  Ni5  1  0.50000000  0.29398000  0.14524900  1
  Ni  Ni6  1  0.50000000  0.50000000  0.61084600  1
  Ni  Ni7  1  0.00000000  0.00000000  0.38915400  1
  Cu  Cu8  1  0.82589100  0.85503600  0.52193400  1
  Cu  Cu9  1  0.82589100  0.14496400  0.52193400  1
  Cu  Cu10  1  0.17410900  0.85503600  0.52193400  1
  Cu  Cu11  1  0.17410900  0.14496400  0.52193400  1
  Cu  Cu12  1  0.67410900  0.64496400  0.47806600  1
  Cu  Cu13  1  0.67410900  0.35503600  0.47806600  1
  Cu  Cu14  1  0.32589100  0.64496400  0.47806600  1
  Cu  Cu15  1  0.32589100  0.35503600  0.47806600  1
  Cu  Cu16  1  0.50000000  0.00000000  0.26351200  1
  Cu  Cu17  1  0.00000000  0.50000000  0.73648800  1
  Cu  Cu18  1  0.17374300  0.00000000  0.89789500  1
  Cu  Cu19  1  0.82625700  0.00000000  0.89789500  1
  Cu  Cu20  1  0.32625700  0.50000000  0.10210500  1
  Cu  Cu21  1  0.67374300  0.50000000  0.10210500  1
  Cu  Cu22  1  0.50000000  0.76519900  0.87608300  1
  Cu  Cu23  1  0.50000000  0.23480100  0.87608300  1
  Cu  Cu24  1  0.00000000  0.73480100  0.12391700  1
  Cu  Cu25  1  0.00000000  0.26519900  0.12391700  1
