# generated using pymatgen
data_CuNiC8
_symmetry_space_group_name_H-M   'P 1'
_cell_length_a   7.90528047
_cell_length_b   7.90592916
_cell_length_c   7.91099531
_cell_angle_alpha   90.14529003
_cell_angle_beta   90.04513411
_cell_angle_gamma   90.05382790
_symmetry_Int_Tables_number   1
_chemical_formula_structural   CuNiC8
_chemical_formula_sum   'Cu4 Ni4 C32'
_cell_volume   494.42406997
_cell_formula_units_Z   4
loop_
 _symmetry_equiv_pos_site_id
 _symmetry_equiv_pos_as_xyz
  1  'x, y, z'
loop_
 _atom_site_type_symbol
 _atom_site_label
 _atom_site_symmetry_multiplicity
 _atom_site_fract_x
 _atom_site_fract_y
 _atom_site_fract_z
 _atom_site_occupancy
  C  C0  1  0.75034400  0.48088100  0.01128500  1
  C  C1  1  0.75033600  0.98089800  0.51127200  1
  C  C2  1  0.74964500  0.48875800  0.51907300  1
  C  C3  1  0.74966200  0.98877000  0.01906000  1
  C  C4  1  0.24965300  0.51911200  0.98872100  1
  C  C5  1  0.24964600  0.01909900  0.48871000  1
  C  C6  1  0.25033200  0.51125300  0.48094000  1
  C  C7  1  0.25035300  0.01122200  0.98091400  1
  Ni  Ni8  1  0.00000100  0.24999700  0.24999900  1
  Ni  Ni9  1  0.00000000  0.74999800  0.75000200  1
  Ni  Ni10  1  0.50000600  0.25000200  0.75000000  1
  Ni  Ni11  1  0.49999700  0.74999800  0.25000200  1
  Cu  Cu12  1  0.50000100  0.74999700  0.75000000  1
  Cu  Cu13  1  0.00000200  0.75000100  0.24999900  1
  Cu  Cu14  1  0.49999800  0.24999800  0.25000100  1
  Cu  Cu15  1  0.99999700  0.25000000  0.75000100  1
  C  C16  1  0.74859300  0.71796500  0.20163100  1
  C  C17  1  0.74858000  0.21796200  0.70163100  1
  C  C18  1  0.75142100  0.29836700  0.28201400  1
  C  C19  1  0.75142800  0.79837300  0.78201100  1
  C  C20  1  0.25141400  0.28204000  0.79837700  1
  C  C21  1  0.25140800  0.78204100  0.29837700  1
  C  C22  1  0.24857300  0.70163400  0.71798300  1
  C  C23  1  0.24858000  0.20162600  0.21799200  1
  C  C24  1  0.54325500  0.49806100  0.78190500  1
  C  C25  1  0.54326300  0.99805400  0.28190000  1
  C  C26  1  0.95667400  0.21805800  0.00188700  1
  C  C27  1  0.95667200  0.71806000  0.50189700  1
  C  C28  1  0.45673900  0.50194500  0.21810100  1
  C  C29  1  0.45674400  0.00193900  0.71809500  1
  C  C30  1  0.04333600  0.78194600  0.99810200  1
  C  C31  1  0.04333000  0.28194100  0.49811200  1
  C  C32  1  0.04309000  0.49903800  0.21766200  1
  C  C33  1  0.04308100  0.99903900  0.71766600  1
  C  C34  1  0.45683500  0.78237400  0.00092200  1
  C  C35  1  0.45683900  0.28237900  0.50092900  1
  C  C36  1  0.95691800  0.50095800  0.78233400  1
  C  C37  1  0.95692100  0.00096300  0.28233600  1
  C  C38  1  0.54316500  0.21762700  0.99907600  1
  C  C39  1  0.54316600  0.71762700  0.49907900  1
