# generated using pymatgen
data_CuNi4C9
_symmetry_space_group_name_H-M   'P 1'
_cell_length_a   7.23565719
_cell_length_b   7.23565719
_cell_length_c   7.23565628
_cell_angle_alpha   59.41872250
_cell_angle_beta   59.41872250
_cell_angle_gamma   59.41872398
_symmetry_Int_Tables_number   1
_chemical_formula_structural   CuNi4C9
_chemical_formula_sum   'Cu1 Ni4 C9'
_cell_volume   264.32391713
_cell_formula_units_Z   1
loop_
 _symmetry_equiv_pos_site_id
 _symmetry_equiv_pos_as_xyz
  1  'x, y, z'
loop_
 _atom_site_type_symbol
 _atom_site_label
 _atom_site_symmetry_multiplicity
 _atom_site_fract_x
 _atom_site_fract_y
 _atom_site_fract_z
 _atom_site_occupancy
  Ni  Ni0  1  0.37510900  0.37510900  0.37510900  1
  Ni  Ni1  1  0.52134200  0.99228000  0.99228000  1
  Ni  Ni2  1  0.99228000  0.99228000  0.52134200  1
  Ni  Ni3  1  0.99228000  0.52134200  0.99228000  1
  Cu  Cu4  1  0.99496100  0.99496100  0.99496100  1
  C  C5  1  0.62597600  0.62597600  0.62597600  1
  C  C6  1  0.23406600  0.74556900  0.74556900  1
  C  C7  1  0.74556900  0.74556900  0.23406600  1
  C  C8  1  0.74556900  0.23406600  0.74556900  1
  C  C9  1  0.75662900  0.75662900  0.75662900  1
  C  C10  1  0.76996900  0.25189100  0.25189100  1
  C  C11  1  0.25189100  0.25189100  0.76996900  1
  C  C12  1  0.25189100  0.76996900  0.25189100  1
  C  C13  1  0.24246700  0.24246700  0.24246700  1
