# generated using pymatgen
data_CuNi7C2
_symmetry_space_group_name_H-M   'P 1'
_cell_length_a   8.55512200
_cell_length_b   9.09841200
_cell_length_c   17.65590541
_cell_angle_alpha   59.48117557
_cell_angle_beta   90.00000000
_cell_angle_gamma   90.00000000
_symmetry_Int_Tables_number   1
_chemical_formula_structural   CuNi7C2
_chemical_formula_sum   'Cu4 Ni28 C8'
_cell_volume   1183.90841570
_cell_formula_units_Z   4
loop_
 _symmetry_equiv_pos_site_id
 _symmetry_equiv_pos_as_xyz
  1  'x, y, z'
loop_
 _atom_site_type_symbol
 _atom_site_label
 _atom_site_symmetry_multiplicity
 _atom_site_fract_x
 _atom_site_fract_y
 _atom_site_fract_z
 _atom_site_occupancy
  C  C0  1  0.21582600  0.41027900  0.27662700  1
  C  C1  1  0.71582600  0.58972100  0.22337300  1
  C  C2  1  0.78417400  0.58972100  0.72337300  1
  C  C3  1  0.28417400  0.41027900  0.77662700  1
  C  C4  1  0.24209600  0.92664900  0.38423100  1
  C  C5  1  0.74209600  0.07335100  0.11576900  1
  C  C6  1  0.75790400  0.07335100  0.61576900  1
  C  C7  1  0.25790400  0.92664900  0.88423100  1
  Ni  Ni8  1  0.30183600  0.91510900  0.27871900  1
  Ni  Ni9  1  0.80183600  0.08489100  0.22128100  1
  Ni  Ni10  1  0.69816400  0.08489100  0.72128100  1
  Ni  Ni11  1  0.19816400  0.91510900  0.77871900  1
  Ni  Ni12  1  0.41065500  0.81220900  0.47139700  1
  Ni  Ni13  1  0.91065500  0.18779100  0.02860300  1
  Ni  Ni14  1  0.58934500  0.18779100  0.52860300  1
  Ni  Ni15  1  0.08934500  0.81220900  0.97139700  1
  Ni  Ni16  1  0.05382700  0.78223700  0.43369400  1
  Ni  Ni17  1  0.55382700  0.21776300  0.06630600  1
  Ni  Ni18  1  0.94617300  0.21776300  0.56630600  1
  Ni  Ni19  1  0.44617300  0.78223700  0.93369400  1
  Ni  Ni20  1  0.02465300  0.69946100  0.20414400  1
  Ni  Ni21  1  0.52465300  0.30053900  0.29585600  1
  Ni  Ni22  1  0.97534700  0.30053900  0.79585600  1
  Ni  Ni23  1  0.47534700  0.69946100  0.70414400  1
  Ni  Ni24  1  0.40700000  0.69219900  0.17365700  1
  Ni  Ni25  1  0.90700000  0.30780100  0.32634300  1
  Ni  Ni26  1  0.59300000  0.30780100  0.82634300  1
  Ni  Ni27  1  0.09300000  0.69219900  0.67365700  1
  Ni  Ni28  1  0.25462200  0.42951600  0.41435900  1
  Ni  Ni29  1  0.75462200  0.57048400  0.08564100  1
  Ni  Ni30  1  0.74537800  0.57048400  0.58564100  1
  Ni  Ni31  1  0.24537800  0.42951600  0.91435900  1
  Ni  Ni32  1  0.18217900  0.37292000  0.14447700  1
  Ni  Ni33  1  0.68217900  0.62708000  0.35552300  1
  Ni  Ni34  1  0.81782100  0.62708000  0.85552300  1
  Ni  Ni35  1  0.31782100  0.37292000  0.64447700  1
  Cu  Cu36  1  0.71381300  0.89535900  0.13575900  1
  Cu  Cu37  1  0.21381300  0.10464100  0.36424100  1
  Cu  Cu38  1  0.28618700  0.10464100  0.86424100  1
  Cu  Cu39  1  0.78618700  0.89535900  0.63575900  1
