# generated using pymatgen
data_Cu3Ni6C23
_symmetry_space_group_name_H-M   'P 1'
_cell_length_a   10.03280538
_cell_length_b   10.03280538
_cell_length_c   10.03280502
_cell_angle_alpha   65.98128066
_cell_angle_beta   65.98128066
_cell_angle_gamma   65.98128275
_symmetry_Int_Tables_number   1
_chemical_formula_structural   Cu3Ni6C23
_chemical_formula_sum   'Cu6 Ni12 C46'
_cell_volume   806.53494604
_cell_formula_units_Z   2
loop_
 _symmetry_equiv_pos_site_id
 _symmetry_equiv_pos_as_xyz
  1  'x, y, z'
loop_
 _atom_site_type_symbol
 _atom_site_label
 _atom_site_symmetry_multiplicity
 _atom_site_fract_x
 _atom_site_fract_y
 _atom_site_fract_z
 _atom_site_occupancy
  C  C0  1  0.00000000  0.00000000  0.00000000  1
  C  C1  1  0.29181900  0.58387300  0.10269900  1
  C  C2  1  0.58387300  0.10269900  0.29181900  1
  C  C3  1  0.10269900  0.29181900  0.58387300  1
  C  C4  1  0.70818100  0.41612700  0.89730100  1
  C  C5  1  0.41612700  0.89730100  0.70818100  1
  C  C6  1  0.89730100  0.70818100  0.41612700  1
  C  C7  1  0.41640500  0.54713800  0.20903200  1
  C  C8  1  0.54713800  0.20903200  0.41640500  1
  C  C9  1  0.20903200  0.41640500  0.54713800  1
  C  C10  1  0.58359500  0.45286200  0.79096800  1
  C  C11  1  0.45286200  0.79096800  0.58359500  1
  C  C12  1  0.79096800  0.58359500  0.45286200  1
  C  C13  1  0.46161800  0.65028000  0.00712900  1
  C  C14  1  0.65028000  0.00712900  0.46161800  1
  C  C15  1  0.00712900  0.46161800  0.65028000  1
  C  C16  1  0.53838200  0.34972000  0.99287100  1
  C  C17  1  0.34972000  0.99287100  0.53838200  1
  C  C18  1  0.99287100  0.53838200  0.34972000  1
  C  C19  1  0.49902800  0.85570500  0.05088100  1
  C  C20  1  0.85570500  0.05088100  0.49902800  1
  C  C21  1  0.05088100  0.49902800  0.85570500  1
  C  C22  1  0.50097200  0.14429500  0.94911900  1
  C  C23  1  0.14429500  0.94911900  0.50097200  1
  C  C24  1  0.94911900  0.50097200  0.14429500  1
  C  C25  1  0.45423900  0.76903500  0.25615800  1
  C  C26  1  0.76903500  0.25615800  0.45423900  1
  C  C27  1  0.25615800  0.45423900  0.76903500  1
  C  C28  1  0.54576100  0.23096500  0.74384200  1
  C  C29  1  0.23096500  0.74384200  0.54576100  1
  C  C30  1  0.74384200  0.54576100  0.23096500  1
  C  C31  1  0.36002300  0.96821600  0.18048900  1
  C  C32  1  0.96821600  0.18048900  0.36002300  1
  C  C33  1  0.18048900  0.36002300  0.96821600  1
  C  C34  1  0.63997700  0.03178400  0.81951100  1
  C  C35  1  0.03178400  0.81951100  0.63997700  1
  C  C36  1  0.81951100  0.63997700  0.03178400  1
  Ni  Ni37  1  0.37016900  0.62716400  0.11365000  1
  Ni  Ni38  1  0.62716400  0.11365000  0.37016900  1
  Ni  Ni39  1  0.11365000  0.37016900  0.62716400  1
  Ni  Ni40  1  0.62983100  0.37283600  0.88635000  1
  Ni  Ni41  1  0.37283600  0.88635000  0.62983100  1
  Ni  Ni42  1  0.88635000  0.62983100  0.37283600  1
  Ni  Ni43  1  0.41036200  0.85523900  0.16080900  1
  Ni  Ni44  1  0.85523900  0.16080900  0.41036200  1
  Ni  Ni45  1  0.16080900  0.41036200  0.85523900  1
  Ni  Ni46  1  0.58963800  0.14476100  0.83919100  1
  Ni  Ni47  1  0.14476100  0.83919100  0.58963800  1
  Ni  Ni48  1  0.83919100  0.58963800  0.14476100  1
  Cu  Cu49  1  0.26066700  0.80135700  0.16238300  1
  Cu  Cu50  1  0.80135700  0.16238300  0.26066700  1
  Cu  Cu51  1  0.16238300  0.26066700  0.80135700  1
  Cu  Cu52  1  0.73933300  0.19864300  0.83761700  1
  Cu  Cu53  1  0.19864300  0.83761700  0.73933300  1
  Cu  Cu54  1  0.83761700  0.73933300  0.19864300  1
  C  C55  1  0.75536400  0.75536400  0.75536400  1
  C  C56  1  0.24463600  0.24463600  0.24463600  1
  C  C57  1  0.50000000  0.50000000  0.50000000  1
  C  C58  1  0.21688100  0.91457400  0.01506500  1
  C  C59  1  0.91457400  0.01506500  0.21688100  1
  C  C60  1  0.01506500  0.21688100  0.91457400  1
  C  C61  1  0.78311900  0.08542600  0.98493500  1
  C  C62  1  0.08542600  0.98493500  0.78311900  1
  C  C63  1  0.98493500  0.78311900  0.08542600  1
