# generated using pymatgen
data_CuNiC5
_symmetry_space_group_name_H-M   'P 1'
_cell_length_a   5.58378400
_cell_length_b   13.92423100
_cell_length_c   14.05088892
_cell_angle_alpha   59.93409809
_cell_angle_beta   90.00000000
_cell_angle_gamma   90.00000000
_symmetry_Int_Tables_number   1
_chemical_formula_structural   CuNiC5
_chemical_formula_sum   'Cu8 Ni8 C40'
_cell_volume   945.46504243
_cell_formula_units_Z   8
loop_
 _symmetry_equiv_pos_site_id
 _symmetry_equiv_pos_as_xyz
  1  'x, y, z'
loop_
 _atom_site_type_symbol
 _atom_site_label
 _atom_site_symmetry_multiplicity
 _atom_site_fract_x
 _atom_site_fract_y
 _atom_site_fract_z
 _atom_site_occupancy
  Ni  Ni0  1  0.75425400  0.56018300  0.79737300  1
  Ni  Ni1  1  0.25425400  0.43981700  0.70262700  1
  Ni  Ni2  1  0.24574600  0.43981700  0.20262700  1
  Ni  Ni3  1  0.74574600  0.56018300  0.29737300  1
  Ni  Ni4  1  0.75584800  0.05724600  0.64334500  1
  Ni  Ni5  1  0.25584800  0.94275400  0.85665500  1
  Ni  Ni6  1  0.24415200  0.94275400  0.35665500  1
  Ni  Ni7  1  0.74415200  0.05724600  0.14334500  1
  Cu  Cu8  1  0.73716400  0.84675200  0.55951100  1
  Cu  Cu9  1  0.23716400  0.15324800  0.94048900  1
  Cu  Cu10  1  0.26283600  0.15324800  0.44048900  1
  Cu  Cu11  1  0.76283600  0.84675200  0.05951100  1
  Cu  Cu12  1  0.76218300  0.34621200  0.59136300  1
  Cu  Cu13  1  0.26218300  0.65378800  0.90863700  1
  Cu  Cu14  1  0.23781700  0.65378800  0.40863700  1
  Cu  Cu15  1  0.73781700  0.34621200  0.09136300  1
  C  C16  1  0.47501500  0.00466100  0.73516500  1
  C  C17  1  0.97501500  0.99533900  0.76483500  1
  C  C18  1  0.52498500  0.99533900  0.26483500  1
  C  C19  1  0.02498500  0.00466100  0.23516500  1
  C  C20  1  0.97860200  0.49198800  0.74601800  1
  C  C21  1  0.47860200  0.50801200  0.75398200  1
  C  C22  1  0.02139800  0.50801200  0.25398200  1
  C  C23  1  0.52139800  0.49198800  0.24601800  1
  C  C24  1  0.53589000  0.12283400  0.50568300  1
  C  C25  1  0.03589000  0.87716600  0.99431700  1
  C  C26  1  0.46411000  0.87716600  0.49431700  1
  C  C27  1  0.96411000  0.12283400  0.00568300  1
  C  C28  1  0.03768000  0.11958300  0.53551700  1
  C  C29  1  0.53768000  0.88041700  0.96448300  1
  C  C30  1  0.96232000  0.88041700  0.46448300  1
  C  C31  1  0.46232000  0.11958300  0.03551700  1
  C  C32  1  0.02893300  0.61823300  0.85181800  1
  C  C33  1  0.52893300  0.38176700  0.64818200  1
  C  C34  1  0.97106700  0.38176700  0.14818200  1
  C  C35  1  0.47106700  0.61823300  0.35181800  1
  C  C36  1  0.53011200  0.62992800  0.86376300  1
  C  C37  1  0.03011200  0.37007200  0.63623700  1
  C  C38  1  0.46988800  0.37007200  0.13623700  1
  C  C39  1  0.96988800  0.62992800  0.36376300  1
  C  C40  1  0.74329700  0.20420300  0.63211300  1
  C  C41  1  0.24329700  0.79579700  0.86788700  1
  C  C42  1  0.25670300  0.79579700  0.36788700  1
  C  C43  1  0.75670300  0.20420300  0.13211300  1
  C  C44  1  0.75501100  0.70482700  0.65929700  1
  C  C45  1  0.25501100  0.29517300  0.84070300  1
  C  C46  1  0.24498900  0.29517300  0.34070300  1
  C  C47  1  0.74498900  0.70482700  0.15929700  1
  C  C48  1  0.75164200  0.42572700  0.94839600  1
  C  C49  1  0.25164200  0.57427300  0.55160400  1
  C  C50  1  0.24835800  0.57427300  0.05160400  1
  C  C51  1  0.74835800  0.42572700  0.44839600  1
  C  C52  1  0.77574500  0.92440300  0.62496300  1
  C  C53  1  0.27574500  0.07559700  0.87503700  1
  C  C54  1  0.22425500  0.07559700  0.37503700  1
  C  C55  1  0.72425500  0.92440300  0.12496300  1
