# generated using pymatgen
data_Cu6Ni3C11
_symmetry_space_group_name_H-M   'P 1'
_cell_length_a   9.40180200
_cell_length_b   9.40180200
_cell_length_c   5.06306800
_cell_angle_alpha   90.00000000
_cell_angle_beta   90.00000000
_cell_angle_gamma   90.00000000
_symmetry_Int_Tables_number   1
_chemical_formula_structural   Cu6Ni3C11
_chemical_formula_sum   'Cu12 Ni6 C22'
_cell_volume   447.54422951
_cell_formula_units_Z   2
loop_
 _symmetry_equiv_pos_site_id
 _symmetry_equiv_pos_as_xyz
  1  'x, y, z'
loop_
 _atom_site_type_symbol
 _atom_site_label
 _atom_site_symmetry_multiplicity
 _atom_site_fract_x
 _atom_site_fract_y
 _atom_site_fract_z
 _atom_site_occupancy
  Ni  Ni0  1  0.31305300  0.81305300  0.95292100  1
  Ni  Ni1  1  0.68694700  0.18694700  0.95292100  1
  Ni  Ni2  1  0.18694700  0.31305300  0.95292100  1
  Ni  Ni3  1  0.81305300  0.68694700  0.95292100  1
  Ni  Ni4  1  0.50000000  0.50000000  0.95934700  1
  Ni  Ni5  1  0.00000000  0.00000000  0.95934700  1
  Cu  Cu6  1  0.46749400  0.26551400  0.52148100  1
  Cu  Cu7  1  0.53250600  0.73448600  0.52148100  1
  Cu  Cu8  1  0.03250600  0.76551400  0.52148100  1
  Cu  Cu9  1  0.96749400  0.23448600  0.52148100  1
  Cu  Cu10  1  0.26551400  0.53250600  0.52148100  1
  Cu  Cu11  1  0.73448600  0.46749400  0.52148100  1
  Cu  Cu12  1  0.76551400  0.96749400  0.52148100  1
  Cu  Cu13  1  0.23448600  0.03250600  0.52148100  1
  Cu  Cu14  1  0.87397500  0.37397500  0.02401600  1
  Cu  Cu15  1  0.12602500  0.62602500  0.02401600  1
  Cu  Cu16  1  0.62602500  0.87397500  0.02401600  1
  Cu  Cu17  1  0.37397500  0.12602500  0.02401600  1
  C  C18  1  0.33180200  0.37874100  0.71188400  1
  C  C19  1  0.66819800  0.62125900  0.71188400  1
  C  C20  1  0.16819800  0.87874100  0.71188400  1
  C  C21  1  0.83180200  0.12125900  0.71188400  1
  C  C22  1  0.37874100  0.66819800  0.71188400  1
  C  C23  1  0.62125900  0.33180200  0.71188400  1
  C  C24  1  0.87874100  0.83180200  0.71188400  1
  C  C25  1  0.12125900  0.16819800  0.71188400  1
  C  C26  1  0.50501000  0.27442200  0.15822700  1
  C  C27  1  0.49499000  0.72557800  0.15822700  1
  C  C28  1  0.99499000  0.77442200  0.15822700  1
  C  C29  1  0.00501000  0.22557800  0.15822700  1
  C  C30  1  0.27442200  0.49499000  0.15822700  1
  C  C31  1  0.72557800  0.50501000  0.15822700  1
  C  C32  1  0.77442200  0.00501000  0.15822700  1
  C  C33  1  0.22557800  0.99499000  0.15822700  1
  C  C34  1  0.90433000  0.40433000  0.65981300  1
  C  C35  1  0.09567000  0.59567000  0.65981300  1
  C  C36  1  0.59567000  0.90433000  0.65981300  1
  C  C37  1  0.40433000  0.09567000  0.65981300  1
  C  C38  1  0.50000000  0.00000000  0.16932600  1
  C  C39  1  0.00000000  0.50000000  0.16932600  1
