# generated using pymatgen
data_Cu30Ni7C4
_symmetry_space_group_name_H-M   'P 1'
_cell_length_a   13.05479900
_cell_length_b   13.05479900
_cell_length_c   7.31041100
_cell_angle_alpha   90.00000000
_cell_angle_beta   90.00000000
_cell_angle_gamma   90.00000000
_symmetry_Int_Tables_number   1
_chemical_formula_structural   Cu30Ni7C4
_chemical_formula_sum   'Cu60 Ni14 C8'
_cell_volume   1245.89709518
_cell_formula_units_Z   2
loop_
 _symmetry_equiv_pos_site_id
 _symmetry_equiv_pos_as_xyz
  1  'x, y, z'
loop_
 _atom_site_type_symbol
 _atom_site_label
 _atom_site_symmetry_multiplicity
 _atom_site_fract_x
 _atom_site_fract_y
 _atom_site_fract_z
 _atom_site_occupancy
  C  C0  1  0.19945000  0.30055000  0.40767300  1
  C  C1  1  0.30055000  0.80055000  0.59232700  1
  C  C2  1  0.80055000  0.69945000  0.40767300  1
  C  C3  1  0.69945000  0.19945000  0.59232700  1
  C  C4  1  0.36322700  0.13677300  0.01558600  1
  C  C5  1  0.13677300  0.63677300  0.98441400  1
  C  C6  1  0.63677300  0.86322700  0.01558600  1
  C  C7  1  0.86322700  0.36322700  0.98441400  1
  Ni  Ni8  1  0.50000000  0.00000000  0.65601300  1
  Ni  Ni9  1  0.00000000  0.50000000  0.34398700  1
  Ni  Ni10  1  0.62273100  0.12273100  0.10158300  1
  Ni  Ni11  1  0.87726900  0.62273100  0.89841700  1
  Ni  Ni12  1  0.37726900  0.87726900  0.10158300  1
  Ni  Ni13  1  0.12273100  0.37726900  0.89841700  1
  Ni  Ni14  1  0.43529300  0.32476300  0.71186800  1
  Ni  Ni15  1  0.06470700  0.82476300  0.28813200  1
  Ni  Ni16  1  0.56470700  0.67523700  0.71186800  1
  Ni  Ni17  1  0.93529300  0.17523700  0.28813200  1
  Ni  Ni18  1  0.32476300  0.56470700  0.28813200  1
  Ni  Ni19  1  0.17523700  0.06470700  0.71186800  1
  Ni  Ni20  1  0.67523700  0.43529300  0.28813200  1
  Ni  Ni21  1  0.82476300  0.93529300  0.71186800  1
  Cu  Cu22  1  0.30330500  0.19669500  0.20575500  1
  Cu  Cu23  1  0.19669500  0.69669500  0.79424500  1
  Cu  Cu24  1  0.69669500  0.80330500  0.20575500  1
  Cu  Cu25  1  0.80330500  0.30330500  0.79424500  1
  Cu  Cu26  1  0.43381800  0.93381800  0.54341600  1
  Cu  Cu27  1  0.06618200  0.43381800  0.45658400  1
  Cu  Cu28  1  0.56618200  0.06618200  0.54341600  1
  Cu  Cu29  1  0.93381800  0.56618200  0.45658400  1
  Cu  Cu30  1  0.43449400  0.06550600  0.77527600  1
  Cu  Cu31  1  0.06550600  0.56550600  0.22472400  1
  Cu  Cu32  1  0.56550600  0.93449400  0.77527600  1
  Cu  Cu33  1  0.93449400  0.43449400  0.22472400  1
  Cu  Cu34  1  0.65672500  0.15672500  0.92223800  1
  Cu  Cu35  1  0.84327500  0.65672500  0.07776200  1
  Cu  Cu36  1  0.34327500  0.84327500  0.92223800  1
  Cu  Cu37  1  0.15672500  0.34327500  0.07776200  1
  Cu  Cu38  1  0.67373900  0.17373900  0.25356500  1
  Cu  Cu39  1  0.82626100  0.67373900  0.74643500  1
  Cu  Cu40  1  0.32626100  0.82626100  0.25356500  1
  Cu  Cu41  1  0.17373900  0.32626100  0.74643500  1
  Cu  Cu42  1  0.50909300  0.14047600  0.12231100  1
  Cu  Cu43  1  0.99090700  0.64047600  0.87768900  1
  Cu  Cu44  1  0.49090700  0.85952400  0.12231100  1
  Cu  Cu45  1  0.00909300  0.35952400  0.87768900  1
  Cu  Cu46  1  0.14047600  0.49090700  0.87768900  1
  Cu  Cu47  1  0.35952400  0.99090700  0.12231100  1
  Cu  Cu48  1  0.85952400  0.50909300  0.87768900  1
  Cu  Cu49  1  0.64047600  0.00909300  0.12231100  1
  Cu  Cu50  1  0.37108400  0.29314100  0.55594700  1
  Cu  Cu51  1  0.12891600  0.79314100  0.44405300  1
  Cu  Cu52  1  0.62891600  0.70685900  0.55594700  1
  Cu  Cu53  1  0.87108400  0.20685900  0.44405300  1
  Cu  Cu54  1  0.29314100  0.62891600  0.44405300  1
  Cu  Cu55  1  0.20685900  0.12891600  0.55594700  1
  Cu  Cu56  1  0.70685900  0.37108400  0.44405300  1
  Cu  Cu57  1  0.79314100  0.87108400  0.55594700  1
  Cu  Cu58  1  0.54240600  0.29429500  0.68568500  1
  Cu  Cu59  1  0.95759400  0.79429500  0.31431500  1
  Cu  Cu60  1  0.45759400  0.70570500  0.68568500  1
  Cu  Cu61  1  0.04240600  0.20570500  0.31431500  1
  Cu  Cu62  1  0.29429500  0.45759400  0.31431500  1
  Cu  Cu63  1  0.20570500  0.95759400  0.68568500  1
  Cu  Cu64  1  0.70570500  0.54240600  0.31431500  1
  Cu  Cu65  1  0.79429500  0.04240600  0.68568500  1
  Cu  Cu66  1  0.42412700  0.43449400  0.74744200  1
  Cu  Cu67  1  0.07587300  0.93449400  0.25255800  1
  Cu  Cu68  1  0.57587300  0.56550600  0.74744200  1
  Cu  Cu69  1  0.92412700  0.06550600  0.25255800  1
  Cu  Cu70  1  0.43449400  0.57587300  0.25255800  1
  Cu  Cu71  1  0.06550600  0.07587300  0.74744200  1
  Cu  Cu72  1  0.56550600  0.42412700  0.25255800  1
  Cu  Cu73  1  0.93449400  0.92412700  0.74744200  1
  Cu  Cu74  1  0.39416600  0.26752700  0.88143500  1
  Cu  Cu75  1  0.10583400  0.76752700  0.11856500  1
  Cu  Cu76  1  0.60583400  0.73247300  0.88143500  1
  Cu  Cu77  1  0.89416600  0.23247300  0.11856500  1
  Cu  Cu78  1  0.26752700  0.60583400  0.11856500  1
  Cu  Cu79  1  0.23247300  0.10583400  0.88143500  1
  Cu  Cu80  1  0.73247300  0.39416600  0.11856500  1
  Cu  Cu81  1  0.76752700  0.89416600  0.88143500  1
