# generated using pymatgen
data_Cu3NiC2
_symmetry_space_group_name_H-M   'P 1'
_cell_length_a   14.51086985
_cell_length_b   13.84968199
_cell_length_c   7.57746254
_cell_angle_alpha   79.38428836
_cell_angle_beta   69.73483858
_cell_angle_gamma   30.88087306
_symmetry_Int_Tables_number   1
_chemical_formula_structural   Cu3NiC2
_chemical_formula_sum   'Cu12 Ni4 C8'
_cell_volume   712.73338637
_cell_formula_units_Z   4
loop_
 _symmetry_equiv_pos_site_id
 _symmetry_equiv_pos_as_xyz
  1  'x, y, z'
loop_
 _atom_site_type_symbol
 _atom_site_label
 _atom_site_symmetry_multiplicity
 _atom_site_fract_x
 _atom_site_fract_y
 _atom_site_fract_z
 _atom_site_occupancy
  C  C0  1  0.58798500  0.24555700  0.23945400  1
  C  C1  1  0.92364000  0.57636000  0.92364000  1
  C  C2  1  0.23945400  0.92700400  0.58798500  1
  C  C3  1  0.00444300  0.66201500  0.32299600  1
  C  C4  1  0.32299600  0.01054600  0.00444300  1
  C  C5  1  0.67364000  0.32636000  0.67364000  1
  C  C6  1  0.41644200  0.08355800  0.41644200  1
  C  C7  1  0.16644200  0.83355800  0.16644200  1
  Ni  Ni8  1  0.75788600  0.40390800  0.07633000  1
  Ni  Ni9  1  0.07633000  0.76187600  0.75788600  1
  Ni  Ni10  1  0.48812400  0.17367000  0.84609200  1
  Ni  Ni11  1  0.84609200  0.49211400  0.48812400  1
  Cu  Cu12  1  0.69253600  0.65449800  0.88716500  1
  Cu  Cu13  1  0.04010100  0.97217000  0.52277900  1
  Cu  Cu14  1  0.36588400  0.30086600  0.23978900  1
  Cu  Cu15  1  0.23978900  0.09346000  0.36588400  1
  Cu  Cu16  1  0.52277900  0.46495000  0.04010100  1
  Cu  Cu17  1  0.88716500  0.76580100  0.69253600  1
  Cu  Cu18  1  0.27783000  0.20989900  0.78505000  1
  Cu  Cu19  1  0.59550200  0.55746400  0.48419900  1
  Cu  Cu20  1  0.94913400  0.88411600  0.15654000  1
  Cu  Cu21  1  0.48419900  0.36283500  0.59550200  1
  Cu  Cu22  1  0.78505000  0.72722100  0.27783000  1
  Cu  Cu23  1  0.15654000  0.01021100  0.94913400  1
