# generated using pymatgen
data_Cu4Ni3C2
_symmetry_space_group_name_H-M   'P 1'
_cell_length_a   8.94241647
_cell_length_b   8.94241647
_cell_length_c   11.27294852
_cell_angle_alpha   75.76026307
_cell_angle_beta   75.76026307
_cell_angle_gamma   43.05791173
_symmetry_Int_Tables_number   1
_chemical_formula_structural   Cu4Ni3C2
_chemical_formula_sum   'Cu16 Ni12 C8'
_cell_volume   593.55437238
_cell_formula_units_Z   4
loop_
 _symmetry_equiv_pos_site_id
 _symmetry_equiv_pos_as_xyz
  1  'x, y, z'
loop_
 _atom_site_type_symbol
 _atom_site_label
 _atom_site_symmetry_multiplicity
 _atom_site_fract_x
 _atom_site_fract_y
 _atom_site_fract_z
 _atom_site_occupancy
  C  C0  1  0.22865400  0.71829000  0.96842200  1
  C  C1  1  0.28171000  0.77134600  0.53157800  1
  C  C2  1  0.77134600  0.28171000  0.03157800  1
  C  C3  1  0.71829000  0.22865400  0.46842200  1
  C  C4  1  0.24297200  0.75702800  0.25000000  1
  C  C5  1  0.75702800  0.24297200  0.75000000  1
  C  C6  1  0.00000000  0.50000000  0.00000000  1
  C  C7  1  0.50000000  0.00000000  0.50000000  1
  Ni  Ni8  1  0.35198800  0.87866300  0.20837700  1
  Ni  Ni9  1  0.12133700  0.64801200  0.29162300  1
  Ni  Ni10  1  0.64801200  0.12133700  0.79162300  1
  Ni  Ni11  1  0.87866300  0.35198800  0.70837700  1
  Ni  Ni12  1  0.97073700  0.34010600  0.20750700  1
  Ni  Ni13  1  0.65989400  0.02926300  0.29249300  1
  Ni  Ni14  1  0.02926300  0.65989400  0.79249300  1
  Ni  Ni15  1  0.34010600  0.97073700  0.70750700  1
  Ni  Ni16  1  0.41939200  0.92229600  0.80148200  1
  Ni  Ni17  1  0.07770400  0.58060800  0.69851800  1
  Ni  Ni18  1  0.58060800  0.07770400  0.19851800  1
  Ni  Ni19  1  0.92229600  0.41939200  0.30148200  1
  Cu  Cu20  1  0.55766200  0.43910000  0.86831700  1
  Cu  Cu21  1  0.56090000  0.44233800  0.63168300  1
  Cu  Cu22  1  0.44233800  0.56090000  0.13168300  1
  Cu  Cu23  1  0.43910000  0.55766200  0.36831700  1
  Cu  Cu24  1  0.95080600  0.04720600  0.87080700  1
  Cu  Cu25  1  0.95279400  0.04919400  0.62919300  1
  Cu  Cu26  1  0.04919400  0.95279400  0.12919300  1
  Cu  Cu27  1  0.04720600  0.95080600  0.37080700  1
  Cu  Cu28  1  0.15864700  0.52688800  0.05617800  1
  Cu  Cu29  1  0.47311200  0.84135300  0.44382200  1
  Cu  Cu30  1  0.84135300  0.47311200  0.94382200  1
  Cu  Cu31  1  0.52688800  0.15864700  0.55617800  1
  Cu  Cu32  1  0.74540400  0.77228800  0.04556100  1
  Cu  Cu33  1  0.22771200  0.25459600  0.45443900  1
  Cu  Cu34  1  0.25459600  0.22771200  0.95443900  1
  Cu  Cu35  1  0.77228800  0.74540400  0.54556100  1
