# generated using pymatgen
data_Cu4Ni4C5
_symmetry_space_group_name_H-M   'P 1'
_cell_length_a   12.03944300
_cell_length_b   6.81088900
_cell_length_c   12.21897109
_cell_angle_alpha   69.92807860
_cell_angle_beta   90.00000000
_cell_angle_gamma   90.00000000
_symmetry_Int_Tables_number   1
_chemical_formula_structural   Cu4Ni4C5
_chemical_formula_sum   'Cu16 Ni16 C20'
_cell_volume   941.09148379
_cell_formula_units_Z   4
loop_
 _symmetry_equiv_pos_site_id
 _symmetry_equiv_pos_as_xyz
  1  'x, y, z'
loop_
 _atom_site_type_symbol
 _atom_site_label
 _atom_site_symmetry_multiplicity
 _atom_site_fract_x
 _atom_site_fract_y
 _atom_site_fract_z
 _atom_site_occupancy
  C  C0  1  0.05524600  0.75447400  0.26210800  1
  C  C1  1  0.44475400  0.75447400  0.76210800  1
  C  C2  1  0.94475400  0.24552600  0.73789200  1
  C  C3  1  0.55524600  0.24552600  0.23789200  1
  Ni  Ni4  1  0.75968200  0.93150800  0.08562300  1
  Ni  Ni5  1  0.74031800  0.93150800  0.58562300  1
  Ni  Ni6  1  0.24031800  0.06849200  0.91437700  1
  Ni  Ni7  1  0.25968200  0.06849200  0.41437700  1
  Ni  Ni8  1  0.60848000  0.22991100  0.91607900  1
  Ni  Ni9  1  0.89152000  0.22991100  0.41607900  1
  Ni  Ni10  1  0.39152000  0.77008900  0.08392100  1
  Ni  Ni11  1  0.10848000  0.77008900  0.58392100  1
  Ni  Ni12  1  0.75532800  0.58604600  0.91339000  1
  Ni  Ni13  1  0.74467200  0.58604600  0.41339000  1
  Ni  Ni14  1  0.24467200  0.41395400  0.08661000  1
  Ni  Ni15  1  0.25532800  0.41395400  0.58661000  1
  Ni  Ni16  1  0.90285800  0.28926800  0.08846700  1
  Ni  Ni17  1  0.59714200  0.28926800  0.58846700  1
  Ni  Ni18  1  0.09714200  0.71073200  0.91153300  1
  Ni  Ni19  1  0.40285800  0.71073200  0.41153300  1
  Cu  Cu20  1  0.86334000  0.08152800  0.06938600  1
  Cu  Cu21  1  0.63666000  0.08152800  0.56938600  1
  Cu  Cu22  1  0.13666000  0.91847200  0.93061400  1
  Cu  Cu23  1  0.36334000  0.91847200  0.43061400  1
  Cu  Cu24  1  0.65188600  0.02501400  0.01311900  1
  Cu  Cu25  1  0.84811400  0.02501400  0.51311900  1
  Cu  Cu26  1  0.34811400  0.97498600  0.98688100  1
  Cu  Cu27  1  0.15188600  0.97498600  0.48688100  1
  Cu  Cu28  1  0.69213900  0.42098200  0.87101900  1
  Cu  Cu29  1  0.80786100  0.42098200  0.37101900  1
  Cu  Cu30  1  0.30786100  0.57901800  0.12898100  1
  Cu  Cu31  1  0.19213900  0.57901800  0.62898100  1
  Cu  Cu32  1  0.84427200  0.49885900  0.01297500  1
  Cu  Cu33  1  0.65572800  0.49885900  0.51297500  1
  Cu  Cu34  1  0.15572800  0.50114100  0.98702500  1
  Cu  Cu35  1  0.34427200  0.50114100  0.48702500  1
  C  C36  1  0.96004200  0.83734200  0.29969300  1
  C  C37  1  0.53995800  0.83734200  0.79969300  1
  C  C38  1  0.03995800  0.16265800  0.70030700  1
  C  C39  1  0.46004200  0.16265800  0.20030700  1
  C  C40  1  0.02248600  0.63383200  0.19339200  1
  C  C41  1  0.47751400  0.63383200  0.69339200  1
  C  C42  1  0.97751400  0.36616800  0.80660800  1
  C  C43  1  0.52248600  0.36616800  0.30660800  1
  C  C44  1  0.12572200  0.92092900  0.19629000  1
  C  C45  1  0.37427800  0.92092900  0.69629000  1
  C  C46  1  0.87427800  0.07907100  0.80371000  1
  C  C47  1  0.62572200  0.07907100  0.30371000  1
  C  C48  1  0.11432800  0.62441500  0.36229500  1
  C  C49  1  0.38567200  0.62441500  0.86229500  1
  C  C50  1  0.88567200  0.37558500  0.63770500  1
  C  C51  1  0.61432800  0.37558500  0.13770500  1
