# generated using pymatgen
data_Cu2Ni4C
_symmetry_space_group_name_H-M   'P 1'
_cell_length_a   9.26458281
_cell_length_b   7.83941800
_cell_length_c   8.63689063
_cell_angle_alpha   90.00000000
_cell_angle_beta   108.83181333
_cell_angle_gamma   90.00000000
_symmetry_Int_Tables_number   1
_chemical_formula_structural   Cu2Ni4C
_chemical_formula_sum   'Cu16 Ni32 C8'
_cell_volume   593.70956188
_cell_formula_units_Z   8
loop_
 _symmetry_equiv_pos_site_id
 _symmetry_equiv_pos_as_xyz
  1  'x, y, z'
loop_
 _atom_site_type_symbol
 _atom_site_label
 _atom_site_symmetry_multiplicity
 _atom_site_fract_x
 _atom_site_fract_y
 _atom_site_fract_z
 _atom_site_occupancy
  C  C0  1  0.82302100  0.27534700  0.75356000  1
  C  C1  1  0.17697900  0.77534700  0.74644000  1
  C  C2  1  0.17697900  0.72465300  0.24644000  1
  C  C3  1  0.82302100  0.22465300  0.25356000  1
  C  C4  1  0.42478700  0.95822100  0.62372600  1
  C  C5  1  0.57521300  0.45822100  0.87627400  1
  C  C6  1  0.57521300  0.04177900  0.37627400  1
  C  C7  1  0.42478700  0.54177900  0.12372600  1
  Ni  Ni8  1  0.28758100  0.09240400  0.33526400  1
  Ni  Ni9  1  0.71241900  0.59240400  0.16473600  1
  Ni  Ni10  1  0.71241900  0.90759600  0.66473600  1
  Ni  Ni11  1  0.28758100  0.40759600  0.83526400  1
  Ni  Ni12  1  0.39871700  0.37864500  0.36547800  1
  Ni  Ni13  1  0.60128300  0.87864500  0.13452200  1
  Ni  Ni14  1  0.60128300  0.62135500  0.63452200  1
  Ni  Ni15  1  0.39871700  0.12135500  0.86547800  1
  Ni  Ni16  1  0.92719700  0.62941000  0.02515200  1
  Ni  Ni17  1  0.07280300  0.12941000  0.47484800  1
  Ni  Ni18  1  0.07280300  0.37059000  0.97484800  1
  Ni  Ni19  1  0.92719700  0.87059000  0.52515200  1
  Ni  Ni20  1  0.88948800  0.01603800  0.98522800  1
  Ni  Ni21  1  0.11051200  0.51603800  0.51477200  1
  Ni  Ni22  1  0.11051200  0.98396200  0.01477200  1
  Ni  Ni23  1  0.88948800  0.48396200  0.48522800  1
  Ni  Ni24  1  0.30937900  0.69279800  0.01264600  1
  Ni  Ni25  1  0.69062100  0.19279800  0.48735400  1
  Ni  Ni26  1  0.69062100  0.30720200  0.98735400  1
  Ni  Ni27  1  0.30937900  0.80720200  0.51264600  1
  Ni  Ni28  1  0.04390100  0.30722600  0.02408100  1
  Ni  Ni29  1  0.95609900  0.80722600  0.47591900  1
  Ni  Ni30  1  0.95609900  0.69277400  0.97591900  1
  Ni  Ni31  1  0.04390100  0.19277400  0.52408100  1
  Ni  Ni32  1  0.45844300  0.16372400  0.07360700  1
  Ni  Ni33  1  0.54155700  0.66372400  0.42639300  1
  Ni  Ni34  1  0.54155700  0.83627600  0.92639300  1
  Ni  Ni35  1  0.45844300  0.33627600  0.57360700  1
  Ni  Ni36  1  0.27058600  0.16518900  0.96736800  1
  Ni  Ni37  1  0.72941400  0.66518900  0.53263200  1
  Ni  Ni38  1  0.72941400  0.83481100  0.03263200  1
  Ni  Ni39  1  0.27058600  0.33481100  0.46736800  1
  Cu  Cu40  1  0.61280300  0.87973900  0.56987600  1
  Cu  Cu41  1  0.38719700  0.37973900  0.93012400  1
  Cu  Cu42  1  0.38719700  0.12026100  0.43012400  1
  Cu  Cu43  1  0.61280300  0.62026100  0.06987600  1
  Cu  Cu44  1  0.62240200  0.80137300  0.03955000  1
  Cu  Cu45  1  0.37759800  0.30137300  0.46045000  1
  Cu  Cu46  1  0.37759800  0.19862700  0.96045000  1
  Cu  Cu47  1  0.62240200  0.69862700  0.53955000  1
  Cu  Cu48  1  0.09749400  0.49279700  0.65404400  1
  Cu  Cu49  1  0.90250600  0.99279700  0.84595600  1
  Cu  Cu50  1  0.90250600  0.50720300  0.34595600  1
  Cu  Cu51  1  0.09749400  0.00720300  0.15404400  1
  Cu  Cu52  1  0.96146900  0.04528500  0.13150700  1
  Cu  Cu53  1  0.03853100  0.54528500  0.36849300  1
  Cu  Cu54  1  0.03853100  0.95471500  0.86849300  1
  Cu  Cu55  1  0.96146900  0.45471500  0.63150700  1
