# generated using pymatgen
data_Cu2NiC8
_symmetry_space_group_name_H-M   'P 1'
_cell_length_a   7.56430448
_cell_length_b   7.56430448
_cell_length_c   7.56430448
_cell_angle_alpha   120.06525812
_cell_angle_beta   120.00236564
_cell_angle_gamma   89.94145471
_symmetry_Int_Tables_number   1
_chemical_formula_structural   Cu2NiC8
_chemical_formula_sum   'Cu4 Ni2 C16'
_cell_volume   305.89303434
_cell_formula_units_Z   2
loop_
 _symmetry_equiv_pos_site_id
 _symmetry_equiv_pos_as_xyz
  1  'x, y, z'
loop_
 _atom_site_type_symbol
 _atom_site_label
 _atom_site_symmetry_multiplicity
 _atom_site_fract_x
 _atom_site_fract_y
 _atom_site_fract_z
 _atom_site_occupancy
  Ni  Ni0  1  0.50000000  0.50000000  0.50000000  1
  Ni  Ni1  1  0.50000000  0.00000000  0.00000000  1
  C  C2  1  0.50000000  0.50000000  0.00000000  1
  C  C3  1  0.00000000  0.50000000  0.50000000  1
  Cu  Cu4  1  0.00000000  0.00000000  0.50000000  1
  Cu  Cu5  1  0.00000000  0.50000000  0.00000000  1
  Cu  Cu6  1  0.00000000  0.00000000  0.00000000  1
  Cu  Cu7  1  0.50000000  0.00000000  0.50000000  1
  C  C8  1  0.36595600  0.61595600  0.75000000  1
  C  C9  1  0.63404400  0.38404400  0.25000000  1
  C  C10  1  0.33804400  0.08804400  0.25000000  1
  C  C11  1  0.91205900  0.66205900  0.25000000  1
  C  C12  1  0.33806900  0.66149500  0.24688700  1
  C  C13  1  0.91460800  0.09118200  0.25311300  1
  C  C14  1  0.33806900  0.09118200  0.67657400  1
  C  C15  1  0.91460800  0.66149500  0.82342600  1
  C  C16  1  0.66195600  0.91195600  0.75000000  1
  C  C17  1  0.08794100  0.33794100  0.75000000  1
  C  C18  1  0.66193100  0.33850500  0.75311300  1
  C  C19  1  0.08539200  0.90881800  0.74688700  1
  C  C20  1  0.66193100  0.90881800  0.32342600  1
  C  C21  1  0.08539200  0.33850500  0.17657400  1
