# generated using pymatgen
data_Cu3NiC30
_symmetry_space_group_name_H-M   'P 1'
_cell_length_a   8.71518429
_cell_length_b   8.71543602
_cell_length_c   8.71787148
_cell_angle_alpha   57.67529910
_cell_angle_beta   57.67444415
_cell_angle_gamma   57.67928026
_symmetry_Int_Tables_number   1
_chemical_formula_structural   Cu3NiC30
_chemical_formula_sum   'Cu3 Ni1 C30'
_cell_volume   443.23134374
_cell_formula_units_Z   1
loop_
 _symmetry_equiv_pos_site_id
 _symmetry_equiv_pos_as_xyz
  1  'x, y, z'
loop_
 _atom_site_type_symbol
 _atom_site_label
 _atom_site_symmetry_multiplicity
 _atom_site_fract_x
 _atom_site_fract_y
 _atom_site_fract_z
 _atom_site_occupancy
  Ni  Ni0  1  0.46707900  0.46705000  0.46623100  1
  Cu  Cu1  1  0.15173200  0.15181200  0.15153900  1
  Cu  Cu2  1  0.64339500  0.64337300  0.64314800  1
  Cu  Cu3  1  0.85291400  0.85288200  0.85270800  1
  C  C4  1  0.03877500  0.75909000  0.46055800  1
  C  C5  1  0.46084900  0.03897800  0.75877900  1
  C  C6  1  0.75909400  0.46079100  0.03846500  1
  C  C7  1  0.25826300  0.54253800  0.95189100  1
  C  C8  1  0.54244500  0.95163000  0.25822000  1
  C  C9  1  0.95194100  0.25830300  0.54225600  1
  C  C10  1  0.08846300  0.30875800  0.53411500  1
  C  C11  1  0.30845400  0.53484900  0.08830500  1
  C  C12  1  0.00416800  0.96412300  0.32915500  1
  C  C13  1  0.53470000  0.08783700  0.30874900  1
  C  C14  1  0.01595800  0.72925700  0.65740900  1
  C  C15  1  0.23924200  0.63793600  0.38378200  1
  C  C16  1  0.38416300  0.23939700  0.63747200  1
  C  C17  1  0.32935300  0.00448500  0.96371200  1
  C  C18  1  0.63785800  0.38390200  0.23883200  1
  C  C19  1  0.05180400  0.67652000  0.97291600  1
  C  C20  1  0.28007000  0.34866400  0.97551300  1
  C  C21  1  0.34866600  0.97537200  0.27973500  1
  C  C22  1  0.65769300  0.01627700  0.72902200  1
  C  C23  1  0.72901600  0.65775800  0.01574700  1
  C  C24  1  0.96414700  0.32955900  0.00393100  1
  C  C25  1  0.38567500  0.61372400  0.74206700  1
  C  C26  1  0.67667100  0.97276900  0.05189400  1
  C  C27  1  0.61335300  0.74167600  0.38570300  1
  C  C28  1  0.74205800  0.38570400  0.61348800  1
  C  C29  1  0.97529600  0.27987600  0.34864300  1
  C  C30  1  0.48284100  0.89530400  0.70008400  1
  C  C31  1  0.97312300  0.05190200  0.67646600  1
  C  C32  1  0.70042300  0.48259600  0.89489300  1
  C  C33  1  0.89527000  0.70026400  0.48238600  1
