# generated using pymatgen
data_Cu14Ni2C23
_symmetry_space_group_name_H-M   'P 1'
_cell_length_a   6.38681617
_cell_length_b   9.35127638
_cell_length_c   12.65514300
_cell_angle_alpha   90.00000000
_cell_angle_beta   90.00000000
_cell_angle_gamma   106.78222145
_symmetry_Int_Tables_number   1
_chemical_formula_structural   Cu14Ni2C23
_chemical_formula_sum   'Cu28 Ni4 C46'
_cell_volume   723.63561500
_cell_formula_units_Z   2
loop_
 _symmetry_equiv_pos_site_id
 _symmetry_equiv_pos_as_xyz
  1  'x, y, z'
loop_
 _atom_site_type_symbol
 _atom_site_label
 _atom_site_symmetry_multiplicity
 _atom_site_fract_x
 _atom_site_fract_y
 _atom_site_fract_z
 _atom_site_occupancy
  C  C0  1  0.50000000  0.00000000  0.00000000  1
  C  C1  1  0.50000000  0.50000000  0.50000000  1
  C  C2  1  0.56233000  0.77082600  0.60253900  1
  C  C3  1  0.43767000  0.22917400  0.39746100  1
  C  C4  1  0.43767000  0.72917400  0.10253900  1
  C  C5  1  0.56233000  0.27082600  0.89746100  1
  C  C6  1  0.12791200  0.83186800  0.57989700  1
  C  C7  1  0.87208800  0.16813200  0.42010300  1
  C  C8  1  0.87208800  0.66813200  0.07989700  1
  C  C9  1  0.12791200  0.33186800  0.92010300  1
  C  C10  1  0.84601800  0.90105100  0.93624200  1
  C  C11  1  0.15398200  0.09894900  0.06375800  1
  C  C12  1  0.15398200  0.59894900  0.43624200  1
  C  C13  1  0.84601800  0.40105100  0.56375800  1
  C  C14  1  0.95295000  0.56936200  0.17714300  1
  C  C15  1  0.04705000  0.43063800  0.82285700  1
  C  C16  1  0.04705000  0.93063800  0.67714300  1
  C  C17  1  0.95295000  0.06936200  0.32285700  1
  C  C18  1  0.83255900  0.52181400  0.64891300  1
  C  C19  1  0.16744100  0.47818600  0.35108700  1
  C  C20  1  0.16744100  0.97818600  0.14891300  1
  C  C21  1  0.83255900  0.02181400  0.85108700  1
  C  C22  1  0.40454400  0.73854600  0.87987100  1
  C  C23  1  0.59545600  0.26145400  0.12012900  1
  C  C24  1  0.59545600  0.76145400  0.37987100  1
  C  C25  1  0.40454400  0.23854600  0.62012900  1
  C  C26  1  0.82350400  0.73332900  0.41169100  1
  C  C27  1  0.17649600  0.26667100  0.58830900  1
  C  C28  1  0.17649600  0.76667100  0.91169100  1
  C  C29  1  0.82350400  0.23332900  0.08830900  1
  C  C30  1  0.88746700  0.72757200  0.20758500  1
  C  C31  1  0.11253300  0.27242800  0.79241500  1
  C  C32  1  0.11253300  0.77242800  0.70758500  1
  C  C33  1  0.88746700  0.22757200  0.29241500  1
  C  C34  1  0.30921400  0.93031000  0.66950200  1
  C  C35  1  0.69078600  0.06969000  0.33049800  1
  C  C36  1  0.69078600  0.56969000  0.16950200  1
  C  C37  1  0.30921400  0.43031000  0.83049800  1
  C  C38  1  0.51001200  0.64735500  0.69253700  1
  C  C39  1  0.48998800  0.35264500  0.30746300  1
  C  C40  1  0.48998800  0.85264500  0.19253700  1
  C  C41  1  0.51001200  0.14735500  0.80746300  1
  C  C42  1  0.76567100  0.58609900  0.86887200  1
  C  C43  1  0.23432900  0.41390100  0.13112800  1
  C  C44  1  0.23432900  0.91390100  0.36887200  1
  C  C45  1  0.76567100  0.08609900  0.63112800  1
  Ni  Ni46  1  0.85113800  0.63489200  0.15890000  1
  Ni  Ni47  1  0.14886200  0.36510800  0.84110000  1
  Ni  Ni48  1  0.14886200  0.86510800  0.65890000  1
  Ni  Ni49  1  0.85113800  0.13489200  0.34110000  1
  Cu  Cu50  1  0.71689600  0.94656400  0.56950700  1
  Cu  Cu51  1  0.28310400  0.05343600  0.43049300  1
  Cu  Cu52  1  0.28310400  0.55343600  0.06950700  1
  Cu  Cu53  1  0.71689600  0.44656400  0.93049300  1
  Cu  Cu54  1  0.80682400  0.99523700  0.92677900  1
  Cu  Cu55  1  0.19317600  0.00476300  0.07322100  1
  Cu  Cu56  1  0.19317600  0.50476300  0.42677900  1
  Cu  Cu57  1  0.80682400  0.49523700  0.57322100  1
  Cu  Cu58  1  0.91558600  0.57898900  0.77816500  1
  Cu  Cu59  1  0.08441400  0.42101100  0.22183500  1
  Cu  Cu60  1  0.08441400  0.92101100  0.27816500  1
  Cu  Cu61  1  0.91558600  0.07898900  0.72183500  1
  Cu  Cu62  1  0.47248100  0.66692200  0.61906200  1
  Cu  Cu63  1  0.52751900  0.33307800  0.38093800  1
  Cu  Cu64  1  0.52751900  0.83307800  0.11906200  1
  Cu  Cu65  1  0.47248100  0.16692200  0.88093800  1
  Cu  Cu66  1  0.88241900  0.71568200  0.93769800  1
  Cu  Cu67  1  0.11758100  0.28431800  0.06230200  1
  Cu  Cu68  1  0.11758100  0.78431800  0.43769800  1
  Cu  Cu69  1  0.88241900  0.21568200  0.56230200  1
  Cu  Cu70  1  0.55854400  0.61039600  0.82646100  1
  Cu  Cu71  1  0.44145600  0.38960400  0.17354000  1
  Cu  Cu72  1  0.44145600  0.88960400  0.32646000  1
  Cu  Cu73  1  0.55854400  0.11039600  0.67353900  1
  Cu  Cu74  1  0.33105100  0.81646700  0.89285500  1
  Cu  Cu75  1  0.66894900  0.18353300  0.10714500  1
  Cu  Cu76  1  0.66894900  0.68353300  0.39285500  1
  Cu  Cu77  1  0.33105100  0.31646700  0.60714500  1
