# generated using pymatgen
data_CuNiC12
_symmetry_space_group_name_H-M   'P 1'
_cell_length_a   6.12443421
_cell_length_b   8.31820200
_cell_length_c   19.35441814
_cell_angle_alpha   90.00000000
_cell_angle_beta   91.12338898
_cell_angle_gamma   90.00000000
_symmetry_Int_Tables_number   1
_chemical_formula_structural   CuNiC12
_chemical_formula_sum   'Cu4 Ni4 C48'
_cell_volume   985.80739805
_cell_formula_units_Z   4
loop_
 _symmetry_equiv_pos_site_id
 _symmetry_equiv_pos_as_xyz
  1  'x, y, z'
loop_
 _atom_site_type_symbol
 _atom_site_label
 _atom_site_symmetry_multiplicity
 _atom_site_fract_x
 _atom_site_fract_y
 _atom_site_fract_z
 _atom_site_occupancy
  C  C0  1  0.96302300  0.45908400  0.23076400  1
  C  C1  1  0.03697700  0.54091600  0.76923600  1
  C  C2  1  0.53697700  0.95908400  0.26923600  1
  C  C3  1  0.46302300  0.04091600  0.73076400  1
  C  C4  1  0.81419800  0.72603600  0.03702500  1
  C  C5  1  0.18580200  0.27396400  0.96297500  1
  C  C6  1  0.68580200  0.22603600  0.46297500  1
  C  C7  1  0.31419800  0.77396400  0.53702500  1
  C  C8  1  0.56479200  0.50458000  0.26946800  1
  C  C9  1  0.43520800  0.49542000  0.73053200  1
  C  C10  1  0.93520800  0.00458000  0.23053200  1
  C  C11  1  0.06479200  0.99542000  0.76946800  1
  C  C12  1  0.67584500  0.42389700  0.06883700  1
  C  C13  1  0.32415500  0.57610300  0.93116300  1
  C  C14  1  0.82415500  0.92389700  0.43116300  1
  C  C15  1  0.17584500  0.07610300  0.56883700  1
  Ni  Ni16  1  0.23475600  0.72544100  0.36373900  1
  Ni  Ni17  1  0.76524400  0.27455900  0.63626100  1
  Ni  Ni18  1  0.26524400  0.22544100  0.13626100  1
  Ni  Ni19  1  0.73475600  0.77455900  0.86373900  1
  Cu  Cu20  1  0.78366500  0.92097200  0.05917000  1
  Cu  Cu21  1  0.21633500  0.07902800  0.94083000  1
  Cu  Cu22  1  0.71633500  0.42097200  0.44083000  1
  Cu  Cu23  1  0.28366500  0.57902800  0.55917000  1
  C  C24  1  0.23474900  0.24332500  0.37481400  1
  C  C25  1  0.76525100  0.75667500  0.62518600  1
  C  C26  1  0.26525100  0.74332500  0.12518600  1
  C  C27  1  0.73474900  0.25667500  0.87481400  1
  C  C28  1  0.07458500  0.22671000  0.08259200  1
  C  C29  1  0.92541500  0.77329000  0.91740800  1
  C  C30  1  0.42541500  0.72671000  0.41740800  1
  C  C31  1  0.57458500  0.27329000  0.58259200  1
  C  C32  1  0.25498000  0.57589600  0.31458800  1
  C  C33  1  0.74502000  0.42410400  0.68541200  1
  C  C34  1  0.24502000  0.07589600  0.18541200  1
  C  C35  1  0.75498000  0.92410400  0.81458800  1
  C  C36  1  0.23826300  0.88526500  0.32022800  1
  C  C37  1  0.76173700  0.11473500  0.67977200  1
  C  C38  1  0.26173700  0.38526500  0.17977200  1
  C  C39  1  0.73826300  0.61473500  0.82022800  1
  C  C40  1  0.08932700  0.73561800  0.15960000  1
  C  C41  1  0.91067300  0.26438200  0.84040000  1
  C  C42  1  0.41067300  0.23561800  0.34040000  1
  C  C43  1  0.58932700  0.76438200  0.65960000  1
  C  C44  1  0.25287300  0.75280600  0.05983000  1
  C  C45  1  0.74712700  0.24719400  0.94017000  1
  C  C46  1  0.24712700  0.25280600  0.44017000  1
  C  C47  1  0.75287300  0.74719400  0.55983000  1
  C  C48  1  0.00628800  0.71074800  0.39693100  1
  C  C49  1  0.99371200  0.28925200  0.60306900  1
  C  C50  1  0.49371200  0.21074800  0.10306900  1
  C  C51  1  0.50628800  0.78925200  0.89693100  1
  C  C52  1  0.44808500  0.74101800  0.15581200  1
  C  C53  1  0.55191500  0.25898200  0.84418800  1
  C  C54  1  0.05191500  0.24101800  0.34418800  1
  C  C55  1  0.94808500  0.75898200  0.65581200  1
