# generated using pymatgen
data_Cu9(NiC)2
_symmetry_space_group_name_H-M   'P 1'
_cell_length_a   8.51484200
_cell_length_b   10.63305381
_cell_length_c   10.09954098
_cell_angle_alpha   120.29121460
_cell_angle_beta   90.00000000
_cell_angle_gamma   90.00000000
_symmetry_Int_Tables_number   1
_chemical_formula_structural   Cu9(NiC)2
_chemical_formula_sum   'Cu36 Ni8 C8'
_cell_volume   789.55966487
_cell_formula_units_Z   4
loop_
 _symmetry_equiv_pos_site_id
 _symmetry_equiv_pos_as_xyz
  1  'x, y, z'
loop_
 _atom_site_type_symbol
 _atom_site_label
 _atom_site_symmetry_multiplicity
 _atom_site_fract_x
 _atom_site_fract_y
 _atom_site_fract_z
 _atom_site_occupancy
  C  C0  1  0.33922400  0.67727100  0.95767100  1
  C  C1  1  0.66077600  0.32272900  0.04232900  1
  C  C2  1  0.83922400  0.82272900  0.54232900  1
  C  C3  1  0.16077600  0.17727100  0.45767100  1
  C  C4  1  0.37307800  0.97007400  0.71818000  1
  C  C5  1  0.62692200  0.02992600  0.28182000  1
  C  C6  1  0.87307800  0.52992600  0.78182000  1
  C  C7  1  0.12692200  0.47007400  0.21818000  1
  Ni  Ni8  1  0.13154200  0.31473100  0.87719900  1
  Ni  Ni9  1  0.86845800  0.68526900  0.12280100  1
  Ni  Ni10  1  0.63154200  0.18526900  0.62280100  1
  Ni  Ni11  1  0.36845800  0.81473100  0.37719900  1
  Ni  Ni12  1  0.19653400  0.61212200  0.59853700  1
  Ni  Ni13  1  0.80346600  0.38787800  0.40146300  1
  Ni  Ni14  1  0.69653400  0.88787800  0.90146300  1
  Ni  Ni15  1  0.30346600  0.11212200  0.09853700  1
  Cu  Cu16  1  0.79687300  0.01926600  0.97138300  1
  Cu  Cu17  1  0.20312700  0.98073400  0.02861700  1
  Cu  Cu18  1  0.29687300  0.48073400  0.52861700  1
  Cu  Cu19  1  0.70312700  0.51926600  0.47138300  1
  Cu  Cu20  1  0.20385700  0.17480800  0.76343800  1
  Cu  Cu21  1  0.79614300  0.82519200  0.23656200  1
  Cu  Cu22  1  0.70385700  0.32519200  0.73656200  1
  Cu  Cu23  1  0.29614300  0.67480800  0.26343800  1
  Cu  Cu24  1  0.29685000  0.74639000  0.68271100  1
  Cu  Cu25  1  0.70315000  0.25361000  0.31728900  1
  Cu  Cu26  1  0.79685000  0.75361000  0.81728900  1
  Cu  Cu27  1  0.20315000  0.24639000  0.18271100  1
  Cu  Cu28  1  0.39544300  0.12155500  0.97844700  1
  Cu  Cu29  1  0.60455700  0.87844500  0.02155300  1
  Cu  Cu30  1  0.89544300  0.37844500  0.52155300  1
  Cu  Cu31  1  0.10455700  0.62155500  0.47844700  1
  Cu  Cu32  1  0.12387800  0.93859300  0.77821400  1
  Cu  Cu33  1  0.87612200  0.06140700  0.22178600  1
  Cu  Cu34  1  0.62387800  0.56140700  0.72178600  1
  Cu  Cu35  1  0.37612200  0.43859300  0.27821400  1
  Cu  Cu36  1  0.25219700  0.41757500  0.98782900  1
  Cu  Cu37  1  0.74780300  0.58242500  0.01217100  1
  Cu  Cu38  1  0.75219700  0.08242500  0.51217100  1
  Cu  Cu39  1  0.24780300  0.91757500  0.48782900  1
  Cu  Cu40  1  0.01120000  0.30038900  0.97573200  1
  Cu  Cu41  1  0.98880000  0.69961100  0.02426800  1
  Cu  Cu42  1  0.51120000  0.19961100  0.52426800  1
  Cu  Cu43  1  0.48880000  0.80038900  0.47573200  1
  Cu  Cu44  1  0.06001300  0.38038100  0.79072600  1
  Cu  Cu45  1  0.93998700  0.61961900  0.20927400  1
  Cu  Cu46  1  0.56001300  0.11961900  0.70927400  1
  Cu  Cu47  1  0.43998700  0.88038100  0.29072600  1
  Cu  Cu48  1  0.59150700  0.88979100  0.78569900  1
  Cu  Cu49  1  0.40849300  0.11020900  0.21430100  1
  Cu  Cu50  1  0.09150700  0.61020900  0.71430100  1
  Cu  Cu51  1  0.90849300  0.38979100  0.28569900  1
