# generated using pymatgen
data_Cu2Ni4C17
_symmetry_space_group_name_H-M   'P 1'
_cell_length_a   9.88877394
_cell_length_b   9.88877394
_cell_length_c   10.77139370
_cell_angle_alpha   58.90351327
_cell_angle_beta   58.90351327
_cell_angle_gamma   48.56273061
_symmetry_Int_Tables_number   1
_chemical_formula_structural   Cu2Ni4C17
_chemical_formula_sum   'Cu4 Ni8 C34'
_cell_volume   650.66149981
_cell_formula_units_Z   2
loop_
 _symmetry_equiv_pos_site_id
 _symmetry_equiv_pos_as_xyz
  1  'x, y, z'
loop_
 _atom_site_type_symbol
 _atom_site_label
 _atom_site_symmetry_multiplicity
 _atom_site_fract_x
 _atom_site_fract_y
 _atom_site_fract_z
 _atom_site_occupancy
  C  C0  1  0.25259200  0.15962400  0.53478400  1
  C  C1  1  0.84037600  0.74740800  0.96521600  1
  C  C2  1  0.15962400  0.25259200  0.03478400  1
  C  C3  1  0.65849400  0.34150600  0.25000000  1
  C  C4  1  0.74740800  0.84037600  0.46521600  1
  C  C5  1  0.34150600  0.65849400  0.75000000  1
  Ni  Ni6  1  0.08809900  0.53035800  0.66885200  1
  Ni  Ni7  1  0.53035800  0.08809900  0.16885200  1
  Ni  Ni8  1  0.24959400  0.49208700  0.13892600  1
  Ni  Ni9  1  0.49208700  0.24959400  0.63892600  1
  Ni  Ni10  1  0.46964200  0.91190100  0.83114800  1
  Ni  Ni11  1  0.75040600  0.50791300  0.86107400  1
  Ni  Ni12  1  0.50791300  0.75040600  0.36107400  1
  Ni  Ni13  1  0.91190100  0.46964200  0.33114800  1
  Cu  Cu14  1  0.22897700  0.77102300  0.25000000  1
  Cu  Cu15  1  0.77102300  0.22897700  0.75000000  1
  Cu  Cu16  1  0.00000000  0.00000000  0.00000000  1
  Cu  Cu17  1  0.00000000  0.00000000  0.50000000  1
  C  C18  1  0.33267300  0.84516500  0.49889300  1
  C  C19  1  0.89716400  0.94326100  0.75368000  1
  C  C20  1  0.60346100  0.51452600  0.82833300  1
  C  C21  1  0.94326100  0.89716400  0.25368000  1
  C  C22  1  0.94361600  0.28305700  0.47660600  1
  C  C23  1  0.48852900  0.08237900  0.80319900  1
  C  C24  1  0.51452600  0.60346100  0.32833300  1
  C  C25  1  0.71694300  0.05638400  0.02339400  1
  C  C26  1  0.51147100  0.91762100  0.19680100  1
  C  C27  1  0.70906600  0.65252600  0.39690500  1
  C  C28  1  0.10283600  0.05673900  0.24632000  1
  C  C29  1  0.05638400  0.71694300  0.52339400  1
  C  C30  1  0.91762100  0.51147100  0.69680100  1
  C  C31  1  0.84516500  0.33267300  0.99889300  1
  C  C32  1  0.65252600  0.70906600  0.89690500  1
  C  C33  1  0.28305700  0.94361600  0.97660600  1
  C  C34  1  0.47656200  0.91724600  0.67551900  1
  C  C35  1  0.29093400  0.34747400  0.60309500  1
  C  C36  1  0.08275400  0.52343800  0.82448100  1
  C  C37  1  0.34747400  0.29093400  0.10309500  1
  C  C38  1  0.08237900  0.48852900  0.30319900  1
  C  C39  1  0.05673900  0.10283600  0.74632000  1
  C  C40  1  0.91724600  0.47656200  0.17551900  1
  C  C41  1  0.39653900  0.48547400  0.17166700  1
  C  C42  1  0.52343800  0.08275400  0.32448100  1
  C  C43  1  0.48547400  0.39653900  0.67166700  1
  C  C44  1  0.15483500  0.66732700  0.00110700  1
  C  C45  1  0.66732700  0.15483500  0.50110700  1
