# generated using pymatgen
data_Cu5Ni2C25
_symmetry_space_group_name_H-M   'P 1'
_cell_length_a   5.79212800
_cell_length_b   5.91499568
_cell_length_c   9.69549191
_cell_angle_alpha   97.15851064
_cell_angle_beta   91.46297985
_cell_angle_gamma   119.06404730
_symmetry_Int_Tables_number   1
_chemical_formula_structural   Cu5Ni2C25
_chemical_formula_sum   'Cu5 Ni2 C25'
_cell_volume   286.65831247
_cell_formula_units_Z   1
loop_
 _symmetry_equiv_pos_site_id
 _symmetry_equiv_pos_as_xyz
  1  'x, y, z'
loop_
 _atom_site_type_symbol
 _atom_site_label
 _atom_site_symmetry_multiplicity
 _atom_site_fract_x
 _atom_site_fract_y
 _atom_site_fract_z
 _atom_site_occupancy
  C  C0  1  0.62150300  0.24712300  0.75719000  1
  C  C1  1  0.12243800  0.24859700  0.75287600  1
  C  C2  1  0.50000000  0.50000000  0.00000000  1
  C  C3  1  0.00000000  0.50000000  0.00000000  1
  C  C4  1  0.37849700  0.75287700  0.24281000  1
  C  C5  1  0.87756200  0.75140300  0.24712400  1
  C  C6  1  0.24854700  0.99487000  0.49772500  1
  C  C7  1  0.75145300  0.00513000  0.50227500  1
  C  C8  1  0.50000000  0.00000000  0.00000000  1
  Ni  Ni9  1  0.62381500  0.74950900  0.75337400  1
  Ni  Ni10  1  0.37618500  0.25049100  0.24662600  1
  Cu  Cu11  1  0.13184500  0.75807800  0.75878900  1
  Cu  Cu12  1  0.00000000  0.00000000  0.00000000  1
  Cu  Cu13  1  0.86815500  0.24192200  0.24121100  1
  Cu  Cu14  1  0.24710400  0.50350300  0.49624300  1
  Cu  Cu15  1  0.75289600  0.49649700  0.50375700  1
  C  C16  1  0.44048200  0.86353900  0.63203100  1
  C  C17  1  0.91832700  0.85296400  0.63203400  1
  C  C18  1  0.27631500  0.09741400  0.87942500  1
  C  C19  1  0.80217300  0.08415800  0.86936900  1
  C  C20  1  0.19927400  0.37950900  0.13413500  1
  C  C21  1  0.68109100  0.37044200  0.14008500  1
  C  C22  1  0.06635900  0.61558300  0.38282300  1
  C  C23  1  0.55816500  0.59463400  0.37400900  1
  C  C24  1  0.80072600  0.62049100  0.86586500  1
  C  C25  1  0.31890900  0.62955800  0.85991500  1
  C  C26  1  0.72368500  0.90258600  0.12057500  1
  C  C27  1  0.19782700  0.91584200  0.13063100  1
  C  C28  1  0.55951800  0.13646100  0.36796900  1
  C  C29  1  0.08167300  0.14703600  0.36796600  1
  C  C30  1  0.44183500  0.40536600  0.62599100  1
  C  C31  1  0.93364100  0.38441700  0.61717700  1
