# generated using pymatgen
data_Cu3(NiC2)2
_symmetry_space_group_name_H-M   'P 1'
_cell_length_a   7.05907400
_cell_length_b   7.34642700
_cell_length_c   13.93006700
_cell_angle_alpha   90.00000000
_cell_angle_beta   90.00000000
_cell_angle_gamma   90.00000000
_symmetry_Int_Tables_number   1
_chemical_formula_structural   Cu3(NiC2)2
_chemical_formula_sum   'Cu12 Ni8 C16'
_cell_volume   722.39895212
_cell_formula_units_Z   4
loop_
 _symmetry_equiv_pos_site_id
 _symmetry_equiv_pos_as_xyz
  1  'x, y, z'
loop_
 _atom_site_type_symbol
 _atom_site_label
 _atom_site_symmetry_multiplicity
 _atom_site_fract_x
 _atom_site_fract_y
 _atom_site_fract_z
 _atom_site_occupancy
  Ni  Ni0  1  0.01220700  0.17557500  0.09688100  1
  Ni  Ni1  1  0.98779300  0.82442500  0.90311900  1
  Ni  Ni2  1  0.48779300  0.67557500  0.90311900  1
  Ni  Ni3  1  0.98779300  0.82442500  0.59688100  1
  Ni  Ni4  1  0.51220700  0.32442500  0.09688100  1
  Ni  Ni5  1  0.01220700  0.17557500  0.40311900  1
  Ni  Ni6  1  0.51220700  0.32442500  0.40311900  1
  Ni  Ni7  1  0.48779300  0.67557500  0.59688100  1
  Cu  Cu8  1  0.16092500  0.50379100  0.75000000  1
  Cu  Cu9  1  0.83907500  0.49620900  0.25000000  1
  Cu  Cu10  1  0.33907500  0.00379100  0.25000000  1
  Cu  Cu11  1  0.66092500  0.99620900  0.75000000  1
  Cu  Cu12  1  0.33020300  0.17688500  0.62477100  1
  Cu  Cu13  1  0.66979700  0.82311500  0.37522900  1
  Cu  Cu14  1  0.16979700  0.67688500  0.37522900  1
  Cu  Cu15  1  0.66979700  0.82311500  0.12477100  1
  Cu  Cu16  1  0.83020300  0.32311500  0.62477100  1
  Cu  Cu17  1  0.33020300  0.17688500  0.87522900  1
  Cu  Cu18  1  0.83020300  0.32311500  0.87522900  1
  Cu  Cu19  1  0.16979700  0.67688500  0.12477100  1
  C  C20  1  0.03274600  0.11629400  0.75000000  1
  C  C21  1  0.96725400  0.88370600  0.25000000  1
  C  C22  1  0.46725400  0.61629400  0.25000000  1
  C  C23  1  0.53274600  0.38370600  0.75000000  1
  C  C24  1  0.28500900  0.87184400  0.75000000  1
  C  C25  1  0.71499100  0.12815600  0.25000000  1
  C  C26  1  0.21499100  0.37184400  0.25000000  1
  C  C27  1  0.78500900  0.62815600  0.75000000  1
  C  C28  1  0.15903500  0.46522300  0.53945800  1
  C  C29  1  0.84096500  0.53477700  0.46054200  1
  C  C30  1  0.34096500  0.96522300  0.46054200  1
  C  C31  1  0.84096500  0.53477700  0.03945800  1
  C  C32  1  0.65903500  0.03477700  0.53945800  1
  C  C33  1  0.15903500  0.46522300  0.96054200  1
  C  C34  1  0.65903500  0.03477700  0.96054200  1
  C  C35  1  0.34096500  0.96522300  0.03945800  1
