# generated using pymatgen
data_Cu18Ni16C7
_symmetry_space_group_name_H-M   'P 1'
_cell_length_a   14.98871073
_cell_length_b   14.98871073
_cell_length_c   14.98871073
_cell_angle_alpha   60.00000000
_cell_angle_beta   60.00000000
_cell_angle_gamma   60.00000000
_symmetry_Int_Tables_number   1
_chemical_formula_structural   Cu18Ni16C7
_chemical_formula_sum   'Cu36 Ni32 C14'
_cell_volume   2381.10110633
_cell_formula_units_Z   2
loop_
 _symmetry_equiv_pos_site_id
 _symmetry_equiv_pos_as_xyz
  1  'x, y, z'
loop_
 _atom_site_type_symbol
 _atom_site_label
 _atom_site_symmetry_multiplicity
 _atom_site_fract_x
 _atom_site_fract_y
 _atom_site_fract_z
 _atom_site_occupancy
  C  C0  1  0.34928000  0.65072000  0.65072000  1
  C  C1  1  0.65072000  0.34928000  0.34928000  1
  C  C2  1  0.65072000  0.65072000  0.34928000  1
  C  C3  1  0.34928000  0.34928000  0.65072000  1
  C  C4  1  0.65072000  0.34928000  0.65072000  1
  C  C5  1  0.34928000  0.65072000  0.34928000  1
  C  C6  1  0.90072000  0.59928000  0.59928000  1
  C  C7  1  0.59928000  0.90072000  0.90072000  1
  C  C8  1  0.59928000  0.59928000  0.90072000  1
  C  C9  1  0.90072000  0.90072000  0.59928000  1
  C  C10  1  0.59928000  0.90072000  0.59928000  1
  C  C11  1  0.90072000  0.59928000  0.90072000  1
  C  C12  1  0.25000000  0.25000000  0.25000000  1
  C  C13  1  0.00000000  0.00000000  0.00000000  1
  Ni  Ni14  1  0.25598900  0.49852400  0.74696300  1
  Ni  Ni15  1  0.49852400  0.25598900  0.49852400  1
  Ni  Ni16  1  0.74696300  0.49852400  0.25598900  1
  Ni  Ni17  1  0.49852400  0.74696300  0.49852400  1
  Ni  Ni18  1  0.49852400  0.74696300  0.25598900  1
  Ni  Ni19  1  0.25598900  0.49852400  0.49852400  1
  Ni  Ni20  1  0.49852400  0.25598900  0.74696300  1
  Ni  Ni21  1  0.74696300  0.49852400  0.49852400  1
  Ni  Ni22  1  0.74696300  0.25598900  0.49852400  1
  Ni  Ni23  1  0.49852400  0.49852400  0.25598900  1
  Ni  Ni24  1  0.25598900  0.74696300  0.49852400  1
  Ni  Ni25  1  0.49852400  0.49852400  0.74696300  1
  Ni  Ni26  1  0.99401100  0.75147600  0.50303700  1
  Ni  Ni27  1  0.75147600  0.99401100  0.75147600  1
  Ni  Ni28  1  0.50303700  0.75147600  0.99401100  1
  Ni  Ni29  1  0.75147600  0.50303700  0.75147600  1
  Ni  Ni30  1  0.75147600  0.50303700  0.99401100  1
  Ni  Ni31  1  0.99401100  0.75147600  0.75147600  1
  Ni  Ni32  1  0.75147600  0.99401100  0.50303700  1
  Ni  Ni33  1  0.50303700  0.75147600  0.75147600  1
  Ni  Ni34  1  0.50303700  0.99401100  0.75147600  1
  Ni  Ni35  1  0.75147600  0.75147600  0.99401100  1
  Ni  Ni36  1  0.99401100  0.50303700  0.75147600  1
  Ni  Ni37  1  0.75147600  0.75147600  0.50303700  1
  Ni  Ni38  1  0.03429100  0.32190300  0.32190300  1
  Ni  Ni39  1  0.32190300  0.03429100  0.32190300  1
  Ni  Ni40  1  0.32190300  0.32190300  0.03429100  1
  Ni  Ni41  1  0.32190300  0.32190300  0.32190300  1
  Ni  Ni42  1  0.21570900  0.92809700  0.92809700  1
  Ni  Ni43  1  0.92809700  0.21570900  0.92809700  1
  Ni  Ni44  1  0.92809700  0.92809700  0.21570900  1
  Ni  Ni45  1  0.92809700  0.92809700  0.92809700  1
  Cu  Cu46  1  0.26839000  0.73161000  0.73161000  1
  Cu  Cu47  1  0.73161000  0.26839000  0.26839000  1
  Cu  Cu48  1  0.73161000  0.73161000  0.26839000  1
  Cu  Cu49  1  0.26839000  0.26839000  0.73161000  1
  Cu  Cu50  1  0.73161000  0.26839000  0.73161000  1
  Cu  Cu51  1  0.26839000  0.73161000  0.26839000  1
  Cu  Cu52  1  0.98161000  0.51839000  0.51839000  1
  Cu  Cu53  1  0.51839000  0.98161000  0.98161000  1
  Cu  Cu54  1  0.51839000  0.51839000  0.98161000  1
  Cu  Cu55  1  0.98161000  0.98161000  0.51839000  1
  Cu  Cu56  1  0.51839000  0.98161000  0.51839000  1
  Cu  Cu57  1  0.98161000  0.51839000  0.98161000  1
  Cu  Cu58  1  0.60024700  0.18414300  0.18414300  1
  Cu  Cu59  1  0.18414300  0.60024700  0.03146700  1
  Cu  Cu60  1  0.18414300  0.03146700  0.60024700  1
  Cu  Cu61  1  0.03146700  0.18414300  0.18414300  1
  Cu  Cu62  1  0.18414300  0.18414300  0.60024700  1
  Cu  Cu63  1  0.60024700  0.03146700  0.18414300  1
  Cu  Cu64  1  0.03146700  0.60024700  0.18414300  1
  Cu  Cu65  1  0.18414300  0.18414300  0.03146700  1
  Cu  Cu66  1  0.18414300  0.60024700  0.18414300  1
  Cu  Cu67  1  0.03146700  0.18414300  0.60024700  1
  Cu  Cu68  1  0.60024700  0.18414300  0.03146700  1
  Cu  Cu69  1  0.18414300  0.03146700  0.18414300  1
  Cu  Cu70  1  0.64975300  0.06585700  0.06585700  1
  Cu  Cu71  1  0.06585700  0.64975300  0.21853300  1
  Cu  Cu72  1  0.06585700  0.21853300  0.64975300  1
  Cu  Cu73  1  0.21853300  0.06585700  0.06585700  1
  Cu  Cu74  1  0.06585700  0.06585700  0.64975300  1
  Cu  Cu75  1  0.64975300  0.21853300  0.06585700  1
  Cu  Cu76  1  0.21853300  0.64975300  0.06585700  1
  Cu  Cu77  1  0.06585700  0.06585700  0.21853300  1
  Cu  Cu78  1  0.06585700  0.64975300  0.06585700  1
  Cu  Cu79  1  0.21853300  0.06585700  0.64975300  1
  Cu  Cu80  1  0.64975300  0.06585700  0.21853300  1
  Cu  Cu81  1  0.06585700  0.21853300  0.06585700  1
