# generated using pymatgen
data_Cu3NiC
_symmetry_space_group_name_H-M   'P 1'
_cell_length_a   7.50101000
_cell_length_b   6.76337200
_cell_length_c   11.85622197
_cell_angle_alpha   57.18751071
_cell_angle_beta   90.00000000
_cell_angle_gamma   90.00000000
_symmetry_Int_Tables_number   1
_chemical_formula_structural   Cu3NiC
_chemical_formula_sum   'Cu12 Ni4 C4'
_cell_volume   505.52245197
_cell_formula_units_Z   4
loop_
 _symmetry_equiv_pos_site_id
 _symmetry_equiv_pos_as_xyz
  1  'x, y, z'
loop_
 _atom_site_type_symbol
 _atom_site_label
 _atom_site_symmetry_multiplicity
 _atom_site_fract_x
 _atom_site_fract_y
 _atom_site_fract_z
 _atom_site_occupancy
  C  C0  1  0.13821900  0.71591800  0.24467400  1
  C  C1  1  0.86178100  0.71591800  0.74467400  1
  C  C2  1  0.67785100  0.28895000  0.26093500  1
  C  C3  1  0.32214900  0.28895000  0.76093500  1
  Ni  Ni4  1  0.64101300  0.62969500  0.43505700  1
  Ni  Ni5  1  0.14388700  0.37181300  0.06171000  1
  Ni  Ni6  1  0.85611300  0.37181300  0.56171000  1
  Ni  Ni7  1  0.35898700  0.62969500  0.93505700  1
  Cu  Cu8  1  0.45263500  0.39944600  0.41503200  1
  Cu  Cu9  1  0.92815900  0.59843000  0.06175000  1
  Cu  Cu10  1  0.07184100  0.59843000  0.56175000  1
  Cu  Cu11  1  0.54736500  0.39944600  0.91503200  1
  Cu  Cu12  1  0.53817500  0.75722500  0.55776500  1
  Cu  Cu13  1  0.04101200  0.20438100  0.95729600  1
  Cu  Cu14  1  0.95898800  0.20438100  0.45729600  1
  Cu  Cu15  1  0.46182500  0.75722500  0.05776500  1
  Cu  Cu16  1  0.76532800  0.90436400  0.24051600  1
  Cu  Cu17  1  0.26840700  0.12506800  0.25877500  1
  Cu  Cu18  1  0.73159300  0.12506800  0.75877500  1
  Cu  Cu19  1  0.23467200  0.90436400  0.74051600  1
