# generated using pymatgen
data_Cu3Ni9C
_symmetry_space_group_name_H-M   'P 1'
_cell_length_a   5.04853409
_cell_length_b   6.75586306
_cell_length_c   6.74922071
_cell_angle_alpha   98.26611700
_cell_angle_beta   112.63032666
_cell_angle_gamma   68.05966489
_symmetry_Int_Tables_number   1
_chemical_formula_structural   Cu3Ni9C
_chemical_formula_sum   'Cu3 Ni9 C1'
_cell_volume   197.08470154
_cell_formula_units_Z   1
loop_
 _symmetry_equiv_pos_site_id
 _symmetry_equiv_pos_as_xyz
  1  'x, y, z'
loop_
 _atom_site_type_symbol
 _atom_site_label
 _atom_site_symmetry_multiplicity
 _atom_site_fract_x
 _atom_site_fract_y
 _atom_site_fract_z
 _atom_site_occupancy
  C  C0  1  0.00000000  0.00000000  0.00000000  1
  Ni  Ni1  1  0.72998600  0.77522500  0.21374500  1
  Ni  Ni2  1  0.27001400  0.22477500  0.78625500  1
  Ni  Ni3  1  0.49478900  0.77522500  0.78625500  1
  Ni  Ni4  1  0.50521100  0.22477500  0.21374500  1
  Ni  Ni5  1  0.66328400  0.35349300  0.66260100  1
  Ni  Ni6  1  0.33671600  0.64650700  0.33739900  1
  Ni  Ni7  1  0.98322400  0.35349300  0.33739900  1
  Ni  Ni8  1  0.01677600  0.64650700  0.66260100  1
  Ni  Ni9  1  0.50000000  0.00000000  0.50000000  1
  Cu  Cu10  1  0.00000000  0.00000000  0.50000000  1
  Cu  Cu11  1  0.50000000  0.50000000  0.00000000  1
  Cu  Cu12  1  0.00000000  0.50000000  0.00000000  1
