# generated using pymatgen
data_Cu4Ni2C
_symmetry_space_group_name_H-M   'P 1'
_cell_length_a   14.54136718
_cell_length_b   11.47306247
_cell_length_c   10.49452033
_cell_angle_alpha   82.76799640
_cell_angle_beta   51.51010555
_cell_angle_gamma   45.72189805
_symmetry_Int_Tables_number   1
_chemical_formula_structural   Cu4Ni2C
_chemical_formula_sum   'Cu24 Ni12 C6'
_cell_volume   818.96755640
_cell_formula_units_Z   6
loop_
 _symmetry_equiv_pos_site_id
 _symmetry_equiv_pos_as_xyz
  1  'x, y, z'
loop_
 _atom_site_type_symbol
 _atom_site_label
 _atom_site_symmetry_multiplicity
 _atom_site_fract_x
 _atom_site_fract_y
 _atom_site_fract_z
 _atom_site_occupancy
  C  C0  1  0.01208100  0.48112900  0.00695900  1
  C  C1  1  0.49983000  0.00695900  0.48112900  1
  C  C2  1  0.76887100  0.23791900  0.75017000  1
  C  C3  1  0.24304100  0.75017000  0.23791900  1
  C  C4  1  0.99843300  0.50156700  0.50156700  1
  C  C5  1  0.74843300  0.25156700  0.25156700  1
  Ni  Ni6  1  0.85487600  0.78599400  0.20607400  1
  Ni  Ni7  1  0.15305600  0.20607400  0.78599400  1
  Ni  Ni8  1  0.46400600  0.39512400  0.09694400  1
  Ni  Ni9  1  0.04392600  0.09694400  0.39512400  1
  Ni  Ni10  1  0.40541300  0.20091900  0.76944300  1
  Ni  Ni11  1  0.62422400  0.76944300  0.20091900  1
  Ni  Ni12  1  0.04908100  0.84458700  0.62577600  1
  Ni  Ni13  1  0.48055700  0.62577600  0.84458700  1
  Ni  Ni14  1  0.88765000  0.44498200  0.30439000  1
  Ni  Ni15  1  0.36297800  0.30439000  0.44498200  1
  Ni  Ni16  1  0.80501800  0.36235000  0.88702200  1
  Ni  Ni17  1  0.94561000  0.88702200  0.36235000  1
  Cu  Cu18  1  0.09392700  0.57111600  0.78865000  1
  Cu  Cu19  1  0.54630600  0.78865000  0.57111600  1
  Cu  Cu20  1  0.67888400  0.15607300  0.70369400  1
  Cu  Cu21  1  0.46135000  0.70369400  0.15607300  1
  Cu  Cu22  1  0.86155100  0.48535400  0.55698900  1
  Cu  Cu23  1  0.09610600  0.55698900  0.48535400  1
  Cu  Cu24  1  0.76464600  0.38844900  0.15389400  1
  Cu  Cu25  1  0.69301100  0.15389400  0.38844900  1
  Cu  Cu26  1  0.14598300  0.37900500  0.24711800  1
  Cu  Cu27  1  0.22789300  0.24711800  0.37900500  1
  Cu  Cu28  1  0.87099500  0.10401700  0.02210700  1
  Cu  Cu29  1  0.00288200  0.02210700  0.10401700  1
  Cu  Cu30  1  0.76335500  0.75281200  0.62603700  1
  Cu  Cu31  1  0.85779600  0.62603700  0.75281200  1
  Cu  Cu32  1  0.49718800  0.48664600  0.39220400  1
  Cu  Cu33  1  0.62396300  0.39220400  0.48664500  1
  Cu  Cu34  1  0.87869500  0.79416200  0.80946700  1
  Cu  Cu35  1  0.51767700  0.80946700  0.79416200  1
  Cu  Cu36  1  0.45583800  0.37130500  0.73232300  1
  Cu  Cu37  1  0.44053300  0.73232300  0.37130500  1
  Cu  Cu38  1  0.55428900  0.09021600  0.85973500  1
  Cu  Cu39  1  0.49576000  0.85973500  0.09021600  1
  Cu  Cu40  1  0.15978400  0.69571100  0.75424000  1
  Cu  Cu41  1  0.39026500  0.75424000  0.69571100  1
