# generated using pymatgen
data_CuNiC8
_symmetry_space_group_name_H-M   'P 1'
_cell_length_a   7.67265400
_cell_length_b   5.23859100
_cell_length_c   5.32082060
_cell_angle_alpha   89.20701356
_cell_angle_beta   90.00000000
_cell_angle_gamma   90.00000000
_symmetry_Int_Tables_number   1
_chemical_formula_structural   CuNiC8
_chemical_formula_sum   'Cu2 Ni2 C16'
_cell_volume   213.84402804
_cell_formula_units_Z   2
loop_
 _symmetry_equiv_pos_site_id
 _symmetry_equiv_pos_as_xyz
  1  'x, y, z'
loop_
 _atom_site_type_symbol
 _atom_site_label
 _atom_site_symmetry_multiplicity
 _atom_site_fract_x
 _atom_site_fract_y
 _atom_site_fract_z
 _atom_site_occupancy
  Ni  Ni0  1  0.00000000  0.00000000  0.50000000  1
  Ni  Ni1  1  0.50000000  0.00000000  0.50000000  1
  C  C2  1  0.75000000  0.01284500  0.01859100  1
  C  C3  1  0.75000000  0.50761000  0.54735600  1
  C  C4  1  0.25000000  0.49239000  0.45264400  1
  C  C5  1  0.25000000  0.98715500  0.98140900  1
  Cu  Cu6  1  0.00000000  0.50000000  0.00000000  1
  Cu  Cu7  1  0.50000000  0.50000000  0.00000000  1
  C  C8  1  0.43614500  0.17263700  0.18190400  1
  C  C9  1  0.56451800  0.68249100  0.32199000  1
  C  C10  1  0.56385500  0.82736300  0.81809600  1
  C  C11  1  0.06451800  0.31750900  0.67801000  1
  C  C12  1  0.25000000  0.87751900  0.56205300  1
  C  C13  1  0.43548200  0.31750900  0.67801000  1
  C  C14  1  0.93548200  0.68249100  0.32199000  1
  C  C15  1  0.06385500  0.17263700  0.18190400  1
  C  C16  1  0.75000000  0.38375900  0.92144300  1
  C  C17  1  0.93614500  0.82736300  0.81809600  1
  C  C18  1  0.25000000  0.61624100  0.07855700  1
  C  C19  1  0.75000000  0.12248100  0.43794700  1
