# generated using pymatgen
data_CuNiC9
_symmetry_space_group_name_H-M   'P 1'
_cell_length_a   6.53948208
_cell_length_b   11.08814770
_cell_length_c   7.17083943
_cell_angle_alpha   83.31485263
_cell_angle_beta   88.30279504
_cell_angle_gamma   77.98683394
_symmetry_Int_Tables_number   1
_chemical_formula_structural   CuNiC9
_chemical_formula_sum   'Cu4 Ni4 C36'
_cell_volume   505.10995936
_cell_formula_units_Z   4
loop_
 _symmetry_equiv_pos_site_id
 _symmetry_equiv_pos_as_xyz
  1  'x, y, z'
loop_
 _atom_site_type_symbol
 _atom_site_label
 _atom_site_symmetry_multiplicity
 _atom_site_fract_x
 _atom_site_fract_y
 _atom_site_fract_z
 _atom_site_occupancy
  Ni  Ni0  1  0.84535500  0.21255100  0.91288400  1
  Ni  Ni1  1  0.84531900  0.71249400  0.41280700  1
  Ni  Ni2  1  0.15453500  0.78741300  0.08704700  1
  Ni  Ni3  1  0.15476700  0.28744600  0.58713000  1
  Cu  Cu4  1  0.68376100  0.94907200  0.86215900  1
  Cu  Cu5  1  0.31612800  0.05085800  0.13857700  1
  Cu  Cu6  1  0.68410500  0.44878900  0.36124200  1
  Cu  Cu7  1  0.31645300  0.55113100  0.63873800  1
  C  C8  1  0.17194500  0.49334300  0.26116500  1
  C  C9  1  0.17188700  0.99338300  0.76116200  1
  C  C10  1  0.82816200  0.50663800  0.73878200  1
  C  C11  1  0.82800300  0.00672300  0.23884700  1
  C  C12  1  0.62945900  0.66996600  0.02793300  1
  C  C13  1  0.62952100  0.16991600  0.52798000  1
  C  C14  1  0.37050800  0.32997900  0.97205700  1
  C  C15  1  0.37049400  0.83003500  0.47203900  1
  C  C16  1  0.75948100  0.54541900  0.94099300  1
  C  C17  1  0.75947800  0.04545200  0.44109500  1
  C  C18  1  0.24055400  0.45455200  0.05895600  1
  C  C19  1  0.24055300  0.95453900  0.55896800  1
  C  C20  1  0.01896000  0.41447400  0.35346600  1
  C  C21  1  0.01907100  0.91449500  0.85378000  1
  C  C22  1  0.98099200  0.58549500  0.64625000  1
  C  C23  1  0.98097900  0.08548700  0.14631200  1
  C  C24  1  0.59588400  0.31178100  0.03485400  1
  C  C25  1  0.59584800  0.81175200  0.53463900  1
  C  C26  1  0.40413000  0.68822100  0.96510500  1
  C  C27  1  0.40421200  0.18819700  0.46519000  1
  C  C28  1  0.33992300  0.37239700  0.75866500  1
  C  C29  1  0.33962200  0.87242800  0.25869300  1
  C  C30  1  0.66010100  0.62759000  0.24130000  1
  C  C31  1  0.66035300  0.12754000  0.74132700  1
  C  C32  1  0.92529500  0.36821600  0.77072900  1
  C  C33  1  0.92491200  0.86825900  0.27049300  1
  C  C34  1  0.07474100  0.63176300  0.22925600  1
  C  C35  1  0.07474600  0.13177700  0.72926000  1
  C  C36  1  0.63434700  0.53169300  0.61192500  1
  C  C37  1  0.63393400  0.03219500  0.11210700  1
  C  C38  1  0.36572800  0.46829200  0.38805300  1
  C  C39  1  0.36573000  0.96828600  0.88807100  1
  C  C40  1  0.25622700  0.22672800  0.03633100  1
  C  C41  1  0.25616100  0.72677800  0.53632700  1
  C  C42  1  0.74378300  0.77324200  0.96365100  1
  C  C43  1  0.74385100  0.27321500  0.46365700  1
