# generated using pymatgen
data_Cu36Ni30C11
_symmetry_space_group_name_H-M   'P 1'
_cell_length_a   12.14450537
_cell_length_b   12.14450537
_cell_length_c   12.14450537
_cell_angle_alpha   70.21058171
_cell_angle_beta   70.21058171
_cell_angle_gamma   109.78941829
_symmetry_Int_Tables_number   1
_chemical_formula_structural   Cu36Ni30C11
_chemical_formula_sum   'Cu36 Ni30 C11'
_cell_volume   1362.36562312
_cell_formula_units_Z   1
loop_
 _symmetry_equiv_pos_site_id
 _symmetry_equiv_pos_as_xyz
  1  'x, y, z'
loop_
 _atom_site_type_symbol
 _atom_site_label
 _atom_site_symmetry_multiplicity
 _atom_site_fract_x
 _atom_site_fract_y
 _atom_site_fract_z
 _atom_site_occupancy
  C  C0  1  0.50617623  0.00161742  -0.00161742  1
  C  C1  1  0.00161742  0.00161742  0.49382377  1
  C  C2  1  0.00161742  0.50617623  -0.00161742  1
  C  C3  1  0.52203288  0.52203288  0.47796712  1
  C  C4  1  0.75365037  0.96984472  0.03015528  1
  C  C5  1  0.96984472  0.96984472  0.24634963  1
  C  C6  1  0.96984472  0.75365037  0.03015528  1
  C  C7  1  0.23482267  0.23482267  0.76517733  1
  C  C8  1  0.23633215  0.99789777  0.00210223  1
  C  C9  1  0.99789777  0.23633215  0.00210223  1
  C  C10  1  0.99789777  0.99789777  0.76366785  1
  Ni  Ni11  1  0.99906317  0.26237501  0.73762499  1
  Ni  Ni12  1  0.26237501  0.26237501  0.00093683  1
  Ni  Ni13  1  0.26237501  0.99906317  0.73762499  1
  Ni  Ni14  1  0.73394601  0.73394601  0.99607981  1
  Ni  Ni15  1  0.73394601  0.00392019  0.26605399  1
  Ni  Ni16  1  0.00392019  0.73394601  0.26605399  1
  Ni  Ni17  1  0.26488359  0.00148352  0.26161553  1
  Ni  Ni18  1  0.00148352  0.73838447  0.73511641  1
  Ni  Ni19  1  0.73838447  0.26488359  0.99851648  1
  Ni  Ni20  1  0.26488359  0.73838447  0.99851648  1
  Ni  Ni21  1  0.00148352  0.26488359  0.26161553  1
  Ni  Ni22  1  0.73838447  0.00148352  0.73511641  1
  Ni  Ni23  1  0.73373867  0.46639839  0.26626133  1
  Ni  Ni24  1  0.26600556  0.26600556  0.46890259  1
  Ni  Ni25  1  0.73373867  0.73373867  0.53360161  1
  Ni  Ni26  1  0.26600556  0.53109741  0.73399444  1
  Ni  Ni27  1  0.53109741  0.26600556  0.73399444  1
  Ni  Ni28  1  0.46639839  0.73373867  0.26626133  1
  Ni  Ni29  1  0.99682604  0.34335826  0.65664174  1
  Ni  Ni30  1  0.34335826  0.34335826  0.00317396  1
  Ni  Ni31  1  0.34335826  0.99682604  0.65664174  1
  Ni  Ni32  1  0.64630040  0.64630040  0.00825585  1
  Ni  Ni33  1  0.64630040  0.99174415  0.35369960  1
  Ni  Ni34  1  0.99174415  0.64630040  0.35369960  1
  Ni  Ni35  1  0.00123158  0.17387850  0.82612150  1
  Ni  Ni36  1  0.17387850  0.17387850  0.99876842  1
  Ni  Ni37  1  0.17387850  0.00123158  0.82612150  1
  Ni  Ni38  1  0.82867823  0.82867823  0.98522256  1
  Ni  Ni39  1  0.82867823  0.01477744  0.17132177  1
  Ni  Ni40  1  0.01477744  0.82867823  0.17132177  1
  Cu  Cu41  1  0.15207352  0.00173061  0.30136257  1
  Cu  Cu42  1  0.00173061  0.69863743  0.84792648  1
  Cu  Cu43  1  0.69863743  0.15207352  0.99826939  1
  Cu  Cu44  1  0.15207352  0.69863743  0.99826939  1
  Cu  Cu45  1  0.00173061  0.15207352  0.30136257  1
  Cu  Cu46  1  0.69863743  0.00173061  0.84792648  1
  Cu  Cu47  1  0.84989612  0.52783457  0.15010388  1
  Cu  Cu48  1  0.31131758  0.31131758  0.53625042  1
  Cu  Cu49  1  0.84989612  0.84989612  0.47216543  1
  Cu  Cu50  1  0.31131758  0.46374958  0.68868242  1
  Cu  Cu51  1  0.46374958  0.31131758  0.68868242  1
  Cu  Cu52  1  0.52783457  0.84989612  0.15010388  1
  Cu  Cu53  1  0.32207152  0.00026003  0.32737451  1
  Cu  Cu54  1  0.00026003  0.67262549  0.67792848  1
  Cu  Cu55  1  0.67262549  0.32207152  0.99973997  1
  Cu  Cu56  1  0.32207152  0.67262549  0.99973997  1
  Cu  Cu57  1  0.00026003  0.32207152  0.32737451  1
  Cu  Cu58  1  0.67262549  0.00026003  0.67792848  1
  Cu  Cu59  1  0.66794131  0.34151044  0.33205869  1
  Cu  Cu60  1  0.32885346  0.32885346  0.34475298  1
  Cu  Cu61  1  0.66794131  0.66794131  0.65848956  1
  Cu  Cu62  1  0.32885346  0.65524702  0.67114654  1
  Cu  Cu63  1  0.65524702  0.32885346  0.67114654  1
  Cu  Cu64  1  0.34151044  0.66794131  0.33205869  1
  Cu  Cu65  1  0.31752506  0.00330730  0.14787006  1
  Cu  Cu66  1  0.00330730  0.85212994  0.68247494  1
  Cu  Cu67  1  0.85212994  0.31752506  0.99669270  1
  Cu  Cu68  1  0.31752506  0.85212994  0.99669270  1
  Cu  Cu69  1  0.00330730  0.31752506  0.14787006  1
  Cu  Cu70  1  0.85212994  0.00330730  0.68247494  1
  Cu  Cu71  1  0.70032215  0.54277057  0.29967785  1
  Cu  Cu72  1  0.15153530  0.15153530  0.53682275  1
  Cu  Cu73  1  0.70032215  0.70032215  0.45722943  1
  Cu  Cu74  1  0.15153530  0.46317725  0.84846470  1
  Cu  Cu75  1  0.46317725  0.15153530  0.84846470  1
  Cu  Cu76  1  0.54277057  0.70032215  0.29967785  1
