# generated using pymatgen
data_Cu16Ni4C35
_symmetry_space_group_name_H-M   'P 1'
_cell_length_a   8.02605690
_cell_length_b   7.64066398
_cell_length_c   10.71788322
_cell_angle_alpha   69.37356264
_cell_angle_beta   74.30106686
_cell_angle_gamma   63.45923553
_symmetry_Int_Tables_number   1
_chemical_formula_structural   Cu16Ni4C35
_chemical_formula_sum   'Cu16 Ni4 C35'
_cell_volume   545.25945240
_cell_formula_units_Z   1
loop_
 _symmetry_equiv_pos_site_id
 _symmetry_equiv_pos_as_xyz
  1  'x, y, z'
loop_
 _atom_site_type_symbol
 _atom_site_label
 _atom_site_symmetry_multiplicity
 _atom_site_fract_x
 _atom_site_fract_y
 _atom_site_fract_z
 _atom_site_occupancy
  C  C0  1  0.75615300  0.78841000  0.23621500  1
  C  C1  1  0.24384700  0.21159000  0.76378500  1
  C  C2  1  0.17712100  0.82941900  0.75609900  1
  C  C3  1  0.82287900  0.17058100  0.24390100  1
  C  C4  1  0.77544900  0.47529600  0.82140700  1
  C  C5  1  0.22455100  0.52470400  0.17859300  1
  C  C6  1  0.00000000  0.00000000  0.00000000  1
  Ni  Ni7  1  0.58520400  0.62992000  0.07795200  1
  Ni  Ni8  1  0.41479600  0.37008000  0.92204800  1
  Ni  Ni9  1  0.07066200  0.64358100  0.59975700  1
  Ni  Ni10  1  0.92933800  0.35641900  0.40024300  1
  Cu  Cu11  1  0.28633900  0.82867600  0.27118800  1
  Cu  Cu12  1  0.71366100  0.17132400  0.72881200  1
  Cu  Cu13  1  0.88257800  0.83719200  0.90057700  1
  Cu  Cu14  1  0.11742200  0.16280800  0.09942300  1
  Cu  Cu15  1  0.39430100  0.89166400  0.44146400  1
  Cu  Cu16  1  0.60569900  0.10833600  0.55853600  1
  Cu  Cu17  1  0.53612000  0.76674800  0.67673300  1
  Cu  Cu18  1  0.46388000  0.23325200  0.32326700  1
  Cu  Cu19  1  0.91043300  0.81241600  0.42310500  1
  Cu  Cu20  1  0.08956700  0.18758400  0.57689500  1
  Cu  Cu21  1  0.96585500  0.43283000  0.10568400  1
  Cu  Cu22  1  0.03414500  0.56717000  0.89431600  1
  Cu  Cu23  1  0.95899200  0.53739600  0.09288000  1
  Cu  Cu24  1  0.04100800  0.46260400  0.90712000  1
  Cu  Cu25  1  0.67489600  0.62562500  0.57971000  1
  Cu  Cu26  1  0.32510400  0.37437500  0.42029000  1
  C  C27  1  0.89535800  0.64621700  0.69887800  1
  C  C28  1  0.10464200  0.35378300  0.30112200  1
  C  C29  1  0.03187800  0.70484800  0.44960200  1
  C  C30  1  0.96812200  0.29515200  0.55039800  1
  C  C31  1  0.66021600  0.64951900  0.92643000  1
  C  C32  1  0.33978400  0.35048100  0.07357000  1
  C  C33  1  0.95762100  0.91924200  0.86106600  1
  C  C34  1  0.04237900  0.08075800  0.13893400  1
  C  C35  1  0.72221000  0.99335300  0.29572600  1
  C  C36  1  0.27779000  0.00664700  0.70427400  1
  C  C37  1  0.63663500  0.25318600  0.65501000  1
  C  C38  1  0.36336500  0.74681400  0.34499000  1
  C  C39  1  0.77502000  0.57268400  0.38300100  1
  C  C40  1  0.22498000  0.42731600  0.61699900  1
  C  C41  1  0.63666000  0.77300000  0.12034700  1
  C  C42  1  0.36334000  0.22700000  0.87965400  1
  C  C43  1  0.99936700  0.74188800  0.14542000  1
  C  C44  1  0.00063300  0.25811200  0.85458000  1
  C  C45  1  0.43720800  0.88850600  0.34713100  1
  C  C46  1  0.56279200  0.11149400  0.65286900  1
  C  C47  1  0.31756400  0.59326000  0.84578000  1
  C  C48  1  0.68243600  0.40674000  0.15422000  1
  C  C49  1  0.60988600  0.62480600  0.67166500  1
  C  C50  1  0.39011400  0.37519400  0.32833500  1
  C  C51  1  0.14103000  0.79477300  0.61123800  1
  C  C52  1  0.85897000  0.20522700  0.38876200  1
  C  C53  1  0.37019900  0.68421600  0.10361800  1
  C  C54  1  0.62980100  0.31578400  0.89638200  1
