# generated using pymatgen
data_Cu2NiC15
_symmetry_space_group_name_H-M   'P 1'
_cell_length_a   9.96301825
_cell_length_b   9.96301825
_cell_length_c   15.68329400
_cell_angle_alpha   55.06129273
_cell_angle_beta   55.06129273
_cell_angle_gamma   36.31151226
_symmetry_Int_Tables_number   1
_chemical_formula_structural   Cu2NiC15
_chemical_formula_sum   'Cu8 Ni4 C60'
_cell_volume   735.61721065
_cell_formula_units_Z   4
loop_
 _symmetry_equiv_pos_site_id
 _symmetry_equiv_pos_as_xyz
  1  'x, y, z'
loop_
 _atom_site_type_symbol
 _atom_site_label
 _atom_site_symmetry_multiplicity
 _atom_site_fract_x
 _atom_site_fract_y
 _atom_site_fract_z
 _atom_site_occupancy
  C  C0  1  0.05818300  0.05818300  0.62074500  1
  C  C1  1  0.94181700  0.94181700  0.37925500  1
  C  C2  1  0.82323600  0.82323600  0.11836000  1
  C  C3  1  0.17676400  0.17676400  0.88164000  1
  C  C4  1  0.75991400  0.24008600  0.00000000  1
  C  C5  1  0.24008600  0.75991400  0.00000000  1
  C  C6  1  0.75787300  0.24212700  0.50000000  1
  C  C7  1  0.24212700  0.75787300  0.50000000  1
  C  C8  1  0.61244900  0.10276000  0.28197200  1
  C  C9  1  0.38755100  0.89724000  0.71802800  1
  C  C10  1  0.88657700  0.39238600  0.21835100  1
  C  C11  1  0.11342300  0.60761400  0.78164900  1
  C  C12  1  0.60761400  0.11342300  0.78164900  1
  C  C13  1  0.39238600  0.88657700  0.21835100  1
  C  C14  1  0.10276000  0.61244900  0.28197200  1
  C  C15  1  0.89724000  0.38755100  0.71802800  1
  C  C16  1  0.24317200  0.24317200  0.00221600  1
  C  C17  1  0.75682800  0.75682800  0.99778400  1
  C  C18  1  0.24541400  0.24541400  0.49973700  1
  C  C19  1  0.75458600  0.75458600  0.50026300  1
  Ni  Ni20  1  0.32260000  0.32260000  0.11548200  1
  Ni  Ni21  1  0.67740000  0.67740000  0.88451800  1
  Ni  Ni22  1  0.56350200  0.56350200  0.61375700  1
  Ni  Ni23  1  0.43649800  0.43649800  0.38624300  1
  Cu  Cu24  1  0.54603100  0.54603100  0.13892600  1
  Cu  Cu25  1  0.45396900  0.45396900  0.86107400  1
  Cu  Cu26  1  0.18121300  0.18121300  0.36200800  1
  Cu  Cu27  1  0.81878700  0.81878700  0.63799200  1
  Cu  Cu28  1  0.04010300  0.04010300  0.14127200  1
  Cu  Cu29  1  0.95989700  0.95989700  0.85872800  1
  Cu  Cu30  1  0.68484500  0.68484500  0.35790300  1
  Cu  Cu31  1  0.31515500  0.31515500  0.64209700  1
  C  C32  1  0.61789400  0.61789400  0.14080000  1
  C  C33  1  0.38210600  0.38210600  0.85920000  1
  C  C34  1  0.55327600  0.55327600  0.04452700  1
  C  C35  1  0.44672400  0.44672400  0.95547300  1
  C  C36  1  0.54174600  0.54174600  0.76541200  1
  C  C37  1  0.45825400  0.45825400  0.23458800  1
  C  C38  1  0.09652900  0.09652900  0.45689000  1
  C  C39  1  0.90347100  0.90347100  0.54311000  1
  C  C40  1  0.25700600  0.25700600  0.35657500  1
  C  C41  1  0.74299400  0.74299400  0.64342500  1
  C  C42  1  0.19087100  0.19087100  0.26487300  1
  C  C43  1  0.80912900  0.80912900  0.73512700  1
  C  C44  1  0.04668200  0.04668200  0.76316400  1
  C  C45  1  0.95331800  0.95331800  0.23683600  1
  C  C46  1  0.11217900  0.11217900  0.14502100  1
  C  C47  1  0.88782100  0.88782100  0.85497900  1
  C  C48  1  0.05308600  0.05308600  0.04355000  1
  C  C49  1  0.94691400  0.94691400  0.95645000  1
  C  C50  1  0.69380400  0.69380400  0.26348600  1
  C  C51  1  0.30619600  0.30619600  0.73651400  1
  C  C52  1  0.75802200  0.75802200  0.35843200  1
  C  C53  1  0.24197800  0.24197800  0.64156800  1
  C  C54  1  0.59767400  0.59767400  0.45517700  1
  C  C55  1  0.40232600  0.40232600  0.54482300  1
  C  C56  1  0.62189500  0.13284700  0.14290800  1
  C  C57  1  0.37810500  0.86715300  0.85709200  1
  C  C58  1  0.13284700  0.62189500  0.14290800  1
  C  C59  1  0.86715300  0.37810500  0.85709200  1
  C  C60  1  0.02575600  0.51020000  0.07734900  1
  C  C61  1  0.97424400  0.48980000  0.92265100  1
  C  C62  1  0.51020000  0.02575600  0.07734900  1
  C  C63  1  0.48980000  0.97424400  0.92265100  1
  C  C64  1  0.76530200  0.27503200  0.35747500  1
  C  C65  1  0.23469800  0.72496800  0.64252500  1
  C  C66  1  0.72496800  0.23469800  0.64252500  1
  C  C67  1  0.27503200  0.76530200  0.35747500  1
  C  C68  1  0.58692700  0.10392500  0.42242900  1
  C  C69  1  0.41307300  0.89607500  0.57757100  1
  C  C70  1  0.89607500  0.41307300  0.57757100  1
  C  C71  1  0.10392500  0.58692700  0.42242900  1
