# generated using pymatgen
data_Cu6Ni3C
_symmetry_space_group_name_H-M   'P 1'
_cell_length_a   6.41471500
_cell_length_b   6.18766426
_cell_length_c   11.14313386
_cell_angle_alpha   76.17385121
_cell_angle_beta   90.00000000
_cell_angle_gamma   90.00000000
_symmetry_Int_Tables_number   1
_chemical_formula_structural   Cu6Ni3C
_chemical_formula_sum   'Cu12 Ni6 C2'
_cell_volume   429.47907331
_cell_formula_units_Z   2
loop_
 _symmetry_equiv_pos_site_id
 _symmetry_equiv_pos_as_xyz
  1  'x, y, z'
loop_
 _atom_site_type_symbol
 _atom_site_label
 _atom_site_symmetry_multiplicity
 _atom_site_fract_x
 _atom_site_fract_y
 _atom_site_fract_z
 _atom_site_occupancy
  C  C0  1  0.68438400  0.75000000  0.75000000  1
  C  C1  1  0.31561600  0.25000000  0.25000000  1
  Ni  Ni2  1  0.07779000  0.25000000  0.75000000  1
  Ni  Ni3  1  0.92221000  0.75000000  0.25000000  1
  Ni  Ni4  1  0.19721300  0.76701900  0.55232400  1
  Ni  Ni5  1  0.80278700  0.23298100  0.44767600  1
  Ni  Ni6  1  0.19721300  0.73298100  0.94767600  1
  Ni  Ni7  1  0.80278700  0.26701900  0.05232400  1
  Cu  Cu8  1  0.91725600  0.48189200  0.69534300  1
  Cu  Cu9  1  0.08274400  0.51810800  0.30465700  1
  Cu  Cu10  1  0.91725600  0.01810800  0.80465700  1
  Cu  Cu11  1  0.08274400  0.98189200  0.19534300  1
  Cu  Cu12  1  0.72813700  0.98528100  0.55005900  1
  Cu  Cu13  1  0.27186300  0.01471900  0.44994100  1
  Cu  Cu14  1  0.72813700  0.51471900  0.94994100  1
  Cu  Cu15  1  0.27186300  0.48528100  0.05005900  1
  Cu  Cu16  1  0.41319300  0.63113000  0.63589100  1
  Cu  Cu17  1  0.58680700  0.36887000  0.36410900  1
  Cu  Cu18  1  0.41319300  0.86887000  0.86410900  1
  Cu  Cu19  1  0.58680700  0.13113000  0.13589100  1
