# generated using pymatgen
data_Cu7Ni2C5
_symmetry_space_group_name_H-M   'P 1'
_cell_length_a   9.17476734
_cell_length_b   9.17476734
_cell_length_c   10.20299653
_cell_angle_alpha   85.78580185
_cell_angle_beta   85.78580185
_cell_angle_gamma   43.15267709
_symmetry_Int_Tables_number   1
_chemical_formula_structural   Cu7Ni2C5
_chemical_formula_sum   'Cu14 Ni4 C10'
_cell_volume   585.56978790
_cell_formula_units_Z   2
loop_
 _symmetry_equiv_pos_site_id
 _symmetry_equiv_pos_as_xyz
  1  'x, y, z'
loop_
 _atom_site_type_symbol
 _atom_site_label
 _atom_site_symmetry_multiplicity
 _atom_site_fract_x
 _atom_site_fract_y
 _atom_site_fract_z
 _atom_site_occupancy
  C  C0  1  0.56209700  0.27748000  0.29443600  1
  C  C1  1  0.27748000  0.56209700  0.79443600  1
  C  C2  1  0.02527000  0.67707300  0.13704300  1
  C  C3  1  0.67707300  0.02527000  0.63704300  1
  C  C4  1  0.97757500  0.30777200  0.22078700  1
  C  C5  1  0.30777200  0.97757500  0.72078700  1
  C  C6  1  0.89524900  0.52804500  0.85637600  1
  C  C7  1  0.52804500  0.89524900  0.35637600  1
  C  C8  1  0.81791500  0.16875000  0.94310800  1
  C  C9  1  0.16875000  0.81791500  0.44310800  1
  Ni  Ni10  1  0.45294200  0.11319000  0.01795100  1
  Ni  Ni11  1  0.11319000  0.45294200  0.51795100  1
  Ni  Ni12  1  0.39483200  0.74285300  0.08102500  1
  Ni  Ni13  1  0.74285300  0.39483200  0.58102500  1
  Cu  Cu14  1  0.50995200  0.84494500  0.93088500  1
  Cu  Cu15  1  0.84494500  0.50995200  0.43088500  1
  Cu  Cu16  1  0.67621200  0.39557600  0.12784900  1
  Cu  Cu17  1  0.39557600  0.67621200  0.62784900  1
  Cu  Cu18  1  0.27047000  0.92303800  0.26567400  1
  Cu  Cu19  1  0.92303800  0.27047000  0.76567400  1
  Cu  Cu20  1  0.14550500  0.79819700  0.98570200  1
  Cu  Cu21  1  0.79819700  0.14550500  0.48570200  1
  Cu  Cu22  1  0.65129500  0.98565700  0.18958100  1
  Cu  Cu23  1  0.98565700  0.65129500  0.68958100  1
  Cu  Cu24  1  0.10610800  0.38823300  0.04886200  1
  Cu  Cu25  1  0.38823300  0.10610800  0.54886200  1
  Cu  Cu26  1  0.57578200  0.18170500  0.85374100  1
  Cu  Cu27  1  0.18170500  0.57578200  0.35374100  1
