# generated using pymatgen
data_Cu7NiC12
_symmetry_space_group_name_H-M   'P 1'
_cell_length_a   11.27988693
_cell_length_b   11.27988693
_cell_length_c   11.27988693
_cell_angle_alpha   115.02273809
_cell_angle_beta   115.02273809
_cell_angle_gamma   98.86136710
_symmetry_Int_Tables_number   1
_chemical_formula_structural   Cu7NiC12
_chemical_formula_sum   'Cu14 Ni2 C24'
_cell_volume   1077.19795349
_cell_formula_units_Z   2
loop_
 _symmetry_equiv_pos_site_id
 _symmetry_equiv_pos_as_xyz
  1  'x, y, z'
loop_
 _atom_site_type_symbol
 _atom_site_label
 _atom_site_symmetry_multiplicity
 _atom_site_fract_x
 _atom_site_fract_y
 _atom_site_fract_z
 _atom_site_occupancy
  C  C0  1  0.84988100  0.71417800  0.27966200  1
  C  C1  1  0.15011900  0.28582200  0.72033800  1
  C  C2  1  0.43451600  0.57021900  0.72033800  1
  C  C3  1  0.71417800  0.43451600  0.86429700  1
  C  C4  1  0.06548400  0.78582200  0.13570300  1
  C  C5  1  0.56548400  0.42978100  0.27966200  1
  C  C6  1  0.28582200  0.56548400  0.13570300  1
  C  C7  1  0.93451600  0.21417800  0.86429700  1
  C  C8  1  0.57021900  0.84988100  0.13570300  1
  C  C9  1  0.65011900  0.92978100  0.86429700  1
  C  C10  1  0.42978100  0.15011900  0.86429700  1
  C  C11  1  0.34988100  0.07021900  0.13570300  1
  C  C12  1  0.92978100  0.06548400  0.27966200  1
  C  C13  1  0.07021900  0.93451600  0.72033800  1
  C  C14  1  0.78582200  0.65011900  0.72033800  1
  C  C15  1  0.21417800  0.34988100  0.27966200  1
  C  C16  1  0.17699000  0.67699000  0.85398000  1
  C  C17  1  0.82301000  0.32301000  0.14602000  1
  C  C18  1  0.67699000  0.82301000  0.50000000  1
  C  C19  1  0.32301000  0.17699000  0.50000000  1
  C  C20  1  0.13398000  0.63398000  0.50000000  1
  C  C21  1  0.86602000  0.36602000  0.50000000  1
  C  C22  1  0.63398000  0.13398000  0.50000000  1
  C  C23  1  0.36602000  0.86602000  0.50000000  1
  Ni  Ni24  1  0.50000000  0.50000000  0.00000000  1
  Ni  Ni25  1  0.00000000  0.00000000  0.00000000  1
  Cu  Cu26  1  0.62583700  0.12583700  0.75167400  1
  Cu  Cu27  1  0.37416300  0.87416300  0.24832600  1
  Cu  Cu28  1  0.12583700  0.37416300  0.50000000  1
  Cu  Cu29  1  0.87416300  0.62583700  0.50000000  1
  Cu  Cu30  1  0.37072400  0.87072400  0.85105900  1
  Cu  Cu31  1  0.62927600  0.12927600  0.14894100  1
  Cu  Cu32  1  0.01966500  0.51966500  0.14894100  1
  Cu  Cu33  1  0.87072400  0.01966500  0.50000000  1
  Cu  Cu34  1  0.48033500  0.62927600  0.50000000  1
  Cu  Cu35  1  0.98033500  0.48033500  0.85105900  1
  Cu  Cu36  1  0.12927600  0.98033500  0.50000000  1
  Cu  Cu37  1  0.51966500  0.37072400  0.50000000  1
  Cu  Cu38  1  0.75000000  0.75000000  0.00000000  1
  Cu  Cu39  1  0.25000000  0.25000000  0.00000000  1
