# generated using pymatgen
data_Cu9Ni6C
_symmetry_space_group_name_H-M   'P 1'
_cell_length_a   7.64314730
_cell_length_b   13.62497746
_cell_length_c   11.44816000
_cell_angle_alpha   90.00000000
_cell_angle_beta   90.00000000
_cell_angle_gamma   26.96043610
_symmetry_Int_Tables_number   1
_chemical_formula_structural   Cu9Ni6C
_chemical_formula_sum   'Cu18 Ni12 C2'
_cell_volume   540.50710752
_cell_formula_units_Z   2
loop_
 _symmetry_equiv_pos_site_id
 _symmetry_equiv_pos_as_xyz
  1  'x, y, z'
loop_
 _atom_site_type_symbol
 _atom_site_label
 _atom_site_symmetry_multiplicity
 _atom_site_fract_x
 _atom_site_fract_y
 _atom_site_fract_z
 _atom_site_occupancy
  C  C0  1  0.00000000  0.27408200  0.25000000  1
  C  C1  1  0.00000000  0.72591800  0.75000000  1
  Ni  Ni2  1  0.67675800  0.78561800  0.25000000  1
  Ni  Ni3  1  0.67675800  0.53762300  0.75000000  1
  Ni  Ni4  1  0.32324200  0.21438200  0.75000000  1
  Ni  Ni5  1  0.32324200  0.46237700  0.25000000  1
  Ni  Ni6  1  0.67611600  0.31023100  0.90131700  1
  Ni  Ni7  1  0.67611600  0.01365300  0.09868300  1
  Ni  Ni8  1  0.67611600  0.31023100  0.59868300  1
  Ni  Ni9  1  0.67611600  0.01365300  0.40131700  1
  Ni  Ni10  1  0.32388400  0.68976900  0.09868300  1
  Ni  Ni11  1  0.32388400  0.98634700  0.90131700  1
  Ni  Ni12  1  0.32388400  0.68976900  0.40131700  1
  Ni  Ni13  1  0.32388400  0.98634700  0.59868300  1
  Cu  Cu14  1  0.00000000  0.57621600  0.25000000  1
  Cu  Cu15  1  0.00000000  0.42378400  0.75000000  1
  Cu  Cu16  1  0.37459300  0.97620200  0.25000000  1
  Cu  Cu17  1  0.37459300  0.64920500  0.75000000  1
  Cu  Cu18  1  0.62540700  0.02379800  0.75000000  1
  Cu  Cu19  1  0.62540700  0.35079500  0.25000000  1
  Cu  Cu20  1  0.00000000  0.12144400  0.94776200  1
  Cu  Cu21  1  0.00000000  0.87855600  0.05223800  1
  Cu  Cu22  1  0.00000000  0.12144400  0.55223800  1
  Cu  Cu23  1  0.00000000  0.87855600  0.44776200  1
  Cu  Cu24  1  0.37233300  0.48432700  0.86370500  1
  Cu  Cu25  1  0.37233300  0.14333900  0.13629500  1
  Cu  Cu26  1  0.37233300  0.48432700  0.63629500  1
  Cu  Cu27  1  0.37233300  0.14333900  0.36370500  1
  Cu  Cu28  1  0.62766700  0.51567300  0.13629500  1
  Cu  Cu29  1  0.62766700  0.85666100  0.86370500  1
  Cu  Cu30  1  0.62766700  0.51567300  0.36370500  1
  Cu  Cu31  1  0.62766700  0.85666100  0.63629500  1
