# generated using pymatgen
data_Cu5NiC4
_symmetry_space_group_name_H-M   'P 1'
_cell_length_a   8.20584600
_cell_length_b   5.40847800
_cell_length_c   4.65494900
_cell_angle_alpha   90.00000000
_cell_angle_beta   90.00000000
_cell_angle_gamma   90.00000000
_symmetry_Int_Tables_number   1
_chemical_formula_structural   Cu5NiC4
_chemical_formula_sum   'Cu10 Ni2 C8'
_cell_volume   206.59193191
_cell_formula_units_Z   2
loop_
 _symmetry_equiv_pos_site_id
 _symmetry_equiv_pos_as_xyz
  1  'x, y, z'
loop_
 _atom_site_type_symbol
 _atom_site_label
 _atom_site_symmetry_multiplicity
 _atom_site_fract_x
 _atom_site_fract_y
 _atom_site_fract_z
 _atom_site_occupancy
  Ni  Ni0  1  0.75000000  0.25000000  0.69437700  1
  Ni  Ni1  1  0.25000000  0.75000000  0.30562300  1
  Cu  Cu2  1  0.55149800  0.50447400  0.26206600  1
  Cu  Cu3  1  0.94850200  0.50447400  0.26206600  1
  Cu  Cu4  1  0.55149800  0.99552600  0.26206600  1
  Cu  Cu5  1  0.94850200  0.99552600  0.26206600  1
  Cu  Cu6  1  0.44850200  0.49552600  0.73793400  1
  Cu  Cu7  1  0.05149800  0.49552600  0.73793400  1
  Cu  Cu8  1  0.44850200  0.00447400  0.73793400  1
  Cu  Cu9  1  0.05149800  0.00447400  0.73793400  1
  Cu  Cu10  1  0.75000000  0.75000000  0.85398300  1
  Cu  Cu11  1  0.25000000  0.25000000  0.14601700  1
  C  C12  1  0.75000000  0.99002300  0.13785700  1
  C  C13  1  0.75000000  0.50997700  0.13785700  1
  C  C14  1  0.25000000  0.00997700  0.86214300  1
  C  C15  1  0.25000000  0.49002300  0.86214300  1
  C  C16  1  0.57509900  0.75000000  0.55951900  1
  C  C17  1  0.92490100  0.75000000  0.55951900  1
  C  C18  1  0.42490100  0.25000000  0.44048100  1
  C  C19  1  0.07509900  0.25000000  0.44048100  1
