# generated using pymatgen
data_CuNi4C3
_symmetry_space_group_name_H-M   'P 1'
_cell_length_a   5.47548200
_cell_length_b   5.47548200
_cell_length_c   6.43907945
_cell_angle_alpha   115.16179390
_cell_angle_beta   115.16179390
_cell_angle_gamma   90.00000000
_symmetry_Int_Tables_number   1
_chemical_formula_structural   CuNi4C3
_chemical_formula_sum   'Cu2 Ni8 C6'
_cell_volume   154.25252612
_cell_formula_units_Z   2
loop_
 _symmetry_equiv_pos_site_id
 _symmetry_equiv_pos_as_xyz
  1  'x, y, z'
loop_
 _atom_site_type_symbol
 _atom_site_label
 _atom_site_symmetry_multiplicity
 _atom_site_fract_x
 _atom_site_fract_y
 _atom_site_fract_z
 _atom_site_occupancy
  Ni  Ni0  1  0.02914200  0.52914200  0.72620200  1
  Ni  Ni1  1  0.69706000  0.19706000  0.72620200  1
  Ni  Ni2  1  0.19706000  0.02914200  0.72620200  1
  Ni  Ni3  1  0.52914200  0.69706000  0.72620200  1
  Ni  Ni4  1  0.97085800  0.47085800  0.27379800  1
  Ni  Ni5  1  0.30294000  0.80294000  0.27379800  1
  Ni  Ni6  1  0.80294000  0.97085800  0.27379800  1
  Ni  Ni7  1  0.47085800  0.30294000  0.27379800  1
  Cu  Cu8  1  0.50000000  0.50000000  0.00000000  1
  Cu  Cu9  1  0.00000000  0.00000000  0.00000000  1
  C  C10  1  0.25000000  0.25000000  0.50000000  1
  C  C11  1  0.75000000  0.75000000  0.50000000  1
  C  C12  1  0.37900000  0.87900000  0.00000000  1
  C  C13  1  0.62100000  0.12100000  0.00000000  1
  C  C14  1  0.12100000  0.37900000  0.00000000  1
  C  C15  1  0.87900000  0.62100000  0.00000000  1
