# generated using pymatgen
data_Cu3(NiC)2
_symmetry_space_group_name_H-M   'P 1'
_cell_length_a   9.29210000
_cell_length_b   10.24837200
_cell_length_c   13.51636048
_cell_angle_alpha   68.11644782
_cell_angle_beta   90.00000000
_cell_angle_gamma   90.00000000
_symmetry_Int_Tables_number   1
_chemical_formula_structural   Cu3(NiC)2
_chemical_formula_sum   'Cu24 Ni16 C16'
_cell_volume   1194.40044718
_cell_formula_units_Z   8
loop_
 _symmetry_equiv_pos_site_id
 _symmetry_equiv_pos_as_xyz
  1  'x, y, z'
loop_
 _atom_site_type_symbol
 _atom_site_label
 _atom_site_symmetry_multiplicity
 _atom_site_fract_x
 _atom_site_fract_y
 _atom_site_fract_z
 _atom_site_occupancy
  C  C0  1  0.31102200  0.58265100  0.05304700  1
  C  C1  1  0.81102200  0.41734900  0.44695300  1
  C  C2  1  0.68897800  0.41734900  0.94695300  1
  C  C3  1  0.18897800  0.58265100  0.55304700  1
  C  C4  1  0.01162700  0.78395600  0.19478000  1
  C  C5  1  0.51162700  0.21604400  0.30522000  1
  C  C6  1  0.98837300  0.21604400  0.80522000  1
  C  C7  1  0.48837300  0.78395600  0.69478000  1
  C  C8  1  0.32509300  0.12118100  0.03963900  1
  C  C9  1  0.82509300  0.87881900  0.46036100  1
  C  C10  1  0.67490700  0.87881900  0.96036100  1
  C  C11  1  0.17490700  0.12118100  0.53963900  1
  C  C12  1  0.49090600  0.73504400  0.29399400  1
  C  C13  1  0.99090600  0.26495600  0.20600600  1
  C  C14  1  0.50909400  0.26495600  0.70600600  1
  C  C15  1  0.00909400  0.73504400  0.79399400  1
  Ni  Ni16  1  0.34885200  0.90480000  0.44260500  1
  Ni  Ni17  1  0.84885200  0.09520000  0.05739500  1
  Ni  Ni18  1  0.65114800  0.09520000  0.55739500  1
  Ni  Ni19  1  0.15114800  0.90480000  0.94260500  1
  Ni  Ni20  1  0.38484000  0.40822200  0.43534600  1
  Ni  Ni21  1  0.88484000  0.59177800  0.06465400  1
  Ni  Ni22  1  0.61516000  0.59177800  0.56465400  1
  Ni  Ni23  1  0.11516000  0.40822200  0.93534600  1
  Ni  Ni24  1  0.16602800  0.94106000  0.35427300  1
  Ni  Ni25  1  0.66602800  0.05894000  0.14572700  1
  Ni  Ni26  1  0.83397200  0.05894000  0.64572700  1
  Ni  Ni27  1  0.33397200  0.94106000  0.85427300  1
  Ni  Ni28  1  0.22889500  0.45682600  0.32142900  1
  Ni  Ni29  1  0.72889500  0.54317400  0.17857100  1
  Ni  Ni30  1  0.77110500  0.54317400  0.67857100  1
  Ni  Ni31  1  0.27110500  0.45682600  0.82142900  1
  Cu  Cu32  1  0.08383500  0.80624900  0.38497200  1
  Cu  Cu33  1  0.58383500  0.19375100  0.11502800  1
  Cu  Cu34  1  0.91616500  0.19375100  0.61502800  1
  Cu  Cu35  1  0.41616500  0.80624900  0.88497200  1
  Cu  Cu36  1  0.57694100  0.95363600  0.12152700  1
  Cu  Cu37  1  0.07694100  0.04636400  0.37847300  1
  Cu  Cu38  1  0.42305900  0.04636400  0.87847300  1
  Cu  Cu39  1  0.92305900  0.95363600  0.62152700  1
  Cu  Cu40  1  0.20533300  0.99302400  0.23929400  1
  Cu  Cu41  1  0.70533300  0.00697600  0.26070600  1
  Cu  Cu42  1  0.79466700  0.00697600  0.76070600  1
  Cu  Cu43  1  0.29466700  0.99302400  0.73929400  1
  Cu  Cu44  1  0.24514500  0.60815500  0.25119600  1
  Cu  Cu45  1  0.74514500  0.39184500  0.24880400  1
  Cu  Cu46  1  0.75485500  0.39184500  0.74880400  1
  Cu  Cu47  1  0.25485500  0.60815500  0.75119600  1
  Cu  Cu48  1  0.25005300  0.36766400  0.25676000  1
  Cu  Cu49  1  0.75005300  0.63233600  0.24324000  1
  Cu  Cu50  1  0.74994700  0.63233600  0.74324000  1
  Cu  Cu51  1  0.24994700  0.36766400  0.75676000  1
  Cu  Cu52  1  0.08685400  0.42904700  0.37576000  1
  Cu  Cu53  1  0.58685400  0.57095300  0.12424000  1
  Cu  Cu54  1  0.91314600  0.57095300  0.62424000  1
  Cu  Cu55  1  0.41314600  0.42904700  0.87576000  1
