# generated using pymatgen
data_CuNiC8
_symmetry_space_group_name_H-M   'P 1'
_cell_length_a   8.48994097
_cell_length_b   8.48380834
_cell_length_c   8.51352539
_cell_angle_alpha   90.00000000
_cell_angle_beta   90.00000000
_cell_angle_gamma   90.00000000
_symmetry_Int_Tables_number   1
_chemical_formula_structural   CuNiC8
_chemical_formula_sum   'Cu4 Ni4 C32'
_cell_volume   613.20396576
_cell_formula_units_Z   4
loop_
 _symmetry_equiv_pos_site_id
 _symmetry_equiv_pos_as_xyz
  1  'x, y, z'
loop_
 _atom_site_type_symbol
 _atom_site_label
 _atom_site_symmetry_multiplicity
 _atom_site_fract_x
 _atom_site_fract_y
 _atom_site_fract_z
 _atom_site_occupancy
  Ni  Ni0  1  -0.00000000  0.50000000  0.50000000  1
  Ni  Ni1  1  0.50000000  0.50000000  -0.00000000  1
  Ni  Ni2  1  0.50000000  0.00000000  0.00000000  1
  Ni  Ni3  1  -0.00000000  -0.00000000  0.50000000  1
  C  C4  1  0.75000000  0.75000000  0.75000000  1
  C  C5  1  0.25000000  0.25000000  0.75000000  1
  C  C6  1  0.25000000  0.75000000  0.25000000  1
  C  C7  1  0.75000000  0.25000000  0.25000000  1
  Cu  Cu8  1  0.50000000  0.00000000  0.50000000  1
  Cu  Cu9  1  -0.00000000  0.50000000  -0.00000000  1
  Cu  Cu10  1  -0.00000000  -0.00000000  0.00000000  1
  Cu  Cu11  1  0.50000000  0.50000000  0.50000000  1
  C  C12  1  0.25000000  0.25000000  0.25000000  1
  C  C13  1  0.75000000  0.75000000  0.25000000  1
  C  C14  1  0.75000000  0.25000000  0.75000000  1
  C  C15  1  0.25000000  0.75000000  0.75000000  1
  C  C16  1  0.02289717  0.22073984  0.26782590  1
  C  C17  1  0.97710283  0.77926016  0.26782590  1
  C  C18  1  0.97710283  0.22073984  0.73217410  1
  C  C19  1  0.02289717  0.77926016  0.73217410  1
  C  C20  1  0.27342047  0.02272202  0.22240248  1
  C  C21  1  0.27342047  0.97727798  0.77759752  1
  C  C22  1  0.72657953  0.97727798  0.22240248  1
  C  C23  1  0.72657953  0.02272202  0.77759752  1
  C  C24  1  0.21108863  0.27618692  0.02193385  1
  C  C25  1  0.78891137  0.27618692  0.97806615  1
  C  C26  1  0.21108863  0.72381308  0.97806615  1
  C  C27  1  0.78891137  0.72381308  0.02193385  1
  C  C28  1  0.47710283  0.27926016  0.23217410  1
  C  C29  1  0.52289717  0.72073984  0.23217410  1
  C  C30  1  0.52289717  0.27926016  0.76782590  1
  C  C31  1  0.47710283  0.72073984  0.76782590  1
  C  C32  1  0.22657953  0.47727798  0.27759752  1
  C  C33  1  0.22657953  0.52272202  0.72240248  1
  C  C34  1  0.77342047  0.52272202  0.27759752  1
  C  C35  1  0.77342047  0.47727798  0.72240248  1
  C  C36  1  0.28891137  0.22381308  0.47806615  1
  C  C37  1  0.71108863  0.22381308  0.52193385  1
  C  C38  1  0.28891137  0.77618692  0.52193385  1
  C  C39  1  0.71108863  0.77618692  0.47806615  1
