# generated using pymatgen
data_Cu3(NiC)5
_symmetry_space_group_name_H-M   'P 1'
_cell_length_a   3.83711900
_cell_length_b   13.98063600
_cell_length_c   18.74778500
_cell_angle_alpha   90.00000000
_cell_angle_beta   90.00000000
_cell_angle_gamma   90.00000000
_symmetry_Int_Tables_number   1
_chemical_formula_structural   Cu3(NiC)5
_chemical_formula_sum   'Cu12 Ni20 C20'
_cell_volume   1005.73175104
_cell_formula_units_Z   4
loop_
 _symmetry_equiv_pos_site_id
 _symmetry_equiv_pos_as_xyz
  1  'x, y, z'
loop_
 _atom_site_type_symbol
 _atom_site_label
 _atom_site_symmetry_multiplicity
 _atom_site_fract_x
 _atom_site_fract_y
 _atom_site_fract_z
 _atom_site_occupancy
  C  C0  1  0.25000000  0.88709800  0.33832900  1
  C  C1  1  0.75000000  0.11290200  0.66167100  1
  C  C2  1  0.75000000  0.61290200  0.83832900  1
  C  C3  1  0.25000000  0.38709800  0.16167100  1
  C  C4  1  0.25000000  0.89005300  0.95397100  1
  C  C5  1  0.75000000  0.10994700  0.04602900  1
  C  C6  1  0.75000000  0.60994700  0.45397100  1
  C  C7  1  0.25000000  0.39005300  0.54602900  1
  C  C8  1  0.25000000  0.89826900  0.56376400  1
  C  C9  1  0.75000000  0.10173100  0.43623600  1
  C  C10  1  0.75000000  0.60173100  0.06376400  1
  C  C11  1  0.25000000  0.39826900  0.93623600  1
  C  C12  1  0.25000000  0.65180300  0.22918000  1
  C  C13  1  0.75000000  0.34819700  0.77082000  1
  C  C14  1  0.75000000  0.84819700  0.72918000  1
  C  C15  1  0.25000000  0.15180300  0.27082000  1
  C  C16  1  0.25000000  0.64200300  0.65524800  1
  C  C17  1  0.75000000  0.35799700  0.34475200  1
  C  C18  1  0.75000000  0.85799700  0.15524800  1
  C  C19  1  0.25000000  0.14200300  0.84475200  1
  Ni  Ni20  1  0.25000000  0.71285500  0.51627100  1
  Ni  Ni21  1  0.75000000  0.28714500  0.48372900  1
  Ni  Ni22  1  0.75000000  0.78714500  0.01627100  1
  Ni  Ni23  1  0.25000000  0.21285500  0.98372900  1
  Ni  Ni24  1  0.25000000  0.59396200  0.94988200  1
  Ni  Ni25  1  0.75000000  0.40603800  0.05011800  1
  Ni  Ni26  1  0.75000000  0.90603800  0.44988200  1
  Ni  Ni27  1  0.25000000  0.09396200  0.55011800  1
  Ni  Ni28  1  0.25000000  0.77391500  0.83377500  1
  Ni  Ni29  1  0.75000000  0.22608500  0.16622500  1
  Ni  Ni30  1  0.75000000  0.72608500  0.33377500  1
  Ni  Ni31  1  0.25000000  0.27391500  0.66622500  1
  Ni  Ni32  1  0.25000000  0.50622500  0.76250200  1
  Ni  Ni33  1  0.75000000  0.49377500  0.23749800  1
  Ni  Ni34  1  0.75000000  0.99377500  0.26250200  1
  Ni  Ni35  1  0.25000000  0.00622500  0.73749800  1
  Ni  Ni36  1  0.25000000  0.98479400  0.08948900  1
  Ni  Ni37  1  0.75000000  0.01520600  0.91051100  1
  Ni  Ni38  1  0.75000000  0.51520600  0.58948900  1
  Ni  Ni39  1  0.25000000  0.48479400  0.41051100  1
  Cu  Cu40  1  0.25000000  0.82098700  0.21630600  1
  Cu  Cu41  1  0.75000000  0.17901300  0.78369400  1
  Cu  Cu42  1  0.75000000  0.67901300  0.71630600  1
  Cu  Cu43  1  0.25000000  0.32098700  0.28369400  1
  Cu  Cu44  1  0.25000000  0.80365000  0.66481200  1
  Cu  Cu45  1  0.75000000  0.19635000  0.33518800  1
  Cu  Cu46  1  0.75000000  0.69635000  0.16481200  1
  Cu  Cu47  1  0.25000000  0.30365000  0.83518800  1
  Cu  Cu48  1  0.25000000  0.56764600  0.12060800  1
  Cu  Cu49  1  0.75000000  0.43235400  0.87939200  1
  Cu  Cu50  1  0.75000000  0.93235400  0.62060800  1
  Cu  Cu51  1  0.25000000  0.06764600  0.37939200  1
