# generated using pymatgen
data_Cu2Ni3C2
_symmetry_space_group_name_H-M   'P 1'
_cell_length_a   7.38164800
_cell_length_b   8.96941700
_cell_length_c   13.35975500
_cell_angle_alpha   90.00000000
_cell_angle_beta   90.00000000
_cell_angle_gamma   90.00000000
_symmetry_Int_Tables_number   1
_chemical_formula_structural   Cu2Ni3C2
_chemical_formula_sum   'Cu8 Ni12 C8'
_cell_volume   884.53707501
_cell_formula_units_Z   4
loop_
 _symmetry_equiv_pos_site_id
 _symmetry_equiv_pos_as_xyz
  1  'x, y, z'
loop_
 _atom_site_type_symbol
 _atom_site_label
 _atom_site_symmetry_multiplicity
 _atom_site_fract_x
 _atom_site_fract_y
 _atom_site_fract_z
 _atom_site_occupancy
  C  C0  1  0.50000000  0.75000000  0.37265800  1
  C  C1  1  0.50000000  0.25000000  0.62734200  1
  C  C2  1  0.50000000  0.25000000  0.12734200  1
  C  C3  1  0.50000000  0.75000000  0.87265800  1
  C  C4  1  0.03287000  0.50000000  0.25000000  1
  C  C5  1  0.96713000  0.50000000  0.75000000  1
  C  C6  1  0.96713000  0.00000000  0.25000000  1
  C  C7  1  0.03287000  0.00000000  0.75000000  1
  Ni  Ni8  1  0.25027000  0.61538800  0.13102000  1
  Ni  Ni9  1  0.74973000  0.38461200  0.86898000  1
  Ni  Ni10  1  0.74973000  0.88461200  0.13102000  1
  Ni  Ni11  1  0.25027000  0.38461200  0.36898000  1
  Ni  Ni12  1  0.25027000  0.11538800  0.86898000  1
  Ni  Ni13  1  0.74973000  0.61538800  0.63102000  1
  Ni  Ni14  1  0.74973000  0.11538800  0.36898000  1
  Ni  Ni15  1  0.25027000  0.88461200  0.63102000  1
  Ni  Ni16  1  0.00000000  0.75000000  0.36533700  1
  Ni  Ni17  1  0.00000000  0.25000000  0.63466300  1
  Ni  Ni18  1  0.00000000  0.25000000  0.13466300  1
  Ni  Ni19  1  0.00000000  0.75000000  0.86533700  1
  Cu  Cu20  1  0.23458200  0.96689700  0.20619300  1
  Cu  Cu21  1  0.76541800  0.03310300  0.79380700  1
  Cu  Cu22  1  0.76541800  0.53310300  0.20619300  1
  Cu  Cu23  1  0.23458200  0.03310300  0.29380700  1
  Cu  Cu24  1  0.23458200  0.46689700  0.79380700  1
  Cu  Cu25  1  0.76541800  0.96689700  0.70619300  1
  Cu  Cu26  1  0.76541800  0.46689700  0.29380700  1
  Cu  Cu27  1  0.23458200  0.53310300  0.70619300  1
