# generated using pymatgen
data_Cu2Ni4C3
_symmetry_space_group_name_H-M   'P 1'
_cell_length_a   4.00544300
_cell_length_b   7.66657600
_cell_length_c   7.66657600
_cell_angle_alpha   90.00000000
_cell_angle_beta   90.00000000
_cell_angle_gamma   90.00000000
_symmetry_Int_Tables_number   1
_chemical_formula_structural   Cu2Ni4C3
_chemical_formula_sum   'Cu4 Ni8 C6'
_cell_volume   235.42547013
_cell_formula_units_Z   2
loop_
 _symmetry_equiv_pos_site_id
 _symmetry_equiv_pos_as_xyz
  1  'x, y, z'
loop_
 _atom_site_type_symbol
 _atom_site_label
 _atom_site_symmetry_multiplicity
 _atom_site_fract_x
 _atom_site_fract_y
 _atom_site_fract_z
 _atom_site_occupancy
  C  C0  1  0.24824700  0.25000000  0.25000000  1
  C  C1  1  0.74824700  0.75000000  0.75000000  1
  Ni  Ni2  1  0.36152700  0.91139400  0.03481300  1
  Ni  Ni3  1  0.36152700  0.58860600  0.46518700  1
  Ni  Ni4  1  0.86152700  0.53481300  0.08860600  1
  Ni  Ni5  1  0.86152700  0.96518700  0.41139400  1
  Ni  Ni6  1  0.64156400  0.08797900  0.97239300  1
  Ni  Ni7  1  0.64156400  0.41202100  0.52760700  1
  Ni  Ni8  1  0.14156400  0.47239300  0.91202100  1
  Ni  Ni9  1  0.14156400  0.02760700  0.58797900  1
  Cu  Cu10  1  0.13784600  0.40499000  0.64068700  1
  Cu  Cu11  1  0.13784600  0.09501000  0.85931300  1
  Cu  Cu12  1  0.63784600  0.14068700  0.59501000  1
  Cu  Cu13  1  0.63784600  0.35931300  0.90499000  1
  C  C14  1  0.85994100  0.60398200  0.35811900  1
  C  C15  1  0.85994100  0.89601800  0.14188100  1
  C  C16  1  0.35994100  0.85811900  0.39601800  1
  C  C17  1  0.35994100  0.64188100  0.10398200  1
