# generated using pymatgen
data_Cu14Ni2C15
_symmetry_space_group_name_H-M   'P 1'
_cell_length_a   12.59247500
_cell_length_b   6.28435000
_cell_length_c   9.29246047
_cell_angle_alpha   74.01474105
_cell_angle_beta   90.00000000
_cell_angle_gamma   90.00000000
_symmetry_Int_Tables_number   1
_chemical_formula_structural   Cu14Ni2C15
_chemical_formula_sum   'Cu28 Ni4 C30'
_cell_volume   706.92907719
_cell_formula_units_Z   2
loop_
 _symmetry_equiv_pos_site_id
 _symmetry_equiv_pos_as_xyz
  1  'x, y, z'
loop_
 _atom_site_type_symbol
 _atom_site_label
 _atom_site_symmetry_multiplicity
 _atom_site_fract_x
 _atom_site_fract_y
 _atom_site_fract_z
 _atom_site_occupancy
  C  C0  1  0.14899200  0.65411500  0.62747600  1
  C  C1  1  0.64899200  0.34588500  0.87252400  1
  C  C2  1  0.85100800  0.34588500  0.37252400  1
  C  C3  1  0.35100800  0.65411500  0.12747600  1
  C  C4  1  0.50000000  0.00000000  0.50000000  1
  C  C5  1  0.00000000  0.00000000  0.00000000  1
  C  C6  1  0.40522300  0.68500400  0.71113100  1
  C  C7  1  0.90522300  0.31499600  0.78886900  1
  C  C8  1  0.59477700  0.31499600  0.28886900  1
  C  C9  1  0.09477700  0.68500400  0.21113100  1
  C  C10  1  0.37139300  0.91892900  0.73905600  1
  C  C11  1  0.87139300  0.08107100  0.76094400  1
  C  C12  1  0.62860700  0.08107100  0.26094400  1
  C  C13  1  0.12860700  0.91892900  0.23905600  1
  C  C14  1  0.40347200  0.06442800  0.23139000  1
  C  C15  1  0.90347200  0.93557200  0.26861000  1
  C  C16  1  0.59652800  0.93557200  0.76861000  1
  C  C17  1  0.09652800  0.06442800  0.73139000  1
  C  C18  1  0.31573400  0.00480900  0.35867200  1
  C  C19  1  0.81573400  0.99519100  0.14132800  1
  C  C20  1  0.68426600  0.99519100  0.64132800  1
  C  C21  1  0.18426600  0.00480900  0.85867200  1
  C  C22  1  0.55457800  0.65371300  0.40925800  1
  C  C23  1  0.05457800  0.34628700  0.09074200  1
  C  C24  1  0.44542200  0.34628700  0.59074200  1
  C  C25  1  0.94542200  0.65371300  0.90925800  1
  C  C26  1  0.64263000  0.66836300  0.52774600  1
  C  C27  1  0.14263000  0.33163700  0.97225400  1
  C  C28  1  0.35737000  0.33163700  0.47225400  1
  C  C29  1  0.85737000  0.66836300  0.02774600  1
  Ni  Ni30  1  0.35872500  0.26908200  0.90280600  1
  Ni  Ni31  1  0.85872500  0.73091800  0.59719400  1
  Ni  Ni32  1  0.64127500  0.73091800  0.09719400  1
  Ni  Ni33  1  0.14127500  0.26908200  0.40280600  1
  Cu  Cu34  1  0.26563400  0.41334100  0.91114200  1
  Cu  Cu35  1  0.76563400  0.58665900  0.58885800  1
  Cu  Cu36  1  0.73436600  0.58665900  0.08885800  1
  Cu  Cu37  1  0.23436600  0.41334100  0.41114200  1
  Cu  Cu38  1  0.42052500  0.21945700  0.04451200  1
  Cu  Cu39  1  0.92052500  0.78054300  0.45548800  1
  Cu  Cu40  1  0.57947500  0.78054300  0.95548800  1
  Cu  Cu41  1  0.07947500  0.21945700  0.54451200  1
  Cu  Cu42  1  0.42857800  0.39196500  0.77629300  1
  Cu  Cu43  1  0.92857800  0.60803500  0.72370700  1
  Cu  Cu44  1  0.57142200  0.60803500  0.22370700  1
  Cu  Cu45  1  0.07142200  0.39196500  0.27629300  1
  Cu  Cu46  1  0.32030200  0.05791200  0.87402100  1
  Cu  Cu47  1  0.82030200  0.94208800  0.62597900  1
  Cu  Cu48  1  0.67969800  0.94208800  0.12597900  1
  Cu  Cu49  1  0.17969800  0.05791200  0.37402100  1
  Cu  Cu50  1  0.38900100  0.84303400  0.66169700  1
  Cu  Cu51  1  0.88900100  0.15696600  0.83830300  1
  Cu  Cu52  1  0.61099900  0.15696600  0.33830300  1
  Cu  Cu53  1  0.11099900  0.84303400  0.16169700  1
  Cu  Cu54  1  0.39038200  0.97296800  0.33542100  1
  Cu  Cu55  1  0.89038200  0.02703200  0.16457900  1
  Cu  Cu56  1  0.60961800  0.02703200  0.66457900  1
  Cu  Cu57  1  0.10961800  0.97296800  0.83542100  1
  Cu  Cu58  1  0.56587700  0.69755500  0.50206700  1
  Cu  Cu59  1  0.06587700  0.30244500  0.99793300  1
  Cu  Cu60  1  0.43412300  0.30244500  0.49793300  1
  Cu  Cu61  1  0.93412300  0.69755500  0.00206700  1
