# generated using pymatgen
data_CuNiC14
_symmetry_space_group_name_H-M   'P 1'
_cell_length_a   5.59864200
_cell_length_b   14.45066000
_cell_length_c   22.64914200
_cell_angle_alpha   90.00000000
_cell_angle_beta   90.00000000
_cell_angle_gamma   90.00000000
_symmetry_Int_Tables_number   1
_chemical_formula_structural   CuNiC14
_chemical_formula_sum   'Cu8 Ni8 C112'
_cell_volume   1832.40781519
_cell_formula_units_Z   8
loop_
 _symmetry_equiv_pos_site_id
 _symmetry_equiv_pos_as_xyz
  1  'x, y, z'
loop_
 _atom_site_type_symbol
 _atom_site_label
 _atom_site_symmetry_multiplicity
 _atom_site_fract_x
 _atom_site_fract_y
 _atom_site_fract_z
 _atom_site_occupancy
  C  C0  1  0.07169200  0.78613800  0.30844600  1
  C  C1  1  0.42830800  0.21386200  0.80844600  1
  C  C2  1  0.57169200  0.71386200  0.69155400  1
  C  C3  1  0.92830800  0.28613800  0.19155400  1
  C  C4  1  0.92830800  0.21386200  0.69155400  1
  C  C5  1  0.57169200  0.78613800  0.19155400  1
  C  C6  1  0.42830800  0.28613800  0.30844600  1
  C  C7  1  0.07169200  0.71386200  0.80844600  1
  C  C8  1  0.56669700  0.76244900  0.41572600  1
  C  C9  1  0.93330300  0.23755100  0.91572600  1
  C  C10  1  0.06669700  0.73755100  0.58427400  1
  C  C11  1  0.43330300  0.26244900  0.08427400  1
  C  C12  1  0.43330300  0.23755100  0.58427400  1
  C  C13  1  0.06669700  0.76244900  0.08427400  1
  C  C14  1  0.93330300  0.26244900  0.41572600  1
  C  C15  1  0.56669700  0.73755100  0.91572600  1
  C  C16  1  0.45204700  0.45594600  0.42591100  1
  C  C17  1  0.04795300  0.54405400  0.92591100  1
  C  C18  1  0.95204700  0.04405400  0.57408900  1
  C  C19  1  0.54795300  0.95594600  0.07408900  1
  C  C20  1  0.54795300  0.54405400  0.57408900  1
  C  C21  1  0.95204700  0.45594600  0.07408900  1
  C  C22  1  0.04795300  0.95594600  0.42591100  1
  C  C23  1  0.45204700  0.04405400  0.92591100  1
  C  C24  1  0.92661200  0.47445100  0.30603400  1
  C  C25  1  0.57338800  0.52554900  0.80603400  1
  C  C26  1  0.42661200  0.02554900  0.69396600  1
  C  C27  1  0.07338800  0.97445100  0.19396600  1
  C  C28  1  0.07338800  0.52554900  0.69396600  1
  C  C29  1  0.42661200  0.47445100  0.19396600  1
  C  C30  1  0.57338800  0.97445100  0.30603400  1
  C  C31  1  0.92661200  0.02554900  0.80603400  1
  Ni  Ni32  1  0.42955600  0.60654900  0.31357300  1
  Ni  Ni33  1  0.07044400  0.39345100  0.81357300  1
  Ni  Ni34  1  0.92955600  0.89345100  0.68642700  1
  Ni  Ni35  1  0.57044400  0.10654900  0.18642700  1
  Ni  Ni36  1  0.57044400  0.39345100  0.68642700  1
  Ni  Ni37  1  0.92955600  0.60654900  0.18642700  1
  Ni  Ni38  1  0.07044400  0.10654900  0.31357300  1
  Ni  Ni39  1  0.42955600  0.89345100  0.81357300  1
  Cu  Cu40  1  0.99982300  0.62144100  0.45242900  1
  Cu  Cu41  1  0.50017700  0.37855900  0.95242900  1
  Cu  Cu42  1  0.49982300  0.87855900  0.54757100  1
  Cu  Cu43  1  0.00017700  0.12144100  0.04757100  1
  Cu  Cu44  1  0.00017700  0.37855900  0.54757100  1
  Cu  Cu45  1  0.49982300  0.62144100  0.04757100  1
  Cu  Cu46  1  0.50017700  0.12144100  0.45242900  1
  Cu  Cu47  1  0.99982300  0.87855900  0.95242900  1
  C  C48  1  0.22202200  0.36624200  0.37404500  1
  C  C49  1  0.27797800  0.63375800  0.87404500  1
  C  C50  1  0.72202200  0.13375800  0.62595500  1
  C  C51  1  0.77797800  0.86624200  0.12595500  1
  C  C52  1  0.77797800  0.63375800  0.62595500  1
  C  C53  1  0.72202200  0.36624200  0.12595500  1
  C  C54  1  0.27797800  0.86624200  0.37404500  1
  C  C55  1  0.22202200  0.13375800  0.87404500  1
  C  C56  1  0.71660400  0.36459700  0.36957600  1
  C  C57  1  0.78339600  0.63540300  0.86957600  1
  C  C58  1  0.21660400  0.13540300  0.63042400  1
  C  C59  1  0.28339600  0.86459700  0.13042400  1
  C  C60  1  0.28339600  0.63540300  0.63042400  1
  C  C61  1  0.21660400  0.36459700  0.13042400  1
  C  C62  1  0.78339600  0.86459700  0.36957600  1
  C  C63  1  0.71660400  0.13540300  0.86957600  1
  C  C64  1  0.31230900  0.87866600  0.25136600  1
  C  C65  1  0.18769100  0.12133400  0.75136600  1
  C  C66  1  0.81230900  0.62133400  0.74863400  1
  C  C67  1  0.68769100  0.37866600  0.24863400  1
  C  C68  1  0.68769100  0.12133400  0.74863400  1
  C  C69  1  0.81230900  0.87866600  0.24863400  1
  C  C70  1  0.18769100  0.37866600  0.25136600  1
  C  C71  1  0.31230900  0.62133400  0.75136600  1
  C  C72  1  0.75438800  0.60782600  0.48282400  1
  C  C73  1  0.74561200  0.39217400  0.98282400  1
  C  C74  1  0.25438800  0.89217400  0.51717600  1
  C  C75  1  0.24561200  0.10782600  0.01717600  1
  C  C76  1  0.24561200  0.39217400  0.51717600  1
  C  C77  1  0.25438800  0.60782600  0.01717600  1
  C  C78  1  0.74561200  0.10782600  0.48282400  1
  C  C79  1  0.75438800  0.89217400  0.98282400  1
  C  C80  1  0.95950300  0.70337700  0.40733100  1
  C  C81  1  0.54049700  0.29662300  0.90733100  1
  C  C82  1  0.45950300  0.79662300  0.59266900  1
  C  C83  1  0.04049700  0.20337700  0.09266900  1
  C  C84  1  0.04049700  0.29662300  0.59266900  1
  C  C85  1  0.45950300  0.70337700  0.09266900  1
  C  C86  1  0.54049700  0.20337700  0.40733100  1
  C  C87  1  0.95950300  0.79662300  0.90733100  1
  C  C88  1  0.08279800  0.53510400  0.41690600  1
  C  C89  1  0.41720200  0.46489600  0.91690600  1
  C  C90  1  0.58279800  0.96489600  0.58309400  1
  C  C91  1  0.91720200  0.03510400  0.08309400  1
  C  C92  1  0.91720200  0.46489600  0.58309400  1
  C  C93  1  0.58279800  0.53510400  0.08309400  1
  C  C94  1  0.41720200  0.03510400  0.41690600  1
  C  C95  1  0.08279800  0.96489600  0.91690600  1
  C  C96  1  0.19789700  0.64831700  0.49756600  1
  C  C97  1  0.30210300  0.35168300  0.99756600  1
  C  C98  1  0.69789700  0.85168300  0.50243400  1
  C  C99  1  0.80210300  0.14831700  0.00243400  1
  C  C100  1  0.80210300  0.35168300  0.50243400  1
  C  C101  1  0.69789700  0.64831700  0.00243400  1
  C  C102  1  0.30210300  0.14831700  0.49756600  1
  C  C103  1  0.19789700  0.85168300  0.99756600  1
  C  C104  1  0.27874400  0.57420700  0.27044500  1
  C  C105  1  0.22125600  0.42579300  0.77044500  1
  C  C106  1  0.77874400  0.92579300  0.72955500  1
  C  C107  1  0.72125600  0.07420700  0.22955500  1
  C  C108  1  0.72125600  0.42579300  0.72955500  1
  C  C109  1  0.77874400  0.57420700  0.22955500  1
  C  C110  1  0.22125600  0.07420700  0.27044500  1
  C  C111  1  0.27874400  0.92579300  0.77044500  1
  C  C112  1  0.45084300  0.70191600  0.32340400  1
  C  C113  1  0.04915700  0.29808400  0.82340400  1
  C  C114  1  0.95084300  0.79808400  0.67659600  1
  C  C115  1  0.54915700  0.20191600  0.17659600  1
  C  C116  1  0.54915700  0.29808400  0.67659600  1
  C  C117  1  0.95084300  0.70191600  0.17659600  1
  C  C118  1  0.04915700  0.20191600  0.32340400  1
  C  C119  1  0.45084300  0.79808400  0.82340400  1
  C  C120  1  0.55887300  0.54611900  0.34976400  1
  C  C121  1  0.94112700  0.45388100  0.84976400  1
  C  C122  1  0.05887300  0.95388100  0.65023600  1
  C  C123  1  0.44112700  0.04611900  0.15023600  1
  C  C124  1  0.44112700  0.45388100  0.65023600  1
  C  C125  1  0.05887300  0.54611900  0.15023600  1
  C  C126  1  0.94112700  0.04611900  0.34976400  1
  C  C127  1  0.55887300  0.95388100  0.84976400  1
