# generated using pymatgen
data_Cu10NiC
_symmetry_space_group_name_H-M   'P 1'
_cell_length_a   11.47729100
_cell_length_b   11.47729100
_cell_length_c   11.47729100
_cell_angle_alpha   90.00000000
_cell_angle_beta   90.00000000
_cell_angle_gamma   90.00000000
_symmetry_Int_Tables_number   1
_chemical_formula_structural   Cu10NiC
_chemical_formula_sum   'Cu80 Ni8 C8'
_cell_volume   1511.88298414
_cell_formula_units_Z   8
loop_
 _symmetry_equiv_pos_site_id
 _symmetry_equiv_pos_as_xyz
  1  'x, y, z'
loop_
 _atom_site_type_symbol
 _atom_site_label
 _atom_site_symmetry_multiplicity
 _atom_site_fract_x
 _atom_site_fract_y
 _atom_site_fract_z
 _atom_site_occupancy
  C  C0  1  0.00000000  0.00000000  0.00000000  1
  C  C1  1  0.50000000  0.00000000  0.50000000  1
  C  C2  1  0.00000000  0.50000000  0.50000000  1
  C  C3  1  0.50000000  0.50000000  0.00000000  1
  C  C4  1  0.50000000  0.50000000  0.50000000  1
  C  C5  1  0.00000000  0.50000000  0.00000000  1
  C  C6  1  0.50000000  0.00000000  0.00000000  1
  C  C7  1  0.00000000  0.00000000  0.50000000  1
  Ni  Ni8  1  0.19633100  0.19633100  0.19633100  1
  Ni  Ni9  1  0.80366900  0.80366900  0.80366900  1
  Ni  Ni10  1  0.30366900  0.80366900  0.69633100  1
  Ni  Ni11  1  0.80366900  0.69633100  0.30366900  1
  Ni  Ni12  1  0.69633100  0.19633100  0.30366900  1
  Ni  Ni13  1  0.19633100  0.30366900  0.69633100  1
  Ni  Ni14  1  0.69633100  0.30366900  0.80366900  1
  Ni  Ni15  1  0.30366900  0.69633100  0.19633100  1
  Cu  Cu16  1  0.98733400  0.98538800  0.31644900  1
  Cu  Cu17  1  0.01266600  0.01461200  0.68355100  1
  Cu  Cu18  1  0.51266600  0.01461200  0.81644900  1
  Cu  Cu19  1  0.01266600  0.48538800  0.18355100  1
  Cu  Cu20  1  0.31644900  0.98733400  0.98538800  1
  Cu  Cu21  1  0.48733400  0.98538800  0.18355100  1
  Cu  Cu22  1  0.98733400  0.51461200  0.81644900  1
  Cu  Cu23  1  0.68355100  0.01266600  0.01461200  1
  Cu  Cu24  1  0.48733400  0.51461200  0.68355100  1
  Cu  Cu25  1  0.81644900  0.51266600  0.01461200  1
  Cu  Cu26  1  0.51266600  0.48538800  0.31644900  1
  Cu  Cu27  1  0.18355100  0.48733400  0.98538800  1
  Cu  Cu28  1  0.18355100  0.01266600  0.48538800  1
  Cu  Cu29  1  0.81644900  0.98733400  0.51461200  1
  Cu  Cu30  1  0.68355100  0.48733400  0.51461200  1
  Cu  Cu31  1  0.31644900  0.51266600  0.48538800  1
  Cu  Cu32  1  0.98538800  0.31644900  0.98733400  1
  Cu  Cu33  1  0.01461200  0.68355100  0.01266600  1
  Cu  Cu34  1  0.48538800  0.18355100  0.01266600  1
  Cu  Cu35  1  0.51461200  0.81644900  0.98733400  1
  Cu  Cu36  1  0.51461200  0.68355100  0.48733400  1
  Cu  Cu37  1  0.48538800  0.31644900  0.51266600  1
  Cu  Cu38  1  0.01461200  0.81644900  0.51266600  1
  Cu  Cu39  1  0.98538800  0.18355100  0.48733400  1
  Cu  Cu40  1  0.24711400  0.47551800  0.41024400  1
  Cu  Cu41  1  0.75288600  0.52448200  0.58975600  1
  Cu  Cu42  1  0.25288600  0.52448200  0.91024400  1
  Cu  Cu43  1  0.75288600  0.97551800  0.08975600  1
  Cu  Cu44  1  0.41024400  0.24711400  0.47551800  1
  Cu  Cu45  1  0.74711400  0.47551800  0.08975600  1
  Cu  Cu46  1  0.24711400  0.02448200  0.91024400  1
  Cu  Cu47  1  0.58975600  0.75288600  0.52448200  1
  Cu  Cu48  1  0.74711400  0.02448200  0.58975600  1
  Cu  Cu49  1  0.91024400  0.25288600  0.52448200  1
  Cu  Cu50  1  0.25288600  0.97551800  0.41024400  1
  Cu  Cu51  1  0.08975600  0.74711400  0.47551800  1
  Cu  Cu52  1  0.08975600  0.75288600  0.97551800  1
  Cu  Cu53  1  0.91024400  0.24711400  0.02448200  1
  Cu  Cu54  1  0.58975600  0.74711400  0.02448200  1
  Cu  Cu55  1  0.41024400  0.25288600  0.97551800  1
  Cu  Cu56  1  0.47551800  0.41024400  0.24711400  1
  Cu  Cu57  1  0.52448200  0.58975600  0.75288600  1
  Cu  Cu58  1  0.97551800  0.08975600  0.75288600  1
  Cu  Cu59  1  0.02448200  0.91024400  0.24711400  1
  Cu  Cu60  1  0.02448200  0.58975600  0.74711400  1
  Cu  Cu61  1  0.97551800  0.41024400  0.25288600  1
  Cu  Cu62  1  0.52448200  0.91024400  0.25288600  1
  Cu  Cu63  1  0.47551800  0.08975600  0.74711400  1
  Cu  Cu64  1  0.07085000  0.19380500  0.23359600  1
  Cu  Cu65  1  0.92915000  0.80619500  0.76640400  1
  Cu  Cu66  1  0.42915000  0.80619500  0.73359600  1
  Cu  Cu67  1  0.92915000  0.69380500  0.26640400  1
  Cu  Cu68  1  0.23359600  0.07085000  0.19380500  1
  Cu  Cu69  1  0.57085000  0.19380500  0.26640400  1
  Cu  Cu70  1  0.07085000  0.30619500  0.73359600  1
  Cu  Cu71  1  0.76640400  0.92915000  0.80619500  1
  Cu  Cu72  1  0.57085000  0.30619500  0.76640400  1
  Cu  Cu73  1  0.73359600  0.42915000  0.80619500  1
  Cu  Cu74  1  0.42915000  0.69380500  0.23359600  1
  Cu  Cu75  1  0.26640400  0.57085000  0.19380500  1
  Cu  Cu76  1  0.26640400  0.92915000  0.69380500  1
  Cu  Cu77  1  0.73359600  0.07085000  0.30619500  1
  Cu  Cu78  1  0.76640400  0.57085000  0.30619500  1
  Cu  Cu79  1  0.23359600  0.42915000  0.69380500  1
  Cu  Cu80  1  0.19380500  0.23359600  0.07085000  1
  Cu  Cu81  1  0.80619500  0.76640400  0.92915000  1
  Cu  Cu82  1  0.69380500  0.26640400  0.92915000  1
  Cu  Cu83  1  0.30619500  0.73359600  0.07085000  1
  Cu  Cu84  1  0.30619500  0.76640400  0.57085000  1
  Cu  Cu85  1  0.69380500  0.23359600  0.42915000  1
  Cu  Cu86  1  0.80619500  0.73359600  0.42915000  1
  Cu  Cu87  1  0.19380500  0.26640400  0.57085000  1
  Cu  Cu88  1  0.26948400  0.26948400  0.26948400  1
  Cu  Cu89  1  0.73051600  0.73051600  0.73051600  1
  Cu  Cu90  1  0.23051600  0.73051600  0.76948400  1
  Cu  Cu91  1  0.73051600  0.76948400  0.23051600  1
  Cu  Cu92  1  0.76948400  0.26948400  0.23051600  1
  Cu  Cu93  1  0.26948400  0.23051600  0.76948400  1
  Cu  Cu94  1  0.76948400  0.23051600  0.73051600  1
  Cu  Cu95  1  0.23051600  0.76948400  0.26948400  1
