# generated using pymatgen
data_CuNi3C16
_symmetry_space_group_name_H-M   'P 1'
_cell_length_a   7.87718157
_cell_length_b   7.87718157
_cell_length_c   7.90359400
_cell_angle_alpha   90.00000000
_cell_angle_beta   90.00000000
_cell_angle_gamma   90.00568842
_symmetry_Int_Tables_number   1
_chemical_formula_structural   CuNi3C16
_chemical_formula_sum   'Cu2 Ni6 C32'
_cell_volume   490.41792256
_cell_formula_units_Z   2
loop_
 _symmetry_equiv_pos_site_id
 _symmetry_equiv_pos_as_xyz
  1  'x, y, z'
loop_
 _atom_site_type_symbol
 _atom_site_label
 _atom_site_symmetry_multiplicity
 _atom_site_fract_x
 _atom_site_fract_y
 _atom_site_fract_z
 _atom_site_occupancy
  C  C0  1  0.25143200  0.25143200  0.00000000  1
  C  C1  1  0.74858400  0.25145500  0.00000000  1
  C  C2  1  0.25145500  0.74858400  0.00000000  1
  C  C3  1  0.74855800  0.74855800  0.00000000  1
  C  C4  1  0.74853600  0.25144300  0.50000000  1
  C  C5  1  0.25144300  0.74853600  0.50000000  1
  C  C6  1  0.74857100  0.74857100  0.50000000  1
  C  C7  1  0.25151700  0.25151700  0.50000000  1
  Ni  Ni8  1  0.49978000  0.00023600  0.74976400  1
  Ni  Ni9  1  0.00023600  0.49978000  0.74976400  1
  Ni  Ni10  1  0.49976100  0.49976100  0.74976700  1
  Ni  Ni11  1  0.49978000  0.00023600  0.25023600  1
  Ni  Ni12  1  0.00023600  0.49978000  0.25023600  1
  Ni  Ni13  1  0.49976100  0.49976100  0.25023300  1
  Cu  Cu14  1  0.00027400  0.00027400  0.74973400  1
  Cu  Cu15  1  0.00027400  0.00027400  0.25026600  1
  C  C16  1  0.00004200  0.00004200  0.00000000  1
  C  C17  1  0.49995200  0.00005200  0.00000000  1
  C  C18  1  0.00005200  0.49995200  0.00000000  1
  C  C19  1  0.49995200  0.49995200  0.00000000  1
  C  C20  1  0.00101300  0.00101300  0.50000000  1
  C  C21  1  0.49888100  0.00111700  0.50000000  1
  C  C22  1  0.00111700  0.49888100  0.50000000  1
  C  C23  1  0.49883600  0.49883600  0.50000000  1
  C  C24  1  0.00106900  0.25006300  0.74892800  1
  C  C25  1  0.49886800  0.24954100  0.74887200  1
  C  C26  1  0.00005200  0.74998200  0.74995800  1
  C  C27  1  0.49995500  0.75045100  0.74995000  1
  C  C28  1  0.00106900  0.25006300  0.25107200  1
  C  C29  1  0.49886800  0.24954100  0.25112800  1
  C  C30  1  0.00005200  0.74998200  0.25004200  1
  C  C31  1  0.49995500  0.75045100  0.25005000  1
  C  C32  1  0.25006300  0.00106900  0.74892800  1
  C  C33  1  0.74998200  0.00005200  0.74995800  1
  C  C34  1  0.24954100  0.49886800  0.74887200  1
  C  C35  1  0.75045100  0.49995500  0.74995000  1
  C  C36  1  0.25006300  0.00106900  0.25107200  1
  C  C37  1  0.74998200  0.00005200  0.25004200  1
  C  C38  1  0.24954100  0.49886800  0.25112800  1
  C  C39  1  0.75045100  0.49995500  0.25005000  1
