# generated using pymatgen
data_Cu10NiC19
_symmetry_space_group_name_H-M   'P 1'
_cell_length_a   10.29471106
_cell_length_b   10.29471106
_cell_length_c   10.29471106
_cell_angle_alpha   60.00000000
_cell_angle_beta   60.00000000
_cell_angle_gamma   60.00000000
_symmetry_Int_Tables_number   1
_chemical_formula_structural   Cu10NiC19
_chemical_formula_sum   'Cu20 Ni2 C38'
_cell_volume   771.48500192
_cell_formula_units_Z   2
loop_
 _symmetry_equiv_pos_site_id
 _symmetry_equiv_pos_as_xyz
  1  'x, y, z'
loop_
 _atom_site_type_symbol
 _atom_site_label
 _atom_site_symmetry_multiplicity
 _atom_site_fract_x
 _atom_site_fract_y
 _atom_site_fract_z
 _atom_site_occupancy
  C  C0  1  0.16182700  0.83817300  0.16182700  1
  C  C1  1  0.83817300  0.16182700  0.16182700  1
  C  C2  1  0.83817300  0.83817300  0.16182700  1
  C  C3  1  0.83817300  0.16182700  0.83817300  1
  C  C4  1  0.16182700  0.16182700  0.83817300  1
  C  C5  1  0.16182700  0.83817300  0.83817300  1
  C  C6  1  0.26513300  0.43980000  0.26513300  1
  C  C7  1  0.02993300  0.26513300  0.26513300  1
  C  C8  1  0.43980000  0.02993300  0.26513300  1
  C  C9  1  0.02993300  0.43980000  0.26513300  1
  C  C10  1  0.43980000  0.26513300  0.26513300  1
  C  C11  1  0.26513300  0.02993300  0.26513300  1
  C  C12  1  0.02993300  0.26513300  0.43980000  1
  C  C13  1  0.26513300  0.26513300  0.02993300  1
  C  C14  1  0.26513300  0.26513300  0.43980000  1
  C  C15  1  0.43980000  0.26513300  0.02993300  1
  C  C16  1  0.26513300  0.43980000  0.02993300  1
  C  C17  1  0.26513300  0.02993300  0.43980000  1
  C  C18  1  0.73486700  0.56020000  0.73486700  1
  C  C19  1  0.97006700  0.73486700  0.73486700  1
  C  C20  1  0.56020000  0.97006700  0.73486700  1
  C  C21  1  0.97006700  0.56020000  0.73486700  1
  C  C22  1  0.56020000  0.73486700  0.73486700  1
  C  C23  1  0.73486700  0.97006700  0.73486700  1
  C  C24  1  0.97006700  0.73486700  0.56020000  1
  C  C25  1  0.73486700  0.73486700  0.97006700  1
  C  C26  1  0.73486700  0.73486700  0.56020000  1
  C  C27  1  0.56020000  0.73486700  0.97006700  1
  C  C28  1  0.73486700  0.56020000  0.97006700  1
  C  C29  1  0.73486700  0.97006700  0.56020000  1
  C  C30  1  0.30955800  0.30955800  0.30955800  1
  C  C31  1  0.07132700  0.30955800  0.30955800  1
  C  C32  1  0.30955800  0.07132700  0.30955800  1
  C  C33  1  0.30955800  0.30955800  0.07132700  1
  C  C34  1  0.69044200  0.69044200  0.69044200  1
  C  C35  1  0.92867300  0.69044200  0.69044200  1
  C  C36  1  0.69044200  0.92867300  0.69044200  1
  C  C37  1  0.69044200  0.69044200  0.92867300  1
  Ni  Ni38  1  0.25000000  0.25000000  0.25000000  1
  Ni  Ni39  1  0.75000000  0.75000000  0.75000000  1
  Cu  Cu40  1  0.00000000  0.00000000  0.00000000  1
  Cu  Cu41  1  0.00000000  0.00000000  0.26189400  1
  Cu  Cu42  1  0.73810600  0.00000000  0.26189400  1
  Cu  Cu43  1  0.00000000  0.73810600  0.26189400  1
  Cu  Cu44  1  0.73810600  0.26189400  0.00000000  1
  Cu  Cu45  1  0.00000000  0.26189400  0.00000000  1
  Cu  Cu46  1  0.00000000  0.26189400  0.73810600  1
  Cu  Cu47  1  0.26189400  0.73810600  0.00000000  1
  Cu  Cu48  1  0.26189400  0.00000000  0.73810600  1
  Cu  Cu49  1  0.26189400  0.00000000  0.00000000  1
  Cu  Cu50  1  0.00000000  0.00000000  0.73810600  1
  Cu  Cu51  1  0.00000000  0.73810600  0.00000000  1
  Cu  Cu52  1  0.73810600  0.00000000  0.00000000  1
  Cu  Cu53  1  0.27962500  0.72037500  0.27962500  1
  Cu  Cu54  1  0.72037500  0.27962500  0.27962500  1
  Cu  Cu55  1  0.72037500  0.72037500  0.27962500  1
  Cu  Cu56  1  0.72037500  0.27962500  0.72037500  1
  Cu  Cu57  1  0.27962500  0.27962500  0.72037500  1
  Cu  Cu58  1  0.27962500  0.72037500  0.72037500  1
  Cu  Cu59  1  0.50000000  0.50000000  0.50000000  1
