# generated using pymatgen
data_Cu(Ni10C7)2
_symmetry_space_group_name_H-M   'P 1'
_cell_length_a   11.26021600
_cell_length_b   13.84294200
_cell_length_c   7.94851000
_cell_angle_alpha   90.00000000
_cell_angle_beta   90.00000000
_cell_angle_gamma   90.00000000
_symmetry_Int_Tables_number   1
_chemical_formula_structural   Cu(Ni10C7)2
_chemical_formula_sum   'Cu2 Ni40 C28'
_cell_volume   1238.97015708
_cell_formula_units_Z   2
loop_
 _symmetry_equiv_pos_site_id
 _symmetry_equiv_pos_as_xyz
  1  'x, y, z'
loop_
 _atom_site_type_symbol
 _atom_site_label
 _atom_site_symmetry_multiplicity
 _atom_site_fract_x
 _atom_site_fract_y
 _atom_site_fract_z
 _atom_site_occupancy
  C  C0  1  0.81421200  0.44289200  0.74695400  1
  C  C1  1  0.18578800  0.55710800  0.74695400  1
  C  C2  1  0.31421200  0.05710800  0.75304600  1
  C  C3  1  0.68578800  0.94289200  0.75304600  1
  C  C4  1  0.18578800  0.55710800  0.25304600  1
  C  C5  1  0.81421200  0.44289200  0.25304600  1
  C  C6  1  0.68578800  0.94289200  0.24695400  1
  C  C7  1  0.31421200  0.05710800  0.24695400  1
  C  C8  1  0.07011100  0.30023500  0.00000000  1
  C  C9  1  0.92988900  0.69976500  0.00000000  1
  C  C10  1  0.57011100  0.19976500  0.50000000  1
  C  C11  1  0.42988900  0.80023500  0.50000000  1
  C  C12  1  0.00000000  0.00000000  0.50000000  1
  C  C13  1  0.50000000  0.50000000  0.00000000  1
  C  C14  1  0.11162800  0.27285700  0.50000000  1
  C  C15  1  0.88837200  0.72714300  0.50000000  1
  C  C16  1  0.61162800  0.22714300  0.00000000  1
  C  C17  1  0.38837200  0.77285700  0.00000000  1
  C  C18  1  0.00000000  0.00000000  0.00000000  1
  C  C19  1  0.50000000  0.50000000  0.50000000  1
  C  C20  1  0.85899700  0.17519500  0.69667300  1
  C  C21  1  0.14100300  0.82480500  0.69667300  1
  C  C22  1  0.35899700  0.32480500  0.80332700  1
  C  C23  1  0.64100300  0.67519500  0.80332700  1
  C  C24  1  0.14100300  0.82480500  0.30332700  1
  C  C25  1  0.85899700  0.17519500  0.30332700  1
  C  C26  1  0.64100300  0.67519500  0.19667300  1
  C  C27  1  0.35899700  0.32480500  0.19667300  1
  Ni  Ni28  1  0.82340100  0.14048500  0.50000000  1
  Ni  Ni29  1  0.17659900  0.85951500  0.50000000  1
  Ni  Ni30  1  0.32340100  0.35951500  0.00000000  1
  Ni  Ni31  1  0.67659900  0.64048500  0.00000000  1
  Ni  Ni32  1  0.73949700  0.21898200  0.78552800  1
  Ni  Ni33  1  0.26050300  0.78101800  0.78552800  1
  Ni  Ni34  1  0.23949700  0.28101800  0.71447200  1
  Ni  Ni35  1  0.76050300  0.71898200  0.71447200  1
  Ni  Ni36  1  0.26050300  0.78101800  0.21447200  1
  Ni  Ni37  1  0.73949700  0.21898200  0.21447200  1
  Ni  Ni38  1  0.76050300  0.71898200  0.28552800  1
  Ni  Ni39  1  0.23949700  0.28101800  0.28552800  1
  Ni  Ni40  1  0.96031700  0.25999700  0.68456100  1
  Ni  Ni41  1  0.03968300  0.74000300  0.68456100  1
  Ni  Ni42  1  0.46031700  0.24000300  0.81543900  1
  Ni  Ni43  1  0.53968300  0.75999700  0.81543900  1
  Ni  Ni44  1  0.03968300  0.74000300  0.31543900  1
  Ni  Ni45  1  0.96031700  0.25999700  0.31543900  1
  Ni  Ni46  1  0.53968300  0.75999700  0.18456100  1
  Ni  Ni47  1  0.46031700  0.24000300  0.18456100  1
  Ni  Ni48  1  0.90344800  0.07721900  0.79235500  1
  Ni  Ni49  1  0.09655200  0.92278100  0.79235500  1
  Ni  Ni50  1  0.40344800  0.42278100  0.70764500  1
  Ni  Ni51  1  0.59655200  0.57721900  0.70764500  1
  Ni  Ni52  1  0.09655200  0.92278100  0.20764500  1
  Ni  Ni53  1  0.90344800  0.07721900  0.20764500  1
  Ni  Ni54  1  0.59655200  0.57721900  0.29235500  1
  Ni  Ni55  1  0.40344800  0.42278100  0.29235500  1
  Ni  Ni56  1  0.13026600  0.13731500  0.50000000  1
  Ni  Ni57  1  0.86973400  0.86268500  0.50000000  1
  Ni  Ni58  1  0.63026600  0.36268500  0.00000000  1
  Ni  Ni59  1  0.36973400  0.63731500  0.00000000  1
  Ni  Ni60  1  0.09517500  0.40728900  0.50000000  1
  Ni  Ni61  1  0.90482500  0.59271100  0.50000000  1
  Ni  Ni62  1  0.59517500  0.09271100  0.00000000  1
  Ni  Ni63  1  0.40482500  0.90728900  0.00000000  1
  Ni  Ni64  1  0.87955200  0.90684600  0.00000000  1
  Ni  Ni65  1  0.12044800  0.09315400  0.00000000  1
  Ni  Ni66  1  0.37955200  0.59315400  0.50000000  1
  Ni  Ni67  1  0.62044800  0.40684600  0.50000000  1
  Cu  Cu68  1  0.00000000  0.50000000  0.00000000  1
  Cu  Cu69  1  0.50000000  0.00000000  0.50000000  1
