# generated using pymatgen
data_Cu4Ni9C
_symmetry_space_group_name_H-M   'P 1'
_cell_length_a   7.90853993
_cell_length_b   7.90853993
_cell_length_c   7.90853993
_cell_angle_alpha   121.57930991
_cell_angle_beta   121.57930991
_cell_angle_gamma   87.28565097
_symmetry_Int_Tables_number   1
_chemical_formula_structural   Cu4Ni9C
_chemical_formula_sum   'Cu8 Ni18 C2'
_cell_volume   340.99780593
_cell_formula_units_Z   2
loop_
 _symmetry_equiv_pos_site_id
 _symmetry_equiv_pos_as_xyz
  1  'x, y, z'
loop_
 _atom_site_type_symbol
 _atom_site_label
 _atom_site_symmetry_multiplicity
 _atom_site_fract_x
 _atom_site_fract_y
 _atom_site_fract_z
 _atom_site_occupancy
  C  C0  1  0.75000000  0.75000000  0.00000000  1
  C  C1  1  0.25000000  0.25000000  0.00000000  1
  Ni  Ni2  1  0.06947100  0.19844500  0.26791600  1
  Ni  Ni3  1  0.93052900  0.80155500  0.73208400  1
  Ni  Ni4  1  0.56947100  0.30155500  0.87102600  1
  Ni  Ni5  1  0.43052900  0.69844500  0.12897400  1
  Ni  Ni6  1  0.80155500  0.06947100  0.87102600  1
  Ni  Ni7  1  0.19844500  0.93052900  0.12897400  1
  Ni  Ni8  1  0.69844500  0.56947100  0.26791600  1
  Ni  Ni9  1  0.30155500  0.43052900  0.73208400  1
  Ni  Ni10  1  0.45006900  0.95006900  0.76118100  1
  Ni  Ni11  1  0.18888800  0.68888800  0.23881900  1
  Ni  Ni12  1  0.95006900  0.18888800  0.50000000  1
  Ni  Ni13  1  0.68888800  0.45006900  0.50000000  1
  Ni  Ni14  1  0.54993100  0.04993100  0.23881900  1
  Ni  Ni15  1  0.81111200  0.31111200  0.76118100  1
  Ni  Ni16  1  0.04993100  0.81111200  0.50000000  1
  Ni  Ni17  1  0.31111200  0.54993100  0.50000000  1
  Ni  Ni18  1  0.00000000  0.50000000  0.50000000  1
  Ni  Ni19  1  0.50000000  0.00000000  0.50000000  1
  Cu  Cu20  1  0.04609400  0.54609400  0.83777800  1
  Cu  Cu21  1  0.70831600  0.20831600  0.16222200  1
  Cu  Cu22  1  0.54609400  0.70831600  0.50000000  1
  Cu  Cu23  1  0.20831600  0.04609400  0.50000000  1
  Cu  Cu24  1  0.95390600  0.45390600  0.16222200  1
  Cu  Cu25  1  0.29168400  0.79168400  0.83777800  1
  Cu  Cu26  1  0.45390600  0.29168400  0.50000000  1
  Cu  Cu27  1  0.79168400  0.95390600  0.50000000  1
