# generated using pymatgen
data_Cu3Ni3C
_symmetry_space_group_name_H-M   'P 1'
_cell_length_a   10.96229440
_cell_length_b   10.96229440
_cell_length_c   10.96229440
_cell_angle_alpha   90.00000000
_cell_angle_beta   90.00000000
_cell_angle_gamma   90.00000000
_symmetry_Int_Tables_number   1
_chemical_formula_structural   Cu3Ni3C
_chemical_formula_sum   'Cu24 Ni24 C8'
_cell_volume   1317.35973010
_cell_formula_units_Z   8
loop_
 _symmetry_equiv_pos_site_id
 _symmetry_equiv_pos_as_xyz
  1  'x, y, z'
loop_
 _atom_site_type_symbol
 _atom_site_label
 _atom_site_symmetry_multiplicity
 _atom_site_fract_x
 _atom_site_fract_y
 _atom_site_fract_z
 _atom_site_occupancy
  C  C0  1  0.00000000  0.00000000  0.50000000  1
  C  C1  1  0.00000000  0.50000000  0.00000000  1
  C  C2  1  0.50000000  0.00000000  0.00000000  1
  C  C3  1  0.50000000  0.50000000  0.50000000  1
  C  C4  1  0.50000000  0.50000000  0.00000000  1
  C  C5  1  0.50000000  0.00000000  0.50000000  1
  C  C6  1  0.00000000  0.50000000  0.50000000  1
  C  C7  1  0.00000000  0.00000000  0.00000000  1
  Ni  Ni8  1  0.53048245  0.72494316  0.15206684  1
  Ni  Ni9  1  0.46951755  0.22494316  0.34793316  1
  Ni  Ni10  1  0.96951755  0.27505684  0.65206684  1
  Ni  Ni11  1  0.03048245  0.77505684  0.84793316  1
  Ni  Ni12  1  0.15206684  0.53048245  0.72494316  1
  Ni  Ni13  1  0.34793316  0.46951755  0.22494316  1
  Ni  Ni14  1  0.65206684  0.96951755  0.27505684  1
  Ni  Ni15  1  0.84793316  0.03048245  0.77505684  1
  Ni  Ni16  1  0.72494316  0.15206684  0.53048245  1
  Ni  Ni17  1  0.22494316  0.34793316  0.46951755  1
  Ni  Ni18  1  0.27505684  0.65206684  0.96951755  1
  Ni  Ni19  1  0.77505684  0.84793316  0.03048245  1
  Ni  Ni20  1  0.46951755  0.27505684  0.84793316  1
  Ni  Ni21  1  0.53048245  0.77505684  0.65206684  1
  Ni  Ni22  1  0.03048245  0.72494316  0.34793316  1
  Ni  Ni23  1  0.96951755  0.22494316  0.15206684  1
  Ni  Ni24  1  0.84793316  0.46951755  0.27505684  1
  Ni  Ni25  1  0.65206684  0.53048245  0.77505684  1
  Ni  Ni26  1  0.34793316  0.03048245  0.72494316  1
  Ni  Ni27  1  0.15206684  0.96951755  0.22494316  1
  Ni  Ni28  1  0.27505684  0.84793316  0.46951755  1
  Ni  Ni29  1  0.77505684  0.65206684  0.53048245  1
  Ni  Ni30  1  0.72494316  0.34793316  0.03048245  1
  Ni  Ni31  1  0.22494316  0.15206684  0.96951755  1
  Cu  Cu32  1  0.43795863  0.65475755  0.60073513  1
  Cu  Cu33  1  0.56204137  0.15475755  0.89926487  1
  Cu  Cu34  1  0.06204137  0.34524245  0.10073513  1
  Cu  Cu35  1  0.93795863  0.84524245  0.39926487  1
  Cu  Cu36  1  0.60073513  0.43795863  0.65475755  1
  Cu  Cu37  1  0.89926487  0.56204137  0.15475755  1
  Cu  Cu38  1  0.10073513  0.06204137  0.34524245  1
  Cu  Cu39  1  0.39926487  0.93795863  0.84524245  1
  Cu  Cu40  1  0.65475755  0.60073513  0.43795863  1
  Cu  Cu41  1  0.15475755  0.89926487  0.56204137  1
  Cu  Cu42  1  0.34524245  0.10073513  0.06204137  1
  Cu  Cu43  1  0.84524245  0.39926487  0.93795863  1
  Cu  Cu44  1  0.56204137  0.34524245  0.39926487  1
  Cu  Cu45  1  0.43795863  0.84524245  0.10073513  1
  Cu  Cu46  1  0.93795863  0.65475755  0.89926487  1
  Cu  Cu47  1  0.06204137  0.15475755  0.60073513  1
  Cu  Cu48  1  0.39926487  0.56204137  0.34524245  1
  Cu  Cu49  1  0.10073513  0.43795863  0.84524245  1
  Cu  Cu50  1  0.89926487  0.93795863  0.65475755  1
  Cu  Cu51  1  0.60073513  0.06204137  0.15475755  1
  Cu  Cu52  1  0.34524245  0.39926487  0.56204137  1
  Cu  Cu53  1  0.84524245  0.10073513  0.43795863  1
  Cu  Cu54  1  0.65475755  0.89926487  0.93795863  1
  Cu  Cu55  1  0.15475755  0.60073513  0.06204137  1
