# generated using pymatgen
data_CuNiC9
_symmetry_space_group_name_H-M   'P 1'
_cell_length_a   8.10678900
_cell_length_b   7.44298800
_cell_length_c   9.71538999
_cell_angle_alpha   68.27057086
_cell_angle_beta   90.00000000
_cell_angle_gamma   90.00000000
_symmetry_Int_Tables_number   1
_chemical_formula_structural   CuNiC9
_chemical_formula_sum   'Cu4 Ni4 C36'
_cell_volume   544.55942075
_cell_formula_units_Z   4
loop_
 _symmetry_equiv_pos_site_id
 _symmetry_equiv_pos_as_xyz
  1  'x, y, z'
loop_
 _atom_site_type_symbol
 _atom_site_label
 _atom_site_symmetry_multiplicity
 _atom_site_fract_x
 _atom_site_fract_y
 _atom_site_fract_z
 _atom_site_occupancy
  Ni  Ni0  1  0.99141600  0.76014300  0.74927300  1
  Ni  Ni1  1  0.49141600  0.23985700  0.75072700  1
  Ni  Ni2  1  0.00858400  0.23985700  0.25072700  1
  Ni  Ni3  1  0.50858400  0.76014300  0.24927300  1
  Cu  Cu4  1  0.02631300  0.20602000  0.81007200  1
  Cu  Cu5  1  0.52631300  0.79398000  0.68992800  1
  Cu  Cu6  1  0.97368700  0.79398000  0.18992800  1
  Cu  Cu7  1  0.47368700  0.20602000  0.31007200  1
  C  C8  1  0.29124700  0.82570800  0.95356300  1
  C  C9  1  0.79124700  0.17429200  0.54643700  1
  C  C10  1  0.70875300  0.17429200  0.04643700  1
  C  C11  1  0.20875300  0.82570800  0.45356300  1
  C  C12  1  0.24639300  0.42543200  0.95570100  1
  C  C13  1  0.74639300  0.57456800  0.54429900  1
  C  C14  1  0.75360700  0.57456800  0.04429900  1
  C  C15  1  0.25360700  0.42543200  0.45570100  1
  C  C16  1  0.41412100  0.96467500  0.84755500  1
  C  C17  1  0.91412100  0.03532500  0.65244500  1
  C  C18  1  0.58587900  0.03532500  0.15244500  1
  C  C19  1  0.08587900  0.96467500  0.34755500  1
  C  C20  1  0.30324000  0.81310200  0.11370900  1
  C  C21  1  0.80324000  0.18689800  0.38629100  1
  C  C22  1  0.69676000  0.18689800  0.88629100  1
  C  C23  1  0.19676000  0.81310200  0.61370900  1
  C  C24  1  0.34591100  0.61888800  0.94605200  1
  C  C25  1  0.84591100  0.38111200  0.55394800  1
  C  C26  1  0.65408900  0.38111200  0.05394800  1
  C  C27  1  0.15408900  0.61888800  0.44605200  1
  C  C28  1  0.11106700  0.85985800  0.89763500  1
  C  C29  1  0.61106700  0.14014200  0.60236500  1
  C  C30  1  0.88893300  0.14014200  0.10236500  1
  C  C31  1  0.38893300  0.85985800  0.39763500  1
  C  C32  1  0.08887400  0.49211300  0.86053100  1
  C  C33  1  0.58887400  0.50788700  0.63946900  1
  C  C34  1  0.91112600  0.50788700  0.13946900  1
  C  C35  1  0.41112600  0.49211300  0.36053100  1
  C  C36  1  0.20938800  0.30949600  0.11862100  1
  C  C37  1  0.70938800  0.69050400  0.38137900  1
  C  C38  1  0.79061200  0.69050400  0.88137900  1
  C  C39  1  0.29061200  0.30949600  0.61862100  1
  C  C40  1  0.36541300  0.31873300  0.89297400  1
  C  C41  1  0.86541300  0.68126700  0.60702600  1
  C  C42  1  0.63458700  0.68126700  0.10702600  1
  C  C43  1  0.13458700  0.31873300  0.39297400  1
