# generated using pymatgen
data_CuNiC4
_symmetry_space_group_name_H-M   'P 1'
_cell_length_a   3.37539600
_cell_length_b   5.87307400
_cell_length_c   11.38120300
_cell_angle_alpha   90.00000000
_cell_angle_beta   90.00000000
_cell_angle_gamma   90.00000000
_symmetry_Int_Tables_number   1
_chemical_formula_structural   CuNiC4
_chemical_formula_sum   'Cu4 Ni4 C16'
_cell_volume   225.62040476
_cell_formula_units_Z   4
loop_
 _symmetry_equiv_pos_site_id
 _symmetry_equiv_pos_as_xyz
  1  'x, y, z'
loop_
 _atom_site_type_symbol
 _atom_site_label
 _atom_site_symmetry_multiplicity
 _atom_site_fract_x
 _atom_site_fract_y
 _atom_site_fract_z
 _atom_site_occupancy
  Ni  Ni0  1  0.00000000  0.62742000  0.34956900  1
  Ni  Ni1  1  0.00000000  0.37258000  0.65043100  1
  Ni  Ni2  1  0.00000000  0.12742000  0.15043100  1
  Ni  Ni3  1  0.00000000  0.87258000  0.84956900  1
  Cu  Cu4  1  0.00000000  0.63478300  0.08889100  1
  Cu  Cu5  1  0.00000000  0.36521700  0.91110900  1
  Cu  Cu6  1  0.00000000  0.13478300  0.41110900  1
  Cu  Cu7  1  0.00000000  0.86521700  0.58889100  1
  C  C8  1  0.50000000  0.78373800  0.18678200  1
  C  C9  1  0.50000000  0.21626200  0.81321800  1
  C  C10  1  0.50000000  0.28373800  0.31321800  1
  C  C11  1  0.50000000  0.71626200  0.68678200  1
  C  C12  1  0.50000000  0.86497200  0.03408600  1
  C  C13  1  0.50000000  0.13502800  0.96591400  1
  C  C14  1  0.50000000  0.36497200  0.46591400  1
  C  C15  1  0.50000000  0.63502800  0.53408600  1
  C  C16  1  0.50000000  0.88636200  0.45428100  1
  C  C17  1  0.50000000  0.11363800  0.54571900  1
  C  C18  1  0.50000000  0.38636200  0.04571900  1
  C  C19  1  0.50000000  0.61363800  0.95428100  1
  C  C20  1  0.50000000  0.97576100  0.30872800  1
  C  C21  1  0.50000000  0.02423900  0.69127200  1
  C  C22  1  0.50000000  0.47576100  0.19127200  1
  C  C23  1  0.50000000  0.52423900  0.80872800  1
