# generated using pymatgen
data_CuNi7C16
_symmetry_space_group_name_H-M   'P 1'
_cell_length_a   8.76586175
_cell_length_b   8.76586175
_cell_length_c   8.76586237
_cell_angle_alpha   60.04540112
_cell_angle_beta   60.04540112
_cell_angle_gamma   60.04539716
_symmetry_Int_Tables_number   1
_chemical_formula_structural   CuNi7C16
_chemical_formula_sum   'Cu2 Ni14 C32'
_cell_volume   476.77728548
_cell_formula_units_Z   2
loop_
 _symmetry_equiv_pos_site_id
 _symmetry_equiv_pos_as_xyz
  1  'x, y, z'
loop_
 _atom_site_type_symbol
 _atom_site_label
 _atom_site_symmetry_multiplicity
 _atom_site_fract_x
 _atom_site_fract_y
 _atom_site_fract_z
 _atom_site_occupancy
  C  C0  1  0.03356000  0.49724500  0.49782100  1
  C  C1  1  0.49724500  0.49782100  0.03356000  1
  C  C2  1  0.49782100  0.03356000  0.49724500  1
  C  C3  1  0.99724500  0.53356000  0.99782100  1
  C  C4  1  0.53356000  0.99782100  0.99724500  1
  C  C5  1  0.99782100  0.99724500  0.53356000  1
  Ni  Ni6  1  0.25828200  0.76596100  0.26070600  1
  Ni  Ni7  1  0.76596100  0.26070600  0.25828200  1
  Ni  Ni8  1  0.26070600  0.25828200  0.76596100  1
  Ni  Ni9  1  0.26596100  0.75828200  0.76070600  1
  Ni  Ni10  1  0.75828200  0.76070600  0.26596100  1
  Ni  Ni11  1  0.76070600  0.26596100  0.75828200  1
  Ni  Ni12  1  0.28150500  0.58313100  0.58600400  1
  Ni  Ni13  1  0.58313100  0.58600400  0.28150500  1
  Ni  Ni14  1  0.58600400  0.28150500  0.58313100  1
  Ni  Ni15  1  0.08313100  0.78150500  0.08600400  1
  Ni  Ni16  1  0.78150500  0.08600400  0.08313100  1
  Ni  Ni17  1  0.08600400  0.08313100  0.78150500  1
  Ni  Ni18  1  0.11368100  0.11368100  0.11368100  1
  Ni  Ni19  1  0.61368100  0.61368100  0.61368100  1
  Cu  Cu20  1  0.26790100  0.26790100  0.26790100  1
  Cu  Cu21  1  0.76790100  0.76790100  0.76790100  1
  C  C22  1  0.49919200  0.49919200  0.49919200  1
  C  C23  1  0.99919200  0.99919200  0.99919200  1
  C  C24  1  0.44449900  0.76099600  0.21678000  1
  C  C25  1  0.76099600  0.21678000  0.44449900  1
  C  C26  1  0.21678000  0.44449900  0.76099600  1
  C  C27  1  0.26099600  0.94449900  0.71678000  1
  C  C28  1  0.94449900  0.71678000  0.26099600  1
  C  C29  1  0.71678000  0.26099600  0.94449900  1
  C  C30  1  0.25437000  0.73048200  0.11639500  1
  C  C31  1  0.73048200  0.11639500  0.25437000  1
  C  C32  1  0.11639500  0.25437000  0.73048200  1
  C  C33  1  0.23048200  0.75437000  0.61639500  1
  C  C34  1  0.75437000  0.61639500  0.23048200  1
  C  C35  1  0.61639500  0.23048200  0.75437000  1
  C  C36  1  0.95770100  0.27326500  0.12102700  1
  C  C37  1  0.27326500  0.12102700  0.95770100  1
  C  C38  1  0.12102700  0.95770100  0.27326500  1
  C  C39  1  0.77326500  0.45770100  0.62102700  1
  C  C40  1  0.45770100  0.62102700  0.77326500  1
  C  C41  1  0.62102700  0.77326500  0.45770100  1
  C  C42  1  0.20215300  0.62720000  0.44732500  1
  C  C43  1  0.62720000  0.44732500  0.20215300  1
  C  C44  1  0.44732500  0.20215300  0.62720000  1
  C  C45  1  0.12720000  0.70215300  0.94732500  1
  C  C46  1  0.70215300  0.94732500  0.12720000  1
  C  C47  1  0.94732500  0.12720000  0.70215300  1
