# generated using pymatgen
data_Cu(Ni2C15)2
_symmetry_space_group_name_H-M   'P 1'
_cell_length_a   10.42803663
_cell_length_b   10.42803663
_cell_length_c   7.39681643
_cell_angle_alpha   70.64053328
_cell_angle_beta   70.64053328
_cell_angle_gamma   67.49461136
_symmetry_Int_Tables_number   1
_chemical_formula_structural   Cu(Ni2C15)2
_chemical_formula_sum   'Cu2 Ni8 C60'
_cell_volume   681.49408039
_cell_formula_units_Z   2
loop_
 _symmetry_equiv_pos_site_id
 _symmetry_equiv_pos_as_xyz
  1  'x, y, z'
loop_
 _atom_site_type_symbol
 _atom_site_label
 _atom_site_symmetry_multiplicity
 _atom_site_fract_x
 _atom_site_fract_y
 _atom_site_fract_z
 _atom_site_occupancy
  C  C0  1  0.74339100  0.25660900  0.00000000  1
  C  C1  1  0.25660900  0.74339100  0.00000000  1
  C  C2  1  0.28552500  0.28552500  0.94723900  1
  C  C3  1  0.71447500  0.71447500  0.05276100  1
  Ni  Ni4  1  0.76466000  0.49819700  0.50275200  1
  Ni  Ni5  1  0.49819700  0.76466000  0.50275200  1
  Ni  Ni6  1  0.23534000  0.50180300  0.49724800  1
  Ni  Ni7  1  0.50180300  0.23534000  0.49724800  1
  Ni  Ni8  1  0.98938600  0.24744400  0.23147400  1
  Ni  Ni9  1  0.24744400  0.98938600  0.23147400  1
  Ni  Ni10  1  0.01061400  0.75255600  0.76852600  1
  Ni  Ni11  1  0.75255600  0.01061400  0.76852600  1
  Cu  Cu12  1  0.05038400  0.05038400  0.66484700  1
  Cu  Cu13  1  0.94961600  0.94961600  0.33515300  1
  C  C14  1  0.46591000  0.46591000  0.76664800  1
  C  C15  1  0.53409000  0.53409000  0.23335200  1
  C  C16  1  0.95566000  0.46284900  0.80459600  1
  C  C17  1  0.46284900  0.95566000  0.80459600  1
  C  C18  1  0.04434000  0.53715100  0.19540400  1
  C  C19  1  0.53715100  0.04434000  0.19540400  1
  C  C20  1  0.81418800  0.81418800  0.35934500  1
  C  C21  1  0.18581200  0.18581200  0.64065500  1
  C  C22  1  0.67930900  0.67930900  0.68966200  1
  C  C23  1  0.32069100  0.32069100  0.31033800  1
  C  C24  1  0.83962900  0.25447500  0.54729500  1
  C  C25  1  0.25447500  0.83962900  0.54729500  1
  C  C26  1  0.16037100  0.74552500  0.45270500  1
  C  C27  1  0.74552500  0.16037100  0.45270500  1
  C  C28  1  0.13570200  0.13570200  0.94530300  1
  C  C29  1  0.86429800  0.86429800  0.05469700  1
  C  C30  1  0.40669200  0.40669200  0.64505300  1
  C  C31  1  0.59330800  0.59330800  0.35494700  1
  C  C32  1  0.40351000  0.40351000  0.98249700  1
  C  C33  1  0.59649000  0.59649000  0.01750300  1
  C  C34  1  0.11253300  0.87762900  0.75249900  1
  C  C35  1  0.87762900  0.11253300  0.75249900  1
  C  C36  1  0.88746700  0.12237100  0.24750100  1
  C  C37  1  0.12237100  0.88746700  0.24750100  1
  C  C38  1  0.12198700  0.41684900  0.73731400  1
  C  C39  1  0.41684900  0.12198700  0.73731400  1
  C  C40  1  0.87801300  0.58315100  0.26268600  1
  C  C41  1  0.58315100  0.87801300  0.26268600  1
  C  C42  1  0.90015700  0.62319600  0.81294000  1
  C  C43  1  0.62319600  0.90015700  0.81294000  1
  C  C44  1  0.09984300  0.37680400  0.18706000  1
  C  C45  1  0.37680400  0.09984300  0.18706000  1
  C  C46  1  0.88730600  0.43776600  0.67064700  1
  C  C47  1  0.43776600  0.88730600  0.67064700  1
  C  C48  1  0.11269400  0.56223400  0.32935300  1
  C  C49  1  0.56223400  0.11269400  0.32935300  1
  C  C50  1  0.09493600  0.09493600  0.42122900  1
  C  C51  1  0.90506400  0.90506400  0.57877100  1
  C  C52  1  0.63134900  0.41296100  0.71789400  1
  C  C53  1  0.41296100  0.63134900  0.71789400  1
  C  C54  1  0.36865100  0.58703900  0.28210600  1
  C  C55  1  0.58703900  0.36865100  0.28210600  1
  C  C56  1  0.90944800  0.36854200  0.01160200  1
  C  C57  1  0.36854200  0.90944800  0.01160200  1
  C  C58  1  0.09055200  0.63145800  0.98839800  1
  C  C59  1  0.63145800  0.09055200  0.98839800  1
  C  C60  1  0.12808100  0.12808100  0.74196600  1
  C  C61  1  0.87191900  0.87191900  0.25803400  1
  C  C62  1  0.67774100  0.67774100  0.55988700  1
  C  C63  1  0.32225900  0.32225900  0.44011300  1
  C  C64  1  0.84733800  0.32970800  0.42295600  1
  C  C65  1  0.32970800  0.84733800  0.42295600  1
  C  C66  1  0.15266200  0.67029200  0.57704400  1
  C  C67  1  0.67029200  0.15266200  0.57704400  1
  C  C68  1  0.15188500  0.15188500  0.06209500  1
  C  C69  1  0.84811500  0.84811500  0.93790500  1
