# generated using pymatgen
data_CuNi3C8
_symmetry_space_group_name_H-M   'P 1'
_cell_length_a   3.34314705
_cell_length_b   3.34314705
_cell_length_c   38.02833000
_cell_angle_alpha   90.00000000
_cell_angle_beta   90.00000000
_cell_angle_gamma   119.99998121
_symmetry_Int_Tables_number   1
_chemical_formula_structural   CuNi3C8
_chemical_formula_sum   'Cu1 Ni3 C8'
_cell_volume   368.08568452
_cell_formula_units_Z   1
loop_
 _symmetry_equiv_pos_site_id
 _symmetry_equiv_pos_as_xyz
  1  'x, y, z'
loop_
 _atom_site_type_symbol
 _atom_site_label
 _atom_site_symmetry_multiplicity
 _atom_site_fract_x
 _atom_site_fract_y
 _atom_site_fract_z
 _atom_site_occupancy
  C  C0  1  0.33333300  0.66666700  0.33168600  1
  C  C1  1  0.33333300  0.66666700  0.23195100  1
  Ni  Ni2  1  0.33333300  0.66666700  0.09387600  1
  Ni  Ni3  1  0.33333300  0.66666700  0.46967400  1
  Ni  Ni4  1  0.66666700  0.33333300  0.28182400  1
  Cu  Cu5  1  0.66666700  0.33333300  0.65753800  1
  C  C6  1  0.33333300  0.66666700  0.70151700  1
  C  C7  1  0.66666700  0.33333300  0.05011900  1
  C  C8  1  0.66666700  0.33333300  0.13767600  1
  C  C9  1  0.33333300  0.66666700  0.61353900  1
  C  C10  1  0.66666700  0.33333300  0.42975800  1
  C  C11  1  0.66666700  0.33333300  0.50958900  1
