# generated using pymatgen
data_Cu(NiC2)2
_symmetry_space_group_name_H-M   'P 1'
_cell_length_a   5.98052702
_cell_length_b   5.98052702
_cell_length_c   7.23439997
_cell_angle_alpha   54.68092499
_cell_angle_beta   54.68092499
_cell_angle_gamma   40.00000596
_symmetry_Int_Tables_number   1
_chemical_formula_structural   Cu(NiC2)2
_chemical_formula_sum   'Cu1 Ni2 C4'
_cell_volume   131.11903702
_cell_formula_units_Z   1
loop_
 _symmetry_equiv_pos_site_id
 _symmetry_equiv_pos_as_xyz
  1  'x, y, z'
loop_
 _atom_site_type_symbol
 _atom_site_label
 _atom_site_symmetry_multiplicity
 _atom_site_fract_x
 _atom_site_fract_y
 _atom_site_fract_z
 _atom_site_occupancy
  C  C0  1  0.42881100  0.42881100  0.30466400  1
  C  C1  1  0.57118900  0.57118900  0.69533600  1
  C  C2  1  0.79697600  0.79697600  0.08726100  1
  C  C3  1  0.20302400  0.20302400  0.91273900  1
  Ni  Ni4  1  0.84763300  0.84763300  0.70346100  1
  Ni  Ni5  1  0.15236700  0.15236700  0.29653900  1
  Cu  Cu6  1  0.00000000  0.00000000  0.00000000  1
