# generated using pymatgen
data_Cu2NiC16
_symmetry_space_group_name_H-M   'P 1'
_cell_length_a   9.33144286
_cell_length_b   9.33144286
_cell_length_c   9.33144286
_cell_angle_alpha   109.85772679
_cell_angle_beta   109.85772679
_cell_angle_gamma   108.70094337
_symmetry_Int_Tables_number   1
_chemical_formula_structural   Cu2NiC16
_chemical_formula_sum   'Cu4 Ni2 C32'
_cell_volume   625.41131447
_cell_formula_units_Z   2
loop_
 _symmetry_equiv_pos_site_id
 _symmetry_equiv_pos_as_xyz
  1  'x, y, z'
loop_
 _atom_site_type_symbol
 _atom_site_label
 _atom_site_symmetry_multiplicity
 _atom_site_fract_x
 _atom_site_fract_y
 _atom_site_fract_z
 _atom_site_occupancy
  Ni  Ni0  1  0.50000000  0.50000000  0.00000000  1
  Ni  Ni1  1  0.25000000  0.75000000  0.50000000  1
  Cu  Cu2  1  0.99751000  0.62500000  0.87251000  1
  Cu  Cu3  1  0.75249000  0.12500000  0.12749000  1
  Cu  Cu4  1  0.87500000  0.00249000  0.62749000  1
  Cu  Cu5  1  0.37500000  0.24751000  0.37251000  1
  C  C6  1  0.90527700  0.87183200  0.25612800  1
  C  C7  1  0.84472300  0.60085100  0.46655500  1
  C  C8  1  0.13429700  0.37816800  0.53344500  1
  C  C9  1  0.61570300  0.64914900  0.74387200  1
  C  C10  1  0.39914900  0.86570300  0.24387200  1
  C  C11  1  0.35085100  0.09472300  0.96655500  1
  C  C12  1  0.62183200  0.15527700  0.75612800  1
  C  C13  1  0.12816800  0.38429700  0.03344500  1
  C  C14  1  0.71709600  0.68054800  0.22068300  1
  C  C15  1  0.03290400  0.75358700  0.46345200  1
  C  C16  1  0.29013500  0.56945200  0.53654800  1
  C  C17  1  0.45986500  0.49641300  0.77931700  1
  C  C18  1  0.20977700  0.83120200  0.04171300  1
  C  C19  1  0.54022300  0.08193600  0.12142400  1
  C  C20  1  0.78948900  0.16806400  0.95828700  1
  C  C21  1  0.96051100  0.41879800  0.87857600  1
  C  C22  1  0.92615900  0.33145400  0.33862100  1
  C  C23  1  0.99283300  0.58753800  0.66137900  1
  C  C24  1  0.82384100  0.66246200  0.90529500  1
  C  C25  1  0.75716700  0.91854600  0.09470500  1
  C  C26  1  0.08145400  0.17615900  0.83862100  1
  C  C27  1  0.33753800  0.24283300  0.16137900  1
  C  C28  1  0.41246200  0.07384100  0.40529500  1
  C  C29  1  0.66854600  0.00716700  0.59470500  1
  C  C30  1  0.58120200  0.45977700  0.54171300  1
  C  C31  1  0.83193600  0.79022300  0.62142400  1
  C  C32  1  0.91806400  0.03948900  0.45828700  1
  C  C33  1  0.16879800  0.21051100  0.37857600  1
  C  C34  1  0.43054800  0.96709600  0.72068300  1
  C  C35  1  0.50358700  0.28290400  0.96345200  1
  C  C36  1  0.31945200  0.54013500  0.03654800  1
  C  C37  1  0.24641300  0.70986500  0.27931700  1
