# generated using pymatgen
data_Cu2NiC6
_symmetry_space_group_name_H-M   'P 1'
_cell_length_a   5.10495300
_cell_length_b   10.79096400
_cell_length_c   18.47232400
_cell_angle_alpha   90.00000000
_cell_angle_beta   90.00000000
_cell_angle_gamma   90.00000000
_symmetry_Int_Tables_number   1
_chemical_formula_structural   Cu2NiC6
_chemical_formula_sum   'Cu16 Ni8 C48'
_cell_volume   1017.59163694
_cell_formula_units_Z   8
loop_
 _symmetry_equiv_pos_site_id
 _symmetry_equiv_pos_as_xyz
  1  'x, y, z'
loop_
 _atom_site_type_symbol
 _atom_site_label
 _atom_site_symmetry_multiplicity
 _atom_site_fract_x
 _atom_site_fract_y
 _atom_site_fract_z
 _atom_site_occupancy
  Ni  Ni0  1  0.43936400  0.54235600  0.37386500  1
  Ni  Ni1  1  0.56063600  0.45764400  0.62613500  1
  Ni  Ni2  1  0.93936400  0.45764400  0.12613500  1
  Ni  Ni3  1  0.06063600  0.54235600  0.87386500  1
  Ni  Ni4  1  0.43936400  0.04235600  0.12613500  1
  Ni  Ni5  1  0.56063600  0.95764400  0.87386500  1
  Ni  Ni6  1  0.93936400  0.95764400  0.37386500  1
  Ni  Ni7  1  0.06063600  0.04235600  0.62613500  1
  Cu  Cu8  1  0.62510500  0.16857200  0.27644400  1
  Cu  Cu9  1  0.76690800  0.32946900  0.97426200  1
  Cu  Cu10  1  0.73309200  0.32946900  0.47426200  1
  Cu  Cu11  1  0.87489500  0.66857200  0.72355600  1
  Cu  Cu12  1  0.12510500  0.83142800  0.22355600  1
  Cu  Cu13  1  0.37489500  0.33142800  0.77644400  1
  Cu  Cu14  1  0.26690800  0.17053100  0.97426200  1
  Cu  Cu15  1  0.76690800  0.82946900  0.52573800  1
  Cu  Cu16  1  0.73309200  0.82946900  0.02573800  1
  Cu  Cu17  1  0.87489500  0.16857200  0.77644400  1
  Cu  Cu18  1  0.37489500  0.83142800  0.72355600  1
  Cu  Cu19  1  0.62510500  0.66857200  0.22355600  1
  Cu  Cu20  1  0.23309200  0.67053100  0.02573800  1
  Cu  Cu21  1  0.12510500  0.33142800  0.27644400  1
  Cu  Cu22  1  0.23309200  0.17053100  0.47426200  1
  Cu  Cu23  1  0.26690800  0.67053100  0.52573800  1
  C  C24  1  0.79649500  0.04613600  0.82440300  1
  C  C25  1  0.33691000  0.54908100  0.57513200  1
  C  C26  1  0.20350500  0.95386400  0.17559700  1
  C  C27  1  0.77757100  0.86180200  0.43924100  1
  C  C28  1  0.27757100  0.63819800  0.43924100  1
  C  C29  1  0.97073900  0.71711500  0.54500300  1
  C  C30  1  0.87591800  0.13260800  0.69009400  1
  C  C31  1  0.12408200  0.36739200  0.19009400  1
  C  C32  1  0.77757100  0.36180200  0.06075900  1
  C  C33  1  0.87591800  0.63260800  0.80990600  1
  C  C34  1  0.29649500  0.95386400  0.67559700  1
  C  C35  1  0.72242900  0.86180200  0.93924100  1
  C  C36  1  0.66309000  0.45091900  0.42486800  1
  C  C37  1  0.37591800  0.36739200  0.69009400  1
  C  C38  1  0.70350500  0.54613600  0.17559700  1
  C  C39  1  0.33691000  0.04908100  0.92486800  1
  C  C40  1  0.29649500  0.45386400  0.82440300  1
  C  C41  1  0.16762100  0.22035300  0.79535100  1
  C  C42  1  0.33237900  0.22035300  0.29535100  1
  C  C43  1  0.52926100  0.21711500  0.45499700  1
  C  C44  1  0.72242900  0.36180200  0.56075900  1
  C  C45  1  0.62408200  0.13260800  0.19009400  1
  C  C46  1  0.83691000  0.95091900  0.57513200  1
  C  C47  1  0.16762100  0.72035300  0.70464900  1
  C  C48  1  0.22242900  0.63819800  0.93924100  1
  C  C49  1  0.62408200  0.63260800  0.30990600  1
  C  C50  1  0.66309000  0.95091900  0.07513200  1
  C  C51  1  0.27757100  0.13819800  0.06075900  1
  C  C52  1  0.16309000  0.04908100  0.42486800  1
  C  C53  1  0.66762100  0.27964700  0.79535100  1
  C  C54  1  0.20350500  0.45386400  0.32440300  1
  C  C55  1  0.83237900  0.27964700  0.29535100  1
  C  C56  1  0.83237900  0.77964700  0.20464900  1
  C  C57  1  0.83691000  0.45091900  0.92486800  1
  C  C58  1  0.22242900  0.13819800  0.56075900  1
  C  C59  1  0.16309000  0.54908100  0.07513200  1
  C  C60  1  0.33237900  0.72035300  0.20464900  1
  C  C61  1  0.02926100  0.28288500  0.45499700  1
  C  C62  1  0.47073900  0.28288500  0.95499700  1
  C  C63  1  0.66762100  0.77964700  0.70464900  1
  C  C64  1  0.47073900  0.78288500  0.54500300  1
  C  C65  1  0.52926100  0.71711500  0.04500300  1
  C  C66  1  0.02926100  0.78288500  0.04500300  1
  C  C67  1  0.37591800  0.86739200  0.80990600  1
  C  C68  1  0.70350500  0.04613600  0.32440300  1
  C  C69  1  0.97073900  0.21711500  0.95499700  1
  C  C70  1  0.12408200  0.86739200  0.30990600  1
  C  C71  1  0.79649500  0.54613600  0.67559700  1
