# generated using pymatgen
data_CuNi2
_symmetry_space_group_name_H-M   'P 1'
_cell_length_a   8.58524223
_cell_length_b   8.58524223
_cell_length_c   8.58524223
_cell_angle_alpha   60.00000000
_cell_angle_beta   60.00000000
_cell_angle_gamma   60.00000000
_symmetry_Int_Tables_number   1
_chemical_formula_structural   CuNi2
_chemical_formula_sum   'Cu8 Ni16'
_cell_volume   447.44809339
_cell_formula_units_Z   8
loop_
 _symmetry_equiv_pos_site_id
 _symmetry_equiv_pos_as_xyz
  1  'x, y, z'
loop_
 _atom_site_type_symbol
 _atom_site_label
 _atom_site_symmetry_multiplicity
 _atom_site_fract_x
 _atom_site_fract_y
 _atom_site_fract_z
 _atom_site_occupancy
  Ni  Ni0  1  0.19432000  0.80568000  0.19432000  1
  Ni  Ni1  1  0.19432000  0.19432000  0.80568000  1
  Ni  Ni2  1  0.19432000  0.80568000  0.80568000  1
  Ni  Ni3  1  0.05568000  0.44432000  0.05568000  1
  Ni  Ni4  1  0.80568000  0.19432000  0.19432000  1
  Ni  Ni5  1  0.05568000  0.44432000  0.44432000  1
  Ni  Ni6  1  0.44432000  0.05568000  0.44432000  1
  Ni  Ni7  1  0.44432000  0.44432000  0.05568000  1
  Ni  Ni8  1  0.80568000  0.80568000  0.19432000  1
  Ni  Ni9  1  0.44432000  0.05568000  0.05568000  1
  Ni  Ni10  1  0.62500000  0.62500000  0.62500000  1
  Ni  Ni11  1  0.80568000  0.19432000  0.80568000  1
  Ni  Ni12  1  0.05568000  0.05568000  0.44432000  1
  Ni  Ni13  1  0.12500000  0.62500000  0.62500000  1
  Ni  Ni14  1  0.62500000  0.62500000  0.12500000  1
  Ni  Ni15  1  0.62500000  0.12500000  0.62500000  1
  Cu  Cu16  1  0.84229300  0.47312100  0.84229300  1
  Cu  Cu17  1  0.84229300  0.84229300  0.84229300  1
  Cu  Cu18  1  0.47312100  0.84229300  0.84229300  1
  Cu  Cu19  1  0.40770700  0.77687900  0.40770700  1
  Cu  Cu20  1  0.84229300  0.84229300  0.47312100  1
  Cu  Cu21  1  0.77687900  0.40770700  0.40770700  1
  Cu  Cu22  1  0.40770700  0.40770700  0.40770700  1
  Cu  Cu23  1  0.40770700  0.40770700  0.77687900  1
