# generated using pymatgen
data_Cu3Ni3C4
_symmetry_space_group_name_H-M   'P 1'
_cell_length_a   4.10931000
_cell_length_b   11.42379500
_cell_length_c   11.85730000
_cell_angle_alpha   90.00000000
_cell_angle_beta   90.00000000
_cell_angle_gamma   90.00000000
_symmetry_Int_Tables_number   1
_chemical_formula_structural   Cu3Ni3C4
_chemical_formula_sum   'Cu6 Ni6 C8'
_cell_volume   556.62808370
_cell_formula_units_Z   2
loop_
 _symmetry_equiv_pos_site_id
 _symmetry_equiv_pos_as_xyz
  1  'x, y, z'
loop_
 _atom_site_type_symbol
 _atom_site_label
 _atom_site_symmetry_multiplicity
 _atom_site_fract_x
 _atom_site_fract_y
 _atom_site_fract_z
 _atom_site_occupancy
  C  C0  1  0.50000000  0.20927300  0.65902500  1
  C  C1  1  0.50000000  0.79072700  0.15902500  1
  C  C2  1  0.00000000  0.28504700  0.34132500  1
  C  C3  1  0.00000000  0.71495300  0.84132500  1
  C  C4  1  0.00000000  0.92033400  0.52060900  1
  C  C5  1  0.00000000  0.07966600  0.02060900  1
  C  C6  1  0.50000000  0.58536900  0.48382100  1
  C  C7  1  0.50000000  0.41463100  0.98382100  1
  Ni  Ni8  1  0.50000000  0.44807700  0.27970800  1
  Ni  Ni9  1  0.50000000  0.55192300  0.77970800  1
  Ni  Ni10  1  0.00000000  0.38191200  0.55400300  1
  Ni  Ni11  1  0.00000000  0.61808800  0.05400300  1
  Ni  Ni12  1  0.50000000  0.11350100  0.44660900  1
  Ni  Ni13  1  0.50000000  0.88649900  0.94660900  1
  Cu  Cu14  1  0.50000000  0.80536500  0.62105900  1
  Cu  Cu15  1  0.50000000  0.19463500  0.12105900  1
  Cu  Cu16  1  0.00000000  0.69854900  0.38257400  1
  Cu  Cu17  1  0.00000000  0.30145100  0.88257400  1
  Cu  Cu18  1  0.00000000  0.05663400  0.71126700  1
  Cu  Cu19  1  0.00000000  0.94336600  0.21126700  1
