# generated using pymatgen
data_CuNiC
_symmetry_space_group_name_H-M   'P 1'
_cell_length_a   4.31523400
_cell_length_b   7.02064500
_cell_length_c   7.46906300
_cell_angle_alpha   90.00000000
_cell_angle_beta   90.00000000
_cell_angle_gamma   90.00000000
_symmetry_Int_Tables_number   1
_chemical_formula_structural   CuNiC
_chemical_formula_sum   'Cu4 Ni4 C4'
_cell_volume   226.28068617
_cell_formula_units_Z   4
loop_
 _symmetry_equiv_pos_site_id
 _symmetry_equiv_pos_as_xyz
  1  'x, y, z'
loop_
 _atom_site_type_symbol
 _atom_site_label
 _atom_site_symmetry_multiplicity
 _atom_site_fract_x
 _atom_site_fract_y
 _atom_site_fract_z
 _atom_site_occupancy
  C  C0  1  0.25000000  0.99773300  0.29812000  1
  C  C1  1  0.25000000  0.49773300  0.20188000  1
  C  C2  1  0.75000000  0.00226700  0.70188000  1
  C  C3  1  0.75000000  0.50226700  0.79812000  1
  Ni  Ni4  1  0.25000000  0.31345900  0.58741300  1
  Ni  Ni5  1  0.25000000  0.81345900  0.91258700  1
  Ni  Ni6  1  0.75000000  0.68654100  0.41258700  1
  Ni  Ni7  1  0.75000000  0.18654100  0.08741300  1
  Cu  Cu8  1  0.25000000  0.19922500  0.91506700  1
  Cu  Cu9  1  0.25000000  0.69922500  0.58493300  1
  Cu  Cu10  1  0.75000000  0.80077500  0.08493300  1
  Cu  Cu11  1  0.75000000  0.30077500  0.41506700  1
