# generated using pymatgen
data_Cu11Ni2C11
_symmetry_space_group_name_H-M   'P 1'
_cell_length_a   4.75808800
_cell_length_b   9.69068900
_cell_length_c   22.03303300
_cell_angle_alpha   90.00000000
_cell_angle_beta   90.00000000
_cell_angle_gamma   90.00000000
_symmetry_Int_Tables_number   1
_chemical_formula_structural   Cu11Ni2C11
_chemical_formula_sum   'Cu44 Ni8 C44'
_cell_volume   1015.92444652
_cell_formula_units_Z   4
loop_
 _symmetry_equiv_pos_site_id
 _symmetry_equiv_pos_as_xyz
  1  'x, y, z'
loop_
 _atom_site_type_symbol
 _atom_site_label
 _atom_site_symmetry_multiplicity
 _atom_site_fract_x
 _atom_site_fract_y
 _atom_site_fract_z
 _atom_site_occupancy
  C  C0  1  0.23897800  0.34982600  0.55188100  1
  C  C1  1  0.26102200  0.65017400  0.05188100  1
  C  C2  1  0.76102200  0.84982600  0.94811900  1
  C  C3  1  0.73897800  0.15017400  0.44811900  1
  C  C4  1  0.34932300  0.07663800  0.26250500  1
  C  C5  1  0.15067700  0.92336200  0.76250500  1
  C  C6  1  0.65067700  0.57663800  0.23749500  1
  C  C7  1  0.84932300  0.42336200  0.73749500  1
  C  C8  1  0.36091700  0.22904700  0.65081200  1
  C  C9  1  0.13908300  0.77095300  0.15081200  1
  C  C10  1  0.63908300  0.72904700  0.84918800  1
  C  C11  1  0.86091700  0.27095300  0.34918800  1
  C  C12  1  0.59440800  0.32945700  0.15346300  1
  C  C13  1  0.90559200  0.67054300  0.65346300  1
  C  C14  1  0.40559200  0.82945700  0.34653700  1
  C  C15  1  0.09440800  0.17054300  0.84653700  1
  C  C16  1  0.99627800  0.76465600  0.04588800  1
  C  C17  1  0.50372200  0.23534400  0.54588800  1
  C  C18  1  0.00372200  0.26465600  0.45411200  1
  C  C19  1  0.49627800  0.73534400  0.95411200  1
  C  C20  1  0.22801200  0.00422100  0.41896600  1
  C  C21  1  0.27198800  0.99577900  0.91896600  1
  C  C22  1  0.77198800  0.50422100  0.08103400  1
  C  C23  1  0.72801200  0.49577900  0.58103400  1
  C  C24  1  0.22280000  0.32377100  0.24828900  1
  C  C25  1  0.27720000  0.67622900  0.74828900  1
  C  C26  1  0.77720000  0.82377100  0.25171100  1
  C  C27  1  0.72280000  0.17622900  0.75171100  1
  C  C28  1  0.33683500  0.43646500  0.13441200  1
  C  C29  1  0.16316500  0.56353500  0.63441200  1
  C  C30  1  0.66316500  0.93646500  0.36558800  1
  C  C31  1  0.83683500  0.06353500  0.86558800  1
  C  C32  1  0.02428300  0.71854200  0.28153900  1
  C  C33  1  0.47571700  0.28145800  0.78153900  1
  C  C34  1  0.97571700  0.21854200  0.21846100  1
  C  C35  1  0.52428300  0.78145800  0.71846100  1
  Ni  Ni36  1  0.21083400  0.55835500  0.40604000  1
  Ni  Ni37  1  0.28916600  0.44164500  0.90604000  1
  Ni  Ni38  1  0.78916600  0.05835500  0.09396000  1
  Ni  Ni39  1  0.71083400  0.94164500  0.59396000  1
  Ni  Ni40  1  0.14759800  0.11402300  0.34304500  1
  Ni  Ni41  1  0.35240200  0.88597700  0.84304500  1
  Ni  Ni42  1  0.85240200  0.61402300  0.15695500  1
  Ni  Ni43  1  0.64759800  0.38597700  0.65695500  1
  Cu  Cu44  1  0.00744300  0.06998700  0.63686100  1
  Cu  Cu45  1  0.49255700  0.93001300  0.13686100  1
  Cu  Cu46  1  0.99255700  0.56998700  0.86313900  1
  Cu  Cu47  1  0.50744300  0.43001300  0.36313900  1
  Cu  Cu48  1  0.72495100  0.12404500  0.14594900  1
  Cu  Cu49  1  0.77504900  0.87595500  0.64594900  1
  Cu  Cu50  1  0.27504900  0.62404500  0.35405100  1
  Cu  Cu51  1  0.22495100  0.37595500  0.85405100  1
  Cu  Cu52  1  0.28111200  0.01474400  0.37411800  1
  Cu  Cu53  1  0.21888800  0.98525600  0.87411800  1
  Cu  Cu54  1  0.71888800  0.51474400  0.12588200  1
  Cu  Cu55  1  0.78111200  0.48525600  0.62588200  1
  Cu  Cu56  1  0.53703400  0.04097400  0.17231000  1
  Cu  Cu57  1  0.96296600  0.95902600  0.67231000  1
  Cu  Cu58  1  0.46296600  0.54097400  0.32769000  1
  Cu  Cu59  1  0.03703400  0.45902600  0.82769000  1
  Cu  Cu60  1  0.52583000  0.42998100  0.15627200  1
  Cu  Cu61  1  0.97417000  0.57001900  0.65627200  1
  Cu  Cu62  1  0.47417000  0.92998100  0.34372800  1
  Cu  Cu63  1  0.02583000  0.07001900  0.84372800  1
  Cu  Cu64  1  0.07389800  0.25040500  0.25742800  1
  Cu  Cu65  1  0.42610200  0.74959500  0.75742800  1
  Cu  Cu66  1  0.92610200  0.75040500  0.24257200  1
  Cu  Cu67  1  0.57389800  0.24959500  0.74257200  1
  Cu  Cu68  1  0.01311200  0.61028200  0.45027800  1
  Cu  Cu69  1  0.48688800  0.38971800  0.95027800  1
  Cu  Cu70  1  0.98688800  0.11028200  0.04972200  1
  Cu  Cu71  1  0.51311200  0.88971800  0.54972200  1
  Cu  Cu72  1  0.20391300  0.13677300  0.28478300  1
  Cu  Cu73  1  0.29608700  0.86322700  0.78478300  1
  Cu  Cu74  1  0.79608700  0.63677300  0.21521700  1
  Cu  Cu75  1  0.70391300  0.36322700  0.71521700  1
  Cu  Cu76  1  0.34860900  0.43888600  0.41297700  1
  Cu  Cu77  1  0.15139100  0.56111400  0.91297700  1
  Cu  Cu78  1  0.65139100  0.93888600  0.08702300  1
  Cu  Cu79  1  0.84860900  0.06111400  0.58702300  1
  Cu  Cu80  1  0.06179800  0.67450500  0.06529900  1
  Cu  Cu81  1  0.43820200  0.32549500  0.56529900  1
  Cu  Cu82  1  0.93820200  0.17450500  0.43470100  1
  Cu  Cu83  1  0.56179800  0.82549500  0.93470100  1
  Cu  Cu84  1  0.05103200  0.68854500  0.12845900  1
  Cu  Cu85  1  0.44896800  0.31145500  0.62845900  1
  Cu  Cu86  1  0.94896800  0.18854500  0.37154100  1
  Cu  Cu87  1  0.55103200  0.81145500  0.87154100  1
  C  C88  1  0.02995100  0.03832100  0.00368200  1
  C  C89  1  0.47004900  0.96167900  0.50368200  1
  C  C90  1  0.97004900  0.53832100  0.49631800  1
  C  C91  1  0.52995100  0.46167900  0.99631800  1
  C  C92  1  0.10224000  0.22249400  0.06009500  1
  C  C93  1  0.39776000  0.77750600  0.56009500  1
  C  C94  1  0.89776000  0.72249400  0.43990500  1
  C  C95  1  0.60224000  0.27750600  0.93990500  1
