# generated using pymatgen
data_CuNiC8
_symmetry_space_group_name_H-M   'P 1'
_cell_length_a   5.97050990
_cell_length_b   5.97050990
_cell_length_c   8.74648244
_cell_angle_alpha   90.00000000
_cell_angle_beta   90.00000000
_cell_angle_gamma   90.00000000
_symmetry_Int_Tables_number   1
_chemical_formula_structural   CuNiC8
_chemical_formula_sum   'Cu2 Ni2 C16'
_cell_volume   311.78575866
_cell_formula_units_Z   2
loop_
 _symmetry_equiv_pos_site_id
 _symmetry_equiv_pos_as_xyz
  1  'x, y, z'
loop_
 _atom_site_type_symbol
 _atom_site_label
 _atom_site_symmetry_multiplicity
 _atom_site_fract_x
 _atom_site_fract_y
 _atom_site_fract_z
 _atom_site_occupancy
  Ni  Ni0  1  0.50000000  0.50000000  -0.00000000  1
  Ni  Ni1  1  0.00000000  0.00000000  -0.00000000  1
  C  C2  1  0.50000000  -0.00000000  0.74985231  1
  C  C3  1  -0.00000000  0.50000000  0.25014769  1
  Cu  Cu4  1  0.50000000  0.50000000  0.50000000  1
  Cu  Cu5  1  -0.00000000  0.00000000  0.50000000  1
  C  C6  1  0.50000000  -0.00000000  0.25141762  1
  C  C7  1  -0.00000000  0.50000000  0.74858238  1
  C  C8  1  0.50000000  -0.00000000  0.01821516  1
  C  C9  1  0.00000000  0.50000000  0.98178484  1
  C  C10  1  0.50000000  0.00000000  0.48387473  1
  C  C11  1  -0.00000000  0.50000000  0.51612527  1
  C  C12  1  0.69492757  0.64973104  0.74736556  1
  C  C13  1  0.30507243  0.35026896  0.74736556  1
  C  C14  1  0.85026896  0.19492757  0.74736556  1
  C  C15  1  0.14973104  0.80507243  0.74736556  1
  C  C16  1  0.80507243  0.14973104  0.25263444  1
  C  C17  1  0.19492757  0.85026896  0.25263444  1
  C  C18  1  0.64973104  0.69492757  0.25263444  1
  C  C19  1  0.35026896  0.30507243  0.25263444  1
