# generated using pymatgen
data_Cu3Ni2C
_symmetry_space_group_name_H-M   'P 1'
_cell_length_a   5.47621314
_cell_length_b   5.47621314
_cell_length_c   5.47621314
_cell_angle_alpha   119.93285483
_cell_angle_beta   119.22054174
_cell_angle_gamma   90.73585007
_symmetry_Int_Tables_number   1
_chemical_formula_structural   Cu3Ni2C
_chemical_formula_sum   'Cu3 Ni2 C1'
_cell_volume   116.85208257
_cell_formula_units_Z   1
loop_
 _symmetry_equiv_pos_site_id
 _symmetry_equiv_pos_as_xyz
  1  'x, y, z'
loop_
 _atom_site_type_symbol
 _atom_site_label
 _atom_site_symmetry_multiplicity
 _atom_site_fract_x
 _atom_site_fract_y
 _atom_site_fract_z
 _atom_site_occupancy
  C  C0  1  0.00594400  0.00594400  0.00000000  1
  Ni  Ni1  1  0.12490900  0.37413800  0.75077100  1
  Ni  Ni2  1  0.62336700  0.37413800  0.24922900  1
  Cu  Cu3  1  0.62337900  0.87224900  0.24887000  1
  Cu  Cu4  1  0.62337900  0.37450900  0.75113000  1
  Cu  Cu5  1  0.24902200  0.74902200  0.50000000  1
