# generated using pymatgen
data_Cu2Ni14C9
_symmetry_space_group_name_H-M   'P 1'
_cell_length_a   5.16693584
_cell_length_b   5.18650887
_cell_length_c   11.63439736
_cell_angle_alpha   90.65195380
_cell_angle_beta   90.48071101
_cell_angle_gamma   77.67465135
_symmetry_Int_Tables_number   1
_chemical_formula_structural   Cu2Ni14C9
_chemical_formula_sum   'Cu2 Ni14 C9'
_cell_volume   304.57115398
_cell_formula_units_Z   1
loop_
 _symmetry_equiv_pos_site_id
 _symmetry_equiv_pos_as_xyz
  1  'x, y, z'
loop_
 _atom_site_type_symbol
 _atom_site_label
 _atom_site_symmetry_multiplicity
 _atom_site_fract_x
 _atom_site_fract_y
 _atom_site_fract_z
 _atom_site_occupancy
  C  C0  1  0.19388100  0.18876500  0.12133800  1
  C  C1  1  0.91398700  0.89281000  0.99389200  1
  C  C2  1  0.91470800  0.91101900  0.26177800  1
  C  C3  1  0.07504800  0.07063700  0.49679300  1
  C  C4  1  0.08919000  0.07126600  0.74792800  1
  C  C5  1  0.52806600  0.52108800  0.12473800  1
  C  C6  1  0.49102100  0.48110800  0.62578600  1
  C  C7  1  0.46455600  0.51299800  0.87291800  1
  C  C8  1  0.49448400  0.48953500  0.37688400  1
  Ni  Ni9  1  0.18092600  0.81113300  0.12667800  1
  Ni  Ni10  1  0.22100300  0.83571600  0.61990700  1
  Ni  Ni11  1  0.17504800  0.82614400  0.87573600  1
  Ni  Ni12  1  0.19439900  0.81165500  0.37798900  1
  Ni  Ni13  1  0.34770900  0.36288300  0.00394600  1
  Ni  Ni14  1  0.36350300  0.35474900  0.23770700  1
  Ni  Ni15  1  0.32668800  0.31878000  0.49973000  1
  Ni  Ni16  1  0.31420700  0.32243800  0.75588400  1
  Ni  Ni17  1  0.67401100  0.66773300  0.99849000  1
  Ni  Ni18  1  0.68331400  0.67331500  0.24822100  1
  Ni  Ni19  1  0.63011200  0.63896300  0.75904700  1
  Ni  Ni20  1  0.81456800  0.17198600  0.12122100  1
  Ni  Ni21  1  0.81768800  0.19033000  0.37757700  1
  Ni  Ni22  1  0.84317300  0.21563700  0.62353700  1
  Cu  Cu23  1  0.66470600  0.65648100  0.49994500  1
  Cu  Cu24  1  0.79233700  0.18339700  0.87455400  1
