# generated using pymatgen
data_CuNi3C14
_symmetry_space_group_name_H-M   'P 1'
_cell_length_a   10.91384902
_cell_length_b   11.00019579
_cell_length_c   17.49954574
_cell_angle_alpha   108.03207524
_cell_angle_beta   108.10921226
_cell_angle_gamma   90.53307218
_symmetry_Int_Tables_number   1
_chemical_formula_structural   CuNi3C14
_chemical_formula_sum   'Cu8 Ni24 C112'
_cell_volume   1885.76873687
_cell_formula_units_Z   8
loop_
 _symmetry_equiv_pos_site_id
 _symmetry_equiv_pos_as_xyz
  1  'x, y, z'
loop_
 _atom_site_type_symbol
 _atom_site_label
 _atom_site_symmetry_multiplicity
 _atom_site_fract_x
 _atom_site_fract_y
 _atom_site_fract_z
 _atom_site_occupancy
  Ni  Ni0  1  0.31091000  0.05676000  0.61349100  1
  Ni  Ni1  1  0.30822000  0.55923800  0.61495500  1
  Ni  Ni2  1  0.80465100  0.06251900  0.61277200  1
  Ni  Ni3  1  0.80888200  0.55505800  0.61507700  1
  Ni  Ni4  1  0.19589100  0.43809400  0.38799000  1
  Ni  Ni5  1  0.19482800  0.44214900  0.88722900  1
  Ni  Ni6  1  0.19675000  0.93947900  0.38743500  1
  Ni  Ni7  1  0.69502000  0.43877100  0.38633300  1
  Ni  Ni8  1  0.69630000  0.44217700  0.88771200  1
  Ni  Ni9  1  0.69119000  0.94179000  0.38606400  1
  Ni  Ni10  1  0.69511500  0.94094400  0.88857800  1
  Ni  Ni11  1  0.05551000  0.29706100  0.11164800  1
  Ni  Ni12  1  0.05730800  0.30346800  0.61349300  1
  Ni  Ni13  1  0.06041900  0.80747600  0.61524100  1
  Ni  Ni14  1  0.55795400  0.30139500  0.61165500  1
  Ni  Ni15  1  0.55807400  0.80862200  0.11534300  1
  Ni  Ni16  1  0.55666600  0.80540400  0.61415400  1
  Ni  Ni17  1  0.44433100  0.19446100  0.38479400  1
  Ni  Ni18  1  0.44460300  0.19313900  0.88796800  1
  Ni  Ni19  1  0.44267300  0.69629100  0.38520800  1
  Ni  Ni20  1  0.44447300  0.69803200  0.88954100  1
  Ni  Ni21  1  0.93988400  0.19232500  0.38288100  1
  Ni  Ni22  1  0.94444900  0.19420900  0.88708000  1
  Ni  Ni23  1  0.94567800  0.69896700  0.38555000  1
  Cu  Cu24  1  0.30243300  0.06094800  0.10679000  1
  Cu  Cu25  1  0.29809800  0.56549200  0.10755300  1
  Cu  Cu26  1  0.79821200  0.05849800  0.10705900  1
  Cu  Cu27  1  0.79956700  0.56548200  0.10779900  1
  Cu  Cu28  1  0.19915500  0.93913800  0.89435400  1
  Cu  Cu29  1  0.05574900  0.79403200  0.10736500  1
  Cu  Cu30  1  0.54859400  0.28835500  0.10718100  1
  Cu  Cu31  1  0.95148300  0.70781900  0.89404300  1
  C  C32  1  0.00342900  0.99920500  0.00065100  1
  C  C33  1  0.00131700  0.99973300  0.49951500  1
  C  C34  1  0.00271100  0.50097500  0.00067500  1
  C  C35  1  0.00272600  0.50124000  0.50360300  1
  C  C36  1  0.50323500  0.00020100  0.00275600  1
  C  C37  1  0.50034300  0.99882500  0.49900300  1
  C  C38  1  0.50320000  0.49849700  0.00128100  1
  C  C39  1  0.50229400  0.49972600  0.50018500  1
  C  C40  1  0.25579900  0.24877200  0.00385600  1
  C  C41  1  0.25625300  0.24986600  0.50709700  1
  C  C42  1  0.25232300  0.75458400  0.00458600  1
  C  C43  1  0.25418500  0.75232300  0.50558700  1
  C  C44  1  0.75475700  0.24958600  0.00350000  1
  C  C45  1  0.74886500  0.24780800  0.49739600  1
  C  C46  1  0.75727700  0.75354000  0.00479300  1
  C  C47  1  0.75460100  0.75571000  0.50796200  1
  C  C48  1  0.10971700  0.08702300  0.24341200  1
  C  C49  1  0.10619100  0.59441400  0.24505300  1
  C  C50  1  0.60686600  0.58866800  0.24331300  1
  C  C51  1  0.85196700  0.40134400  0.24356100  1
  C  C52  1  0.11679000  0.09846900  0.75272600  1
  C  C53  1  0.11199300  0.60734500  0.75382000  1
  C  C54  1  0.60792100  0.09909700  0.24650900  1
  C  C55  1  0.61949700  0.10192000  0.75229600  1
  C  C56  1  0.61996900  0.60262100  0.75131500  1
  C  C57  1  0.35960900  0.40372200  0.24646900  1
  C  C58  1  0.36706300  0.40137000  0.75235400  1
  C  C59  1  0.35167900  0.90458100  0.24526200  1
  C  C60  1  0.36099300  0.90078700  0.75447400  1
  C  C61  1  0.86764000  0.40524900  0.75362300  1
  C  C62  1  0.86882600  0.89901000  0.24712400  1
  C  C63  1  0.87015900  0.89656600  0.75209600  1
  C  C64  1  0.12717400  0.13121000  0.49544600  1
  C  C65  1  0.12921900  0.12681900  0.99327700  1
  C  C66  1  0.12931900  0.62795000  0.49435600  1
  C  C67  1  0.12828600  0.63005600  0.99182300  1
  C  C68  1  0.62162500  0.12500300  0.49484400  1
  C  C69  1  0.62899500  0.13310100  0.99891900  1
  C  C70  1  0.63249600  0.62898900  0.49495500  1
  C  C71  1  0.63407900  0.62809100  0.99529000  1
  C  C72  1  0.12553000  0.38868800  0.01017900  1
  C  C73  1  0.12119300  0.38391300  0.50417100  1
  C  C74  1  0.12838500  0.88408500  0.01010500  1
  C  C75  1  0.12849100  0.87771400  0.50430500  1
  C  C76  1  0.62516000  0.38696700  0.01449200  1
  C  C77  1  0.63089100  0.37310300  0.50413000  1
  C  C78  1  0.63271400  0.88426800  0.01009300  1
  C  C79  1  0.62388900  0.87920700  0.50404500  1
  C  C80  1  0.37542300  0.11670100  0.49494700  1
  C  C81  1  0.37380000  0.11337200  0.99481900  1
  C  C82  1  0.37316300  0.61991500  0.49450600  1
  C  C83  1  0.38261200  0.61377400  0.99918000  1
  C  C84  1  0.87015600  0.12617800  0.49609500  1
  C  C85  1  0.87668100  0.11402800  0.99582200  1
  C  C86  1  0.88246300  0.61536200  0.49380600  1
  C  C87  1  0.88532300  0.61768000  0.99676200  1
  C  C88  1  0.37588500  0.37548200  0.01304400  1
  C  C89  1  0.36978800  0.37026300  0.50308900  1
  C  C90  1  0.37348600  0.87411400  0.00796600  1
  C  C91  1  0.37331900  0.87007300  0.50331900  1
  C  C92  1  0.87219100  0.38004100  0.01340100  1
  C  C93  1  0.87657100  0.37495700  0.50226000  1
  C  C94  1  0.88154100  0.87371700  0.01000600  1
  C  C95  1  0.87283300  0.87035500  0.50266900  1
  C  C96  1  0.09334500  0.09032500  0.13861500  1
  C  C97  1  0.07600000  0.07894400  0.63730700  1
  C  C98  1  0.09183200  0.60182300  0.14024800  1
  C  C99  1  0.07150100  0.58548400  0.63775200  1
  C  C100  1  0.57907300  0.08820900  0.13330800  1
  C  C101  1  0.57595400  0.08413400  0.63737000  1
  C  C102  1  0.59337700  0.59962800  0.14167100  1
  C  C103  1  0.57409800  0.58555200  0.63616200  1
  C  C104  1  0.43853500  0.42000500  0.36284600  1
  C  C105  1  0.44088400  0.41330700  0.86761800  1
  C  C106  1  0.43505600  0.92006700  0.36139100  1
  C  C107  1  0.44246800  0.91667800  0.86907900  1
  C  C108  1  0.93195600  0.40951300  0.35213700  1
  C  C109  1  0.93924900  0.41207600  0.86615400  1
  C  C110  1  0.93964200  0.92146800  0.36379500  1
  C  C111  1  0.94685200  0.90757000  0.86550100  1
  C  C112  1  0.33211000  0.28801500  0.13582300  1
  C  C113  1  0.32503200  0.29913200  0.63657700  1
  C  C114  1  0.32257600  0.79124000  0.13332600  1
  C  C115  1  0.32176500  0.80206400  0.63829000  1
  C  C116  1  0.83240900  0.28360000  0.14062100  1
  C  C117  1  0.83083400  0.30944100  0.63941600  1
  C  C118  1  0.83674400  0.78928100  0.13563400  1
  C  C119  1  0.82704700  0.79960100  0.63642000  1
  C  C120  1  0.18245700  0.18990100  0.35044300  1
  C  C121  1  0.19088700  0.20381000  0.86511400  1
  C  C122  1  0.18089700  0.69746200  0.35305500  1
  C  C123  1  0.19202300  0.70947600  0.86685300  1
  C  C124  1  0.68096700  0.19501600  0.36254300  1
  C  C125  1  0.69010600  0.20286900  0.86736500  1
  C  C126  1  0.68292000  0.69199300  0.35059500  1
  C  C127  1  0.70132100  0.70104900  0.86460800  1
  C  C128  1  0.43163700  0.05969900  0.23843700  1
  C  C129  1  0.45426200  0.04618800  0.75183100  1
  C  C130  1  0.43362400  0.55894500  0.23756200  1
  C  C131  1  0.45664900  0.55393700  0.75333000  1
  C  C132  1  0.93894500  0.05523100  0.23696600  1
  C  C133  1  0.95075900  0.05447600  0.74995600  1
  C  C134  1  0.92942700  0.55516100  0.23769900  1
  C  C135  1  0.94749600  0.57517200  0.76180400  1
  C  C136  1  0.18854700  0.44314700  0.24795700  1
  C  C137  1  0.20352100  0.45777800  0.75144200  1
  C  C138  1  0.17429300  0.92654400  0.24071700  1
  C  C139  1  0.19482500  0.93571500  0.76123900  1
  C  C140  1  0.67593200  0.42762800  0.23872500  1
  C  C141  1  0.70159100  0.44667800  0.74930600  1
  C  C142  1  0.70646500  0.95796000  0.25028400  1
  C  C143  1  0.70816300  0.95146000  0.75279700  1
