# generated using pymatgen
data_Cu4Ni2C17
_symmetry_space_group_name_H-M   'P 1'
_cell_length_a   9.41061632
_cell_length_b   9.41061632
_cell_length_c   9.95144157
_cell_angle_alpha   58.14275325
_cell_angle_beta   58.14275325
_cell_angle_gamma   47.86914716
_symmetry_Int_Tables_number   1
_chemical_formula_structural   Cu4Ni2C17
_chemical_formula_sum   'Cu8 Ni4 C34'
_cell_volume   533.59678419
_cell_formula_units_Z   2
loop_
 _symmetry_equiv_pos_site_id
 _symmetry_equiv_pos_as_xyz
  1  'x, y, z'
loop_
 _atom_site_type_symbol
 _atom_site_label
 _atom_site_symmetry_multiplicity
 _atom_site_fract_x
 _atom_site_fract_y
 _atom_site_fract_z
 _atom_site_occupancy
  C  C0  1  0.25975900  0.07040600  0.54828500  1
  C  C1  1  0.92959400  0.74024100  0.95171500  1
  C  C2  1  0.07040600  0.25975900  0.04828500  1
  C  C3  1  0.60849200  0.39150800  0.25000000  1
  C  C4  1  0.74024100  0.92959400  0.45171500  1
  C  C5  1  0.39150800  0.60849200  0.75000000  1
  Ni  Ni6  1  0.21998200  0.78001800  0.25000000  1
  Ni  Ni7  1  0.78001800  0.21998200  0.75000000  1
  Ni  Ni8  1  0.00000000  0.00000000  0.00000000  1
  Ni  Ni9  1  0.00000000  0.00000000  0.50000000  1
  Cu  Cu10  1  0.07193900  0.55825100  0.67059300  1
  Cu  Cu11  1  0.55825100  0.07193900  0.17059300  1
  Cu  Cu12  1  0.25287100  0.51203200  0.12957000  1
  Cu  Cu13  1  0.51203200  0.25287100  0.62957000  1
  Cu  Cu14  1  0.44174900  0.92806100  0.82940700  1
  Cu  Cu15  1  0.74712900  0.48796800  0.87043000  1
  Cu  Cu16  1  0.48796800  0.74712900  0.37043000  1
  Cu  Cu17  1  0.92806100  0.44174900  0.32940700  1
  C  C18  1  0.32708500  0.81842700  0.53836200  1
  C  C19  1  0.88653800  0.98505800  0.72152200  1
  C  C20  1  0.63551800  0.45239100  0.81976200  1
  C  C21  1  0.98505800  0.88653800  0.22152200  1
  C  C22  1  0.02245500  0.21420600  0.45535100  1
  C  C23  1  0.50551600  0.07177700  0.79664900  1
  C  C24  1  0.45239100  0.63551800  0.31976200  1
  C  C25  1  0.78579400  0.97754500  0.04464900  1
  C  C26  1  0.49448400  0.92822300  0.20335100  1
  C  C27  1  0.70143900  0.60160300  0.41666200  1
  C  C28  1  0.11346200  0.01494200  0.27847800  1
  C  C29  1  0.97754500  0.78579400  0.54464900  1
  C  C30  1  0.92822300  0.49448400  0.70335100  1
  C  C31  1  0.81842700  0.32708500  0.03836200  1
  C  C32  1  0.60160300  0.70143900  0.91666200  1
  C  C33  1  0.21420600  0.02245500  0.95535100  1
  C  C34  1  0.46777100  0.92471400  0.65746400  1
  C  C35  1  0.29856100  0.39839700  0.58333800  1
  C  C36  1  0.07528600  0.53222900  0.84253600  1
  C  C37  1  0.39839700  0.29856100  0.08333800  1
  C  C38  1  0.07177700  0.50551600  0.29664900  1
  C  C39  1  0.01494200  0.11346200  0.77847800  1
  C  C40  1  0.92471400  0.46777100  0.15746400  1
  C  C41  1  0.36448200  0.54760900  0.18023800  1
  C  C42  1  0.53222900  0.07528600  0.34253600  1
  C  C43  1  0.54760900  0.36448200  0.68023800  1
  C  C44  1  0.18157300  0.67291500  0.96163800  1
  C  C45  1  0.67291500  0.18157300  0.46163800  1
