# generated using pymatgen
data_Cu2NiC11
_symmetry_space_group_name_H-M   'P 1'
_cell_length_a   8.41931983
_cell_length_b   8.41931983
_cell_length_c   8.41931983
_cell_angle_alpha   124.93983076
_cell_angle_beta   106.73220363
_cell_angle_gamma   98.01227696
_symmetry_Int_Tables_number   1
_chemical_formula_structural   Cu2NiC11
_chemical_formula_sum   'Cu4 Ni2 C22'
_cell_volume   431.89644350
_cell_formula_units_Z   2
loop_
 _symmetry_equiv_pos_site_id
 _symmetry_equiv_pos_as_xyz
  1  'x, y, z'
loop_
 _atom_site_type_symbol
 _atom_site_label
 _atom_site_symmetry_multiplicity
 _atom_site_fract_x
 _atom_site_fract_y
 _atom_site_fract_z
 _atom_site_occupancy
  Ni  Ni0  1  0.75000000  0.25000000  0.50000000  1
  Ni  Ni1  1  0.25000000  0.75000000  0.50000000  1
  Cu  Cu2  1  0.68124500  0.63435900  0.31560400  1
  Cu  Cu3  1  0.31875500  0.36564100  0.68439600  1
  Cu  Cu4  1  0.18124500  0.86564100  0.04688600  1
  Cu  Cu5  1  0.81875500  0.13435900  0.95311400  1
  C  C6  1  0.70600200  0.89316700  0.34070800  1
  C  C7  1  0.29399800  0.10683300  0.65929200  1
  C  C8  1  0.55245900  0.36529400  0.65929200  1
  C  C9  1  0.94754100  0.60683300  0.81283400  1
  C  C10  1  0.44754100  0.63470600  0.34070800  1
  C  C11  1  0.05245900  0.39316700  0.18716600  1
  C  C12  1  0.79399800  0.13470600  0.18716600  1
  C  C13  1  0.20600200  0.86529400  0.81283400  1
  C  C14  1  0.50000000  0.50000000  0.00000000  1
  C  C15  1  0.00000000  0.00000000  0.00000000  1
  C  C16  1  0.77955600  0.87047700  0.65003200  1
  C  C17  1  0.22044400  0.12952300  0.34996800  1
  C  C18  1  0.27955600  0.62952300  0.90907900  1
  C  C19  1  0.72044400  0.37047700  0.09092100  1
  C  C20  1  0.95054500  0.73723800  0.41653100  1
  C  C21  1  0.04945500  0.26276200  0.58346900  1
  C  C22  1  0.32070600  0.53401400  0.58346900  1
  C  C23  1  0.17929400  0.76276200  0.21330700  1
  C  C24  1  0.67929400  0.46598600  0.41653100  1
  C  C25  1  0.82070600  0.23723800  0.78669300  1
  C  C26  1  0.54945500  0.96598600  0.78669300  1
  C  C27  1  0.45054500  0.03401400  0.21330700  1
