# generated using pymatgen
data_Cu2Ni3C7
_symmetry_space_group_name_H-M   'P 1'
_cell_length_a   9.90979865
_cell_length_b   9.90979865
_cell_length_c   5.38853100
_cell_angle_alpha   90.00000000
_cell_angle_beta   90.00000000
_cell_angle_gamma   148.20106644
_symmetry_Int_Tables_number   1
_chemical_formula_structural   Cu2Ni3C7
_chemical_formula_sum   'Cu4 Ni6 C14'
_cell_volume   278.84392976
_cell_formula_units_Z   2
loop_
 _symmetry_equiv_pos_site_id
 _symmetry_equiv_pos_as_xyz
  1  'x, y, z'
loop_
 _atom_site_type_symbol
 _atom_site_label
 _atom_site_symmetry_multiplicity
 _atom_site_fract_x
 _atom_site_fract_y
 _atom_site_fract_z
 _atom_site_occupancy
  Ni  Ni0  1  0.74364900  0.74364900  0.27238100  1
  Ni  Ni1  1  0.25635100  0.25635100  0.77238100  1
  Ni  Ni2  1  0.98480600  0.57724600  0.20841800  1
  Ni  Ni3  1  0.01519400  0.42275400  0.70841800  1
  Ni  Ni4  1  0.57724600  0.98480600  0.20841800  1
  Ni  Ni5  1  0.42275400  0.01519400  0.70841800  1
  Cu  Cu6  1  0.14928500  0.35697000  0.24482600  1
  Cu  Cu7  1  0.85071500  0.64303000  0.74482600  1
  Cu  Cu8  1  0.64303000  0.85071500  0.74482600  1
  Cu  Cu9  1  0.35697000  0.14928500  0.24482600  1
  C  C10  1  0.34004300  0.92821000  0.33467500  1
  C  C11  1  0.65995700  0.07179000  0.83467500  1
  C  C12  1  0.07179000  0.65995700  0.83467500  1
  C  C13  1  0.92821000  0.34004300  0.33467500  1
  C  C14  1  0.55116700  0.28057700  0.91725000  1
  C  C15  1  0.44883300  0.71942300  0.41725000  1
  C  C16  1  0.71942300  0.44883300  0.41725000  1
  C  C17  1  0.28057700  0.55116700  0.91725000  1
  C  C18  1  0.99223000  0.84206700  0.07405300  1
  C  C19  1  0.00777000  0.15793300  0.57405300  1
  C  C20  1  0.37846200  0.37846200  0.14917400  1
  C  C21  1  0.62153800  0.62153800  0.64917400  1
  C  C22  1  0.84206700  0.99223000  0.07405300  1
  C  C23  1  0.15793300  0.00777000  0.57405300  1
