# generated using pymatgen
data_Cu4NiC8
_symmetry_space_group_name_H-M   'P 1'
_cell_length_a   7.19291928
_cell_length_b   7.19291928
_cell_length_c   7.19291928
_cell_angle_alpha   60.00000000
_cell_angle_beta   60.00000000
_cell_angle_gamma   60.00000000
_symmetry_Int_Tables_number   1
_chemical_formula_structural   Cu4NiC8
_chemical_formula_sum   'Cu4 Ni1 C8'
_cell_volume   263.14829602
_cell_formula_units_Z   1
loop_
 _symmetry_equiv_pos_site_id
 _symmetry_equiv_pos_as_xyz
  1  'x, y, z'
loop_
 _atom_site_type_symbol
 _atom_site_label
 _atom_site_symmetry_multiplicity
 _atom_site_fract_x
 _atom_site_fract_y
 _atom_site_fract_z
 _atom_site_occupancy
  Ni  Ni0  1  0.00000000  0.00000000  0.00000000  1
  C  C1  1  0.40126900  0.40126900  0.79619200  1
  C  C2  1  0.40126900  0.79619200  0.40126900  1
  C  C3  1  0.79619200  0.40126900  0.40126900  1
  C  C4  1  0.40126900  0.40126900  0.40126900  1
  Cu  Cu5  1  0.13687900  0.13687900  0.58936400  1
  Cu  Cu6  1  0.13687900  0.58936400  0.13687900  1
  Cu  Cu7  1  0.58936400  0.13687900  0.13687900  1
  Cu  Cu8  1  0.13687900  0.13687900  0.13687900  1
  C  C9  1  0.62962200  0.62962200  0.11113300  1
  C  C10  1  0.62962200  0.11113300  0.62962200  1
  C  C11  1  0.11113300  0.62962200  0.62962200  1
  C  C12  1  0.62962200  0.62962200  0.62962200  1
