# generated using pymatgen
data_CuNiC5
_symmetry_space_group_name_H-M   'P 1'
_cell_length_a   9.06437700
_cell_length_b   5.21041600
_cell_length_c   20.07900941
_cell_angle_alpha   84.24264950
_cell_angle_beta   90.00000000
_cell_angle_gamma   90.00000000
_symmetry_Int_Tables_number   1
_chemical_formula_structural   CuNiC5
_chemical_formula_sum   'Cu12 Ni12 C60'
_cell_volume   943.53142192
_cell_formula_units_Z   12
loop_
 _symmetry_equiv_pos_site_id
 _symmetry_equiv_pos_as_xyz
  1  'x, y, z'
loop_
 _atom_site_type_symbol
 _atom_site_label
 _atom_site_symmetry_multiplicity
 _atom_site_fract_x
 _atom_site_fract_y
 _atom_site_fract_z
 _atom_site_occupancy
  C  C0  1  0.09707400  0.00000000  0.25000000  1
  C  C1  1  0.90292600  0.00000000  0.75000000  1
  C  C2  1  0.57343000  0.50000000  0.25000000  1
  C  C3  1  0.42657000  0.50000000  0.75000000  1
  Ni  Ni4  1  0.08614200  0.75194400  0.00113400  1
  Ni  Ni5  1  0.26092800  0.53611500  0.13770200  1
  Ni  Ni6  1  0.08614200  0.24805600  0.49886600  1
  Ni  Ni7  1  0.26092800  0.46388500  0.36229800  1
  Ni  Ni8  1  0.91385800  0.24805600  0.99886600  1
  Ni  Ni9  1  0.73907200  0.46388500  0.86229800  1
  Ni  Ni10  1  0.91385800  0.75194400  0.50113400  1
  Ni  Ni11  1  0.73907200  0.53611500  0.63770200  1
  Ni  Ni12  1  0.58426500  0.25297800  0.99925100  1
  Ni  Ni13  1  0.58426500  0.74702200  0.50074900  1
  Ni  Ni14  1  0.41573500  0.74702200  0.00074900  1
  Ni  Ni15  1  0.41573500  0.25297800  0.49925100  1
  Cu  Cu16  1  0.92893800  0.54008600  0.13686400  1
  Cu  Cu17  1  0.92893800  0.45991400  0.36313600  1
  Cu  Cu18  1  0.07106200  0.45991400  0.86313600  1
  Cu  Cu19  1  0.07106200  0.54008600  0.63686400  1
  Cu  Cu20  1  0.43203300  0.01658000  0.13810400  1
  Cu  Cu21  1  0.75572500  0.05175100  0.13660400  1
  Cu  Cu22  1  0.43203300  0.98342000  0.36189600  1
  Cu  Cu23  1  0.75572500  0.94824900  0.36339600  1
  Cu  Cu24  1  0.56796700  0.98342000  0.86189600  1
  Cu  Cu25  1  0.24427500  0.94824900  0.86339600  1
  Cu  Cu26  1  0.56796700  0.01658000  0.63810400  1
  Cu  Cu27  1  0.24427500  0.05175100  0.63660400  1
  C  C28  1  0.65766700  0.63736000  0.05527000  1
  C  C29  1  0.65766700  0.36264000  0.44473000  1
  C  C30  1  0.34233300  0.36264000  0.94473000  1
  C  C31  1  0.34233300  0.63736000  0.55527000  1
  C  C32  1  0.14404600  0.12301600  0.06907900  1
  C  C33  1  0.14404600  0.87698400  0.43092100  1
  C  C34  1  0.85595400  0.87698400  0.93092100  1
  C  C35  1  0.85595400  0.12301600  0.56907900  1
  C  C36  1  0.94262700  0.53766100  0.05516100  1
  C  C37  1  0.25064900  0.62592300  0.05112300  1
  C  C38  1  0.56644400  0.54576300  0.04871500  1
  C  C39  1  0.08516600  0.58778700  0.17178800  1
  C  C40  1  0.80734900  0.75294600  0.15969700  1
  C  C41  1  0.86562300  0.25577800  0.16937600  1
  C  C42  1  0.94262700  0.46233900  0.44483900  1
  C  C43  1  0.25064900  0.37407700  0.44887700  1
  C  C44  1  0.56644400  0.45423700  0.45128500  1
  C  C45  1  0.08516600  0.41221300  0.32821200  1
  C  C46  1  0.80734900  0.24705400  0.34030300  1
  C  C47  1  0.86562300  0.74422200  0.33062400  1
  C  C48  1  0.05737300  0.46233900  0.94483900  1
  C  C49  1  0.74935100  0.37407700  0.94887700  1
  C  C50  1  0.43355600  0.45423700  0.95128500  1
  C  C51  1  0.91483400  0.41221300  0.82821200  1
  C  C52  1  0.19265100  0.24705400  0.84030300  1
  C  C53  1  0.13437700  0.74422200  0.83062400  1
  C  C54  1  0.05737300  0.53766100  0.55516100  1
  C  C55  1  0.74935100  0.62592300  0.55112300  1
  C  C56  1  0.43355600  0.54576300  0.54871500  1
  C  C57  1  0.91483400  0.58778700  0.67178800  1
  C  C58  1  0.19265100  0.75294600  0.65969700  1
  C  C59  1  0.13437700  0.25577800  0.66937600  1
  C  C60  1  0.45128600  0.03116300  0.05582700  1
  C  C61  1  0.75123100  0.10814100  0.05555300  1
  C  C62  1  0.05867300  0.04586600  0.04969000  1
  C  C63  1  0.59348300  0.09532500  0.17001700  1
  C  C64  1  0.30457400  0.21138900  0.15868200  1
  C  C65  1  0.39429500  0.72769600  0.17289100  1
  C  C66  1  0.45128600  0.96883700  0.44417300  1
  C  C67  1  0.75123100  0.89185900  0.44444700  1
  C  C68  1  0.05867300  0.95413400  0.45031000  1
  C  C69  1  0.59348300  0.90467500  0.32998300  1
  C  C70  1  0.30457400  0.78861100  0.34131800  1
  C  C71  1  0.39429500  0.27230400  0.32710900  1
  C  C72  1  0.54871400  0.96883700  0.94417300  1
  C  C73  1  0.24876900  0.89185900  0.94444700  1
  C  C74  1  0.94132700  0.95413400  0.95031000  1
  C  C75  1  0.40651700  0.90467500  0.82998300  1
  C  C76  1  0.69542600  0.78861100  0.84131800  1
  C  C77  1  0.60570500  0.27230400  0.82710900  1
  C  C78  1  0.54871400  0.03116300  0.55582700  1
  C  C79  1  0.24876900  0.10814100  0.55555300  1
  C  C80  1  0.94132700  0.04586600  0.54969000  1
  C  C81  1  0.40651700  0.09532500  0.67001700  1
  C  C82  1  0.69542600  0.21138900  0.65868200  1
  C  C83  1  0.60570500  0.72769600  0.67289100  1
