# generated using pymatgen
data_Cu3NiC37
_symmetry_space_group_name_H-M   'P 1'
_cell_length_a   8.54277429
_cell_length_b   8.54277429
_cell_length_c   15.96481005
_cell_angle_alpha   72.24977751
_cell_angle_beta   72.24977751
_cell_angle_gamma   79.60330538
_symmetry_Int_Tables_number   1
_chemical_formula_structural   Cu3NiC37
_chemical_formula_sum   'Cu6 Ni2 C74'
_cell_volume   1051.87584778
_cell_formula_units_Z   2
loop_
 _symmetry_equiv_pos_site_id
 _symmetry_equiv_pos_as_xyz
  1  'x, y, z'
loop_
 _atom_site_type_symbol
 _atom_site_label
 _atom_site_symmetry_multiplicity
 _atom_site_fract_x
 _atom_site_fract_y
 _atom_site_fract_z
 _atom_site_occupancy
  Ni  Ni0  1  0.25356400  0.74643600  0.75000000  1
  Ni  Ni1  1  0.74643600  0.25356400  0.25000000  1
  Cu  Cu2  1  0.71948400  0.24113500  0.52003700  1
  Cu  Cu3  1  0.28051600  0.75886500  0.47996300  1
  Cu  Cu4  1  0.75886500  0.28051600  0.97996300  1
  Cu  Cu5  1  0.24113500  0.71948400  0.02003700  1
  Cu  Cu6  1  0.50000000  0.00000000  0.00000000  1
  Cu  Cu7  1  0.00000000  0.50000000  0.50000000  1
  C  C8  1  0.61759700  0.38240300  0.75000000  1
  C  C9  1  0.38240300  0.61759700  0.25000000  1
  C  C10  1  0.69223700  0.69350400  0.85643500  1
  C  C11  1  0.30776300  0.30649600  0.14356500  1
  C  C12  1  0.30649600  0.30776300  0.64356500  1
  C  C13  1  0.69350400  0.69223700  0.35643500  1
  C  C14  1  0.91495100  0.08504900  0.75000000  1
  C  C15  1  0.08504900  0.91495100  0.25000000  1
  C  C16  1  0.50000000  0.00000000  0.50000000  1
  C  C17  1  0.00000000  0.50000000  0.00000000  1
  C  C18  1  0.77699900  0.85479600  0.12544600  1
  C  C19  1  0.22300100  0.14520400  0.87455400  1
  C  C20  1  0.14520400  0.22300100  0.37455400  1
  C  C21  1  0.85479600  0.77699900  0.62544600  1
  C  C22  1  0.55925200  0.02026400  0.73037200  1
  C  C23  1  0.44074800  0.97973600  0.26962800  1
  C  C24  1  0.97973600  0.44074800  0.76962800  1
  C  C25  1  0.02026400  0.55925200  0.23037200  1
  C  C26  1  0.90617600  0.90759000  0.92835800  1
  C  C27  1  0.09382400  0.09241000  0.07164200  1
  C  C28  1  0.09241000  0.09382400  0.57164200  1
  C  C29  1  0.90759000  0.90617600  0.42835800  1
  C  C30  1  0.58665100  0.58884900  0.57889400  1
  C  C31  1  0.41334900  0.41115100  0.42110600  1
  C  C32  1  0.41115100  0.41334900  0.92110600  1
  C  C33  1  0.58884900  0.58665100  0.07889400  1
  C  C34  1  0.48602000  0.08928800  0.64591900  1
  C  C35  1  0.51398000  0.91071200  0.35408100  1
  C  C36  1  0.91071200  0.51398000  0.85408100  1
  C  C37  1  0.08928800  0.48602000  0.14591900  1
  C  C38  1  0.31873800  0.46105300  0.50983200  1
  C  C39  1  0.68126200  0.53894700  0.49016800  1
  C  C40  1  0.53894700  0.68126200  0.99016800  1
  C  C41  1  0.46105300  0.31873800  0.00983200  1
  C  C42  1  0.94945300  0.99050400  0.13777600  1
  C  C43  1  0.05054700  0.00949600  0.86222400  1
  C  C44  1  0.00949600  0.05054700  0.36222400  1
  C  C45  1  0.99050400  0.94945300  0.63777600  1
  C  C46  1  0.47761300  0.45152500  0.64900300  1
  C  C47  1  0.52238700  0.54847500  0.35099700  1
  C  C48  1  0.54847500  0.52238700  0.85099700  1
  C  C49  1  0.45152500  0.47761300  0.14900300  1
  C  C50  1  0.47595900  0.75349300  0.56012200  1
  C  C51  1  0.52404100  0.24650700  0.43987800  1
  C  C52  1  0.24650700  0.52404100  0.93987800  1
  C  C53  1  0.75349300  0.47595900  0.06012200  1
  C  C54  1  0.66232100  0.84875800  0.72845700  1
  C  C55  1  0.33767900  0.15124200  0.27154300  1
  C  C56  1  0.15124200  0.33767900  0.77154300  1
  C  C57  1  0.84875800  0.66232100  0.22845700  1
  C  C58  1  0.68040900  0.14547100  0.72347000  1
  C  C59  1  0.31959100  0.85452900  0.27653000  1
  C  C60  1  0.85452900  0.31959100  0.77653000  1
  C  C61  1  0.14547100  0.68040900  0.22347000  1
  C  C62  1  0.77435600  0.00699600  0.98852500  1
  C  C63  1  0.22564400  0.99300400  0.01147500  1
  C  C64  1  0.99300400  0.22564400  0.51147500  1
  C  C65  1  0.00699600  0.77435600  0.48852500  1
  C  C66  1  0.42349300  0.98865500  0.82073300  1
  C  C67  1  0.57650700  0.01134500  0.17926700  1
  C  C68  1  0.01134500  0.57650700  0.67926700  1
  C  C69  1  0.98865500  0.42349300  0.32073300  1
  C  C70  1  0.24844400  0.03311800  0.50470000  1
  C  C71  1  0.75155600  0.96688200  0.49530000  1
  C  C72  1  0.96688200  0.75155600  0.99530000  1
  C  C73  1  0.03311800  0.24844400  0.00470000  1
  C  C74  1  0.83134000  0.86826600  0.85984800  1
  C  C75  1  0.16866000  0.13173400  0.14015200  1
  C  C76  1  0.13173400  0.16866000  0.64015200  1
  C  C77  1  0.86826600  0.83134000  0.35984800  1
  C  C78  1  0.40831900  0.28658900  0.86903900  1
  C  C79  1  0.59168100  0.71341100  0.13096100  1
  C  C80  1  0.71341100  0.59168100  0.63096100  1
  C  C81  1  0.28658900  0.40831900  0.36903900  1
