# generated using pymatgen
data_Cu4Ni18C7
_symmetry_space_group_name_H-M   'P 1'
_cell_length_a   8.07201500
_cell_length_b   15.06085300
_cell_length_c   9.83306900
_cell_angle_alpha   90.00000000
_cell_angle_beta   90.00000000
_cell_angle_gamma   90.00000000
_symmetry_Int_Tables_number   1
_chemical_formula_structural   Cu4Ni18C7
_chemical_formula_sum   'Cu16 Ni72 C28'
_cell_volume   1195.42027268
_cell_formula_units_Z   4
loop_
 _symmetry_equiv_pos_site_id
 _symmetry_equiv_pos_as_xyz
  1  'x, y, z'
loop_
 _atom_site_type_symbol
 _atom_site_label
 _atom_site_symmetry_multiplicity
 _atom_site_fract_x
 _atom_site_fract_y
 _atom_site_fract_z
 _atom_site_occupancy
  C  C0  1  0.50000000  0.50000000  0.30135000  1
  C  C1  1  0.00000000  0.00000000  0.19865000  1
  C  C2  1  0.50000000  0.50000000  0.69865000  1
  C  C3  1  0.00000000  0.00000000  0.80135000  1
  C  C4  1  0.05444700  0.60902100  0.00000000  1
  C  C5  1  0.94555300  0.39097900  0.00000000  1
  C  C6  1  0.44555300  0.10902100  0.50000000  1
  C  C7  1  0.55444700  0.89097900  0.50000000  1
  C  C8  1  0.20566600  0.52247200  0.00000000  1
  C  C9  1  0.79433400  0.47752800  0.00000000  1
  C  C10  1  0.29433400  0.02247200  0.50000000  1
  C  C11  1  0.70566600  0.97752800  0.50000000  1
  C  C12  1  0.08042000  0.54071000  0.14630600  1
  C  C13  1  0.91958000  0.45929000  0.14630600  1
  C  C14  1  0.41958000  0.04071000  0.35369400  1
  C  C15  1  0.58042000  0.95929000  0.35369400  1
  C  C16  1  0.91958000  0.45929000  0.85369400  1
  C  C17  1  0.08042000  0.54071000  0.85369400  1
  C  C18  1  0.58042000  0.95929000  0.64630600  1
  C  C19  1  0.41958000  0.04071000  0.64630600  1
  C  C20  1  0.87789300  0.56973800  0.09061400  1
  C  C21  1  0.12210700  0.43026200  0.09061400  1
  C  C22  1  0.62210700  0.06973800  0.40938600  1
  C  C23  1  0.37789300  0.93026200  0.40938600  1
  C  C24  1  0.12210700  0.43026200  0.90938600  1
  C  C25  1  0.87789300  0.56973800  0.90938600  1
  C  C26  1  0.37789300  0.93026200  0.59061400  1
  C  C27  1  0.62210700  0.06973800  0.59061400  1
  Ni  Ni28  1  0.46371200  0.76396000  0.24590900  1
  Ni  Ni29  1  0.53628800  0.23604000  0.24590900  1
  Ni  Ni30  1  0.03628800  0.26396000  0.25409100  1
  Ni  Ni31  1  0.96371200  0.73604000  0.25409100  1
  Ni  Ni32  1  0.53628800  0.23604000  0.75409100  1
  Ni  Ni33  1  0.46371200  0.76396000  0.75409100  1
  Ni  Ni34  1  0.96371200  0.73604000  0.74590900  1
  Ni  Ni35  1  0.03628800  0.26396000  0.74590900  1
  Ni  Ni36  1  0.35397500  0.69720200  0.14858100  1
  Ni  Ni37  1  0.64602500  0.30279800  0.14858100  1
  Ni  Ni38  1  0.14602500  0.19720200  0.35141900  1
  Ni  Ni39  1  0.85397500  0.80279800  0.35141900  1
  Ni  Ni40  1  0.64602500  0.30279800  0.85141900  1
  Ni  Ni41  1  0.35397500  0.69720200  0.85141900  1
  Ni  Ni42  1  0.85397500  0.80279800  0.64858100  1
  Ni  Ni43  1  0.14602500  0.19720200  0.64858100  1
  Ni  Ni44  1  0.55725300  0.69643400  0.14007700  1
  Ni  Ni45  1  0.44274700  0.30356600  0.14007700  1
  Ni  Ni46  1  0.94274700  0.19643400  0.35992300  1
  Ni  Ni47  1  0.05725300  0.80356600  0.35992300  1
  Ni  Ni48  1  0.44274700  0.30356600  0.85992300  1
  Ni  Ni49  1  0.55725300  0.69643400  0.85992300  1
  Ni  Ni50  1  0.05725300  0.80356600  0.64007700  1
  Ni  Ni51  1  0.94274700  0.19643400  0.64007700  1
  Ni  Ni52  1  0.21095400  0.62886500  0.50000000  1
  Ni  Ni53  1  0.78904600  0.37113500  0.50000000  1
  Ni  Ni54  1  0.28904600  0.12886500  0.00000000  1
  Ni  Ni55  1  0.71095400  0.87113500  0.00000000  1
  Ni  Ni56  1  0.36510600  0.67482400  0.41618100  1
  Ni  Ni57  1  0.63489400  0.32517600  0.41618100  1
  Ni  Ni58  1  0.13489400  0.17482400  0.08381900  1
  Ni  Ni59  1  0.86510600  0.82517600  0.08381900  1
  Ni  Ni60  1  0.63489400  0.32517600  0.58381900  1
  Ni  Ni61  1  0.36510600  0.67482400  0.58381900  1
  Ni  Ni62  1  0.86510600  0.82517600  0.91618100  1
  Ni  Ni63  1  0.13489400  0.17482400  0.91618100  1
  Ni  Ni64  1  0.77891700  0.64793800  0.50000000  1
  Ni  Ni65  1  0.22108300  0.35206200  0.50000000  1
  Ni  Ni66  1  0.72108300  0.14793800  0.00000000  1
  Ni  Ni67  1  0.27891700  0.85206200  0.00000000  1
  Ni  Ni68  1  0.85502500  0.56352100  0.41672400  1
  Ni  Ni69  1  0.14497500  0.43647900  0.41672400  1
  Ni  Ni70  1  0.64497500  0.06352100  0.08327600  1
  Ni  Ni71  1  0.35502500  0.93647900  0.08327600  1
  Ni  Ni72  1  0.14497500  0.43647900  0.58327600  1
  Ni  Ni73  1  0.85502500  0.56352100  0.58327600  1
  Ni  Ni74  1  0.35502500  0.93647900  0.91672400  1
  Ni  Ni75  1  0.64497500  0.06352100  0.91672400  1
  Ni  Ni76  1  0.08960900  0.68695600  0.00000000  1
  Ni  Ni77  1  0.91039100  0.31304400  0.00000000  1
  Ni  Ni78  1  0.41039100  0.18695600  0.50000000  1
  Ni  Ni79  1  0.58960900  0.81304400  0.50000000  1
  Ni  Ni80  1  0.35281400  0.53666700  0.00000000  1
  Ni  Ni81  1  0.64718600  0.46333300  0.00000000  1
  Ni  Ni82  1  0.14718600  0.03666700  0.50000000  1
  Ni  Ni83  1  0.85281400  0.96333300  0.50000000  1
  Ni  Ni84  1  0.13790900  0.57026600  0.25011100  1
  Ni  Ni85  1  0.86209100  0.42973400  0.25011100  1
  Ni  Ni86  1  0.36209100  0.07026600  0.24988900  1
  Ni  Ni87  1  0.63790900  0.92973400  0.24988900  1
  Ni  Ni88  1  0.86209100  0.42973400  0.74988900  1
  Ni  Ni89  1  0.13790900  0.57026600  0.74988900  1
  Ni  Ni90  1  0.63790900  0.92973400  0.75011100  1
  Ni  Ni91  1  0.36209100  0.07026600  0.75011100  1
  Ni  Ni92  1  0.79178700  0.61885100  0.15707000  1
  Ni  Ni93  1  0.20821300  0.38114900  0.15707000  1
  Ni  Ni94  1  0.70821300  0.11885100  0.34293000  1
  Ni  Ni95  1  0.29178700  0.88114900  0.34293000  1
  Ni  Ni96  1  0.20821300  0.38114900  0.84293000  1
  Ni  Ni97  1  0.79178700  0.61885100  0.84293000  1
  Ni  Ni98  1  0.29178700  0.88114900  0.65707000  1
  Ni  Ni99  1  0.70821300  0.11885100  0.65707000  1
  Cu  Cu100  1  0.45947400  0.70136900  0.20563300  1
  Cu  Cu101  1  0.54052600  0.29863100  0.20563300  1
  Cu  Cu102  1  0.04052600  0.20136900  0.29436700  1
  Cu  Cu103  1  0.95947400  0.79863100  0.29436700  1
  Cu  Cu104  1  0.54052600  0.29863100  0.79436700  1
  Cu  Cu105  1  0.45947400  0.70136900  0.79436700  1
  Cu  Cu106  1  0.95947400  0.79863100  0.70563300  1
  Cu  Cu107  1  0.04052600  0.20136900  0.70563300  1
  Cu  Cu108  1  0.33594000  0.63806200  0.50000000  1
  Cu  Cu109  1  0.66406000  0.36193800  0.50000000  1
  Cu  Cu110  1  0.16406000  0.13806200  0.00000000  1
  Cu  Cu111  1  0.83594000  0.86193800  0.00000000  1
  Cu  Cu112  1  0.78566200  0.58027600  0.50000000  1
  Cu  Cu113  1  0.21433800  0.41972400  0.50000000  1
  Cu  Cu114  1  0.71433800  0.08027600  0.00000000  1
  Cu  Cu115  1  0.28566200  0.91972400  0.00000000  1
