# generated using pymatgen
data_Cu4NiC8
_symmetry_space_group_name_H-M   'P 1'
_cell_length_a   7.04434050
_cell_length_b   7.04434050
_cell_length_c   7.04434028
_cell_angle_alpha   55.90503629
_cell_angle_beta   55.90503629
_cell_angle_gamma   55.90503661
_symmetry_Int_Tables_number   1
_chemical_formula_structural   Cu4NiC8
_chemical_formula_sum   'Cu4 Ni1 C8'
_cell_volume   223.71667226
_cell_formula_units_Z   1
loop_
 _symmetry_equiv_pos_site_id
 _symmetry_equiv_pos_as_xyz
  1  'x, y, z'
loop_
 _atom_site_type_symbol
 _atom_site_label
 _atom_site_symmetry_multiplicity
 _atom_site_fract_x
 _atom_site_fract_y
 _atom_site_fract_z
 _atom_site_occupancy
  Ni  Ni0  1  0.50000000  0.50000000  0.50000000  1
  Cu  Cu1  1  0.00000000  0.50000000  0.50000000  1
  Cu  Cu2  1  0.50000000  0.00000000  0.50000000  1
  Cu  Cu3  1  0.50000000  0.50000000  0.00000000  1
  Cu  Cu4  1  0.00000000  0.00000000  0.00000000  1
  C  C5  1  0.27255500  0.76144000  0.76144000  1
  C  C6  1  0.23856000  0.23856000  0.72744500  1
  C  C7  1  0.72744500  0.23856000  0.23856000  1
  C  C8  1  0.23856000  0.72744500  0.23856000  1
  C  C9  1  0.26466800  0.26466800  0.26466800  1
  C  C10  1  0.73533200  0.73533200  0.73533200  1
  C  C11  1  0.76144000  0.27255500  0.76144000  1
  C  C12  1  0.76144000  0.76144000  0.27255500  1
