# generated using pymatgen
data_Cu2NiC2
_symmetry_space_group_name_H-M   'P 1'
_cell_length_a   6.54328453
_cell_length_b   6.54328453
_cell_length_c   10.12848018
_cell_angle_alpha   104.23523425
_cell_angle_beta   104.23523425
_cell_angle_gamma   103.81113344
_symmetry_Int_Tables_number   1
_chemical_formula_structural   Cu2NiC2
_chemical_formula_sum   'Cu8 Ni4 C8'
_cell_volume   386.21436754
_cell_formula_units_Z   4
loop_
 _symmetry_equiv_pos_site_id
 _symmetry_equiv_pos_as_xyz
  1  'x, y, z'
loop_
 _atom_site_type_symbol
 _atom_site_label
 _atom_site_symmetry_multiplicity
 _atom_site_fract_x
 _atom_site_fract_y
 _atom_site_fract_z
 _atom_site_occupancy
  C  C0  1  0.44572000  0.18696400  0.71480800  1
  C  C1  1  0.26908800  0.52784400  0.71480800  1
  C  C2  1  0.81303600  0.55428000  0.28519200  1
  C  C3  1  0.80428000  0.56303600  0.78519200  1
  C  C4  1  0.47215600  0.73091200  0.28519200  1
  C  C5  1  0.98091200  0.22215600  0.78519200  1
  C  C6  1  0.43696400  0.19572000  0.21480800  1
  C  C7  1  0.77784400  0.01908800  0.21480800  1
  Ni  Ni8  1  0.62500000  0.87500000  0.75000000  1
  Ni  Ni9  1  0.12500000  0.87500000  0.75000000  1
  Ni  Ni10  1  0.12500000  0.37500000  0.25000000  1
  Ni  Ni11  1  0.12500000  0.87500000  0.25000000  1
  Cu  Cu12  1  0.68135700  0.94840800  0.91420800  1
  Cu  Cu13  1  0.23285000  0.96580000  0.91420800  1
  Cu  Cu14  1  0.05159200  0.31864300  0.08579200  1
  Cu  Cu15  1  0.56864300  0.80159200  0.58579200  1
  Cu  Cu16  1  0.03420000  0.76715000  0.08579200  1
  Cu  Cu17  1  0.01715000  0.78420000  0.58579200  1
  Cu  Cu18  1  0.19840800  0.43135700  0.41420800  1
  Cu  Cu19  1  0.21580000  0.98285000  0.41420800  1
