# generated using pymatgen
data_Cu(NiC9)2
_symmetry_space_group_name_H-M   'P 1'
_cell_length_a   8.00148778
_cell_length_b   8.00148778
_cell_length_c   7.16172134
_cell_angle_alpha   71.81312509
_cell_angle_beta   71.81312509
_cell_angle_gamma   69.83679223
_symmetry_Int_Tables_number   1
_chemical_formula_structural   Cu(NiC9)2
_chemical_formula_sum   'Cu2 Ni4 C36'
_cell_volume   398.01842683
_cell_formula_units_Z   2
loop_
 _symmetry_equiv_pos_site_id
 _symmetry_equiv_pos_as_xyz
  1  'x, y, z'
loop_
 _atom_site_type_symbol
 _atom_site_label
 _atom_site_symmetry_multiplicity
 _atom_site_fract_x
 _atom_site_fract_y
 _atom_site_fract_z
 _atom_site_occupancy
  Ni  Ni0  1  0.88041700  0.89677500  0.20688600  1
  Ni  Ni1  1  0.10322500  0.11958300  0.29311400  1
  Ni  Ni2  1  0.11958300  0.10322500  0.79311400  1
  Ni  Ni3  1  0.89677500  0.88041700  0.70688600  1
  Cu  Cu4  1  0.00000000  0.50000000  0.50000000  1
  Cu  Cu5  1  0.50000000  0.00000000  0.00000000  1
  C  C6  1  0.43819000  0.30875500  0.31068500  1
  C  C7  1  0.69124500  0.56181000  0.18931500  1
  C  C8  1  0.56181000  0.69124500  0.68931500  1
  C  C9  1  0.30875500  0.43819000  0.81068500  1
  C  C10  1  0.65782800  0.71586800  0.40073900  1
  C  C11  1  0.28413200  0.34217200  0.09926100  1
  C  C12  1  0.34217200  0.28413200  0.59926100  1
  C  C13  1  0.71586800  0.65782800  0.90073900  1
  C  C14  1  0.67215000  0.16131900  0.47782000  1
  C  C15  1  0.83868100  0.32785000  0.02218000  1
  C  C16  1  0.32785000  0.83868100  0.52218000  1
  C  C17  1  0.16131900  0.67215000  0.97782000  1
  C  C18  1  0.33922200  0.52072300  0.74748500  1
  C  C19  1  0.47927700  0.66077800  0.75251500  1
  C  C20  1  0.66077800  0.47927700  0.25251500  1
  C  C21  1  0.52072300  0.33922200  0.24748500  1
  C  C22  1  0.88522500  0.98918200  0.42323400  1
  C  C23  1  0.01081800  0.11477500  0.07676600  1
  C  C24  1  0.11477500  0.01081800  0.57676600  1
  C  C25  1  0.98918200  0.88522500  0.92323400  1
  C  C26  1  0.99592700  0.32661900  0.33915400  1
  C  C27  1  0.67338100  0.00407300  0.16084600  1
  C  C28  1  0.00407300  0.67338100  0.66084600  1
  C  C29  1  0.32661900  0.99592700  0.83915400  1
  C  C30  1  0.20917400  0.30254200  0.62104800  1
  C  C31  1  0.69745800  0.79082600  0.87895200  1
  C  C32  1  0.79082600  0.69745800  0.37895200  1
  C  C33  1  0.30254200  0.20917400  0.12104800  1
  C  C34  1  0.68175600  0.10809800  0.75100200  1
  C  C35  1  0.89190200  0.31824400  0.74899800  1
  C  C36  1  0.31824400  0.89190200  0.24899800  1
  C  C37  1  0.10809800  0.68175600  0.25100200  1
  C  C38  1  0.40937200  0.78062300  0.40961200  1
  C  C39  1  0.21937700  0.59062800  0.09038800  1
  C  C40  1  0.59062800  0.21937700  0.59038800  1
  C  C41  1  0.78062300  0.40937200  0.90961200  1
