# generated using pymatgen
data_Cu2Ni2C7
_symmetry_space_group_name_H-M   'P 1'
_cell_length_a   6.79431567
_cell_length_b   6.79431567
_cell_length_c   6.75636213
_cell_angle_alpha   88.43775017
_cell_angle_beta   88.43775017
_cell_angle_gamma   91.01290547
_symmetry_Int_Tables_number   1
_chemical_formula_structural   Cu2Ni2C7
_chemical_formula_sum   'Cu4 Ni4 C14'
_cell_volume   311.60730815
_cell_formula_units_Z   2
loop_
 _symmetry_equiv_pos_site_id
 _symmetry_equiv_pos_as_xyz
  1  'x, y, z'
loop_
 _atom_site_type_symbol
 _atom_site_label
 _atom_site_symmetry_multiplicity
 _atom_site_fract_x
 _atom_site_fract_y
 _atom_site_fract_z
 _atom_site_occupancy
  Ni  Ni0  1  0.11443200  0.88556800  0.00000000  1
  Ni  Ni1  1  0.61401500  0.74887500  0.86323800  1
  Ni  Ni2  1  0.88523500  0.11476500  0.50000000  1
  Ni  Ni3  1  0.25112500  0.38598500  0.13676200  1
  Cu  Cu4  1  0.74859300  0.25140700  0.00000000  1
  Cu  Cu5  1  0.25106900  0.74893100  0.50000000  1
  Cu  Cu6  1  0.74896400  0.60933600  0.36080200  1
  Cu  Cu7  1  0.39066400  0.25103600  0.63919800  1
  C  C8  1  0.50109300  0.00217100  0.25119300  1
  C  C9  1  0.99782900  0.49890700  0.74880700  1
  C  C10  1  0.57886300  0.29154000  0.30697600  1
  C  C11  1  0.44990700  0.08424000  0.95738800  1
  C  C12  1  0.78724800  0.94408200  0.17305100  1
  C  C13  1  0.28817700  0.57234700  0.79729900  1
  C  C14  1  0.94639300  0.78548500  0.66717100  1
  C  C15  1  0.07557200  0.45148600  0.46073700  1
  C  C16  1  0.42765300  0.71182300  0.20270100  1
  C  C17  1  0.54851400  0.92442800  0.53926300  1
  C  C18  1  0.21451500  0.05360700  0.33282900  1
  C  C19  1  0.70846000  0.42113700  0.69302400  1
  C  C20  1  0.05591800  0.21275200  0.82694900  1
  C  C21  1  0.91576000  0.55009300  0.04261200  1
