# generated using pymatgen
data_Cu2Ni4C
_symmetry_space_group_name_H-M   'P 1'
_cell_length_a   4.06880700
_cell_length_b   6.65976400
_cell_length_c   7.66521300
_cell_angle_alpha   90.00000000
_cell_angle_beta   90.00000000
_cell_angle_gamma   90.00000000
_symmetry_Int_Tables_number   1
_chemical_formula_structural   Cu2Ni4C
_chemical_formula_sum   'Cu4 Ni8 C2'
_cell_volume   207.70653316
_cell_formula_units_Z   2
loop_
 _symmetry_equiv_pos_site_id
 _symmetry_equiv_pos_as_xyz
  1  'x, y, z'
loop_
 _atom_site_type_symbol
 _atom_site_label
 _atom_site_symmetry_multiplicity
 _atom_site_fract_x
 _atom_site_fract_y
 _atom_site_fract_z
 _atom_site_occupancy
  C  C0  1  0.00000000  0.00000000  0.00000000  1
  C  C1  1  0.50000000  0.50000000  0.50000000  1
  Ni  Ni2  1  0.00000000  0.13978000  0.62158500  1
  Ni  Ni3  1  0.00000000  0.86022000  0.37841500  1
  Ni  Ni4  1  0.50000000  0.36022000  0.12158500  1
  Ni  Ni5  1  0.50000000  0.63978000  0.87841500  1
  Ni  Ni6  1  0.00000000  0.56528700  0.14893300  1
  Ni  Ni7  1  0.00000000  0.43471300  0.85106700  1
  Ni  Ni8  1  0.50000000  0.93471300  0.64893300  1
  Ni  Ni9  1  0.50000000  0.06528700  0.35106700  1
  Cu  Cu10  1  0.00000000  0.25516100  0.31411900  1
  Cu  Cu11  1  0.00000000  0.74483900  0.68588100  1
  Cu  Cu12  1  0.50000000  0.24483900  0.81411900  1
  Cu  Cu13  1  0.50000000  0.75516100  0.18588100  1
