# generated using pymatgen
data_CuNiC11
_symmetry_space_group_name_H-M   'P 1'
_cell_length_a   8.86765345
_cell_length_b   8.86765345
_cell_length_c   16.68983300
_cell_angle_alpha   90.00000000
_cell_angle_beta   90.00000000
_cell_angle_gamma   119.99999589
_symmetry_Int_Tables_number   1
_chemical_formula_structural   CuNiC11
_chemical_formula_sum   'Cu6 Ni6 C66'
_cell_volume   1136.58014643
_cell_formula_units_Z   6
loop_
 _symmetry_equiv_pos_site_id
 _symmetry_equiv_pos_as_xyz
  1  'x, y, z'
loop_
 _atom_site_type_symbol
 _atom_site_label
 _atom_site_symmetry_multiplicity
 _atom_site_fract_x
 _atom_site_fract_y
 _atom_site_fract_z
 _atom_site_occupancy
  Ni  Ni0  1  0.00000000  0.29471700  0.50000000  1
  Ni  Ni1  1  0.70528300  0.70528300  0.50000000  1
  Ni  Ni2  1  0.29471700  0.00000000  0.50000000  1
  Ni  Ni3  1  0.00000000  0.29471700  0.00000000  1
  Ni  Ni4  1  0.70528300  0.70528300  0.00000000  1
  Ni  Ni5  1  0.29471700  0.00000000  0.00000000  1
  Cu  Cu6  1  0.98784200  0.30390100  0.25000000  1
  Cu  Cu7  1  0.69609900  0.68394100  0.25000000  1
  Cu  Cu8  1  0.31605900  0.01215800  0.25000000  1
  Cu  Cu9  1  0.30390100  0.98784200  0.75000000  1
  Cu  Cu10  1  0.68394100  0.69609900  0.75000000  1
  Cu  Cu11  1  0.01215800  0.31605900  0.75000000  1
  C  C12  1  0.00000000  0.00000000  0.11336400  1
  C  C13  1  0.00000000  0.00000000  0.38663600  1
  C  C14  1  0.00000000  0.00000000  0.61336400  1
  C  C15  1  0.00000000  0.00000000  0.88663600  1
  C  C16  1  0.66666700  0.33333300  0.10340600  1
  C  C17  1  0.66666700  0.33333300  0.39659400  1
  C  C18  1  0.33333300  0.66666700  0.60340600  1
  C  C19  1  0.33333300  0.66666700  0.89659400  1
  C  C20  1  0.33333300  0.66666700  0.10407100  1
  C  C21  1  0.33333300  0.66666700  0.39592900  1
  C  C22  1  0.66666700  0.33333300  0.60407100  1
  C  C23  1  0.66666700  0.33333300  0.89592900  1
  C  C24  1  0.64962400  0.99452900  0.14177800  1
  C  C25  1  0.00547100  0.65509500  0.14177800  1
  C  C26  1  0.34490500  0.35037600  0.14177800  1
  C  C27  1  0.64962400  0.99452900  0.35822200  1
  C  C28  1  0.00547100  0.65509500  0.35822200  1
  C  C29  1  0.34490500  0.35037600  0.35822200  1
  C  C30  1  0.99452900  0.64962400  0.64177800  1
  C  C31  1  0.65509500  0.00547100  0.64177800  1
  C  C32  1  0.35037600  0.34490500  0.64177800  1
  C  C33  1  0.99452900  0.64962400  0.85822200  1
  C  C34  1  0.65509500  0.00547100  0.85822200  1
  C  C35  1  0.35037600  0.34490500  0.85822200  1
  C  C36  1  0.46830200  0.88251500  0.14047400  1
  C  C37  1  0.11748500  0.58578700  0.14047400  1
  C  C38  1  0.41421300  0.53169800  0.14047400  1
  C  C39  1  0.46830200  0.88251500  0.35952600  1
  C  C40  1  0.11748500  0.58578700  0.35952600  1
  C  C41  1  0.41421300  0.53169800  0.35952600  1
  C  C42  1  0.88251500  0.46830200  0.64047400  1
  C  C43  1  0.58578700  0.11748500  0.64047400  1
  C  C44  1  0.53169800  0.41421300  0.64047400  1
  C  C45  1  0.88251500  0.46830200  0.85952600  1
  C  C46  1  0.58578700  0.11748500  0.85952600  1
  C  C47  1  0.53169800  0.41421300  0.85952600  1
  C  C48  1  0.70819100  0.17341500  0.14350400  1
  C  C49  1  0.82658500  0.53477600  0.14350400  1
  C  C50  1  0.46522400  0.29180900  0.14350400  1
  C  C51  1  0.70819100  0.17341500  0.35649600  1
  C  C52  1  0.82658500  0.53477600  0.35649600  1
  C  C53  1  0.46522400  0.29180900  0.35649600  1
  C  C54  1  0.17341500  0.70819100  0.64350400  1
  C  C55  1  0.53477600  0.82658500  0.64350400  1
  C  C56  1  0.29180900  0.46522400  0.64350400  1
  C  C57  1  0.17341500  0.70819100  0.85649600  1
  C  C58  1  0.53477600  0.82658500  0.85649600  1
  C  C59  1  0.29180900  0.46522400  0.85649600  1
  C  C60  1  0.33333300  0.66666700  0.00004100  1
  C  C61  1  0.33333300  0.66666700  0.49995900  1
  C  C62  1  0.66666700  0.33333300  0.50004100  1
  C  C63  1  0.66666700  0.33333300  0.99995900  1
  C  C64  1  0.76577800  0.93855500  0.14638600  1
  C  C65  1  0.06144500  0.82722300  0.14638600  1
  C  C66  1  0.17277700  0.23422200  0.14638600  1
  C  C67  1  0.76577800  0.93855500  0.35361400  1
  C  C68  1  0.06144500  0.82722300  0.35361400  1
  C  C69  1  0.17277700  0.23422200  0.35361400  1
  C  C70  1  0.93855500  0.76577800  0.64638600  1
  C  C71  1  0.82722300  0.06144500  0.64638600  1
  C  C72  1  0.23422200  0.17277700  0.64638600  1
  C  C73  1  0.93855500  0.76577800  0.85361400  1
  C  C74  1  0.82722300  0.06144500  0.85361400  1
  C  C75  1  0.23422200  0.17277700  0.85361400  1
  C  C76  1  0.00000000  0.00000000  0.00000000  1
  C  C77  1  0.00000000  0.00000000  0.50000000  1
