# generated using pymatgen
data_Cu12Ni3C
_symmetry_space_group_name_H-M   'P 1'
_cell_length_a   9.44744666
_cell_length_b   9.44744666
_cell_length_c   5.68765800
_cell_angle_alpha   90.00000000
_cell_angle_beta   90.00000000
_cell_angle_gamma   120.00000463
_symmetry_Int_Tables_number   1
_chemical_formula_structural   Cu12Ni3C
_chemical_formula_sum   'Cu24 Ni6 C2'
_cell_volume   439.63573191
_cell_formula_units_Z   2
loop_
 _symmetry_equiv_pos_site_id
 _symmetry_equiv_pos_as_xyz
  1  'x, y, z'
loop_
 _atom_site_type_symbol
 _atom_site_label
 _atom_site_symmetry_multiplicity
 _atom_site_fract_x
 _atom_site_fract_y
 _atom_site_fract_z
 _atom_site_occupancy
  C  C0  1  0.66666700  0.33333300  0.25000000  1
  C  C1  1  0.33333300  0.66666700  0.75000000  1
  Ni  Ni2  1  0.09072700  0.38813500  0.25000000  1
  Ni  Ni3  1  0.90927300  0.61186500  0.75000000  1
  Ni  Ni4  1  0.61186500  0.70259300  0.25000000  1
  Ni  Ni5  1  0.38813500  0.29740700  0.75000000  1
  Ni  Ni6  1  0.29740700  0.90927300  0.25000000  1
  Ni  Ni7  1  0.70259300  0.09072700  0.75000000  1
  Cu  Cu8  1  0.14467500  0.49579700  0.04218300  1
  Cu  Cu9  1  0.85532500  0.50420300  0.95781700  1
  Cu  Cu10  1  0.50420300  0.64887800  0.04218300  1
  Cu  Cu11  1  0.85532500  0.50420300  0.54218300  1
  Cu  Cu12  1  0.49579700  0.35112200  0.95781700  1
  Cu  Cu13  1  0.14467500  0.49579700  0.45781700  1
  Cu  Cu14  1  0.35112200  0.85532500  0.04218300  1
  Cu  Cu15  1  0.49579700  0.35112200  0.54218300  1
  Cu  Cu16  1  0.64887800  0.14467500  0.95781700  1
  Cu  Cu17  1  0.50420300  0.64887800  0.45781700  1
  Cu  Cu18  1  0.64887800  0.14467500  0.54218300  1
  Cu  Cu19  1  0.35112200  0.85532500  0.45781700  1
  Cu  Cu20  1  0.15287800  0.27896200  0.25000000  1
  Cu  Cu21  1  0.84712200  0.72103800  0.75000000  1
  Cu  Cu22  1  0.72103800  0.87391500  0.25000000  1
  Cu  Cu23  1  0.27896200  0.12608500  0.75000000  1
  Cu  Cu24  1  0.12608500  0.84712200  0.25000000  1
  Cu  Cu25  1  0.87391500  0.15287800  0.75000000  1
  Cu  Cu26  1  0.38478100  0.08734400  0.25000000  1
  Cu  Cu27  1  0.61521900  0.91265600  0.75000000  1
  Cu  Cu28  1  0.91265600  0.29743700  0.25000000  1
  Cu  Cu29  1  0.08734400  0.70256300  0.75000000  1
  Cu  Cu30  1  0.70256300  0.61521900  0.25000000  1
  Cu  Cu31  1  0.29743700  0.38478100  0.75000000  1
