# generated using pymatgen
data_Cu8NiC17
_symmetry_space_group_name_H-M   'P 1'
_cell_length_a   8.11844045
_cell_length_b   8.11844045
_cell_length_c   9.80846800
_cell_angle_alpha   90.00000000
_cell_angle_beta   90.00000000
_cell_angle_gamma   96.32331578
_symmetry_Int_Tables_number   1
_chemical_formula_structural   Cu8NiC17
_chemical_formula_sum   'Cu16 Ni2 C34'
_cell_volume   642.53409210
_cell_formula_units_Z   2
loop_
 _symmetry_equiv_pos_site_id
 _symmetry_equiv_pos_as_xyz
  1  'x, y, z'
loop_
 _atom_site_type_symbol
 _atom_site_label
 _atom_site_symmetry_multiplicity
 _atom_site_fract_x
 _atom_site_fract_y
 _atom_site_fract_z
 _atom_site_occupancy
  Ni  Ni0  1  0.76463500  0.76463500  0.51156600  1
  Ni  Ni1  1  0.23536500  0.23536500  0.01156600  1
  Cu  Cu2  1  0.43625100  0.43625100  0.63679000  1
  Cu  Cu3  1  0.06345500  0.06345500  0.36311600  1
  Cu  Cu4  1  0.56374900  0.56374900  0.13679000  1
  Cu  Cu5  1  0.93654500  0.93654500  0.86311600  1
  Cu  Cu6  1  0.03152200  0.29624200  0.64837200  1
  Cu  Cu7  1  0.20306300  0.46226200  0.35420400  1
  Cu  Cu8  1  0.70375800  0.96847800  0.14837200  1
  Cu  Cu9  1  0.53773800  0.79693700  0.85420400  1
  Cu  Cu10  1  0.46226200  0.20306300  0.35420400  1
  Cu  Cu11  1  0.29624200  0.03152200  0.64837200  1
  Cu  Cu12  1  0.79693700  0.53773800  0.85420400  1
  Cu  Cu13  1  0.96847800  0.70375800  0.14837200  1
  Cu  Cu14  1  0.17476900  0.65078000  0.88592400  1
  Cu  Cu15  1  0.34922000  0.82523100  0.38592400  1
  Cu  Cu16  1  0.65078000  0.17476900  0.88592400  1
  Cu  Cu17  1  0.82523100  0.34922000  0.38592400  1
  C  C18  1  0.84494900  0.33085500  0.11199400  1
  C  C19  1  0.66914500  0.15505100  0.61199400  1
  C  C20  1  0.33085500  0.84494900  0.11199400  1
  C  C21  1  0.15505100  0.66914500  0.61199400  1
  C  C22  1  0.11156200  0.85619000  0.00361800  1
  C  C23  1  0.64317000  0.39067900  0.99399500  1
  C  C24  1  0.14381000  0.88843800  0.50361800  1
  C  C25  1  0.60932100  0.35683000  0.49399500  1
  C  C26  1  0.39067900  0.64317000  0.99399500  1
  C  C27  1  0.85619000  0.11156200  0.00361800  1
  C  C28  1  0.35683000  0.60932100  0.49399500  1
  C  C29  1  0.88843800  0.14381000  0.50361800  1
  C  C30  1  0.10118400  0.10118400  0.76381500  1
  C  C31  1  0.39794700  0.39794700  0.23575200  1
  C  C32  1  0.89881600  0.89881600  0.26381500  1
  C  C33  1  0.60205300  0.60205300  0.73575200  1
  C  C34  1  0.81667800  0.32050300  0.75072400  1
  C  C35  1  0.18332200  0.67949700  0.25072400  1
  C  C36  1  0.67949700  0.18332200  0.25072400  1
  C  C37  1  0.32050300  0.81667800  0.75072400  1
  C  C38  1  0.99695000  0.50692000  0.99894400  1
  C  C39  1  0.49308000  0.00305000  0.49894400  1
  C  C40  1  0.50692000  0.99695000  0.99894400  1
  C  C41  1  0.00305000  0.49308000  0.49894400  1
  C  C42  1  0.71205900  0.96980700  0.75700000  1
  C  C43  1  0.53423300  0.78947900  0.24078700  1
  C  C44  1  0.03019300  0.28794100  0.25700000  1
  C  C45  1  0.21052100  0.46576700  0.74078700  1
  C  C46  1  0.78947900  0.53423300  0.24078700  1
  C  C47  1  0.96980700  0.71205900  0.75700000  1
  C  C48  1  0.46576700  0.21052100  0.74078700  1
  C  C49  1  0.28794100  0.03019300  0.25700000  1
  C  C50  1  0.74982700  0.74982700  0.99783500  1
  C  C51  1  0.25017300  0.25017300  0.49783500  1
