# generated using pymatgen
data_Cu3NiC10
_symmetry_space_group_name_H-M   'P 1'
_cell_length_a   14.44226090
_cell_length_b   14.52646049
_cell_length_c   14.46966846
_cell_angle_alpha   90.00000000
_cell_angle_beta   90.00000000
_cell_angle_gamma   90.00000000
_symmetry_Int_Tables_number   1
_chemical_formula_structural   Cu3NiC10
_chemical_formula_sum   'Cu48 Ni16 C160'
_cell_volume   3035.66311569
_cell_formula_units_Z   16
loop_
 _symmetry_equiv_pos_site_id
 _symmetry_equiv_pos_as_xyz
  1  'x, y, z'
loop_
 _atom_site_type_symbol
 _atom_site_label
 _atom_site_symmetry_multiplicity
 _atom_site_fract_x
 _atom_site_fract_y
 _atom_site_fract_z
 _atom_site_occupancy
  C  C0  1  0.50000000  0.50000000  -0.00000000  1
  C  C1  1  -0.00000000  0.00000000  -0.00000000  1
  C  C2  1  -0.00000000  0.50000000  0.50000000  1
  C  C3  1  0.50000000  0.00000000  0.50000000  1
  C  C4  1  0.50000000  0.00000000  -0.00000000  1
  C  C5  1  -0.00000000  0.50000000  -0.00000000  1
  C  C6  1  -0.00000000  0.00000000  0.50000000  1
  C  C7  1  0.50000000  0.50000000  0.50000000  1
  C  C8  1  0.74177033  0.25661245  0.75313616  1
  C  C9  1  0.75822967  0.75661245  0.24686384  1
  C  C10  1  0.24177033  0.74338755  0.74686384  1
  C  C11  1  0.25822967  0.24338755  0.25313616  1
  C  C12  1  0.25822967  0.74338755  0.24686384  1
  C  C13  1  0.24177033  0.24338755  0.75313616  1
  C  C14  1  0.75822967  0.25661245  0.25313616  1
  C  C15  1  0.74177033  0.75661245  0.74686384  1
  Ni  Ni16  1  0.88418207  0.37272707  0.63094667  1
  Ni  Ni17  1  0.61581793  0.87272707  0.36905333  1
  Ni  Ni18  1  0.38418207  0.62727293  0.86905333  1
  Ni  Ni19  1  0.11581793  0.12727293  0.13094667  1
  Ni  Ni20  1  0.11581793  0.62727293  0.36905333  1
  Ni  Ni21  1  0.38418207  0.12727293  0.63094667  1
  Ni  Ni22  1  0.61581793  0.37272707  0.13094667  1
  Ni  Ni23  1  0.88418207  0.87272707  0.86905333  1
  Ni  Ni24  1  0.63274966  0.11956875  0.88412313  1
  Ni  Ni25  1  0.86725034  0.61956875  0.11587687  1
  Ni  Ni26  1  0.13274966  0.88043125  0.61587687  1
  Ni  Ni27  1  0.36725034  0.38043125  0.38412313  1
  Ni  Ni28  1  0.36725034  0.88043125  0.11587687  1
  Ni  Ni29  1  0.13274966  0.38043125  0.88412313  1
  Ni  Ni30  1  0.86725034  0.11956875  0.38412313  1
  Ni  Ni31  1  0.63274966  0.61956875  0.61587687  1
  Cu  Cu32  1  0.75481356  0.47429849  0.97655554  1
  Cu  Cu33  1  0.74518644  0.97429849  0.02344446  1
  Cu  Cu34  1  0.25481356  0.52570151  0.52344446  1
  Cu  Cu35  1  0.24518644  0.02570151  0.47655554  1
  Cu  Cu36  1  0.24518644  0.52570151  0.02344446  1
  Cu  Cu37  1  0.25481356  0.02570151  0.97655554  1
  Cu  Cu38  1  0.74518644  0.47429849  0.47655554  1
  Cu  Cu39  1  0.75481356  0.97429849  0.52344446  1
  Cu  Cu40  1  0.77377592  0.27288407  0.00092028  1
  Cu  Cu41  1  0.72622408  0.77288407  0.99907972  1
  Cu  Cu42  1  0.27377592  0.72711593  0.49907972  1
  Cu  Cu43  1  0.22622408  0.22711593  0.50092028  1
  Cu  Cu44  1  0.22622408  0.72711593  0.99907972  1
  Cu  Cu45  1  0.27377592  0.22711593  0.00092028  1
  Cu  Cu46  1  0.72622408  0.27288407  0.50092028  1
  Cu  Cu47  1  0.77377592  0.77288407  0.49907972  1
  Cu  Cu48  1  0.97818750  0.23935349  0.97931672  1
  Cu  Cu49  1  0.52181250  0.73935349  0.02068328  1
  Cu  Cu50  1  0.47818750  0.76064651  0.52068328  1
  Cu  Cu51  1  0.02181250  0.26064651  0.47931672  1
  Cu  Cu52  1  0.02181250  0.76064651  0.02068328  1
  Cu  Cu53  1  0.47818750  0.26064651  0.97931672  1
  Cu  Cu54  1  0.52181250  0.23935349  0.47931672  1
  Cu  Cu55  1  0.97818750  0.73935349  0.52068328  1
  Cu  Cu56  1  0.99930557  0.22701417  0.77836533  1
  Cu  Cu57  1  0.50069443  0.72701417  0.22163467  1
  Cu  Cu58  1  0.49930557  0.77298583  0.72163467  1
  Cu  Cu59  1  0.00069443  0.27298583  0.27836533  1
  Cu  Cu60  1  0.00069443  0.77298583  0.22163467  1
  Cu  Cu61  1  0.49930557  0.27298583  0.77836533  1
  Cu  Cu62  1  0.50069443  0.22701417  0.27836533  1
  Cu  Cu63  1  0.99930557  0.72701417  0.72163467  1
  Cu  Cu64  1  0.98083767  0.02504324  0.73589789  1
  Cu  Cu65  1  0.51916233  0.52504324  0.26410211  1
  Cu  Cu66  1  0.48083767  0.97495676  0.76410211  1
  Cu  Cu67  1  0.01916233  0.47495676  0.23589789  1
  Cu  Cu68  1  0.01916233  0.97495676  0.26410211  1
  Cu  Cu69  1  0.48083767  0.47495676  0.73589789  1
  Cu  Cu70  1  0.51916233  0.02504324  0.23589789  1
  Cu  Cu71  1  0.98083767  0.52504324  0.76410211  1
  Cu  Cu72  1  0.77832057  0.01262214  0.72561460  1
  Cu  Cu73  1  0.72167943  0.51262214  0.27438540  1
  Cu  Cu74  1  0.27832057  0.98737786  0.77438540  1
  Cu  Cu75  1  0.22167943  0.48737786  0.22561460  1
  Cu  Cu76  1  0.22167943  0.98737786  0.27438540  1
  Cu  Cu77  1  0.27832057  0.48737786  0.72561460  1
  Cu  Cu78  1  0.72167943  0.01262214  0.22561460  1
  Cu  Cu79  1  0.77832057  0.51262214  0.77438540  1
  C  C80  1  0.72879967  0.01075729  0.62556072  1
  C  C81  1  0.77120033  0.51075729  0.37443928  1
  C  C82  1  0.22879967  0.98924271  0.87443928  1
  C  C83  1  0.27120033  0.48924271  0.12556072  1
  C  C84  1  0.27120033  0.98924271  0.37443928  1
  C  C85  1  0.22879967  0.48924271  0.62556072  1
  C  C86  1  0.77120033  0.01075729  0.12556072  1
  C  C87  1  0.72879967  0.51075729  0.87443928  1
  C  C88  1  0.83366489  0.47234824  0.53062034  1
  C  C89  1  0.66633511  0.97234824  0.46937966  1
  C  C90  1  0.33366489  0.52765176  0.96937966  1
  C  C91  1  0.16633511  0.02765176  0.03062034  1
  C  C92  1  0.16633511  0.52765176  0.46937966  1
  C  C93  1  0.33366489  0.02765176  0.53062034  1
  C  C94  1  0.66633511  0.47234824  0.03062034  1
  C  C95  1  0.83366489  0.97234824  0.96937966  1
  C  C96  1  0.66273892  0.02571711  0.98686274  1
  C  C97  1  0.83726108  0.52571711  0.01313726  1
  C  C98  1  0.16273892  0.97428289  0.51313726  1
  C  C99  1  0.33726108  0.47428289  0.48686274  1
  C  C100  1  0.33726108  0.97428289  0.01313726  1
  C  C101  1  0.16273892  0.47428289  0.98686274  1
  C  C102  1  0.83726108  0.02571711  0.48686274  1
  C  C103  1  0.66273892  0.52571711  0.51313726  1
  C  C104  1  0.78992998  0.37151392  0.95165541  1
  C  C105  1  0.71007002  0.87151392  0.04834459  1
  C  C106  1  0.28992998  0.62848608  0.54834459  1
  C  C107  1  0.21007002  0.12848608  0.45165541  1
  C  C108  1  0.21007002  0.62848608  0.04834459  1
  C  C109  1  0.28992998  0.12848608  0.95165541  1
  C  C110  1  0.71007002  0.37151392  0.45165541  1
  C  C111  1  0.78992998  0.87151392  0.54834459  1
  C  C112  1  0.77584490  0.28291726  0.59157194  1
  C  C113  1  0.72415510  0.78291726  0.40842806  1
  C  C114  1  0.27584490  0.71708274  0.90842806  1
  C  C115  1  0.22415510  0.21708274  0.09157194  1
  C  C116  1  0.22415510  0.71708274  0.40842806  1
  C  C117  1  0.27584490  0.21708274  0.59157194  1
  C  C118  1  0.72415510  0.28291726  0.09157194  1
  C  C119  1  0.77584490  0.78291726  0.90842806  1
  C  C120  1  0.73763444  0.21062330  0.92682742  1
  C  C121  1  0.76236556  0.71062330  0.07317258  1
  C  C122  1  0.23763444  0.78937670  0.57317258  1
  C  C123  1  0.26236556  0.28937670  0.42682742  1
  C  C124  1  0.26236556  0.78937670  0.07317258  1
  C  C125  1  0.23763444  0.28937670  0.92682742  1
  C  C126  1  0.76236556  0.21062330  0.42682742  1
  C  C127  1  0.73763444  0.71062330  0.57317258  1
  C  C128  1  0.62162453  0.24500688  0.52831860  1
  C  C129  1  0.87837547  0.74500688  0.47168140  1
  C  C130  1  0.12162453  0.75499312  0.97168140  1
  C  C131  1  0.37837547  0.25499312  0.02831860  1
  C  C132  1  0.37837547  0.75499312  0.47168140  1
  C  C133  1  0.12162453  0.25499312  0.52831860  1
  C  C134  1  0.87837547  0.24500688  0.02831860  1
  C  C135  1  0.62162453  0.74500688  0.97168140  1
  C  C136  1  0.97305737  0.34077028  0.52324407  1
  C  C137  1  0.52694263  0.84077028  0.47675593  1
  C  C138  1  0.47305737  0.65922972  0.97675593  1
  C  C139  1  0.02694263  0.15922972  0.02324407  1
  C  C140  1  0.02694263  0.65922972  0.47675593  1
  C  C141  1  0.47305737  0.15922972  0.52324407  1
  C  C142  1  0.52694263  0.34077028  0.02324407  1
  C  C143  1  0.97305737  0.84077028  0.97675593  1
  C  C144  1  0.52323793  0.16760312  0.97675535  1
  C  C145  1  0.97676207  0.66760312  0.02324465  1
  C  C146  1  0.02323793  0.83239688  0.52324465  1
  C  C147  1  0.47676207  0.33239688  0.47675535  1
  C  C148  1  0.47676207  0.83239688  0.02324465  1
  C  C149  1  0.02323793  0.33239688  0.97675535  1
  C  C150  1  0.97676207  0.16760312  0.47675535  1
  C  C151  1  0.52323793  0.66760312  0.52324465  1
  C  C152  1  0.94878921  0.20732044  0.87604762  1
  C  C153  1  0.55121079  0.70732044  0.12395238  1
  C  C154  1  0.44878921  0.79267956  0.62395238  1
  C  C155  1  0.05121079  0.29267956  0.37604762  1
  C  C156  1  0.05121079  0.79267956  0.12395238  1
  C  C157  1  0.44878921  0.29267956  0.87604762  1
  C  C158  1  0.55121079  0.20732044  0.37604762  1
  C  C159  1  0.94878921  0.70732044  0.62395238  1
  C  C160  1  0.92667281  0.26620609  0.71601656  1
  C  C161  1  0.57332719  0.76620609  0.28398344  1
  C  C162  1  0.42667281  0.73379391  0.78398344  1
  C  C163  1  0.07332719  0.23379391  0.21601656  1
  C  C164  1  0.07332719  0.73379391  0.28398344  1
  C  C165  1  0.42667281  0.23379391  0.71601656  1
  C  C166  1  0.57332719  0.26620609  0.21601656  1
  C  C167  1  0.92667281  0.76620609  0.78398344  1
  C  C168  1  0.58980686  0.22388067  0.79199620  1
  C  C169  1  0.91019314  0.72388067  0.20800380  1
  C  C170  1  0.08980686  0.77611933  0.70800380  1
  C  C171  1  0.41019314  0.27611933  0.29199620  1
  C  C172  1  0.41019314  0.77611933  0.20800380  1
  C  C173  1  0.08980686  0.27611933  0.79199620  1
  C  C174  1  0.91019314  0.22388067  0.29199620  1
  C  C175  1  0.58980686  0.72388067  0.70800380  1
  C  C176  1  0.52862598  0.37508228  0.74552878  1
  C  C177  1  0.97137402  0.87508228  0.25447122  1
  C  C178  1  0.02862598  0.62491772  0.75447122  1
  C  C179  1  0.47137402  0.12491772  0.24552878  1
  C  C180  1  0.47137402  0.62491772  0.25447122  1
  C  C181  1  0.02862598  0.12491772  0.74552878  1
  C  C182  1  0.97137402  0.37508228  0.24552878  1
  C  C183  1  0.52862598  0.87508228  0.75447122  1
  C  C184  1  0.53039110  0.02322512  0.84105979  1
  C  C185  1  0.96960890  0.52322512  0.15894021  1
  C  C186  1  0.03039110  0.97677488  0.65894021  1
  C  C187  1  0.46960890  0.47677488  0.34105979  1
  C  C188  1  0.46960890  0.97677488  0.15894021  1
  C  C189  1  0.03039110  0.47677488  0.84105979  1
  C  C190  1  0.96960890  0.02322512  0.34105979  1
  C  C191  1  0.53039110  0.52322512  0.65894021  1
  C  C192  1  0.97442242  0.48027366  0.67047191  1
  C  C193  1  0.52557758  0.98027366  0.32952809  1
  C  C194  1  0.47442242  0.51972634  0.82952809  1
  C  C195  1  0.02557758  0.01972634  0.17047191  1
  C  C196  1  0.02557758  0.51972634  0.32952809  1
  C  C197  1  0.47442242  0.01972634  0.67047191  1
  C  C198  1  0.52557758  0.48027366  0.17047191  1
  C  C199  1  0.97442242  0.98027366  0.82952809  1
  C  C200  1  0.87914208  0.05378703  0.69868874  1
  C  C201  1  0.62085792  0.55378703  0.30131126  1
  C  C202  1  0.37914208  0.94621297  0.80131126  1
  C  C203  1  0.12085792  0.44621297  0.19868874  1
  C  C204  1  0.12085792  0.94621297  0.30131126  1
  C  C205  1  0.37914208  0.44621297  0.69868874  1
  C  C206  1  0.62085792  0.05378703  0.19868874  1
  C  C207  1  0.87914208  0.55378703  0.80131126  1
  C  C208  1  0.72797998  0.08446161  0.78025193  1
  C  C209  1  0.77202002  0.58446161  0.21974807  1
  C  C210  1  0.22797998  0.91553839  0.71974807  1
  C  C211  1  0.27202002  0.41553839  0.28025193  1
  C  C212  1  0.27202002  0.91553839  0.21974807  1
  C  C213  1  0.22797998  0.41553839  0.78025193  1
  C  C214  1  0.77202002  0.08446161  0.28025193  1
  C  C215  1  0.72797998  0.58446161  0.71974807  1
  C  C216  1  0.78914388  0.41614297  0.73785125  1
  C  C217  1  0.71085612  0.91614297  0.26214875  1
  C  C218  1  0.28914388  0.58385703  0.76214875  1
  C  C219  1  0.21085612  0.08385703  0.23785125  1
  C  C220  1  0.21085612  0.58385703  0.26214875  1
  C  C221  1  0.28914388  0.08385703  0.73785125  1
  C  C222  1  0.71085612  0.41614297  0.23785125  1
  C  C223  1  0.78914388  0.91614297  0.76214875  1
