# generated using pymatgen
data_Cu22Ni2C3
_symmetry_space_group_name_H-M   'P 1'
_cell_length_a   4.76792500
_cell_length_b   6.47588990
_cell_length_c   12.01249023
_cell_angle_alpha   90.05872436
_cell_angle_beta   90.00000000
_cell_angle_gamma   111.60026576
_symmetry_Int_Tables_number   1
_chemical_formula_structural   Cu22Ni2C3
_chemical_formula_sum   'Cu22 Ni2 C3'
_cell_volume   344.85729411
_cell_formula_units_Z   1
loop_
 _symmetry_equiv_pos_site_id
 _symmetry_equiv_pos_as_xyz
  1  'x, y, z'
loop_
 _atom_site_type_symbol
 _atom_site_label
 _atom_site_symmetry_multiplicity
 _atom_site_fract_x
 _atom_site_fract_y
 _atom_site_fract_z
 _atom_site_occupancy
  C  C0  1  0.00312700  0.00625400  0.00301800  1
  C  C1  1  0.50295400  0.00590900  0.50304200  1
  Ni  Ni2  1  0.31716800  0.63433700  0.31670800  1
  Ni  Ni3  1  0.81697700  0.63395400  0.81734000  1
  Cu  Cu4  1  0.38827100  0.77654100  0.11099600  1
  Cu  Cu5  1  0.88898400  0.77796800  0.61036700  1
  Cu  Cu6  1  0.11064300  0.22128700  0.38916100  1
  Cu  Cu7  1  0.61090000  0.22180000  0.88784600  1
  Cu  Cu8  1  0.88751400  0.77502700  0.38773200  1
  Cu  Cu9  1  0.38731800  0.77463600  0.88710000  1
  Cu  Cu10  1  0.61361200  0.22722400  0.11365600  1
  Cu  Cu11  1  0.11360000  0.22720000  0.61341100  1
  Cu  Cu12  1  0.25015700  0.00240300  0.25009400  1
  Cu  Cu13  1  0.75088500  0.00255900  0.74960500  1
  Cu  Cu14  1  0.75224600  0.00240300  0.25009400  1
  Cu  Cu15  1  0.25167400  0.00255900  0.74960500  1
  Cu  Cu16  1  0.50067800  0.49963700  0.50118500  1
  Cu  Cu17  1  0.00041900  0.49946200  0.00128200  1
  Cu  Cu18  1  0.99895900  0.49963700  0.50118500  1
  Cu  Cu19  1  0.49904300  0.49946200  0.00128200  1
  Cu  Cu20  1  0.67842800  0.35685600  0.32085300  1
  Cu  Cu21  1  0.17848000  0.35696100  0.82178500  1
  Cu  Cu22  1  0.82103900  0.64207900  0.17812100  1
  Cu  Cu23  1  0.32144500  0.64289000  0.67880600  1
  Cu  Cu24  1  0.17772500  0.35545000  0.17739600  1
  Cu  Cu25  1  0.67738700  0.35477400  0.67794300  1
  C  C26  1  0.50036500  0.00073000  0.00038600  1
