# generated using pymatgen
data_Cu8(Ni8C11)5
_symmetry_space_group_name_H-M   'P 1'
_cell_length_a   12.45041000
_cell_length_b   10.65243000
_cell_length_c   19.43382367
_cell_angle_alpha   90.00000000
_cell_angle_beta   122.95734067
_cell_angle_gamma   90.00000000
_symmetry_Int_Tables_number   1
_chemical_formula_structural   Cu8(Ni8C11)5
_chemical_formula_sum   'Cu16 Ni80 C110'
_cell_volume   2162.67778242
_cell_formula_units_Z   2
loop_
 _symmetry_equiv_pos_site_id
 _symmetry_equiv_pos_as_xyz
  1  'x, y, z'
loop_
 _atom_site_type_symbol
 _atom_site_label
 _atom_site_symmetry_multiplicity
 _atom_site_fract_x
 _atom_site_fract_y
 _atom_site_fract_z
 _atom_site_occupancy
  C  C0  1  0.88198800  0.12071600  0.86018200  1
  C  C1  1  0.88198800  0.37928400  0.36018200  1
  C  C2  1  0.11801200  0.87928400  0.13981800  1
  C  C3  1  0.11801200  0.62071600  0.63981800  1
  C  C4  1  0.76759300  0.95786600  0.98239200  1
  C  C5  1  0.76759300  0.54213400  0.48239200  1
  C  C6  1  0.23240700  0.04213400  0.01760800  1
  C  C7  1  0.23240700  0.45786600  0.51760800  1
  C  C8  1  0.97581300  0.79766900  0.92541800  1
  C  C9  1  0.97581300  0.70233100  0.42541800  1
  C  C10  1  0.02418700  0.20233100  0.07458200  1
  C  C11  1  0.02418700  0.29766900  0.57458200  1
  Ni  Ni12  1  0.10801100  0.29908100  0.96458500  1
  Ni  Ni13  1  0.10801100  0.20091900  0.46458500  1
  Ni  Ni14  1  0.89198900  0.70091900  0.03541500  1
  Ni  Ni15  1  0.89198900  0.79908100  0.53541500  1
  Ni  Ni16  1  0.70446700  0.89389100  0.81107600  1
  Ni  Ni17  1  0.70446700  0.60610900  0.31107600  1
  Ni  Ni18  1  0.29553300  0.10610900  0.18892400  1
  Ni  Ni19  1  0.29553300  0.39389100  0.68892400  1
  Ni  Ni20  1  0.06072500  0.96561200  0.83759000  1
  Ni  Ni21  1  0.06072500  0.53438800  0.33759000  1
  Ni  Ni22  1  0.93927500  0.03438800  0.16241000  1
  Ni  Ni23  1  0.93927500  0.46561200  0.66241000  1
  Ni  Ni24  1  0.74427800  0.22886300  0.93292800  1
  Ni  Ni25  1  0.74427800  0.27113700  0.43292800  1
  Ni  Ni26  1  0.25572200  0.77113700  0.06707200  1
  Ni  Ni27  1  0.25572200  0.72886300  0.56707200  1
  Ni  Ni28  1  0.82739800  0.08873600  0.67718600  1
  Ni  Ni29  1  0.82739800  0.41126400  0.17718600  1
  Ni  Ni30  1  0.17260200  0.91126400  0.32281400  1
  Ni  Ni31  1  0.17260200  0.58873600  0.82281400  1
  Ni  Ni32  1  0.72422000  0.00993300  0.68203400  1
  Ni  Ni33  1  0.72422000  0.49006700  0.18203400  1
  Ni  Ni34  1  0.27578000  0.99006700  0.31796600  1
  Ni  Ni35  1  0.27578000  0.50993300  0.81796600  1
  Ni  Ni36  1  0.58652800  0.10872300  0.76114900  1
  Ni  Ni37  1  0.58652800  0.39127700  0.26114900  1
  Ni  Ni38  1  0.41347200  0.89127700  0.23885100  1
  Ni  Ni39  1  0.41347200  0.60872300  0.73885100  1
  Ni  Ni40  1  0.59799200  0.25130000  0.77313900  1
  Ni  Ni41  1  0.59799200  0.24870000  0.27313900  1
  Ni  Ni42  1  0.40200800  0.74870000  0.22686100  1
  Ni  Ni43  1  0.40200800  0.75130000  0.72686100  1
  Ni  Ni44  1  0.70613400  0.88083600  0.11938700  1
  Ni  Ni45  1  0.70613400  0.61916400  0.61938700  1
  Ni  Ni46  1  0.29386600  0.11916400  0.88061300  1
  Ni  Ni47  1  0.29386600  0.38083600  0.38061300  1
  Ni  Ni48  1  0.77661000  0.76409800  0.11205100  1
  Ni  Ni49  1  0.77661000  0.73590200  0.61205100  1
  Ni  Ni50  1  0.22339000  0.23590200  0.88794900  1
  Ni  Ni51  1  0.22339000  0.26409800  0.38794900  1
  Ni  Ni52  1  0.58011000  0.72271700  0.92416900  1
  Ni  Ni53  1  0.58011000  0.77728300  0.42416900  1
  Ni  Ni54  1  0.41989000  0.27728300  0.07583100  1
  Ni  Ni55  1  0.41989000  0.22271700  0.57583100  1
  Ni  Ni56  1  0.68213100  0.69801200  0.89926800  1
  Ni  Ni57  1  0.68213100  0.80198800  0.39926800  1
  Ni  Ni58  1  0.31786900  0.30198800  0.10073200  1
  Ni  Ni59  1  0.31786900  0.19801200  0.60073200  1
  Ni  Ni60  1  0.62290200  0.09528800  0.05729800  1
  Ni  Ni61  1  0.62290200  0.40471200  0.55729800  1
  Ni  Ni62  1  0.37709800  0.90471200  0.94270200  1
  Ni  Ni63  1  0.37709800  0.59528800  0.44270200  1
  Ni  Ni64  1  0.69317900  0.20759000  0.04494000  1
  Ni  Ni65  1  0.69317900  0.29241000  0.54494000  1
  Ni  Ni66  1  0.30682100  0.79241000  0.95506000  1
  Ni  Ni67  1  0.30682100  0.70759000  0.45506000  1
  Ni  Ni68  1  0.84263400  0.53851100  0.91774500  1
  Ni  Ni69  1  0.84263400  0.96148900  0.41774500  1
  Ni  Ni70  1  0.15736600  0.46148900  0.08225500  1
  Ni  Ni71  1  0.15736600  0.03851100  0.58225500  1
  Ni  Ni72  1  0.75890100  0.57260900  0.82406100  1
  Ni  Ni73  1  0.75890100  0.92739100  0.32406100  1
  Ni  Ni74  1  0.24109900  0.42739100  0.17593900  1
  Ni  Ni75  1  0.24109900  0.07260900  0.67593900  1
  Ni  Ni76  1  0.93352800  0.76936400  0.75278100  1
  Ni  Ni77  1  0.93352800  0.73063600  0.25278100  1
  Ni  Ni78  1  0.06647200  0.23063600  0.24721900  1
  Ni  Ni79  1  0.06647200  0.26936400  0.74721900  1
  Ni  Ni80  1  0.86496600  0.65440200  0.76157200  1
  Ni  Ni81  1  0.86496600  0.84559800  0.26157200  1
  Ni  Ni82  1  0.13503400  0.34559800  0.23842800  1
  Ni  Ni83  1  0.13503400  0.15440200  0.73842800  1
  Ni  Ni84  1  0.52063700  0.64231200  0.01012700  1
  Ni  Ni85  1  0.52063700  0.85768800  0.51012700  1
  Ni  Ni86  1  0.47936300  0.35768800  0.98987300  1
  Ni  Ni87  1  0.47936300  0.14231200  0.48987300  1
  Ni  Ni88  1  0.47649400  0.56669200  0.93051900  1
  Ni  Ni89  1  0.47649400  0.93330800  0.43051900  1
  Ni  Ni90  1  0.52350600  0.43330800  0.06948100  1
  Ni  Ni91  1  0.52350600  0.06669200  0.56948100  1
  Cu  Cu92  1  0.91244200  0.37222800  0.78842400  1
  Cu  Cu93  1  0.91244200  0.12777200  0.28842400  1
  Cu  Cu94  1  0.08755800  0.62777200  0.21157600  1
  Cu  Cu95  1  0.08755800  0.87222800  0.71157600  1
  Cu  Cu96  1  0.46543800  0.02074000  0.86544100  1
  Cu  Cu97  1  0.46543800  0.47926000  0.36544100  1
  Cu  Cu98  1  0.53456200  0.97926000  0.13455900  1
  Cu  Cu99  1  0.53456200  0.52074000  0.63455900  1
  Cu  Cu100  1  0.13533200  0.55222800  0.94459000  1
  Cu  Cu101  1  0.13533200  0.94777200  0.44459000  1
  Cu  Cu102  1  0.86466800  0.44777200  0.05541000  1
  Cu  Cu103  1  0.86466800  0.05222800  0.55541000  1
  Cu  Cu104  1  0.49054200  0.63218000  0.13712800  1
  Cu  Cu105  1  0.49054200  0.86782000  0.63712800  1
  Cu  Cu106  1  0.50945800  0.36782000  0.86287200  1
  Cu  Cu107  1  0.50945800  0.13218000  0.36287200  1
  C  C108  1  0.84922700  0.36578800  0.82209200  1
  C  C109  1  0.84922700  0.13421200  0.32209200  1
  C  C110  1  0.15077300  0.63421200  0.17790800  1
  C  C111  1  0.15077300  0.86578800  0.67790800  1
  C  C112  1  0.97105200  0.27223800  0.78921100  1
  C  C113  1  0.97105200  0.22776200  0.28921100  1
  C  C114  1  0.02894800  0.72776200  0.21078900  1
  C  C115  1  0.02894800  0.77223800  0.71078900  1
  C  C116  1  0.91882500  0.47101000  0.75619200  1
  C  C117  1  0.91882500  0.02899000  0.25619200  1
  C  C118  1  0.08117500  0.52899000  0.24380800  1
  C  C119  1  0.08117500  0.97101000  0.74380800  1
  C  C120  1  0.55155100  0.04258900  0.85096200  1
  C  C121  1  0.55155100  0.45741100  0.35096200  1
  C  C122  1  0.44844900  0.95741100  0.14903800  1
  C  C123  1  0.44844900  0.54258900  0.64903800  1
  C  C124  1  0.49520700  0.95297800  0.92722000  1
  C  C125  1  0.49520700  0.54702200  0.42722000  1
  C  C126  1  0.50479300  0.04702200  0.07278000  1
  C  C127  1  0.50479300  0.45297800  0.57278000  1
  C  C128  1  0.35486700  0.06671000  0.82070800  1
  C  C129  1  0.35486700  0.43329000  0.32070800  1
  C  C130  1  0.64513300  0.93329000  0.17929200  1
  C  C131  1  0.64513300  0.56671000  0.67929200  1
  C  C132  1  0.08961600  0.57076500  0.98913300  1
  C  C133  1  0.08961600  0.92923500  0.48913300  1
  C  C134  1  0.91038400  0.42923500  0.01086700  1
  C  C135  1  0.91038400  0.07076500  0.51086700  1
  C  C136  1  0.12930500  0.64423100  0.90014000  1
  C  C137  1  0.12930500  0.85576900  0.40014000  1
  C  C138  1  0.87069500  0.35576900  0.09986000  1
  C  C139  1  0.87069500  0.14423100  0.59986000  1
  C  C140  1  0.18163200  0.44926800  0.94385600  1
  C  C141  1  0.18163200  0.05073200  0.44385600  1
  C  C142  1  0.81836800  0.55073200  0.05614400  1
  C  C143  1  0.81836800  0.94926800  0.55614400  1
  C  C144  1  0.52178500  0.64268700  0.21053300  1
  C  C145  1  0.52178500  0.85731300  0.71053300  1
  C  C146  1  0.47821500  0.35731300  0.78946700  1
  C  C147  1  0.47821500  0.14268700  0.28946700  1
  C  C148  1  0.57090800  0.58526300  0.12170300  1
  C  C149  1  0.57090800  0.91473700  0.62170300  1
  C  C150  1  0.42909200  0.41473700  0.87829700  1
  C  C151  1  0.42909200  0.08526300  0.37829700  1
  C  C152  1  0.38246100  0.66575400  0.07808000  1
  C  C153  1  0.38246100  0.83424600  0.57808000  1
  C  C154  1  0.61753900  0.33424600  0.92192000  1
  C  C155  1  0.61753900  0.16575400  0.42192000  1
  C  C156  1  0.00000000  0.00000000  0.00000000  1
  C  C157  1  0.00000000  0.50000000  0.50000000  1
  C  C158  1  0.07701000  0.21890700  0.97202500  1
  C  C159  1  0.07701000  0.28109300  0.47202500  1
  C  C160  1  0.92299000  0.78109300  0.02797500  1
  C  C161  1  0.92299000  0.71890700  0.52797500  1
  C  C162  1  0.78228600  0.92433700  0.86074700  1
  C  C163  1  0.78228600  0.57566300  0.36074700  1
  C  C164  1  0.21771400  0.07566300  0.13925300  1
  C  C165  1  0.21771400  0.42433700  0.63925300  1
  C  C166  1  0.04528800  0.97330900  0.88165400  1
  C  C167  1  0.04528800  0.52669100  0.38165400  1
  C  C168  1  0.95471200  0.02669100  0.11834600  1
  C  C169  1  0.95471200  0.47330900  0.61834600  1
  C  C170  1  0.81457700  0.16840200  0.95279100  1
  C  C171  1  0.81457700  0.33159800  0.45279100  1
  C  C172  1  0.18542300  0.83159800  0.04720900  1
  C  C173  1  0.18542300  0.66840200  0.54720900  1
  C  C174  1  0.80322700  0.05911100  0.71492900  1
  C  C175  1  0.80322700  0.44088900  0.21492900  1
  C  C176  1  0.19677300  0.94088900  0.28507100  1
  C  C177  1  0.19677300  0.55911100  0.78507100  1
  C  C178  1  0.64079400  0.17913000  0.76622100  1
  C  C179  1  0.64079400  0.32087000  0.26622100  1
  C  C180  1  0.35920600  0.82087000  0.23377900  1
  C  C181  1  0.35920600  0.67913000  0.73377900  1
  C  C182  1  0.73752800  0.84402900  0.08657100  1
  C  C183  1  0.73752800  0.65597100  0.58657100  1
  C  C184  1  0.26247200  0.15597100  0.91342900  1
  C  C185  1  0.26247200  0.34402900  0.41342900  1
  C  C186  1  0.63640900  0.76396600  0.90856200  1
  C  C187  1  0.63640900  0.73603400  0.40856200  1
  C  C188  1  0.36359100  0.23603400  0.09143800  1
  C  C189  1  0.36359100  0.26396600  0.59143800  1
  C  C190  1  0.68837300  0.11606800  0.04504000  1
  C  C191  1  0.68837300  0.38393200  0.54504000  1
  C  C192  1  0.31162700  0.88393200  0.95496000  1
  C  C193  1  0.31162700  0.61606800  0.45496000  1
  C  C194  1  0.80466000  0.60986700  0.87905400  1
  C  C195  1  0.80466000  0.89013300  0.37905400  1
  C  C196  1  0.19534000  0.39013300  0.12094600  1
  C  C197  1  0.19534000  0.10986700  0.62094600  1
  C  C198  1  0.87840500  0.74482700  0.77291000  1
  C  C199  1  0.87840500  0.75517300  0.27291000  1
  C  C200  1  0.12159500  0.25517300  0.22709000  1
  C  C201  1  0.12159500  0.24482700  0.72709000  1
  C  C202  1  0.48629600  0.65293600  0.95139300  1
  C  C203  1  0.48629600  0.84706400  0.45139300  1
  C  C204  1  0.51370400  0.34706400  0.04860700  1
  C  C205  1  0.51370400  0.15293600  0.54860700  1
