# generated using pymatgen
data_CuNiC8
_symmetry_space_group_name_H-M   'P 1'
_cell_length_a   5.84734100
_cell_length_b   5.61447500
_cell_length_c   9.59823847
_cell_angle_alpha   54.42418732
_cell_angle_beta   90.00000000
_cell_angle_gamma   90.00000000
_symmetry_Int_Tables_number   1
_chemical_formula_structural   CuNiC8
_chemical_formula_sum   'Cu2 Ni2 C16'
_cell_volume   256.29177843
_cell_formula_units_Z   2
loop_
 _symmetry_equiv_pos_site_id
 _symmetry_equiv_pos_as_xyz
  1  'x, y, z'
loop_
 _atom_site_type_symbol
 _atom_site_label
 _atom_site_symmetry_multiplicity
 _atom_site_fract_x
 _atom_site_fract_y
 _atom_site_fract_z
 _atom_site_occupancy
  C  C0  1  0.93809500  0.76349800  0.75033900  1
  C  C1  1  0.43809500  0.23650200  0.74966100  1
  C  C2  1  0.06190500  0.23650200  0.24966100  1
  C  C3  1  0.56190500  0.76349800  0.25033900  1
  Ni  Ni4  1  0.00000000  0.50000000  0.50000000  1
  Ni  Ni5  1  0.50000000  0.50000000  0.00000000  1
  Cu  Cu6  1  0.00000000  0.00000000  0.00000000  1
  Cu  Cu7  1  0.50000000  0.00000000  0.50000000  1
  C  C8  1  0.79049900  0.85973800  0.44954100  1
  C  C9  1  0.29049900  0.14026200  0.05045900  1
  C  C10  1  0.19502600  0.75259400  0.95137100  1
  C  C11  1  0.69502600  0.24740600  0.54862900  1
  C  C12  1  0.20950100  0.14026200  0.55045900  1
  C  C13  1  0.70950100  0.85973800  0.94954100  1
  C  C14  1  0.80497400  0.24740600  0.04862900  1
  C  C15  1  0.30497400  0.75259400  0.45137100  1
  C  C16  1  0.52866800  0.65203800  0.75217800  1
  C  C17  1  0.02866800  0.34796200  0.74782200  1
  C  C18  1  0.47133200  0.34796200  0.24782200  1
  C  C19  1  0.97133200  0.65203800  0.25217800  1
