# generated using pymatgen
data_CuNiC29
_symmetry_space_group_name_H-M   'P 1'
_cell_length_a   8.47450246
_cell_length_b   8.79465804
_cell_length_c   4.41686550
_cell_angle_alpha   90.00000000
_cell_angle_beta   90.00000000
_cell_angle_gamma   90.00000000
_symmetry_Int_Tables_number   1
_chemical_formula_structural   CuNiC29
_chemical_formula_sum   'Cu1 Ni1 C29'
_cell_volume   329.19053690
_cell_formula_units_Z   1
loop_
 _symmetry_equiv_pos_site_id
 _symmetry_equiv_pos_as_xyz
  1  'x, y, z'
loop_
 _atom_site_type_symbol
 _atom_site_label
 _atom_site_symmetry_multiplicity
 _atom_site_fract_x
 _atom_site_fract_y
 _atom_site_fract_z
 _atom_site_occupancy
  Ni  Ni0  1  0.05899258  0.00000000  0.00000000  1
  Cu  Cu1  1  0.50214669  0.50000000  0.00000000  1
  C  C2  1  0.99315137  0.50000000  0.00000000  1
  C  C3  1  0.52245254  0.00000000  0.00000000  1
  C  C4  1  0.99548841  0.25482149  0.50000000  1
  C  C5  1  0.99548841  0.74517851  0.50000000  1
  C  C6  1  0.49688766  0.25009019  0.50000000  1
  C  C7  1  0.49688766  0.74990981  0.50000000  1
  C  C8  1  0.25094834  0.00000000  0.50000000  1
  C  C9  1  0.24936839  0.50000000  0.50000000  1
  C  C10  1  0.76290011  0.00000000  0.50000000  1
  C  C11  1  0.74272427  0.50000000  0.50000000  1
  C  C12  1  0.24737886  0.28138519  -0.00000000  1
  C  C13  1  0.24737886  0.71861481  0.00000000  1
  C  C14  1  0.75633218  0.25008546  -0.00000000  1
  C  C15  1  0.75633218  0.74991454  0.00000000  1
  C  C16  1  0.23840133  0.50000000  0.00000000  1
  C  C17  1  0.75014857  0.00000000  0.00000000  1
  C  C18  1  0.75694596  0.50000000  0.00000000  1
  C  C19  1  0.24493946  0.23850831  0.50000000  1
  C  C20  1  0.24493946  0.76149169  0.50000000  1
  C  C21  1  0.74561059  0.24824040  0.50000000  1
  C  C22  1  0.74561059  0.75175960  0.50000000  1
  C  C23  1  0.00351954  0.00000000  0.50000000  1
  C  C24  1  0.00108596  0.50000000  0.50000000  1
  C  C25  1  0.48776952  0.00000000  0.50000000  1
  C  C26  1  0.49165000  0.50000000  0.50000000  1
  C  C27  1  0.00324960  0.26967556  0.00000000  1
  C  C28  1  0.00324960  0.73032444  0.00000000  1
  C  C29  1  0.47901066  0.22396402  0.00000000  1
  C  C30  1  0.47901066  0.77603598  0.00000000  1
