# generated using pymatgen
data_Cu2Ni6C23
_symmetry_space_group_name_H-M   'P 1'
_cell_length_a   6.05828333
_cell_length_b   6.05828279
_cell_length_c   15.25662983
_cell_angle_alpha   87.28267110
_cell_angle_beta   92.71732902
_cell_angle_gamma   119.26125562
_symmetry_Int_Tables_number   1
_chemical_formula_structural   Cu2Ni6C23
_chemical_formula_sum   'Cu2 Ni6 C23'
_cell_volume   487.77187942
_cell_formula_units_Z   1
loop_
 _symmetry_equiv_pos_site_id
 _symmetry_equiv_pos_as_xyz
  1  'x, y, z'
loop_
 _atom_site_type_symbol
 _atom_site_label
 _atom_site_symmetry_multiplicity
 _atom_site_fract_x
 _atom_site_fract_y
 _atom_site_fract_z
 _atom_site_occupancy
  Ni  Ni0  1  0.29651772  0.70348228  0.63953666  1
  Ni  Ni1  1  0.02237863  0.97762137  0.24015695  1
  Ni  Ni2  1  0.70348228  0.29651772  0.36046334  1
  Ni  Ni3  1  0.67341757  0.32658243  0.08875119  1
  Ni  Ni4  1  0.32658243  0.67341757  0.91124881  1
  Ni  Ni5  1  0.97762137  0.02237863  0.75984305  1
  Cu  Cu6  1  0.00000000  0.00000000  0.50000000  1
  Cu  Cu7  1  0.00000000  0.00000000  0.00000000  1
  C  C8  1  0.50000000  0.50000000  0.50000000  1
  C  C9  1  0.33355826  0.66644174  0.32821926  1
  C  C10  1  0.65176045  0.34823955  0.83750905  1
  C  C11  1  0.66644174  0.33355826  0.67178074  1
  C  C12  1  0.34823955  0.65176045  0.16249095  1
  C  C13  1  0.20181895  0.79818105  0.07456068  1
  C  C14  1  0.20377562  0.33541945  0.09642268  1
  C  C15  1  0.66458055  0.79622438  0.09642268  1
  C  C16  1  0.36365295  0.19924503  0.58592430  1
  C  C17  1  0.79622438  0.66458055  0.90357732  1
  C  C18  1  0.82387064  0.17612936  0.60329747  1
  C  C19  1  0.80075497  0.63634705  0.58592430  1
  C  C20  1  0.17612936  0.82387064  0.39670253  1
  C  C21  1  0.63634705  0.80075497  0.41407570  1
  C  C22  1  0.33541945  0.20377562  0.90357732  1
  C  C23  1  0.79818105  0.20181895  0.92543932  1
  C  C24  1  0.19924503  0.36365295  0.41407570  1
  C  C25  1  0.48998721  0.97041418  0.23742083  1
  C  C26  1  0.50559047  0.49440953  0.74269110  1
  C  C27  1  0.97041418  0.48998721  0.76257917  1
  C  C28  1  0.02958582  0.51001279  0.23742083  1
  C  C29  1  0.49440953  0.50559047  0.25730890  1
  C  C30  1  0.51001279  0.02958582  0.76257917  1
