# generated using pymatgen
data_Cu3Ni3C
_symmetry_space_group_name_H-M   'P 1'
_cell_length_a   4.94758100
_cell_length_b   9.07784300
_cell_length_c   15.11329800
_cell_angle_alpha   90.00000000
_cell_angle_beta   90.00000000
_cell_angle_gamma   90.00000000
_symmetry_Int_Tables_number   1
_chemical_formula_structural   Cu3Ni3C
_chemical_formula_sum   'Cu12 Ni12 C4'
_cell_volume   678.78904748
_cell_formula_units_Z   4
loop_
 _symmetry_equiv_pos_site_id
 _symmetry_equiv_pos_as_xyz
  1  'x, y, z'
loop_
 _atom_site_type_symbol
 _atom_site_label
 _atom_site_symmetry_multiplicity
 _atom_site_fract_x
 _atom_site_fract_y
 _atom_site_fract_z
 _atom_site_occupancy
  C  C0  1  0.59121900  0.75000000  0.01075800  1
  C  C1  1  0.40878100  0.25000000  0.98924200  1
  C  C2  1  0.09121900  0.25000000  0.48924200  1
  C  C3  1  0.90878100  0.75000000  0.51075800  1
  Ni  Ni4  1  0.76167500  0.03507200  0.58423700  1
  Ni  Ni5  1  0.23832500  0.96492800  0.41576300  1
  Ni  Ni6  1  0.26167500  0.96492800  0.91576300  1
  Ni  Ni7  1  0.23832500  0.53507200  0.41576300  1
  Ni  Ni8  1  0.73832500  0.03507200  0.08423700  1
  Ni  Ni9  1  0.76167500  0.46492800  0.58423700  1
  Ni  Ni10  1  0.73832500  0.46492800  0.08423700  1
  Ni  Ni11  1  0.26167500  0.53507200  0.91576300  1
  Ni  Ni12  1  0.17561400  0.75000000  0.66774100  1
  Ni  Ni13  1  0.82438600  0.25000000  0.33225900  1
  Ni  Ni14  1  0.67561400  0.25000000  0.83225900  1
  Ni  Ni15  1  0.32438600  0.75000000  0.16774100  1
  Cu  Cu16  1  0.75367400  0.68184300  0.81444300  1
  Cu  Cu17  1  0.24632600  0.31815700  0.18555700  1
  Cu  Cu18  1  0.25367400  0.31815700  0.68555700  1
  Cu  Cu19  1  0.24632600  0.18184300  0.18555700  1
  Cu  Cu20  1  0.74632600  0.68184300  0.31444300  1
  Cu  Cu21  1  0.75367400  0.81815700  0.81444300  1
  Cu  Cu22  1  0.74632600  0.81815700  0.31444300  1
  Cu  Cu23  1  0.25367400  0.18184300  0.68555700  1
  Cu  Cu24  1  0.39521500  0.75000000  0.51363400  1
  Cu  Cu25  1  0.60478500  0.25000000  0.48636600  1
  Cu  Cu26  1  0.89521500  0.25000000  0.98636600  1
  Cu  Cu27  1  0.10478500  0.75000000  0.01363400  1
