# generated using pymatgen
data_CuNiC
_symmetry_space_group_name_H-M   'P 1'
_cell_length_a   6.83216824
_cell_length_b   6.83216824
_cell_length_c   6.13575265
_cell_angle_alpha   67.38788363
_cell_angle_beta   67.38788363
_cell_angle_gamma   84.63364029
_symmetry_Int_Tables_number   1
_chemical_formula_structural   CuNiC
_chemical_formula_sum   'Cu4 Ni4 C4'
_cell_volume   243.57118476
_cell_formula_units_Z   4
loop_
 _symmetry_equiv_pos_site_id
 _symmetry_equiv_pos_as_xyz
  1  'x, y, z'
loop_
 _atom_site_type_symbol
 _atom_site_label
 _atom_site_symmetry_multiplicity
 _atom_site_fract_x
 _atom_site_fract_y
 _atom_site_fract_z
 _atom_site_occupancy
  C  C0  1  0.58095200  0.41904800  0.75000000  1
  C  C1  1  0.41904800  0.58095200  0.25000000  1
  C  C2  1  0.00593300  0.99406700  0.75000000  1
  C  C3  1  0.99406700  0.00593300  0.25000000  1
  Ni  Ni4  1  0.28386200  0.04769400  0.35519600  1
  Ni  Ni5  1  0.95230600  0.71613800  0.14480400  1
  Ni  Ni6  1  0.71613800  0.95230600  0.64480400  1
  Ni  Ni7  1  0.04769400  0.28386200  0.85519600  1
  Cu  Cu8  1  0.74071200  0.57473800  0.30454900  1
  Cu  Cu9  1  0.42526200  0.25928800  0.19545100  1
  Cu  Cu10  1  0.25928800  0.42526200  0.69545100  1
  Cu  Cu11  1  0.57473800  0.74071200  0.80454900  1
