# generated using pymatgen
data_Cu4Ni2C3
_symmetry_space_group_name_H-M   'P 1'
_cell_length_a   8.23255810
_cell_length_b   8.23255810
_cell_length_c   6.57787093
_cell_angle_alpha   89.74331736
_cell_angle_beta   89.74331736
_cell_angle_gamma   75.74014959
_symmetry_Int_Tables_number   1
_chemical_formula_structural   Cu4Ni2C3
_chemical_formula_sum   'Cu8 Ni4 C6'
_cell_volume   432.07212528
_cell_formula_units_Z   2
loop_
 _symmetry_equiv_pos_site_id
 _symmetry_equiv_pos_as_xyz
  1  'x, y, z'
loop_
 _atom_site_type_symbol
 _atom_site_label
 _atom_site_symmetry_multiplicity
 _atom_site_fract_x
 _atom_site_fract_y
 _atom_site_fract_z
 _atom_site_occupancy
  C  C0  1  0.00839900  0.74950200  0.53944100  1
  C  C1  1  0.25049800  0.99160100  0.96055900  1
  C  C2  1  0.99160100  0.25049800  0.46055900  1
  C  C3  1  0.74950200  0.00839900  0.03944100  1
  C  C4  1  0.40130600  0.59869400  0.25000000  1
  C  C5  1  0.59869400  0.40130600  0.75000000  1
  Ni  Ni6  1  0.82828500  0.58072000  0.08149300  1
  Ni  Ni7  1  0.41928000  0.17171500  0.41850700  1
  Ni  Ni8  1  0.17171500  0.41928000  0.91850700  1
  Ni  Ni9  1  0.58072000  0.82828500  0.58149300  1
  Cu  Cu10  1  0.05995600  0.70996600  0.02552500  1
  Cu  Cu11  1  0.29003400  0.94004400  0.47447500  1
  Cu  Cu12  1  0.94004400  0.29003400  0.97447500  1
  Cu  Cu13  1  0.70996600  0.05995600  0.52552500  1
  Cu  Cu14  1  0.74124000  0.57571200  0.42760400  1
  Cu  Cu15  1  0.42428800  0.25876000  0.07239600  1
  Cu  Cu16  1  0.25876000  0.42428800  0.57239600  1
  Cu  Cu17  1  0.57571200  0.74124000  0.92760400  1
