# generated using pymatgen
data_Cu21(NiC)2
_symmetry_space_group_name_H-M   'P 1'
_cell_length_a   7.28600012
_cell_length_b   7.28600012
_cell_length_c   15.35935902
_cell_angle_alpha   83.62509714
_cell_angle_beta   83.62509714
_cell_angle_gamma   69.67440549
_symmetry_Int_Tables_number   1
_chemical_formula_structural   Cu21(NiC)2
_chemical_formula_sum   'Cu42 Ni4 C4'
_cell_volume   757.56583090
_cell_formula_units_Z   2
loop_
 _symmetry_equiv_pos_site_id
 _symmetry_equiv_pos_as_xyz
  1  'x, y, z'
loop_
 _atom_site_type_symbol
 _atom_site_label
 _atom_site_symmetry_multiplicity
 _atom_site_fract_x
 _atom_site_fract_y
 _atom_site_fract_z
 _atom_site_occupancy
  C  C0  1  0.00000000  0.50000000  0.50000000  1
  C  C1  1  0.50000000  0.00000000  0.00000000  1
  C  C2  1  0.57824500  0.42175500  0.25000000  1
  C  C3  1  0.42175500  0.57824500  0.75000000  1
  Ni  Ni4  1  0.19522400  0.27685900  0.15774100  1
  Ni  Ni5  1  0.72314100  0.80477600  0.34225900  1
  Ni  Ni6  1  0.80477600  0.72314100  0.84225900  1
  Ni  Ni7  1  0.27685900  0.19522400  0.65774100  1
  Cu  Cu8  1  0.28134600  0.15687600  0.08169100  1
  Cu  Cu9  1  0.84312400  0.71865400  0.41830900  1
  Cu  Cu10  1  0.71865400  0.84312400  0.91830900  1
  Cu  Cu11  1  0.15687600  0.28134600  0.58169100  1
  Cu  Cu12  1  0.35321100  0.26990300  0.21257700  1
  Cu  Cu13  1  0.73009700  0.64678900  0.28742300  1
  Cu  Cu14  1  0.64678900  0.73009700  0.78742300  1
  Cu  Cu15  1  0.26990300  0.35321100  0.71257700  1
  Cu  Cu16  1  0.03649300  0.22488000  0.20876300  1
  Cu  Cu17  1  0.77512000  0.96350700  0.29123700  1
  Cu  Cu18  1  0.96350700  0.77512000  0.79123700  1
  Cu  Cu19  1  0.22488000  0.03649300  0.70876300  1
  Cu  Cu20  1  0.09134900  0.48904500  0.12160800  1
  Cu  Cu21  1  0.51095500  0.90865100  0.37839200  1
  Cu  Cu22  1  0.90865100  0.51095500  0.87839200  1
  Cu  Cu23  1  0.48904500  0.09134900  0.62160800  1
  Cu  Cu24  1  0.64455300  0.45526400  0.13271700  1
  Cu  Cu25  1  0.54473600  0.35544700  0.36728300  1
  Cu  Cu26  1  0.35544700  0.54473600  0.86728300  1
  Cu  Cu27  1  0.45526400  0.64455300  0.63271700  1
  Cu  Cu28  1  0.34881200  0.65118800  0.25000000  1
  Cu  Cu29  1  0.65118800  0.34881200  0.75000000  1
  Cu  Cu30  1  0.95615800  0.01469800  0.07313500  1
  Cu  Cu31  1  0.98530200  0.04384200  0.42686500  1
  Cu  Cu32  1  0.04384200  0.98530200  0.92686500  1
  Cu  Cu33  1  0.01469800  0.95615800  0.57313500  1
  Cu  Cu34  1  0.30706400  0.70357200  0.05050900  1
  Cu  Cu35  1  0.29642800  0.69293600  0.44949100  1
  Cu  Cu36  1  0.69293600  0.29642800  0.94949100  1
  Cu  Cu37  1  0.70357200  0.30706400  0.55050900  1
  Cu  Cu38  1  0.33288600  0.03007500  0.90065400  1
  Cu  Cu39  1  0.96992500  0.66711400  0.59934600  1
  Cu  Cu40  1  0.66711400  0.96992500  0.09934600  1
  Cu  Cu41  1  0.03007500  0.33288600  0.40065400  1
  Cu  Cu42  1  0.86579800  0.89601700  0.10238200  1
  Cu  Cu43  1  0.10398300  0.13420200  0.39761800  1
  Cu  Cu44  1  0.13420200  0.10398300  0.89761800  1
  Cu  Cu45  1  0.89601700  0.86579800  0.60238200  1
  Cu  Cu46  1  0.26728100  0.56415200  0.03263900  1
  Cu  Cu47  1  0.43584800  0.73271900  0.46736100  1
  Cu  Cu48  1  0.73271900  0.43584800  0.96736100  1
  Cu  Cu49  1  0.56415200  0.26728100  0.53263900  1
