# generated using pymatgen
data_CuNiC10
_symmetry_space_group_name_H-M   'P 1'
_cell_length_a   8.38513609
_cell_length_b   8.38513609
_cell_length_c   10.34692112
_cell_angle_alpha   71.70599761
_cell_angle_beta   71.70599761
_cell_angle_gamma   102.21167169
_symmetry_Int_Tables_number   1
_chemical_formula_structural   CuNiC10
_chemical_formula_sum   'Cu4 Ni4 C40'
_cell_volume   615.80721231
_cell_formula_units_Z   4
loop_
 _symmetry_equiv_pos_site_id
 _symmetry_equiv_pos_as_xyz
  1  'x, y, z'
loop_
 _atom_site_type_symbol
 _atom_site_label
 _atom_site_symmetry_multiplicity
 _atom_site_fract_x
 _atom_site_fract_y
 _atom_site_fract_z
 _atom_site_occupancy
  C  C0  1  0.30836200  0.78781400  0.91968900  1
  C  C1  1  0.78781400  0.30836200  0.91968900  1
  C  C2  1  0.25148400  0.52282000  0.73030300  1
  C  C3  1  0.52282000  0.25148400  0.73030300  1
  C  C4  1  0.74217900  0.99276800  0.25809100  1
  C  C5  1  0.99276800  0.74217900  0.25809100  1
  C  C6  1  0.68315000  0.68315000  0.08347100  1
  C  C7  1  0.21008500  0.21008500  0.08758000  1
  C  C8  1  0.69543100  0.69543100  0.65931500  1
  C  C9  1  0.18041400  0.18041400  0.65142400  1
  C  C10  1  0.81218800  0.31068900  0.34566300  1
  C  C11  1  0.31068900  0.81218800  0.34566300  1
  Ni  Ni12  1  0.44379300  0.94433600  0.57559800  1
  Ni  Ni13  1  0.94433600  0.44379300  0.57559800  1
  Ni  Ni14  1  0.55967100  0.55967100  0.42490300  1
  Ni  Ni15  1  0.05394800  0.05394800  0.42478500  1
  Cu  Cu16  1  0.51685800  0.51685800  0.93591700  1
  Cu  Cu17  1  0.02639100  0.02639100  0.93504800  1
  Cu  Cu18  1  0.98194600  0.47289800  0.06540500  1
  Cu  Cu19  1  0.47289800  0.98194600  0.06540500  1
  C  C20  1  0.07048800  0.55325700  0.92528800  1
  C  C21  1  0.55325700  0.07048800  0.92528800  1
  C  C22  1  0.66105000  0.66105000  0.87159800  1
  C  C23  1  0.16998400  0.16998400  0.87347000  1
  C  C24  1  0.46703300  0.46703300  0.84069000  1
  C  C25  1  0.97584000  0.97584000  0.84344400  1
  C  C26  1  0.02742000  0.33847200  0.67271200  1
  C  C27  1  0.33847200  0.02742000  0.67271200  1
  C  C28  1  0.50487500  0.81706800  0.67940200  1
  C  C29  1  0.81706800  0.50487500  0.67940200  1
  C  C30  1  0.40705600  0.40705600  0.56879600  1
  C  C31  1  0.90330500  0.90330500  0.56781000  1
  C  C32  1  0.82712000  0.32243900  0.52850900  1
  C  C33  1  0.32243900  0.82712000  0.52850900  1
  C  C34  1  0.17386300  0.17386300  0.46951500  1
  C  C35  1  0.68153000  0.68153000  0.46990400  1
  C  C36  1  0.09084400  0.60180300  0.43346000  1
  C  C37  1  0.60180300  0.09084400  0.43346000  1
  C  C38  1  0.16458400  0.97739300  0.32359800  1
  C  C39  1  0.48986800  0.67996000  0.32500000  1
  C  C40  1  0.67996000  0.48986800  0.32500000  1
  C  C41  1  0.97739300  0.16458400  0.32359800  1
  C  C42  1  0.02285000  0.53053900  0.15886900  1
  C  C43  1  0.53053900  0.02285000  0.15886900  1
  C  C44  1  0.84212300  0.32533700  0.12819000  1
  C  C45  1  0.32533700  0.84212300  0.12819000  1
  C  C46  1  0.43535300  0.43535300  0.07545800  1
  C  C47  1  0.94132400  0.94132400  0.07731600  1
