# generated using pymatgen
data_Cu3NiC2
_symmetry_space_group_name_H-M   'P 1'
_cell_length_a   5.74848100
_cell_length_b   5.74666300
_cell_length_c   5.74974968
_cell_angle_alpha   89.20557135
_cell_angle_beta   90.00000000
_cell_angle_gamma   90.00000000
_symmetry_Int_Tables_number   1
_chemical_formula_structural   Cu3NiC2
_chemical_formula_sum   'Cu6 Ni2 C4'
_cell_volume   189.92232588
_cell_formula_units_Z   2
loop_
 _symmetry_equiv_pos_site_id
 _symmetry_equiv_pos_as_xyz
  1  'x, y, z'
loop_
 _atom_site_type_symbol
 _atom_site_label
 _atom_site_symmetry_multiplicity
 _atom_site_fract_x
 _atom_site_fract_y
 _atom_site_fract_z
 _atom_site_occupancy
  C  C0  1  0.50313500  0.99235800  0.24814800  1
  C  C1  1  0.00313500  0.00764200  0.75185200  1
  C  C2  1  0.99506800  0.50009800  0.24034400  1
  C  C3  1  0.49506800  0.49990200  0.75965600  1
  Ni  Ni4  1  0.38365800  0.38272200  0.36688400  1
  Ni  Ni5  1  0.88365800  0.61727800  0.63311600  1
  Cu  Cu6  1  0.61721300  0.61727000  0.13064400  1
  Cu  Cu7  1  0.11721300  0.38273000  0.86935600  1
  Cu  Cu8  1  0.88660700  0.11331100  0.36103600  1
  Cu  Cu9  1  0.38660700  0.88668900  0.63896400  1
  Cu  Cu10  1  0.11431800  0.88611700  0.13545100  1
  Cu  Cu11  1  0.61431800  0.11388300  0.86454900  1
