# generated using pymatgen
data_CuNiC10
_symmetry_space_group_name_H-M   'P 1'
_cell_length_a   10.22731869
_cell_length_b   10.22731869
_cell_length_c   6.07253500
_cell_angle_alpha   90.00000000
_cell_angle_beta   90.00000000
_cell_angle_gamma   120.00000448
_symmetry_Int_Tables_number   1
_chemical_formula_structural   CuNiC10
_chemical_formula_sum   'Cu2 Ni2 C20'
_cell_volume   550.07792533
_cell_formula_units_Z   2
loop_
 _symmetry_equiv_pos_site_id
 _symmetry_equiv_pos_as_xyz
  1  'x, y, z'
loop_
 _atom_site_type_symbol
 _atom_site_label
 _atom_site_symmetry_multiplicity
 _atom_site_fract_x
 _atom_site_fract_y
 _atom_site_fract_z
 _atom_site_occupancy
  C  C0  1  0.62595200  0.86808900  0.26273600  1
  C  C1  1  0.13191100  0.75786300  0.26273600  1
  C  C2  1  0.24213700  0.37404800  0.26273600  1
  C  C3  1  0.37404800  0.13191100  0.76273600  1
  C  C4  1  0.86808900  0.24213700  0.76273600  1
  C  C5  1  0.75786300  0.62595200  0.76273600  1
  Ni  Ni6  1  0.33333300  0.66666700  0.84244500  1
  Ni  Ni7  1  0.66666700  0.33333300  0.34244500  1
  Cu  Cu8  1  0.00000000  0.00000000  0.50233900  1
  Cu  Cu9  1  0.00000000  0.00000000  0.00233900  1
  C  C10  1  0.74749900  0.91079700  0.74194600  1
  C  C11  1  0.08920300  0.83670200  0.74194600  1
  C  C12  1  0.16329800  0.25250100  0.74194600  1
  C  C13  1  0.25250100  0.08920300  0.24194600  1
  C  C14  1  0.91079700  0.16329800  0.24194600  1
  C  C15  1  0.83670200  0.74749900  0.24194600  1
  C  C16  1  0.48387100  0.58684500  0.99601100  1
  C  C17  1  0.41315500  0.89702700  0.99601100  1
  C  C18  1  0.10297300  0.51612900  0.99601100  1
  C  C19  1  0.51612900  0.41315500  0.49601100  1
  C  C20  1  0.58684500  0.10297300  0.49601100  1
  C  C21  1  0.89702700  0.48387100  0.49601100  1
  C  C22  1  0.33333300  0.66666700  0.47302100  1
  C  C23  1  0.66666700  0.33333300  0.97302100  1
