# generated using pymatgen
data_Cu(NiC4)3
_symmetry_space_group_name_H-M   'P 1'
_cell_length_a   7.47922206
_cell_length_b   9.38459483
_cell_length_c   7.51820083
_cell_angle_alpha   104.41691400
_cell_angle_beta   67.93176058
_cell_angle_gamma   105.37141430
_symmetry_Int_Tables_number   1
_chemical_formula_structural   Cu(NiC4)3
_chemical_formula_sum   'Cu2 Ni6 C24'
_cell_volume   464.90795251
_cell_formula_units_Z   2
loop_
 _symmetry_equiv_pos_site_id
 _symmetry_equiv_pos_as_xyz
  1  'x, y, z'
loop_
 _atom_site_type_symbol
 _atom_site_label
 _atom_site_symmetry_multiplicity
 _atom_site_fract_x
 _atom_site_fract_y
 _atom_site_fract_z
 _atom_site_occupancy
  C  C0  1  0.13308700  0.25358600  0.37323900  1
  C  C1  1  0.63248700  0.75345300  0.87058600  1
  C  C2  1  0.17788100  0.49977700  0.82226800  1
  C  C3  1  0.67812700  0.99977600  0.32218600  1
  Ni  Ni4  1  0.82756300  0.24900200  0.67296900  1
  Ni  Ni5  1  0.32872100  0.74872000  0.17248000  1
  Ni  Ni6  1  0.42932900  0.22351300  0.65868400  1
  Ni  Ni7  1  0.93009900  0.72372200  0.15876200  1
  Ni  Ni8  1  0.83546600  0.27511600  0.07147000  1
  Ni  Ni9  1  0.33548300  0.77494700  0.57118100  1
  Cu  Cu10  1  0.24304300  0.01269200  0.76691700  1
  Cu  Cu11  1  0.74335100  0.51221600  0.26652900  1
  C  C12  1  0.98414400  0.62913400  0.95539300  1
  C  C13  1  0.48391500  0.12890000  0.45540200  1
  C  C14  1  0.54623500  0.86846900  0.51263300  1
  C  C15  1  0.04608300  0.36872400  0.01265300  1
  C  C16  1  0.34379400  0.64350800  0.65210900  1
  C  C17  1  0.84374900  0.14350800  0.15211800  1
  C  C18  1  0.84811600  0.85460300  0.15705500  1
  C  C19  1  0.34634900  0.35371000  0.65663700  1
  C  C20  1  0.99664300  0.38142800  0.63410100  1
  C  C21  1  0.49780000  0.88111100  0.13383100  1
  C  C22  1  0.86590000  0.12067000  0.50351300  1
  C  C23  1  0.36733300  0.62093100  0.00243800  1
  C  C24  1  0.62922600  0.30321300  0.71082400  1
  C  C25  1  0.13049300  0.80296500  0.21064500  1
  C  C26  1  0.79102900  0.19184300  0.86759400  1
  C  C27  1  0.29187700  0.69129000  0.36699900  1
  C  C28  1  0.67833600  0.36618500  0.19258300  1
  C  C29  1  0.17849300  0.86610900  0.69195400  1
  C  C30  1  0.30060900  0.12863000  0.81939100  1
  C  C31  1  0.80109600  0.62854800  0.31899900  1
