# generated using pymatgen
data_CuNi2C5
_symmetry_space_group_name_H-M   'P 1'
_cell_length_a   7.71143000
_cell_length_b   8.24648600
_cell_length_c   12.30443900
_cell_angle_alpha   90.00000000
_cell_angle_beta   90.00000000
_cell_angle_gamma   90.00000000
_symmetry_Int_Tables_number   1
_chemical_formula_structural   CuNi2C5
_chemical_formula_sum   'Cu4 Ni8 C20'
_cell_volume   782.46634005
_cell_formula_units_Z   4
loop_
 _symmetry_equiv_pos_site_id
 _symmetry_equiv_pos_as_xyz
  1  'x, y, z'
loop_
 _atom_site_type_symbol
 _atom_site_label
 _atom_site_symmetry_multiplicity
 _atom_site_fract_x
 _atom_site_fract_y
 _atom_site_fract_z
 _atom_site_occupancy
  Ni  Ni0  1  0.97648900  0.00303200  0.17878600  1
  Ni  Ni1  1  0.52351100  0.49696800  0.67878600  1
  Ni  Ni2  1  0.02351100  0.50303200  0.82121400  1
  Ni  Ni3  1  0.47648900  0.99696800  0.32121400  1
  Ni  Ni4  1  0.02351100  0.99696800  0.82121400  1
  Ni  Ni5  1  0.47648900  0.50303200  0.32121400  1
  Ni  Ni6  1  0.97648900  0.49696800  0.17878600  1
  Ni  Ni7  1  0.52351100  0.00303200  0.67878600  1
  Cu  Cu8  1  0.41914000  0.75000000  0.00651900  1
  Cu  Cu9  1  0.08086000  0.75000000  0.50651900  1
  Cu  Cu10  1  0.58086000  0.25000000  0.99348100  1
  Cu  Cu11  1  0.91914000  0.25000000  0.49348100  1
  C  C12  1  0.84020700  0.96178400  0.40789700  1
  C  C13  1  0.65979300  0.53821600  0.90789700  1
  C  C14  1  0.15979300  0.46178400  0.59210300  1
  C  C15  1  0.34020700  0.03821600  0.09210300  1
  C  C16  1  0.15979300  0.03821600  0.59210300  1
  C  C17  1  0.34020700  0.46178400  0.09210300  1
  C  C18  1  0.84020700  0.53821600  0.40789700  1
  C  C19  1  0.65979300  0.96178400  0.90789700  1
  C  C20  1  0.66791000  0.75000000  0.18066800  1
  C  C21  1  0.83209000  0.75000000  0.68066800  1
  C  C22  1  0.33209000  0.25000000  0.81933200  1
  C  C23  1  0.16791000  0.25000000  0.31933200  1
  C  C24  1  0.44855000  0.75000000  0.50348400  1
  C  C25  1  0.05145000  0.75000000  0.00348400  1
  C  C26  1  0.55145000  0.25000000  0.49651600  1
  C  C27  1  0.94855000  0.25000000  0.99651600  1
  C  C28  1  0.18984200  0.75000000  0.29261500  1
  C  C29  1  0.31015800  0.75000000  0.79261500  1
  C  C30  1  0.81015800  0.25000000  0.70738500  1
  C  C31  1  0.68984200  0.25000000  0.20738500  1
