# generated using pymatgen
data_CuNi7C16
_symmetry_space_group_name_H-M   'P 1'
_cell_length_a   17.36878600
_cell_length_b   8.18221900
_cell_length_c   12.83102502
_cell_angle_alpha   50.77726889
_cell_angle_beta   90.00000000
_cell_angle_gamma   90.00000000
_symmetry_Int_Tables_number   1
_chemical_formula_structural   CuNi7C16
_chemical_formula_sum   'Cu4 Ni28 C64'
_cell_volume   1412.64139665
_cell_formula_units_Z   4
loop_
 _symmetry_equiv_pos_site_id
 _symmetry_equiv_pos_as_xyz
  1  'x, y, z'
loop_
 _atom_site_type_symbol
 _atom_site_label
 _atom_site_symmetry_multiplicity
 _atom_site_fract_x
 _atom_site_fract_y
 _atom_site_fract_z
 _atom_site_occupancy
  C  C0  1  0.79326400  0.44391600  0.74949400  1
  C  C1  1  0.70673600  0.44391600  0.24949400  1
  C  C2  1  0.20673600  0.55608400  0.25050600  1
  C  C3  1  0.29326400  0.55608400  0.75050600  1
  Ni  Ni4  1  0.91625000  0.09311300  0.21509400  1
  Ni  Ni5  1  0.58375000  0.09311300  0.71509400  1
  Ni  Ni6  1  0.08375000  0.90688700  0.78490600  1
  Ni  Ni7  1  0.41625000  0.90688700  0.28490600  1
  Ni  Ni8  1  0.80543200  0.93024900  0.36624600  1
  Ni  Ni9  1  0.69456800  0.93024900  0.86624600  1
  Ni  Ni10  1  0.19456800  0.06975100  0.63375400  1
  Ni  Ni11  1  0.30543200  0.06975100  0.13375400  1
  Ni  Ni12  1  0.79780500  0.84594800  0.74951800  1
  Ni  Ni13  1  0.70219500  0.84594800  0.24951800  1
  Ni  Ni14  1  0.20219500  0.15405200  0.25048200  1
  Ni  Ni15  1  0.29780500  0.15405200  0.75048200  1
  Ni  Ni16  1  0.78844800  0.19139700  0.10963700  1
  Ni  Ni17  1  0.71155200  0.19139700  0.60963700  1
  Ni  Ni18  1  0.21155200  0.80860300  0.89036300  1
  Ni  Ni19  1  0.28844800  0.80860300  0.39036300  1
  Ni  Ni20  1  0.75096400  0.56852400  0.47667200  1
  Ni  Ni21  1  0.74903600  0.56852400  0.97667200  1
  Ni  Ni22  1  0.24903600  0.43147600  0.52332800  1
  Ni  Ni23  1  0.25096400  0.43147600  0.02332800  1
  Ni  Ni24  1  0.94402700  0.91544300  0.72759400  1
  Ni  Ni25  1  0.55597300  0.91544300  0.22759400  1
  Ni  Ni26  1  0.05597300  0.08455700  0.27240600  1
  Ni  Ni27  1  0.44402700  0.08455700  0.77240600  1
  Ni  Ni28  1  0.72763100  0.03895500  0.00794000  1
  Ni  Ni29  1  0.77236900  0.03895500  0.50794000  1
  Ni  Ni30  1  0.27236900  0.96104500  0.99206000  1
  Ni  Ni31  1  0.22763100  0.96104500  0.49206000  1
  Cu  Cu32  1  0.57502500  0.66731700  0.65814500  1
  Cu  Cu33  1  0.92497500  0.66731700  0.15814500  1
  Cu  Cu34  1  0.42497500  0.33268300  0.34185500  1
  Cu  Cu35  1  0.07502500  0.33268300  0.84185500  1
  C  C36  1  0.87056900  0.89649300  0.77327500  1
  C  C37  1  0.62943100  0.89649300  0.27327500  1
  C  C38  1  0.12943100  0.10350700  0.22672500  1
  C  C39  1  0.37056900  0.10350700  0.72672500  1
  C  C40  1  0.78382300  0.71350000  0.48418300  1
  C  C41  1  0.71617700  0.71350000  0.98418300  1
  C  C42  1  0.21617700  0.28650000  0.51581700  1
  C  C43  1  0.28382300  0.28650000  0.01581700  1
  C  C44  1  0.75750600  0.20460400  0.99732800  1
  C  C45  1  0.74249400  0.20460400  0.49732800  1
  C  C46  1  0.24249400  0.79539600  0.00267200  1
  C  C47  1  0.25750600  0.79539600  0.50267200  1
  C  C48  1  0.73663400  0.98569900  0.74171800  1
  C  C49  1  0.76336600  0.98569900  0.24171800  1
  C  C50  1  0.26336600  0.01430100  0.25828200  1
  C  C51  1  0.23663400  0.01430100  0.75828200  1
  C  C52  1  0.79362600  0.85468600  0.63021300  1
  C  C53  1  0.70637400  0.85468600  0.13021300  1
  C  C54  1  0.20637400  0.14531400  0.36978700  1
  C  C55  1  0.29362600  0.14531400  0.86978700  1
  C  C56  1  0.99462200  0.12276200  0.19241400  1
  C  C57  1  0.50537800  0.12276200  0.69241400  1
  C  C58  1  0.00537800  0.87723800  0.80758600  1
  C  C59  1  0.49462200  0.87723800  0.30758600  1
  C  C60  1  0.87013600  0.20915400  0.10302600  1
  C  C61  1  0.62986400  0.20915400  0.60302600  1
  C  C62  1  0.12986400  0.79084600  0.89697400  1
  C  C63  1  0.37013600  0.79084600  0.39697400  1
  C  C64  1  0.88636700  0.95326800  0.34231400  1
  C  C65  1  0.61363300  0.95326800  0.84231400  1
  C  C66  1  0.11363300  0.04673200  0.65768600  1
  C  C67  1  0.38636700  0.04673200  0.15768600  1
  C  C68  1  0.74784300  0.36815600  0.59919800  1
  C  C69  1  0.75215700  0.36815600  0.09919800  1
  C  C70  1  0.25215700  0.63184400  0.40080200  1
  C  C71  1  0.24784300  0.63184400  0.90080200  1
  C  C72  1  0.96702500  0.50881900  0.75822900  1
  C  C73  1  0.53297500  0.50881900  0.25822900  1
  C  C74  1  0.03297500  0.49118100  0.24177100  1
  C  C75  1  0.46702500  0.49118100  0.74177100  1
  C  C76  1  0.77727700  0.62099400  0.85939000  1
  C  C77  1  0.72272300  0.62099400  0.35939000  1
  C  C78  1  0.22272300  0.37900600  0.14061000  1
  C  C79  1  0.27727700  0.37900600  0.64061000  1
  C  C80  1  0.88508000  0.19903900  0.83692000  1
  C  C81  1  0.61492000  0.19903900  0.33692000  1
  C  C82  1  0.11492000  0.80096100  0.16308000  1
  C  C83  1  0.38508000  0.80096100  0.66308000  1
  C  C84  1  0.72412800  0.07989900  0.88667000  1
  C  C85  1  0.77587200  0.07989900  0.38667000  1
  C  C86  1  0.27587200  0.92010100  0.11333000  1
  C  C87  1  0.22412800  0.92010100  0.61333000  1
  C  C88  1  0.93519500  0.52672900  0.65908800  1
  C  C89  1  0.56480500  0.52672900  0.15908800  1
  C  C90  1  0.06480500  0.47327100  0.34091200  1
  C  C91  1  0.43519500  0.47327100  0.84091200  1
  C  C92  1  0.95343300  0.96522500  0.60526900  1
  C  C93  1  0.54656700  0.96522500  0.10526900  1
  C  C94  1  0.04656700  0.03477500  0.39473100  1
  C  C95  1  0.45343300  0.03477500  0.89473100  1
