# generated using pymatgen
data_Cu6NiC
_symmetry_space_group_name_H-M   'P 1'
_cell_length_a   6.97301728
_cell_length_b   6.97301728
_cell_length_c   12.47431824
_cell_angle_alpha   79.25377589
_cell_angle_beta   79.25377589
_cell_angle_gamma   55.20162707
_symmetry_Int_Tables_number   1
_chemical_formula_structural   Cu6NiC
_chemical_formula_sum   'Cu12 Ni2 C2'
_cell_volume   486.91887362
_cell_formula_units_Z   2
loop_
 _symmetry_equiv_pos_site_id
 _symmetry_equiv_pos_as_xyz
  1  'x, y, z'
loop_
 _atom_site_type_symbol
 _atom_site_label
 _atom_site_symmetry_multiplicity
 _atom_site_fract_x
 _atom_site_fract_y
 _atom_site_fract_z
 _atom_site_occupancy
  C  C0  1  0.50000000  0.00000000  0.50000000  1
  C  C1  1  0.00000000  0.50000000  0.00000000  1
  Ni  Ni2  1  0.88079000  0.11921000  0.75000000  1
  Ni  Ni3  1  0.11921000  0.88079000  0.25000000  1
  Cu  Cu4  1  0.46415100  0.70023000  0.60281000  1
  Cu  Cu5  1  0.53584900  0.29977000  0.39719000  1
  Cu  Cu6  1  0.29977000  0.53584900  0.89719000  1
  Cu  Cu7  1  0.70023000  0.46415100  0.10281000  1
  Cu  Cu8  1  0.37074300  0.20012300  0.65813000  1
  Cu  Cu9  1  0.62925700  0.79987700  0.34187000  1
  Cu  Cu10  1  0.79987700  0.62925700  0.84187000  1
  Cu  Cu11  1  0.20012300  0.37074300  0.15813000  1
  Cu  Cu12  1  0.79554000  0.89223100  0.04047300  1
  Cu  Cu13  1  0.20446000  0.10776900  0.95952700  1
  Cu  Cu14  1  0.10776900  0.20446000  0.45952700  1
  Cu  Cu15  1  0.89223100  0.79554000  0.54047300  1
