# generated using pymatgen
data_Cu17(NiC2)2
_symmetry_space_group_name_H-M   'P 1'
_cell_length_a   8.46228300
_cell_length_b   9.70614600
_cell_length_c   12.03806200
_cell_angle_alpha   90.00000000
_cell_angle_beta   90.00000000
_cell_angle_gamma   90.00000000
_symmetry_Int_Tables_number   1
_chemical_formula_structural   Cu17(NiC2)2
_chemical_formula_sum   'Cu68 Ni8 C16'
_cell_volume   988.76011780
_cell_formula_units_Z   4
loop_
 _symmetry_equiv_pos_site_id
 _symmetry_equiv_pos_as_xyz
  1  'x, y, z'
loop_
 _atom_site_type_symbol
 _atom_site_label
 _atom_site_symmetry_multiplicity
 _atom_site_fract_x
 _atom_site_fract_y
 _atom_site_fract_z
 _atom_site_occupancy
  C  C0  1  0.25000000  0.96602600  0.30842300  1
  C  C1  1  0.25000000  0.53397400  0.80842300  1
  C  C2  1  0.75000000  0.03397400  0.69157700  1
  C  C3  1  0.75000000  0.46602600  0.19157700  1
  Ni  Ni4  1  0.25000000  0.31145600  0.90998400  1
  Ni  Ni5  1  0.25000000  0.18854400  0.40998400  1
  Ni  Ni6  1  0.75000000  0.68854400  0.09001600  1
  Ni  Ni7  1  0.75000000  0.81145600  0.59001600  1
  Ni  Ni8  1  0.75000000  0.20548000  0.13985000  1
  Ni  Ni9  1  0.75000000  0.29452000  0.63985000  1
  Ni  Ni10  1  0.25000000  0.79452000  0.86015000  1
  Ni  Ni11  1  0.25000000  0.70548000  0.36015000  1
  Cu  Cu12  1  0.25000000  0.59988100  0.58084900  1
  Cu  Cu13  1  0.25000000  0.90011900  0.08084900  1
  Cu  Cu14  1  0.75000000  0.40011900  0.41915100  1
  Cu  Cu15  1  0.75000000  0.09988100  0.91915100  1
  Cu  Cu16  1  0.15477700  0.45541300  0.59083200  1
  Cu  Cu17  1  0.34522300  0.04458700  0.09083200  1
  Cu  Cu18  1  0.65477700  0.54458700  0.40916800  1
  Cu  Cu19  1  0.84522300  0.95541300  0.90916800  1
  Cu  Cu20  1  0.84522300  0.54458700  0.40916800  1
  Cu  Cu21  1  0.65477700  0.95541300  0.90916800  1
  Cu  Cu22  1  0.34522300  0.45541300  0.59083200  1
  Cu  Cu23  1  0.15477700  0.04458700  0.09083200  1
  Cu  Cu24  1  0.06253600  0.97828600  0.63638700  1
  Cu  Cu25  1  0.43746400  0.52171400  0.13638700  1
  Cu  Cu26  1  0.56253600  0.02171400  0.36361300  1
  Cu  Cu27  1  0.93746400  0.47828600  0.86361300  1
  Cu  Cu28  1  0.93746400  0.02171400  0.36361300  1
  Cu  Cu29  1  0.56253600  0.47828600  0.86361300  1
  Cu  Cu30  1  0.43746400  0.97828600  0.63638700  1
  Cu  Cu31  1  0.06253600  0.52171400  0.13638700  1
  Cu  Cu32  1  0.05141300  0.14348600  0.66736700  1
  Cu  Cu33  1  0.44858700  0.35651400  0.16736700  1
  Cu  Cu34  1  0.55141300  0.85651400  0.33263300  1
  Cu  Cu35  1  0.94858700  0.64348600  0.83263300  1
  Cu  Cu36  1  0.94858700  0.85651400  0.33263300  1
  Cu  Cu37  1  0.55141300  0.64348600  0.83263300  1
  Cu  Cu38  1  0.44858700  0.14348600  0.66736700  1
  Cu  Cu39  1  0.05141300  0.35651400  0.16736700  1
  Cu  Cu40  1  0.06629400  0.02686600  0.76628100  1
  Cu  Cu41  1  0.43370600  0.47313400  0.26628100  1
  Cu  Cu42  1  0.56629400  0.97313400  0.23371900  1
  Cu  Cu43  1  0.93370600  0.52686600  0.73371900  1
  Cu  Cu44  1  0.93370600  0.97313400  0.23371900  1
  Cu  Cu45  1  0.56629400  0.52686600  0.73371900  1
  Cu  Cu46  1  0.43370600  0.02686600  0.76628100  1
  Cu  Cu47  1  0.06629400  0.47313400  0.26628100  1
  Cu  Cu48  1  0.25000000  0.42712600  0.95621900  1
  Cu  Cu49  1  0.25000000  0.07287400  0.45621900  1
  Cu  Cu50  1  0.75000000  0.57287400  0.04378100  1
  Cu  Cu51  1  0.75000000  0.92712600  0.54378100  1
  Cu  Cu52  1  0.25000000  0.32558800  0.80674700  1
  Cu  Cu53  1  0.25000000  0.17441200  0.30674700  1
  Cu  Cu54  1  0.75000000  0.67441200  0.19325300  1
  Cu  Cu55  1  0.75000000  0.82558800  0.69325300  1
  Cu  Cu56  1  0.12890400  0.25106500  0.93602800  1
  Cu  Cu57  1  0.37109600  0.24893500  0.43602800  1
  Cu  Cu58  1  0.62890400  0.74893500  0.06397200  1
  Cu  Cu59  1  0.87109600  0.75106500  0.56397200  1
  Cu  Cu60  1  0.87109600  0.74893500  0.06397200  1
  Cu  Cu61  1  0.62890400  0.75106500  0.56397200  1
  Cu  Cu62  1  0.37109600  0.25106500  0.93602800  1
  Cu  Cu63  1  0.12890400  0.24893500  0.43602800  1
  Cu  Cu64  1  0.63037400  0.19695600  0.19654000  1
  Cu  Cu65  1  0.86962600  0.30304400  0.69654000  1
  Cu  Cu66  1  0.13037400  0.80304400  0.80346000  1
  Cu  Cu67  1  0.36962600  0.69695600  0.30346000  1
  Cu  Cu68  1  0.36962600  0.80304400  0.80346000  1
  Cu  Cu69  1  0.13037400  0.69695600  0.30346000  1
  Cu  Cu70  1  0.86962600  0.19695600  0.19654000  1
  Cu  Cu71  1  0.63037400  0.30304400  0.69654000  1
  Cu  Cu72  1  0.75000000  0.31490100  0.08405100  1
  Cu  Cu73  1  0.75000000  0.18509900  0.58405100  1
  Cu  Cu74  1  0.25000000  0.68509900  0.91594900  1
  Cu  Cu75  1  0.25000000  0.81490100  0.41594900  1
  Cu  Cu76  1  0.75000000  0.11560600  0.06964700  1
  Cu  Cu77  1  0.75000000  0.38439400  0.56964700  1
  Cu  Cu78  1  0.25000000  0.88439400  0.93035300  1
  Cu  Cu79  1  0.25000000  0.61560600  0.43035300  1
  C  C80  1  0.25000000  0.50715300  0.62269100  1
  C  C81  1  0.25000000  0.99284700  0.12269100  1
  C  C82  1  0.75000000  0.49284700  0.37730900  1
  C  C83  1  0.75000000  0.00715300  0.87730900  1
  C  C84  1  0.01540800  0.04756600  0.69099100  1
  C  C85  1  0.48459200  0.45243400  0.19099100  1
  C  C86  1  0.51540800  0.95243400  0.30900900  1
  C  C87  1  0.98459200  0.54756600  0.80900900  1
  C  C88  1  0.98459200  0.95243400  0.30900900  1
  C  C89  1  0.51540800  0.54756600  0.80900900  1
  C  C90  1  0.48459200  0.04756600  0.69099100  1
  C  C91  1  0.01540800  0.45243400  0.19099100  1
