# generated using pymatgen
data_CuNi3C2
_symmetry_space_group_name_H-M   'P 1'
_cell_length_a   3.28692651
_cell_length_b   3.28692651
_cell_length_c   37.38653000
_cell_angle_alpha   90.00000000
_cell_angle_beta   90.00000000
_cell_angle_gamma   120.00001017
_symmetry_Int_Tables_number   1
_chemical_formula_structural   CuNi3C2
_chemical_formula_sum   'Cu2 Ni6 C4'
_cell_volume   349.80477422
_cell_formula_units_Z   2
loop_
 _symmetry_equiv_pos_site_id
 _symmetry_equiv_pos_as_xyz
  1  'x, y, z'
loop_
 _atom_site_type_symbol
 _atom_site_label
 _atom_site_symmetry_multiplicity
 _atom_site_fract_x
 _atom_site_fract_y
 _atom_site_fract_z
 _atom_site_occupancy
  C  C0  1  0.00000000  0.00000000  0.09392700  1
  C  C1  1  0.00000000  0.00000000  0.46965000  1
  C  C2  1  0.33333300  0.66666700  0.28180000  1
  C  C3  1  0.33333300  0.66666700  0.65754200  1
  Ni  Ni4  1  0.00000000  0.00000000  0.70292200  1
  Ni  Ni5  1  0.33333300  0.66666700  0.04882300  1
  Ni  Ni6  1  0.33333300  0.66666700  0.42427700  1
  Ni  Ni7  1  0.33333300  0.66666700  0.13903200  1
  Ni  Ni8  1  0.33333300  0.66666700  0.51502700  1
  Ni  Ni9  1  0.00000000  0.00000000  0.61215100  1
  Cu  Cu10  1  0.00000000  0.00000000  0.32302900  1
  Cu  Cu11  1  0.00000000  0.00000000  0.24057000  1
