# generated using pymatgen
data_CuNiC13
_symmetry_space_group_name_H-M   'P 1'
_cell_length_a   5.94502416
_cell_length_b   5.94502416
_cell_length_c   14.66923600
_cell_angle_alpha   90.00000000
_cell_angle_beta   90.00000000
_cell_angle_gamma   120.00000183
_symmetry_Int_Tables_number   1
_chemical_formula_structural   CuNiC13
_chemical_formula_sum   'Cu2 Ni2 C26'
_cell_volume   448.99899376
_cell_formula_units_Z   2
loop_
 _symmetry_equiv_pos_site_id
 _symmetry_equiv_pos_as_xyz
  1  'x, y, z'
loop_
 _atom_site_type_symbol
 _atom_site_label
 _atom_site_symmetry_multiplicity
 _atom_site_fract_x
 _atom_site_fract_y
 _atom_site_fract_z
 _atom_site_occupancy
  C  C0  1  0.00000000  0.00000000  0.75006800  1
  C  C1  1  0.00000000  0.00000000  0.25006800  1
  C  C2  1  0.66666700  0.33333300  0.40718800  1
  C  C3  1  0.33333300  0.66666700  0.59459200  1
  C  C4  1  0.33333300  0.66666700  0.90718800  1
  C  C5  1  0.66666700  0.33333300  0.09459200  1
  C  C6  1  0.00000000  0.00000000  0.50123800  1
  C  C7  1  0.00000000  0.00000000  0.00123800  1
  Ni  Ni8  1  0.66666700  0.33333300  0.66448500  1
  Ni  Ni9  1  0.33333300  0.66666700  0.16448500  1
  Cu  Cu10  1  0.33333300  0.66666700  0.33688900  1
  Cu  Cu11  1  0.66666700  0.33333300  0.83688900  1
  C  C12  1  0.82428600  0.64857200  0.91181100  1
  C  C13  1  0.82428600  0.17571400  0.91181100  1
  C  C14  1  0.35142800  0.17571400  0.91181100  1
  C  C15  1  0.17543800  0.35087600  0.08587000  1
  C  C16  1  0.17543800  0.82456200  0.08587000  1
  C  C17  1  0.64912400  0.82456200  0.08587000  1
  C  C18  1  0.17571400  0.35142800  0.41181100  1
  C  C19  1  0.17571400  0.82428600  0.41181100  1
  C  C20  1  0.64857200  0.82428600  0.41181100  1
  C  C21  1  0.82456200  0.64912400  0.58587000  1
  C  C22  1  0.82456200  0.17543800  0.58587000  1
  C  C23  1  0.35087600  0.17543800  0.58587000  1
  C  C24  1  0.51014400  0.02028800  0.75084100  1
  C  C25  1  0.51014400  0.48985600  0.75084100  1
  C  C26  1  0.97971200  0.48985600  0.75084100  1
  C  C27  1  0.48985600  0.97971200  0.25084100  1
  C  C28  1  0.48985600  0.51014400  0.25084100  1
  C  C29  1  0.02028800  0.51014400  0.25084100  1
