# generated using pymatgen
data_Cu16(Ni4C21)3
_symmetry_space_group_name_H-M   'P 1'
_cell_length_a   14.70317511
_cell_length_b   14.70317511
_cell_length_c   14.70317511
_cell_angle_alpha   109.47122063
_cell_angle_beta   109.47122063
_cell_angle_gamma   109.47122063
_symmetry_Int_Tables_number   1
_chemical_formula_structural   Cu16(Ni4C21)3
_chemical_formula_sum   'Cu32 Ni24 C126'
_cell_volume   2446.87339184
_cell_formula_units_Z   2
loop_
 _symmetry_equiv_pos_site_id
 _symmetry_equiv_pos_as_xyz
  1  'x, y, z'
loop_
 _atom_site_type_symbol
 _atom_site_label
 _atom_site_symmetry_multiplicity
 _atom_site_fract_x
 _atom_site_fract_y
 _atom_site_fract_z
 _atom_site_occupancy
  C  C0  1  0.00322889  0.75000000  0.25322889  1
  C  C1  1  0.49677111  0.25000000  0.24677111  1
  C  C2  1  0.75322889  0.25000000  0.50322889  1
  C  C3  1  0.74677111  0.75000000  0.99677111  1
  C  C4  1  0.75000000  0.25322889  0.00322889  1
  C  C5  1  0.25000000  0.24677111  0.49677111  1
  C  C6  1  0.25000000  0.50322889  0.75322889  1
  C  C7  1  0.75000000  0.99677111  0.74677111  1
  C  C8  1  0.25322889  0.00322889  0.75000000  1
  C  C9  1  0.24677111  0.49677111  0.25000000  1
  C  C10  1  0.50322889  0.75322889  0.25000000  1
  C  C11  1  0.99677111  0.74677111  0.75000000  1
  C  C12  1  0.37500000  0.75000000  0.62500000  1
  C  C13  1  0.12500000  0.25000000  0.87500000  1
  C  C14  1  0.75000000  0.62500000  0.37500000  1
  C  C15  1  0.25000000  0.87500000  0.12500000  1
  C  C16  1  0.62500000  0.37500000  0.75000000  1
  C  C17  1  0.87500000  0.12500000  0.25000000  1
  Ni  Ni18  1  0.29376408  0.02981335  0.33276959  1
  Ni  Ni19  1  0.80295624  0.47018665  0.26395073  1
  Ni  Ni20  1  0.69704376  0.46099449  0.16723041  1
  Ni  Ni21  1  0.20623592  0.03900551  0.23604927  1
  Ni  Ni22  1  0.83276959  0.52981335  0.79376408  1
  Ni  Ni23  1  0.76395073  0.97018665  0.30295624  1
  Ni  Ni24  1  0.66723041  0.96099449  0.19704376  1
  Ni  Ni25  1  0.73604927  0.53900551  0.70623592  1
  Ni  Ni26  1  0.02981335  0.33276959  0.29376408  1
  Ni  Ni27  1  0.47018665  0.26395073  0.80295624  1
  Ni  Ni28  1  0.46099449  0.16723041  0.69704376  1
  Ni  Ni29  1  0.03900551  0.23604927  0.20623592  1
  Ni  Ni30  1  0.52981335  0.79376408  0.83276959  1
  Ni  Ni31  1  0.97018665  0.30295624  0.76395073  1
  Ni  Ni32  1  0.96099449  0.19704376  0.66723041  1
  Ni  Ni33  1  0.53900551  0.70623592  0.73604927  1
  Ni  Ni34  1  0.33276959  0.29376408  0.02981335  1
  Ni  Ni35  1  0.26395073  0.80295624  0.47018665  1
  Ni  Ni36  1  0.16723041  0.69704376  0.46099449  1
  Ni  Ni37  1  0.23604927  0.20623592  0.03900551  1
  Ni  Ni38  1  0.79376408  0.83276959  0.52981335  1
  Ni  Ni39  1  0.30295624  0.76395073  0.97018665  1
  Ni  Ni40  1  0.19704376  0.66723041  0.96099449  1
  Ni  Ni41  1  0.70623592  0.73604927  0.53900551  1
  Cu  Cu42  1  0.50072825  0.31636873  0.49976778  1
  Cu  Cu43  1  0.68339904  0.18363127  0.18435952  1
  Cu  Cu44  1  0.81660096  0.50096048  0.00023222  1
  Cu  Cu45  1  0.99927175  0.99903952  0.31564048  1
  Cu  Cu46  1  0.99976778  0.81636873  0.00072825  1
  Cu  Cu47  1  0.68435952  0.68363127  0.18339904  1
  Cu  Cu48  1  0.50023222  0.00096048  0.31660096  1
  Cu  Cu49  1  0.81564048  0.49903952  0.49927175  1
  Cu  Cu50  1  0.31636873  0.49976778  0.50072825  1
  Cu  Cu51  1  0.18363127  0.18435952  0.68339904  1
  Cu  Cu52  1  0.50096048  0.00023222  0.81660096  1
  Cu  Cu53  1  0.99903952  0.31564048  0.99927175  1
  Cu  Cu54  1  0.81636873  0.00072825  0.99976778  1
  Cu  Cu55  1  0.68363127  0.18339904  0.68435952  1
  Cu  Cu56  1  0.00096048  0.31660096  0.50023222  1
  Cu  Cu57  1  0.49903952  0.49927175  0.81564048  1
  Cu  Cu58  1  0.49976778  0.50072825  0.31636873  1
  Cu  Cu59  1  0.18435952  0.68339904  0.18363127  1
  Cu  Cu60  1  0.00023222  0.81660096  0.50096048  1
  Cu  Cu61  1  0.31564048  0.99927175  0.99903952  1
  Cu  Cu62  1  0.00072825  0.99976778  0.81636873  1
  Cu  Cu63  1  0.18339904  0.68435952  0.68363127  1
  Cu  Cu64  1  0.31660096  0.50023222  0.00096048  1
  Cu  Cu65  1  0.49927175  0.81564048  0.49903952  1
  Cu  Cu66  1  0.33506363  -0.00000000  0.50000000  1
  Cu  Cu67  1  -0.00000000  0.50000000  0.33506363  1
  Cu  Cu68  1  0.50000000  0.33506363  -0.00000000  1
  Cu  Cu69  1  0.16493637  0.16493637  0.16493637  1
  Cu  Cu70  1  0.00000000  0.50000000  0.83506363  1
  Cu  Cu71  1  0.83506363  0.00000000  0.50000000  1
  Cu  Cu72  1  0.50000000  0.83506363  0.00000000  1
  Cu  Cu73  1  0.66493637  0.66493637  0.66493637  1
  C  C74  1  0.41138998  0.27137368  0.41170845  1
  C  C75  1  0.64033477  0.22862632  0.14001630  1
  C  C76  1  0.85966523  0.49968152  0.08829155  1
  C  C77  1  0.08861002  0.00031848  0.35998370  1
  C  C78  1  0.91170845  0.77137368  0.91138998  1
  C  C79  1  0.64001630  0.72862632  0.14033477  1
  C  C80  1  0.58829155  0.99968152  0.35966523  1
  C  C81  1  0.85998370  0.50031848  0.58861002  1
  C  C82  1  0.27137368  0.41170845  0.41138998  1
  C  C83  1  0.22862632  0.14001630  0.64033477  1
  C  C84  1  0.49968152  0.08829155  0.85966523  1
  C  C85  1  0.00031848  0.35998370  0.08861002  1
  C  C86  1  0.77137368  0.91138998  0.91170845  1
  C  C87  1  0.72862632  0.14033477  0.64001630  1
  C  C88  1  0.99968152  0.35966523  0.58829155  1
  C  C89  1  0.50031848  0.58861002  0.85998370  1
  C  C90  1  0.41170845  0.41138998  0.27137368  1
  C  C91  1  0.14001630  0.64033477  0.22862632  1
  C  C92  1  0.08829155  0.85966523  0.49968152  1
  C  C93  1  0.35998370  0.08861002  0.00031848  1
  C  C94  1  0.91138998  0.91170845  0.77137368  1
  C  C95  1  0.14033477  0.64001630  0.72862632  1
  C  C96  1  0.35966523  0.58829155  0.99968152  1
  C  C97  1  0.58861002  0.85998370  0.50031848  1
  C  C98  1  0.15617739  0.75313047  0.16190978  1
  C  C99  1  0.90877931  0.74686953  0.40304692  1
  C  C100  1  0.59122069  0.49426761  0.33809022  1
  C  C101  1  0.34382261  0.00573239  0.09695308  1
  C  C102  1  0.66190978  0.25313047  0.65617739  1
  C  C103  1  0.90304692  0.24686953  0.40877931  1
  C  C104  1  0.83809022  0.99426761  0.09122069  1
  C  C105  1  0.59695308  0.50573239  0.84382261  1
  C  C106  1  0.75313047  0.16190978  0.15617739  1
  C  C107  1  0.74686953  0.40304692  0.90877931  1
  C  C108  1  0.49426761  0.33809022  0.59122069  1
  C  C109  1  0.00573239  0.09695308  0.34382261  1
  C  C110  1  0.25313047  0.65617739  0.66190978  1
  C  C111  1  0.24686953  0.40877931  0.90304692  1
  C  C112  1  0.99426761  0.09122069  0.83809022  1
  C  C113  1  0.50573239  0.84382261  0.59695308  1
  C  C114  1  0.16190978  0.15617739  0.75313047  1
  C  C115  1  0.40304692  0.90877931  0.74686953  1
  C  C116  1  0.33809022  0.59122069  0.49426761  1
  C  C117  1  0.09695308  0.34382261  0.00573239  1
  C  C118  1  0.65617739  0.66190978  0.25313047  1
  C  C119  1  0.40877931  0.90304692  0.24686953  1
  C  C120  1  0.09122069  0.83809022  0.99426761  1
  C  C121  1  0.84382261  0.59695308  0.50573239  1
  C  C122  1  0.49572712  0.08816899  0.33778524  1
  C  C123  1  0.74961625  0.41183101  0.40755813  1
  C  C124  1  0.75038375  0.65794188  0.16221476  1
  C  C125  1  0.00427288  0.84205812  0.09244187  1
  C  C126  1  0.83778524  0.58816899  0.99572712  1
  C  C127  1  0.90755813  0.91183101  0.24961625  1
  C  C128  1  0.66221476  0.15794188  0.25038375  1
  C  C129  1  0.59244187  0.34205812  0.50427288  1
  C  C130  1  0.08816899  0.33778524  0.49572712  1
  C  C131  1  0.41183101  0.40755813  0.74961625  1
  C  C132  1  0.65794188  0.16221476  0.75038375  1
  C  C133  1  0.84205812  0.09244187  0.00427288  1
  C  C134  1  0.58816899  0.99572712  0.83778524  1
  C  C135  1  0.91183101  0.24961625  0.90755813  1
  C  C136  1  0.15794188  0.25038375  0.66221476  1
  C  C137  1  0.34205812  0.50427288  0.59244187  1
  C  C138  1  0.33778524  0.49572712  0.08816899  1
  C  C139  1  0.40755813  0.74961625  0.41183101  1
  C  C140  1  0.16221476  0.75038375  0.65794188  1
  C  C141  1  0.09244187  0.00427288  0.84205812  1
  C  C142  1  0.99572712  0.83778524  0.58816899  1
  C  C143  1  0.24961625  0.90755813  0.91183101  1
  C  C144  1  0.25038375  0.66221476  0.15794188  1
  C  C145  1  0.50427288  0.59244187  0.34205812  1
  C  C146  1  0.35215350  0.07558222  0.47378487  1
  C  C147  1  0.89820264  0.42441778  0.27657128  1
  C  C148  1  0.60179736  0.37836864  0.02621513  1
  C  C149  1  0.14784650  0.12163136  0.22342872  1
  C  C150  1  0.97378487  0.57558222  0.85215350  1
  C  C151  1  0.77657128  0.92441778  0.39820264  1
  C  C152  1  0.52621513  0.87836864  0.10179736  1
  C  C153  1  0.72342872  0.62163136  0.64784650  1
  C  C154  1  0.07558222  0.47378487  0.35215350  1
  C  C155  1  0.42441778  0.27657128  0.89820264  1
  C  C156  1  0.37836864  0.02621513  0.60179736  1
  C  C157  1  0.12163136  0.22342872  0.14784650  1
  C  C158  1  0.57558222  0.85215350  0.97378487  1
  C  C159  1  0.92441778  0.39820264  0.77657128  1
  C  C160  1  0.87836864  0.10179736  0.52621513  1
  C  C161  1  0.62163136  0.64784650  0.72342872  1
  C  C162  1  0.47378487  0.35215350  0.07558222  1
  C  C163  1  0.27657128  0.89820264  0.42441778  1
  C  C164  1  0.02621513  0.60179736  0.37836864  1
  C  C165  1  0.22342872  0.14784650  0.12163136  1
  C  C166  1  0.85215350  0.97378487  0.57558222  1
  C  C167  1  0.39820264  0.77657128  0.92441778  1
  C  C168  1  0.10179736  0.52621513  0.87836864  1
  C  C169  1  0.64784650  0.72342872  0.62163136  1
  C  C170  1  0.24894352  0.75000000  0.49894352  1
  C  C171  1  0.25105648  0.25000000  0.00105648  1
  C  C172  1  0.99894352  0.25000000  0.74894352  1
  C  C173  1  0.50105648  0.75000000  0.75105648  1
  C  C174  1  0.75000000  0.49894352  0.24894352  1
  C  C175  1  0.25000000  0.00105648  0.25105648  1
  C  C176  1  0.25000000  0.74894352  0.99894352  1
  C  C177  1  0.75000000  0.75105648  0.50105648  1
  C  C178  1  0.49894352  0.24894352  0.75000000  1
  C  C179  1  0.00105648  0.25105648  0.25000000  1
  C  C180  1  0.74894352  0.99894352  0.25000000  1
  C  C181  1  0.75105648  0.50105648  0.75000000  1
