# generated using pymatgen
data_CuNiC8
_symmetry_space_group_name_H-M   'P 1'
_cell_length_a   5.58104300
_cell_length_b   5.34993000
_cell_length_c   9.27197990
_cell_angle_alpha   55.50744720
_cell_angle_beta   90.00000000
_cell_angle_gamma   90.00000000
_symmetry_Int_Tables_number   1
_chemical_formula_structural   CuNiC8
_chemical_formula_sum   'Cu2 Ni2 C16'
_cell_volume   228.17520832
_cell_formula_units_Z   2
loop_
 _symmetry_equiv_pos_site_id
 _symmetry_equiv_pos_as_xyz
  1  'x, y, z'
loop_
 _atom_site_type_symbol
 _atom_site_label
 _atom_site_symmetry_multiplicity
 _atom_site_fract_x
 _atom_site_fract_y
 _atom_site_fract_z
 _atom_site_occupancy
  Ni  Ni0  1  0.69684100  0.26537100  0.24845700  1
  Ni  Ni1  1  0.30315900  0.26537100  0.74845700  1
  Cu  Cu2  1  0.18372400  0.72726300  0.25113500  1
  Cu  Cu3  1  0.81627600  0.72726300  0.75113500  1
  C  C4  1  0.74650400  0.00148000  0.00005700  1
  C  C5  1  0.74622500  0.49916600  0.50010300  1
  C  C6  1  0.25349600  0.00148000  0.50005700  1
  C  C7  1  0.25377500  0.49916600  0.00010300  1
  C  C8  1  0.72009800  0.12723600  0.76133800  1
  C  C9  1  0.44622900  0.75519300  0.05561200  1
  C  C10  1  0.44305500  0.35850700  0.44700700  1
  C  C11  1  0.95922400  0.65761100  0.04969700  1
  C  C12  1  0.96091800  0.25830700  0.44771100  1
  C  C13  1  0.21571000  0.84987600  0.73887500  1
  C  C14  1  0.27990200  0.12723600  0.26133800  1
  C  C15  1  0.55377100  0.75519300  0.55561200  1
  C  C16  1  0.55694500  0.35850700  0.94700700  1
  C  C17  1  0.03908200  0.25830700  0.94771100  1
  C  C18  1  0.04077600  0.65761100  0.54969700  1
  C  C19  1  0.78429000  0.84987600  0.23887500  1
