# generated using pymatgen
data_Cu2NiC33
_symmetry_space_group_name_H-M   'P 1'
_cell_length_a   8.51507515
_cell_length_b   8.51507515
_cell_length_c   8.51507518
_cell_angle_alpha   61.17009290
_cell_angle_beta   61.17009290
_cell_angle_gamma   61.17009443
_symmetry_Int_Tables_number   1
_chemical_formula_structural   Cu2NiC33
_chemical_formula_sum   'Cu2 Ni1 C33'
_cell_volume   448.05947324
_cell_formula_units_Z   1
loop_
 _symmetry_equiv_pos_site_id
 _symmetry_equiv_pos_as_xyz
  1  'x, y, z'
loop_
 _atom_site_type_symbol
 _atom_site_label
 _atom_site_symmetry_multiplicity
 _atom_site_fract_x
 _atom_site_fract_y
 _atom_site_fract_z
 _atom_site_occupancy
  C  C0  1  0.14331500  0.14331500  0.14331500  1
  C  C1  1  0.35429600  0.35429600  0.35429600  1
  C  C2  1  0.64612800  0.64612800  0.64612800  1
  Ni  Ni3  1  0.85569500  0.85569500  0.85569500  1
  Cu  Cu4  1  0.99785100  0.99785100  0.99785100  1
  Cu  Cu5  1  0.49861600  0.49861600  0.49861600  1
  C  C6  1  0.54280300  0.25507900  0.95312000  1
  C  C7  1  0.95312000  0.54280400  0.25507900  1
  C  C8  1  0.25507900  0.95312000  0.54280300  1
  C  C9  1  0.75309700  0.05018200  0.44965700  1
  C  C10  1  0.05018200  0.44965700  0.75309700  1
  C  C11  1  0.44965700  0.75309700  0.05018200  1
  C  C12  1  0.33765600  0.10925800  0.47916100  1
  C  C13  1  0.47916100  0.33765600  0.10925800  1
  C  C14  1  0.90933300  0.05973800  0.25005200  1
  C  C15  1  0.10925800  0.47916100  0.33765600  1
  C  C16  1  0.81970600  0.02262600  0.59662200  1
  C  C17  1  0.58911900  0.24563600  0.42677600  1
  C  C18  1  0.05973800  0.25005200  0.90933300  1
  C  C19  1  0.24563600  0.42677600  0.58911900  1
  C  C20  1  0.38022200  0.18580100  0.00186000  1
  C  C21  1  0.42677600  0.58911900  0.24563600  1
  C  C22  1  0.73608400  0.10336800  0.95131700  1
  C  C23  1  0.00186000  0.38022200  0.18580100  1
  C  C24  1  0.02262600  0.59662200  0.81970600  1
  C  C25  1  0.25005200  0.90933300  0.05973800  1
  C  C26  1  0.55105700  0.41526600  0.75673500  1
  C  C27  1  0.59662200  0.81970600  0.02262600  1
  C  C28  1  0.75673500  0.55105700  0.41526600  1
  C  C29  1  0.95131700  0.73608400  0.10336800  1
  C  C30  1  0.41526600  0.75673500  0.55105700  1
  C  C31  1  0.18580100  0.00186000  0.38022200  1
  C  C32  1  0.88138400  0.50344600  0.68793600  1
  C  C33  1  0.10336800  0.95131700  0.73608400  1
  C  C34  1  0.50344600  0.68793600  0.88138400  1
  C  C35  1  0.68793600  0.88138400  0.50344600  1
