# generated using pymatgen
data_Cu11Ni50
_symmetry_space_group_name_H-M   'P 1'
_cell_length_a   13.98590117
_cell_length_b   13.98590117
_cell_length_c   20.84293457
_cell_angle_alpha   100.09973673
_cell_angle_beta   100.09973673
_cell_angle_gamma   111.97168025
_symmetry_Int_Tables_number   1
_chemical_formula_structural   Cu11Ni50
_chemical_formula_sum   'Cu44 Ni200'
_cell_volume   3590.29422365
_cell_formula_units_Z   4
loop_
 _symmetry_equiv_pos_site_id
 _symmetry_equiv_pos_as_xyz
  1  'x, y, z'
loop_
 _atom_site_type_symbol
 _atom_site_label
 _atom_site_symmetry_multiplicity
 _atom_site_fract_x
 _atom_site_fract_y
 _atom_site_fract_z
 _atom_site_occupancy
  Ni  Ni0  1  0.31722464  0.71795764  0.65286717  1
  Ni  Ni1  1  0.71795764  0.31722464  0.15286717  1
  Ni  Ni2  1  0.38986480  0.74712313  0.61074079  1
  Ni  Ni3  1  0.74712313  0.38986480  0.11074079  1
  Ni  Ni4  1  0.45341984  0.85783381  0.61491738  1
  Ni  Ni5  1  0.85783381  0.45341984  0.11491738  1
  Ni  Ni6  1  0.42876621  0.93411249  0.65391132  1
  Ni  Ni7  1  0.93411249  0.42876621  0.15391132  1
  Ni  Ni8  1  0.35744482  0.90527562  0.69669358  1
  Ni  Ni9  1  0.90527562  0.35744482  0.19669358  1
  Ni  Ni10  1  0.30860825  0.80070217  0.70135029  1
  Ni  Ni11  1  0.80070217  0.30860825  0.20135029  1
  Ni  Ni12  1  0.29491301  0.78514297  0.76665584  1
  Ni  Ni13  1  0.78514297  0.29491301  0.26665584  1
  Ni  Ni14  1  0.27993088  0.68653431  0.78276952  1
  Ni  Ni15  1  0.68653431  0.27993088  0.28276952  1
  Ni  Ni16  1  0.24565004  0.58860548  0.72436927  1
  Ni  Ni17  1  0.58860548  0.24565004  0.22436927  1
  Ni  Ni18  1  0.28747524  0.61648892  0.66497780  1
  Ni  Ni19  1  0.61648892  0.28747524  0.16497780  1
  Ni  Ni20  1  0.32965709  0.54560628  0.63984877  1
  Ni  Ni21  1  0.54560628  0.32965709  0.13984877  1
  Ni  Ni22  1  0.39935123  0.57252260  0.60029026  1
  Ni  Ni23  1  0.57252260  0.39935123  0.10029026  1
  Ni  Ni24  1  0.42842080  0.67203018  0.58559307  1
  Ni  Ni25  1  0.67203018  0.42842080  0.08559307  1
  Ni  Ni26  1  0.53483545  0.70711580  0.57640378  1
  Ni  Ni27  1  0.70711580  0.53483545  0.07640378  1
  Ni  Ni28  1  0.59922968  0.81416202  0.58381160  1
  Ni  Ni29  1  0.81416202  0.59922968  0.08381160  1
  Ni  Ni30  1  0.55721228  0.89386053  0.60131492  1
  Ni  Ni31  1  0.89386053  0.55721228  0.10131492  1
  Ni  Ni32  1  0.62842508  0.00453291  0.62615931  1
  Ni  Ni33  1  0.00453291  0.62842508  0.12615931  1
  Ni  Ni34  1  0.60203516  0.07690396  0.66796971  1
  Ni  Ni35  1  0.07690396  0.60203516  0.16796971  1
  Ni  Ni36  1  0.50198224  0.04135527  0.68043442  1
  Ni  Ni37  1  0.04135527  0.50198224  0.18043442  1
  Ni  Ni38  1  0.47573016  0.09250980  0.74178383  1
  Ni  Ni39  1  0.09250980  0.47573016  0.24178383  1
  Ni  Ni40  1  0.38993331  0.99718496  0.75178179  1
  Ni  Ni41  1  0.99718496  0.38993331  0.25178179  1
  Ni  Ni42  1  0.38335462  0.98375332  0.81400333  1
  Ni  Ni43  1  0.98375332  0.38335462  0.31400333  1
  Ni  Ni44  1  0.33613774  0.87880783  0.82166755  1
  Ni  Ni45  1  0.87880783  0.33613774  0.32166755  1
  Ni  Ni46  1  0.37437651  0.87786427  0.88840980  1
  Ni  Ni47  1  0.87786427  0.37437651  0.38840980  1
  Ni  Ni48  1  0.36836733  0.78339295  0.90298711  1
  Ni  Ni49  1  0.78339295  0.36836733  0.40298711  1
  Ni  Ni50  1  0.31682945  0.68592947  0.84990337  1
  Ni  Ni51  1  0.68592947  0.31682945  0.34990337  1
  Ni  Ni52  1  0.32177206  0.58441114  0.86423125  1
  Ni  Ni53  1  0.58441114  0.32177206  0.36423125  1
  Ni  Ni54  1  0.32950403  0.51255615  0.80403910  1
  Ni  Ni55  1  0.51255615  0.32950403  0.30403910  1
  Ni  Ni56  1  0.29422869  0.51296445  0.74063757  1
  Ni  Ni57  1  0.51296445  0.29422869  0.24063757  1
  Ni  Ni58  1  0.33236206  0.47077117  0.68274086  1
  Ni  Ni59  1  0.47077117  0.33236206  0.18274086  1
  Ni  Ni60  1  0.44587632  0.47979309  0.70682400  1
  Ni  Ni61  1  0.47979309  0.44587632  0.20682400  1
  Ni  Ni62  1  0.52073344  0.51431271  0.66911975  1
  Ni  Ni63  1  0.51431271  0.52073344  0.16911975  1
  Ni  Ni64  1  0.48833391  0.53637115  0.60207746  1
  Ni  Ni65  1  0.53637115  0.48833391  0.10207746  1
  Ni  Ni66  1  0.57655007  0.63227720  0.59271016  1
  Ni  Ni67  1  0.63227720  0.57655007  0.09271016  1
  Ni  Ni68  1  0.68397387  0.66574001  0.62233610  1
  Ni  Ni69  1  0.66574001  0.68397387  0.12233610  1
  Ni  Ni70  1  0.75493209  0.77080496  0.62005229  1
  Ni  Ni71  1  0.77080496  0.75493209  0.12005229  1
  Ni  Ni72  1  0.71273832  0.84408020  0.59975864  1
  Ni  Ni73  1  0.84408020  0.71273832  0.09975864  1
  Ni  Ni74  1  0.78124077  0.95372952  0.61828108  1
  Ni  Ni75  1  0.95372952  0.78124077  0.11828108  1
  Ni  Ni76  1  0.74214557  0.04063922  0.62035737  1
  Ni  Ni77  1  0.04063922  0.74214557  0.12035737  1
  Ni  Ni78  1  0.82291647  0.12387246  0.68279643  1
  Ni  Ni79  1  0.12387246  0.82291647  0.18279643  1
  Ni  Ni80  1  0.79650659  0.18352461  0.72726296  1
  Ni  Ni81  1  0.18352461  0.79650659  0.22726296  1
  Ni  Ni82  1  0.68642677  0.18010222  0.71657610  1
  Ni  Ni83  1  0.18010222  0.68642677  0.21657610  1
  Ni  Ni84  1  0.67139544  0.18423015  0.78733622  1
  Ni  Ni85  1  0.18423015  0.67139544  0.28733622  1
  Ni  Ni86  1  0.57340563  0.13911895  0.80205246  1
  Ni  Ni87  1  0.13911895  0.57340563  0.30205246  1
  Ni  Ni88  1  0.57091181  0.11408130  0.86502817  1
  Ni  Ni89  1  0.11408130  0.57091181  0.36502817  1
  Ni  Ni90  1  0.46125323  0.06224246  0.87876808  1
  Ni  Ni91  1  0.06224246  0.46125323  0.37876808  1
  Ni  Ni92  1  0.45459429  0.99037121  0.93095530  1
  Ni  Ni93  1  0.99037121  0.45459429  0.43095530  1
  Ni  Ni94  1  0.55848262  0.98347689  0.95956719  1
  Ni  Ni95  1  0.98347689  0.55848262  0.45956719  1
  Ni  Ni96  1  0.54784193  0.89325241  0.98178341  1
  Ni  Ni97  1  0.89325241  0.54784193  0.48178341  1
  Ni  Ni98  1  0.44323324  0.79416151  0.96854099  1
  Ni  Ni99  1  0.79416151  0.44323324  0.46854099  1
  Ni  Ni100  1  0.48198343  0.70701789  0.96040280  1
  Ni  Ni101  1  0.70701789  0.48198343  0.46040280  1
  Ni  Ni102  1  0.42561307  0.61022625  0.91361368  1
  Ni  Ni103  1  0.61022625  0.42561307  0.41361368  1
  Ni  Ni104  1  0.47984044  0.55017385  0.89039006  1
  Ni  Ni105  1  0.55017385  0.47984044  0.39039006  1
  Ni  Ni106  1  0.41093683  0.46929866  0.82363294  1
  Ni  Ni107  1  0.46929866  0.41093683  0.32363294  1
  Ni  Ni108  1  0.47883454  0.47233860  0.77394211  1
  Ni  Ni109  1  0.47233860  0.47883454  0.27394211  1
  Ni  Ni110  1  0.58544908  0.49672917  0.80001600  1
  Ni  Ni111  1  0.49672917  0.58544908  0.30001600  1
  Ni  Ni112  1  0.66099300  0.53259662  0.76329771  1
  Ni  Ni113  1  0.53259662  0.66099300  0.26329771  1
  Ni  Ni114  1  0.63240749  0.54719662  0.69810716  1
  Ni  Ni115  1  0.54719662  0.63240749  0.19810716  1
  Ni  Ni116  1  0.71693199  0.61881747  0.67560462  1
  Ni  Ni117  1  0.61881747  0.71693199  0.17560462  1
  Ni  Ni118  1  0.82223026  0.66891182  0.71861618  1
  Ni  Ni119  1  0.66891182  0.82223026  0.21861618  1
  Ni  Ni120  1  0.90769628  0.75570628  0.70009394  1
  Ni  Ni121  1  0.75570628  0.90769628  0.20009394  1
  Ni  Ni122  1  0.86260905  0.81309515  0.65739258  1
  Ni  Ni123  1  0.81309515  0.86260905  0.15739258  1
  Ni  Ni124  1  0.92539794  0.92267635  0.67846591  1
  Ni  Ni125  1  0.92267635  0.92539794  0.17846591  1
  Ni  Ni126  1  0.88472591  0.99268847  0.65897408  1
  Ni  Ni127  1  0.99268847  0.88472591  0.15897408  1
  Ni  Ni128  1  0.92249909  0.10466155  0.70131002  1
  Ni  Ni129  1  0.10466155  0.92249909  0.20131002  1
  Ni  Ni130  1  0.95367171  0.10728148  0.77581408  1
  Ni  Ni131  1  0.10728148  0.95367171  0.27581408  1
  Ni  Ni132  1  0.92169408  0.16688472  0.82208383  1
  Ni  Ni133  1  0.16688472  0.92169408  0.32208383  1
  Ni  Ni134  1  0.85781640  0.22762091  0.80061850  1
  Ni  Ni135  1  0.22762091  0.85781640  0.30061850  1
  Ni  Ni136  1  0.76672670  0.20734332  0.83422710  1
  Ni  Ni137  1  0.20734332  0.76672670  0.33422710  1
  Ni  Ni138  1  0.76601107  0.17837883  0.89526088  1
  Ni  Ni139  1  0.17837883  0.76601107  0.39526088  1
  Ni  Ni140  1  0.66687625  0.12507663  0.90941855  1
  Ni  Ni141  1  0.12507663  0.66687625  0.40941855  1
  Ni  Ni142  1  0.66027487  0.05210535  0.95412443  1
  Ni  Ni143  1  0.05210535  0.66027487  0.45412443  1
  Ni  Ni144  1  0.74944405  0.02789939  0.97406898  1
  Ni  Ni145  1  0.02789939  0.74944405  0.47406898  1
  Ni  Ni146  1  0.73477421  0.92718932  0.98647487  1
  Ni  Ni147  1  0.92718932  0.73477421  0.48647487  1
  Ni  Ni148  1  0.63385828  0.86362327  0.99148996  1
  Ni  Ni149  1  0.86362327  0.63385828  0.49148996  1
  Ni  Ni150  1  0.59416647  0.74957454  0.97775397  1
  Ni  Ni151  1  0.74957454  0.59416647  0.47775397  1
  Ni  Ni152  1  0.65195184  0.69444012  0.95344664  1
  Ni  Ni153  1  0.69444012  0.65195184  0.45344664  1
  Ni  Ni154  1  0.59124951  0.58835267  0.91196029  1
  Ni  Ni155  1  0.58835267  0.59124951  0.41196029  1
  Ni  Ni156  1  0.64080575  0.52512154  0.87454362  1
  Ni  Ni157  1  0.52512154  0.64080575  0.37454362  1
  Ni  Ni158  1  0.76451002  0.58974116  0.87951352  1
  Ni  Ni159  1  0.58974116  0.76451002  0.37951352  1
  Ni  Ni160  1  0.76552716  0.58627800  0.80609627  1
  Ni  Ni161  1  0.58627800  0.76552716  0.30609627  1
  Ni  Ni162  1  0.84618226  0.65518747  0.78510132  1
  Ni  Ni163  1  0.65518747  0.84618226  0.28510132  1
  Ni  Ni164  1  0.94395244  0.73579775  0.84027515  1
  Ni  Ni165  1  0.73579775  0.94395244  0.34027515  1
  Ni  Ni166  1  0.99505424  0.83995201  0.82331935  1
  Ni  Ni167  1  0.83995201  0.99505424  0.32331935  1
  Ni  Ni168  1  0.98234756  0.84823880  0.76003039  1
  Ni  Ni169  1  0.84823880  0.98234756  0.26003039  1
  Ni  Ni170  1  0.00933091  0.95466403  0.74335247  1
  Ni  Ni171  1  0.95466403  0.00933091  0.24335247  1
  Ni  Ni172  1  0.99520249  0.03541574  0.79601390  1
  Ni  Ni173  1  0.03541574  0.99520249  0.29601390  1
  Ni  Ni174  1  0.00417043  0.02376065  0.86222190  1
  Ni  Ni175  1  0.02376065  0.00417043  0.36222190  1
  Ni  Ni176  1  0.96855934  0.08162064  0.90675537  1
  Ni  Ni177  1  0.08162064  0.96855934  0.40675537  1
  Ni  Ni178  1  0.92829869  0.15153204  0.88708271  1
  Ni  Ni179  1  0.15153204  0.92829869  0.38708271  1
  Ni  Ni180  1  0.87141131  0.18594172  0.93530768  1
  Ni  Ni181  1  0.18594172  0.87141131  0.43530768  1
  Ni  Ni182  1  0.86232871  0.10875430  0.98366981  1
  Ni  Ni183  1  0.10875430  0.86232871  0.48366981  1
  Ni  Ni184  1  0.94396653  0.05625877  0.97102605  1
  Ni  Ni185  1  0.05625877  0.94396653  0.47102605  1
  Ni  Ni186  1  0.90233908  0.93589300  0.96041545  1
  Ni  Ni187  1  0.93589300  0.90233908  0.46041545  1
  Ni  Ni188  1  0.80514187  0.87463139  0.97314803  1
  Ni  Ni189  1  0.87463139  0.80514187  0.47314803  1
  Ni  Ni190  1  0.76203727  0.75850090  0.95312967  1
  Ni  Ni191  1  0.75850090  0.76203727  0.45312967  1
  Ni  Ni192  1  0.81480035  0.70830371  0.91697960  1
  Ni  Ni193  1  0.70830371  0.81480035  0.41697960  1
  Ni  Ni194  1  0.90659409  0.77154172  0.90090276  1
  Ni  Ni195  1  0.77154172  0.90659409  0.40090276  1
  Ni  Ni196  1  0.95057428  0.88329947  0.92313769  1
  Ni  Ni197  1  0.88329947  0.95057428  0.42313769  1
  Ni  Ni198  1  0.02650869  0.93408468  0.88271425  1
  Ni  Ni199  1  0.93408468  0.02650869  0.38271425  1
  Cu  Cu200  1  0.09859987  0.51776385  0.69805588  1
  Cu  Cu201  1  0.51776385  0.09859987  0.19805588  1
  Cu  Cu202  1  0.42609112  0.19052804  0.72376199  1
  Cu  Cu203  1  0.19052804  0.42609112  0.22376199  1
  Cu  Cu204  1  0.20769646  0.51598098  0.89579173  1
  Cu  Cu205  1  0.51598098  0.20769646  0.39579173  1
  Cu  Cu206  1  0.24471540  0.33229790  0.63575452  1
  Cu  Cu207  1  0.33229790  0.24471540  0.13575452  1
  Cu  Cu208  1  0.45231668  0.41712535  0.53310714  1
  Cu  Cu209  1  0.41712535  0.45231668  0.03310714  1
  Cu  Cu210  1  0.75082133  0.08994842  0.54415910  1
  Cu  Cu211  1  0.08994842  0.75082133  0.04415910  1
  Cu  Cu212  1  0.68242282  0.29539191  0.68746196  1
  Cu  Cu213  1  0.29539191  0.68242282  0.18746196  1
  Cu  Cu214  1  0.42377527  0.17037534  0.90462228  1
  Cu  Cu215  1  0.17037534  0.42377527  0.40462228  1
  Cu  Cu216  1  0.41380037  0.03635774  0.00372540  1
  Cu  Cu217  1  0.03635774  0.41380037  0.50372540  1
  Cu  Cu218  1  0.38269293  0.79371113  0.03914439  1
  Cu  Cu219  1  0.79371113  0.38269293  0.53914439  1
  Cu  Cu220  1  0.34064514  0.33516508  0.83302781  1
  Cu  Cu221  1  0.33516508  0.34064514  0.33302781  1
  Cu  Cu222  1  0.98434195  0.69488327  0.65783058  1
  Cu  Cu223  1  0.69488327  0.98434195  0.15783058  1
  Cu  Cu224  1  0.03410354  0.20104041  0.68044288  1
  Cu  Cu225  1  0.20104041  0.03410354  0.18044288  1
  Cu  Cu226  1  0.94429629  0.36935951  0.81815012  1
  Cu  Cu227  1  0.36935951  0.94429629  0.31815012  1
  Cu  Cu228  1  0.61331945  0.40431828  0.90217344  1
  Cu  Cu229  1  0.40431828  0.61331945  0.40217344  1
  Cu  Cu230  1  0.84627054  0.53016200  0.91728675  1
  Cu  Cu231  1  0.53016200  0.84627054  0.41728675  1
  Cu  Cu232  1  0.04479330  0.68343413  0.85914334  1
  Cu  Cu233  1  0.68343413  0.04479330  0.35914334  1
  Cu  Cu234  1  0.14574595  0.01112336  0.73473314  1
  Cu  Cu235  1  0.01112336  0.14574595  0.23473314  1
  Cu  Cu236  1  0.95351337  0.32531861  0.98108914  1
  Cu  Cu237  1  0.32531861  0.95351337  0.48108914  1
  Cu  Cu238  1  0.89224115  0.17763395  0.07115626  1
  Cu  Cu239  1  0.17763395  0.89224115  0.57115626  1
  Cu  Cu240  1  0.06577153  0.11815227  0.03912471  1
  Cu  Cu241  1  0.11815227  0.06577153  0.53912471  1
  Cu  Cu242  1  0.16618851  0.98238449  0.92909015  1
  Cu  Cu243  1  0.98238449  0.16618851  0.42909015  1
