# generated using pymatgen
data_Cu9Ni3C2
_symmetry_space_group_name_H-M   'P 1'
_cell_length_a   7.21729000
_cell_length_b   7.22675045
_cell_length_c   10.94885742
_cell_angle_alpha   87.86541330
_cell_angle_beta   108.24590670
_cell_angle_gamma   107.35924992
_symmetry_Int_Tables_number   1
_chemical_formula_structural   Cu9Ni3C2
_chemical_formula_sum   'Cu18 Ni6 C4'
_cell_volume   516.65585056
_cell_formula_units_Z   2
loop_
 _symmetry_equiv_pos_site_id
 _symmetry_equiv_pos_as_xyz
  1  'x, y, z'
loop_
 _atom_site_type_symbol
 _atom_site_label
 _atom_site_symmetry_multiplicity
 _atom_site_fract_x
 _atom_site_fract_y
 _atom_site_fract_z
 _atom_site_occupancy
  C  C0  1  0.00000000  0.00000000  0.00000000  1
  C  C1  1  0.83179000  0.02343800  0.60114700  1
  C  C2  1  0.16821000  0.97656200  0.39885300  1
  C  C3  1  0.50000000  0.50000000  0.00000000  1
  Ni  Ni4  1  0.02554300  0.47199700  0.18898100  1
  Ni  Ni5  1  0.97445700  0.52800300  0.81101900  1
  Ni  Ni6  1  0.55545600  0.95565500  0.18953200  1
  Ni  Ni7  1  0.44454400  0.04434500  0.81046800  1
  Ni  Ni8  1  0.41396000  0.55257300  0.63984600  1
  Ni  Ni9  1  0.58604000  0.44742700  0.36015400  1
  Cu  Cu10  1  0.82949200  0.53993700  0.05037700  1
  Cu  Cu11  1  0.17050800  0.46006300  0.94962300  1
  Cu  Cu12  1  0.95700600  0.55020200  0.32082600  1
  Cu  Cu13  1  0.04299400  0.44979800  0.67917400  1
  Cu  Cu14  1  0.91718100  0.20775500  0.18427600  1
  Cu  Cu15  1  0.08281900  0.79224500  0.81572400  1
  Cu  Cu16  1  0.56965900  0.81268200  0.05488100  1
  Cu  Cu17  1  0.43034100  0.18731800  0.94511900  1
  Cu  Cu18  1  0.29039300  0.84408200  0.18630100  1
  Cu  Cu19  1  0.70960700  0.15591800  0.81369900  1
  Cu  Cu20  1  0.69265700  0.84339100  0.32617000  1
  Cu  Cu21  1  0.30734300  0.15660900  0.67383000  1
  Cu  Cu22  1  0.52735400  0.60486800  0.81744700  1
  Cu  Cu23  1  0.47264600  0.39513200  0.18255300  1
  Cu  Cu24  1  0.66240700  0.57019000  0.61765200  1
  Cu  Cu25  1  0.33759300  0.42981000  0.38234800  1
  Cu  Cu26  1  0.40782100  0.79930600  0.60372900  1
  Cu  Cu27  1  0.59217900  0.20069400  0.39627100  1
