# generated using pymatgen
data_Cu2Ni2C9
_symmetry_space_group_name_H-M   'P 1'
_cell_length_a   7.35180972
_cell_length_b   7.35180972
_cell_length_c   7.35180972
_cell_angle_alpha   120.33171448
_cell_angle_beta   119.55611568
_cell_angle_gamma   90.09847957
_symmetry_Int_Tables_number   1
_chemical_formula_structural   Cu2Ni2C9
_chemical_formula_sum   'Cu2 Ni2 C9'
_cell_volume   281.19673168
_cell_formula_units_Z   1
loop_
 _symmetry_equiv_pos_site_id
 _symmetry_equiv_pos_as_xyz
  1  'x, y, z'
loop_
 _atom_site_type_symbol
 _atom_site_label
 _atom_site_symmetry_multiplicity
 _atom_site_fract_x
 _atom_site_fract_y
 _atom_site_fract_z
 _atom_site_occupancy
  Ni  Ni0  1  0.61046800  0.39320600  0.78273800  1
  Ni  Ni1  1  0.61046800  0.82772900  0.21726200  1
  Cu  Cu2  1  0.61507400  0.38400900  0.23106500  1
  Cu  Cu3  1  0.15294400  0.38400900  0.76893500  1
  C  C4  1  0.00272200  0.00272200  0.00000000  1
  C  C5  1  0.37647900  0.62197300  0.24549400  1
  C  C6  1  0.37647900  0.13098500  0.75450600  1
  C  C7  1  0.37451100  0.62523200  0.74927900  1
  C  C8  1  0.87595200  0.62523200  0.25072100  1
  C  C9  1  0.86476200  0.13657400  0.27181300  1
  C  C10  1  0.86476200  0.59294900  0.72818700  1
  C  C11  1  0.86258300  0.13769100  0.72489300  1
  C  C12  1  0.41279800  0.13769100  0.27510700  1
