# generated using pymatgen
data_Cu(NiC)4
_symmetry_space_group_name_H-M   'P 1'
_cell_length_a   6.71475344
_cell_length_b   6.71475344
_cell_length_c   7.25903671
_cell_angle_alpha   63.24264561
_cell_angle_beta   63.24264561
_cell_angle_gamma   91.52351155
_symmetry_Int_Tables_number   1
_chemical_formula_structural   Cu(NiC)4
_chemical_formula_sum   'Cu2 Ni8 C8'
_cell_volume   249.93230555
_cell_formula_units_Z   2
loop_
 _symmetry_equiv_pos_site_id
 _symmetry_equiv_pos_as_xyz
  1  'x, y, z'
loop_
 _atom_site_type_symbol
 _atom_site_label
 _atom_site_symmetry_multiplicity
 _atom_site_fract_x
 _atom_site_fract_y
 _atom_site_fract_z
 _atom_site_occupancy
  C  C0  1  0.25000000  0.25000000  0.50000000  1
  C  C1  1  0.75000000  0.75000000  0.50000000  1
  C  C2  1  0.83175300  0.66824700  0.00000000  1
  C  C3  1  0.16824700  0.33175300  0.00000000  1
  C  C4  1  0.66982900  0.16982900  0.00000000  1
  C  C5  1  0.33017100  0.83017100  0.00000000  1
  C  C6  1  0.75017100  0.25017100  0.49965700  1
  C  C7  1  0.24982900  0.74982900  0.50034300  1
  Ni  Ni8  1  0.21425400  0.99471500  0.29103200  1
  Ni  Ni9  1  0.49471500  0.71425400  0.29103200  1
  Ni  Ni10  1  0.00174600  0.50174600  0.29065300  1
  Ni  Ni11  1  0.70760100  0.20760100  0.29065300  1
  Ni  Ni12  1  0.78574600  0.00528500  0.70896800  1
  Ni  Ni13  1  0.50528500  0.28574600  0.70896800  1
  Ni  Ni14  1  0.99825400  0.49825400  0.70934700  1
  Ni  Ni15  1  0.29239900  0.79239900  0.70934700  1
  Cu  Cu16  1  0.50000000  0.50000000  0.00000000  1
  Cu  Cu17  1  0.00000000  0.00000000  0.00000000  1
