# generated using pymatgen
data_Cu8NiC6
_symmetry_space_group_name_H-M   'P 1'
_cell_length_a   6.41588400
_cell_length_b   7.15707600
_cell_length_c   9.63638400
_cell_angle_alpha   90.00000000
_cell_angle_beta   90.00000000
_cell_angle_gamma   90.00000000
_symmetry_Int_Tables_number   1
_chemical_formula_structural   Cu8NiC6
_chemical_formula_sum   'Cu16 Ni2 C12'
_cell_volume   442.49282198
_cell_formula_units_Z   2
loop_
 _symmetry_equiv_pos_site_id
 _symmetry_equiv_pos_as_xyz
  1  'x, y, z'
loop_
 _atom_site_type_symbol
 _atom_site_label
 _atom_site_symmetry_multiplicity
 _atom_site_fract_x
 _atom_site_fract_y
 _atom_site_fract_z
 _atom_site_occupancy
  C  C0  1  0.00000000  0.74075900  0.00000000  1
  C  C1  1  0.50000000  0.25924100  0.50000000  1
  C  C2  1  0.25000000  0.00000000  0.75000000  1
  C  C3  1  0.25000000  0.00000000  0.25000000  1
  C  C4  1  0.75000000  0.00000000  0.75000000  1
  C  C5  1  0.50000000  0.79567800  0.50000000  1
  C  C6  1  0.00000000  0.20432200  0.00000000  1
  C  C7  1  0.75000000  0.00000000  0.25000000  1
  C  C8  1  0.50000000  0.59427700  0.80955900  1
  C  C9  1  0.00000000  0.40572300  0.69044100  1
  C  C10  1  0.50000000  0.59427700  0.19044100  1
  C  C11  1  0.00000000  0.40572300  0.30955900  1
  Ni  Ni12  1  0.00000000  0.85767000  0.50000000  1
  Ni  Ni13  1  0.50000000  0.14233000  0.00000000  1
  Cu  Cu14  1  0.00000000  0.00183000  0.86256700  1
  Cu  Cu15  1  0.00000000  0.42471900  0.86927900  1
  Cu  Cu16  1  0.50000000  0.57528100  0.36927900  1
  Cu  Cu17  1  0.28875200  0.74044900  0.83823500  1
  Cu  Cu18  1  0.21124800  0.25955100  0.33823500  1
  Cu  Cu19  1  0.78875200  0.25955100  0.33823500  1
  Cu  Cu20  1  0.50000000  0.99817000  0.63743300  1
  Cu  Cu21  1  0.71124800  0.74044900  0.83823500  1
  Cu  Cu22  1  0.71124800  0.74044900  0.16176500  1
  Cu  Cu23  1  0.78875200  0.25955100  0.66176500  1
  Cu  Cu24  1  0.00000000  0.00183000  0.13743300  1
  Cu  Cu25  1  0.50000000  0.99817000  0.36256700  1
  Cu  Cu26  1  0.21124800  0.25955100  0.66176500  1
  Cu  Cu27  1  0.28875200  0.74044900  0.16176500  1
  Cu  Cu28  1  0.50000000  0.57528100  0.63072100  1
  Cu  Cu29  1  0.00000000  0.42471900  0.13072100  1
