# generated using pymatgen
data_Cu2Ni4C7
_symmetry_space_group_name_H-M   'P 1'
_cell_length_a   6.60796100
_cell_length_b   7.83209700
_cell_length_c   23.40944700
_cell_angle_alpha   90.00000000
_cell_angle_beta   90.00000000
_cell_angle_gamma   90.00000000
_symmetry_Int_Tables_number   1
_chemical_formula_structural   Cu2Ni4C7
_chemical_formula_sum   'Cu8 Ni16 C28'
_cell_volume   1211.53700351
_cell_formula_units_Z   4
loop_
 _symmetry_equiv_pos_site_id
 _symmetry_equiv_pos_as_xyz
  1  'x, y, z'
loop_
 _atom_site_type_symbol
 _atom_site_label
 _atom_site_symmetry_multiplicity
 _atom_site_fract_x
 _atom_site_fract_y
 _atom_site_fract_z
 _atom_site_occupancy
  C  C0  1  0.46908700  0.25000000  0.64397500  1
  C  C1  1  0.53091300  0.75000000  0.35602500  1
  C  C2  1  0.03091300  0.75000000  0.14397500  1
  C  C3  1  0.96908700  0.25000000  0.85602500  1
  C  C4  1  0.09553400  0.04354600  0.28077700  1
  C  C5  1  0.90446600  0.95645400  0.71922300  1
  C  C6  1  0.40446600  0.95645400  0.78077700  1
  C  C7  1  0.90446600  0.54354600  0.71922300  1
  C  C8  1  0.59553400  0.04354600  0.21922300  1
  C  C9  1  0.09553400  0.45645400  0.28077700  1
  C  C10  1  0.59553400  0.45645400  0.21922300  1
  C  C11  1  0.40446600  0.54354600  0.78077700  1
  C  C12  1  0.00193200  0.06467100  0.42789500  1
  C  C13  1  0.99806800  0.93532900  0.57210500  1
  C  C14  1  0.49806800  0.93532900  0.92789500  1
  C  C15  1  0.99806800  0.56467100  0.57210500  1
  C  C16  1  0.50193200  0.06467100  0.07210500  1
  C  C17  1  0.00193200  0.43532900  0.42789500  1
  C  C18  1  0.50193200  0.43532900  0.07210500  1
  C  C19  1  0.49806800  0.56467100  0.92789500  1
  C  C20  1  0.00000000  0.00000000  0.00000000  1
  C  C21  1  0.50000000  0.00000000  0.50000000  1
  C  C22  1  0.00000000  0.50000000  0.00000000  1
  C  C23  1  0.50000000  0.50000000  0.50000000  1
  C  C24  1  0.00368500  0.25000000  0.13089600  1
  C  C25  1  0.99631500  0.75000000  0.86910400  1
  C  C26  1  0.49631500  0.75000000  0.63089600  1
  C  C27  1  0.50368500  0.25000000  0.36910400  1
  Ni  Ni28  1  0.18775300  0.25000000  0.04755200  1
  Ni  Ni29  1  0.81224700  0.75000000  0.95244800  1
  Ni  Ni30  1  0.31224700  0.75000000  0.54755200  1
  Ni  Ni31  1  0.68775300  0.25000000  0.45244800  1
  Ni  Ni32  1  0.31344300  0.01185300  0.37237500  1
  Ni  Ni33  1  0.68655700  0.98814700  0.62762500  1
  Ni  Ni34  1  0.18655700  0.98814700  0.87237500  1
  Ni  Ni35  1  0.68655700  0.51185300  0.62762500  1
  Ni  Ni36  1  0.81344300  0.01185300  0.12762500  1
  Ni  Ni37  1  0.31344300  0.48814700  0.37237500  1
  Ni  Ni38  1  0.81344300  0.48814700  0.12762500  1
  Ni  Ni39  1  0.18655700  0.51185300  0.87237500  1
  Ni  Ni40  1  0.21552400  0.25000000  0.20511000  1
  Ni  Ni41  1  0.78447600  0.75000000  0.79489000  1
  Ni  Ni42  1  0.28447600  0.75000000  0.70511000  1
  Ni  Ni43  1  0.71552400  0.25000000  0.29489000  1
  Cu  Cu44  1  0.16955900  0.25000000  0.54093700  1
  Cu  Cu45  1  0.83044100  0.75000000  0.45906300  1
  Cu  Cu46  1  0.33044100  0.75000000  0.04093700  1
  Cu  Cu47  1  0.66955900  0.25000000  0.95906300  1
  Cu  Cu48  1  0.13361500  0.25000000  0.70863900  1
  Cu  Cu49  1  0.86638500  0.75000000  0.29136100  1
  Cu  Cu50  1  0.36638500  0.75000000  0.20863900  1
  Cu  Cu51  1  0.63361500  0.25000000  0.79136100  1
