# generated using pymatgen
data_CuNiC5
_symmetry_space_group_name_H-M   'P 1'
_cell_length_a   9.68906789
_cell_length_b   9.68906789
_cell_length_c   9.68906891
_cell_angle_alpha   114.70550135
_cell_angle_beta   114.70550135
_cell_angle_gamma   114.70550499
_symmetry_Int_Tables_number   1
_chemical_formula_structural   CuNiC5
_chemical_formula_sum   'Cu6 Ni6 C30'
_cell_volume   522.45769816
_cell_formula_units_Z   6
loop_
 _symmetry_equiv_pos_site_id
 _symmetry_equiv_pos_as_xyz
  1  'x, y, z'
loop_
 _atom_site_type_symbol
 _atom_site_label
 _atom_site_symmetry_multiplicity
 _atom_site_fract_x
 _atom_site_fract_y
 _atom_site_fract_z
 _atom_site_occupancy
  C  C0  1  0.08089100  0.80769600  0.56418800  1
  C  C1  1  0.80769600  0.56418800  0.08089100  1
  C  C2  1  0.56418800  0.08089100  0.80769600  1
  C  C3  1  0.91910900  0.19230400  0.43581200  1
  C  C4  1  0.19230400  0.43581200  0.91910900  1
  C  C5  1  0.43581200  0.91910900  0.19230400  1
  Ni  Ni6  1  0.68614900  0.31485600  0.24946200  1
  Ni  Ni7  1  0.31485600  0.24946200  0.68614900  1
  Ni  Ni8  1  0.24946200  0.68614900  0.31485600  1
  Ni  Ni9  1  0.31385100  0.68514400  0.75053800  1
  Ni  Ni10  1  0.68514400  0.75053800  0.31385100  1
  Ni  Ni11  1  0.75053800  0.31385100  0.68514400  1
  Cu  Cu12  1  0.44096300  0.31622800  0.13179900  1
  Cu  Cu13  1  0.31622800  0.13179900  0.44096300  1
  Cu  Cu14  1  0.13179900  0.44096300  0.31622800  1
  Cu  Cu15  1  0.55903700  0.68377200  0.86820100  1
  Cu  Cu16  1  0.68377200  0.86820100  0.55903700  1
  Cu  Cu17  1  0.86820100  0.55903700  0.68377200  1
  C  C18  1  0.87031300  0.54876100  0.48162200  1
  C  C19  1  0.54876100  0.48162200  0.87031300  1
  C  C20  1  0.48162200  0.87031300  0.54876100  1
  C  C21  1  0.12968700  0.45123900  0.51837800  1
  C  C22  1  0.45123900  0.51837800  0.12968700  1
  C  C23  1  0.51837800  0.12968700  0.45123900  1
  C  C24  1  0.45639900  0.22644600  0.14573000  1
  C  C25  1  0.22644600  0.14573000  0.45639900  1
  C  C26  1  0.14573000  0.45639900  0.22644600  1
  C  C27  1  0.54360100  0.77355400  0.85427000  1
  C  C28  1  0.77355400  0.85427000  0.54360100  1
  C  C29  1  0.85427000  0.54360100  0.77355400  1
  C  C30  1  0.67167900  0.15352100  0.25966200  1
  C  C31  1  0.15352100  0.25966200  0.67167900  1
  C  C32  1  0.25966200  0.67167900  0.15352100  1
  C  C33  1  0.32832100  0.84647900  0.74033800  1
  C  C34  1  0.84647900  0.74033800  0.32832100  1
  C  C35  1  0.74033800  0.32832100  0.84647900  1
  C  C36  1  0.72289700  0.31036100  0.10889100  1
  C  C37  1  0.31036100  0.10889100  0.72289700  1
  C  C38  1  0.10889100  0.72289700  0.31036100  1
  C  C39  1  0.27710300  0.68963900  0.89110900  1
  C  C40  1  0.68963900  0.89110900  0.27710300  1
  C  C41  1  0.89110900  0.27710300  0.68963900  1
