# generated using pymatgen
data_Cu8NiC16
_symmetry_space_group_name_H-M   'P 1'
_cell_length_a   4.84993298
_cell_length_b   4.78399034
_cell_length_c   11.87212773
_cell_angle_alpha   89.92477436
_cell_angle_beta   89.90567856
_cell_angle_gamma   89.75482676
_symmetry_Int_Tables_number   1
_chemical_formula_structural   Cu8NiC16
_chemical_formula_sum   'Cu8 Ni1 C16'
_cell_volume   275.45436359
_cell_formula_units_Z   1
loop_
 _symmetry_equiv_pos_site_id
 _symmetry_equiv_pos_as_xyz
  1  'x, y, z'
loop_
 _atom_site_type_symbol
 _atom_site_label
 _atom_site_symmetry_multiplicity
 _atom_site_fract_x
 _atom_site_fract_y
 _atom_site_fract_z
 _atom_site_occupancy
  Ni  Ni0  1  0.97822700  0.49180000  0.87324000  1
  Cu  Cu1  1  0.01589200  0.99187600  0.01374300  1
  Cu  Cu2  1  0.99737500  0.98982800  0.25235300  1
  Cu  Cu3  1  0.03010700  0.02342700  0.49461800  1
  Cu  Cu4  1  0.01250400  0.98978700  0.73223100  1
  Cu  Cu5  1  0.50189300  0.48977200  0.12464600  1
  Cu  Cu6  1  0.49723000  0.48501200  0.62462200  1
  Cu  Cu7  1  0.47201300  0.55017800  0.87365500  1
  Cu  Cu8  1  0.49910200  0.49083800  0.36704700  1
  C  C9  1  0.20205500  0.80726800  0.13442400  1
  C  C10  1  0.21510500  0.81753900  0.61244500  1
  C  C11  1  0.18732000  0.84227900  0.87327400  1
  C  C12  1  0.18731900  0.80928500  0.37380400  1
  C  C13  1  0.26447700  0.34414200  0.98968400  1
  C  C14  1  0.31315700  0.30120600  0.25131300  1
  C  C15  1  0.32551600  0.31663100  0.49221000  1
  C  C16  1  0.26566600  0.34404000  0.75711500  1
  C  C17  1  0.71600100  0.66296200  0.99115000  1
  C  C18  1  0.69040100  0.67888500  0.25267800  1
  C  C19  1  0.71633800  0.66465800  0.75488400  1
  C  C20  1  0.80448300  0.17503100  0.13018300  1
  C  C21  1  0.82082100  0.18220100  0.37415400  1
  C  C22  1  0.81173900  0.18701400  0.61595600  1
  C  C23  1  0.69991400  0.68830200  0.49566300  1
  C  C24  1  0.76145400  0.16215600  0.87268700  1
