# generated using pymatgen
data_CuNi18C5
_symmetry_space_group_name_H-M   'P 1'
_cell_length_a   7.93586887
_cell_length_b   7.93586887
_cell_length_c   7.91072294
_cell_angle_alpha   78.42520935
_cell_angle_beta   78.42520935
_cell_angle_gamma   78.28983393
_symmetry_Int_Tables_number   1
_chemical_formula_structural   CuNi18C5
_chemical_formula_sum   'Cu2 Ni36 C10'
_cell_volume   471.22356699
_cell_formula_units_Z   2
loop_
 _symmetry_equiv_pos_site_id
 _symmetry_equiv_pos_as_xyz
  1  'x, y, z'
loop_
 _atom_site_type_symbol
 _atom_site_label
 _atom_site_symmetry_multiplicity
 _atom_site_fract_x
 _atom_site_fract_y
 _atom_site_fract_z
 _atom_site_occupancy
  C  C0  1  0.00000000  0.50000000  0.50000000  1
  C  C1  1  0.50000000  0.00000000  0.50000000  1
  C  C2  1  0.57128400  0.57128400  0.57205700  1
  C  C3  1  0.42871600  0.42871600  0.42794300  1
  C  C4  1  0.73141500  0.34555700  0.74523200  1
  C  C5  1  0.73588300  0.73588300  0.33823400  1
  C  C6  1  0.34555700  0.73141500  0.74523200  1
  C  C7  1  0.26858500  0.65444300  0.25476800  1
  C  C8  1  0.26411700  0.26411700  0.66176600  1
  C  C9  1  0.65444300  0.26858500  0.25476800  1
  Ni  Ni10  1  0.72835800  0.98779400  0.98797000  1
  Ni  Ni11  1  0.98779400  0.72835800  0.98797000  1
  Ni  Ni12  1  0.98804200  0.98804200  0.73024600  1
  Ni  Ni13  1  0.27164200  0.01220600  0.01203000  1
  Ni  Ni14  1  0.01220600  0.27164200  0.01203000  1
  Ni  Ni15  1  0.01195800  0.01195800  0.26975400  1
  Ni  Ni16  1  0.56034100  0.12388200  0.12441900  1
  Ni  Ni17  1  0.12388200  0.56034100  0.12441900  1
  Ni  Ni18  1  0.12379900  0.12379900  0.56203500  1
  Ni  Ni19  1  0.43965900  0.87611800  0.87558100  1
  Ni  Ni20  1  0.87611800  0.43965900  0.87558100  1
  Ni  Ni21  1  0.87620100  0.87620100  0.43796500  1
  Ni  Ni22  1  0.58533800  0.17712400  0.89467000  1
  Ni  Ni23  1  0.89303600  0.58494500  0.17291300  1
  Ni  Ni24  1  0.17799700  0.89076900  0.58714500  1
  Ni  Ni25  1  0.89076900  0.17799700  0.58714500  1
  Ni  Ni26  1  0.58494500  0.89303600  0.17291300  1
  Ni  Ni27  1  0.17712400  0.58533800  0.89467000  1
  Ni  Ni28  1  0.41466200  0.82287600  0.10533000  1
  Ni  Ni29  1  0.10696400  0.41505500  0.82708700  1
  Ni  Ni30  1  0.82200300  0.10923100  0.41285500  1
  Ni  Ni31  1  0.10923100  0.82200300  0.41285500  1
  Ni  Ni32  1  0.41505500  0.10696400  0.82708700  1
  Ni  Ni33  1  0.82287600  0.41466200  0.10533000  1
  Ni  Ni34  1  0.20164400  0.37202500  0.02145400  1
  Ni  Ni35  1  0.01917700  0.19829800  0.37182100  1
  Ni  Ni36  1  0.37190800  0.02029700  0.19724100  1
  Ni  Ni37  1  0.02029700  0.37190800  0.19724100  1
  Ni  Ni38  1  0.19829800  0.01917700  0.37182100  1
  Ni  Ni39  1  0.37202500  0.20164400  0.02145400  1
  Ni  Ni40  1  0.79835600  0.62797500  0.97854600  1
  Ni  Ni41  1  0.98082300  0.80170200  0.62817900  1
  Ni  Ni42  1  0.62809200  0.97970300  0.80275900  1
  Ni  Ni43  1  0.97970300  0.62809200  0.80275900  1
  Ni  Ni44  1  0.80170200  0.98082300  0.62817900  1
  Ni  Ni45  1  0.62797500  0.79835600  0.97854600  1
  Cu  Cu46  1  0.94866100  0.94866100  0.94935500  1
  Cu  Cu47  1  0.05133900  0.05133900  0.05064500  1
