# generated using pymatgen
data_Cu2NiC5
_symmetry_space_group_name_H-M   'P 1'
_cell_length_a   6.52053100
_cell_length_b   6.79781500
_cell_length_c   7.85357600
_cell_angle_alpha   90.00000000
_cell_angle_beta   90.00000000
_cell_angle_gamma   90.00000000
_symmetry_Int_Tables_number   1
_chemical_formula_structural   Cu2NiC5
_chemical_formula_sum   'Cu4 Ni2 C10'
_cell_volume   348.11261050
_cell_formula_units_Z   2
loop_
 _symmetry_equiv_pos_site_id
 _symmetry_equiv_pos_as_xyz
  1  'x, y, z'
loop_
 _atom_site_type_symbol
 _atom_site_label
 _atom_site_symmetry_multiplicity
 _atom_site_fract_x
 _atom_site_fract_y
 _atom_site_fract_z
 _atom_site_occupancy
  Ni  Ni0  1  0.50582900  0.33905200  0.00000000  1
  Ni  Ni1  1  0.00582900  0.66094800  0.50000000  1
  Cu  Cu2  1  0.51291200  0.82572200  0.24928000  1
  Cu  Cu3  1  0.01291200  0.17427800  0.25072000  1
  Cu  Cu4  1  0.01291200  0.17427800  0.74928000  1
  Cu  Cu5  1  0.51291200  0.82572200  0.75072000  1
  C  C6  1  0.00286700  0.66865800  0.00000000  1
  C  C7  1  0.50286700  0.33134200  0.50000000  1
  C  C8  1  0.87196200  0.33215100  0.00000000  1
  C  C9  1  0.37196200  0.66784900  0.50000000  1
  C  C10  1  0.88249900  0.83916100  0.25895200  1
  C  C11  1  0.38249900  0.16083900  0.24104800  1
  C  C12  1  0.38249900  0.16083900  0.75895200  1
  C  C13  1  0.88249900  0.83916100  0.74104800  1
  C  C14  1  0.38102000  0.66455300  0.00000000  1
  C  C15  1  0.88102000  0.33544700  0.50000000  1
