# generated using pymatgen
data_Cu3Ni4C27
_symmetry_space_group_name_H-M   'P 1'
_cell_length_a   8.90199319
_cell_length_b   8.90199319
_cell_length_c   12.24742100
_cell_angle_alpha   90.00000000
_cell_angle_beta   90.00000000
_cell_angle_gamma   89.79540321
_symmetry_Int_Tables_number   1
_chemical_formula_structural   Cu3Ni4C27
_chemical_formula_sum   'Cu6 Ni8 C54'
_cell_volume   970.54660154
_cell_formula_units_Z   2
loop_
 _symmetry_equiv_pos_site_id
 _symmetry_equiv_pos_as_xyz
  1  'x, y, z'
loop_
 _atom_site_type_symbol
 _atom_site_label
 _atom_site_symmetry_multiplicity
 _atom_site_fract_x
 _atom_site_fract_y
 _atom_site_fract_z
 _atom_site_occupancy
  Ni  Ni0  1  0.23717100  0.76282900  0.49915700  1
  Ni  Ni1  1  0.76282900  0.23717100  0.49915700  1
  Ni  Ni2  1  0.26484500  0.26484500  0.00603300  1
  Ni  Ni3  1  0.73515500  0.73515500  0.00603300  1
  Ni  Ni4  1  0.64333800  0.64333800  0.49263200  1
  Ni  Ni5  1  0.35666200  0.35666200  0.49263200  1
  Ni  Ni6  1  0.85658200  0.14341800  0.00120200  1
  Ni  Ni7  1  0.14341800  0.85658200  0.00120200  1
  Cu  Cu8  1  0.18314600  0.81685400  0.25430800  1
  Cu  Cu9  1  0.81685400  0.18314600  0.25430800  1
  Cu  Cu10  1  0.31784000  0.31784000  0.75377200  1
  Cu  Cu11  1  0.68216000  0.68216000  0.75377200  1
  Cu  Cu12  1  0.81762300  0.18237600  0.74594100  1
  Cu  Cu13  1  0.18237600  0.81762300  0.74594100  1
  C  C14  1  0.40331300  0.59668700  0.29275000  1
  C  C15  1  0.59668700  0.40331300  0.29275000  1
  C  C16  1  0.10168900  0.10168900  0.79382700  1
  C  C17  1  0.89831100  0.89831100  0.79382700  1
  C  C18  1  0.60188200  0.39811800  0.70706300  1
  C  C19  1  0.39811800  0.60188200  0.70706300  1
  C  C20  1  0.89561500  0.89561500  0.20719600  1
  C  C21  1  0.10438500  0.10438500  0.20719600  1
  C  C22  1  0.14061100  0.53020100  0.32393000  1
  C  C23  1  0.85938900  0.46979900  0.32393000  1
  C  C24  1  0.36515900  0.03475800  0.82519600  1
  C  C25  1  0.63484100  0.96524200  0.82519600  1
  C  C26  1  0.86542600  0.46528800  0.67382600  1
  C  C27  1  0.13457400  0.53471200  0.67382600  1
  C  C28  1  0.63532400  0.96146700  0.17710400  1
  C  C29  1  0.36467600  0.03853300  0.17710400  1
  C  C30  1  0.53020100  0.14061100  0.32393000  1
  C  C31  1  0.46979900  0.85938900  0.32393000  1
  C  C32  1  0.03475800  0.36515900  0.82519600  1
  C  C33  1  0.96524200  0.63484100  0.82519600  1
  C  C34  1  0.46528800  0.86542600  0.67382600  1
  C  C35  1  0.53471200  0.13457400  0.67382600  1
  C  C36  1  0.96146700  0.63532400  0.17710400  1
  C  C37  1  0.03853300  0.36467600  0.17710400  1
  C  C38  1  0.93134500  0.72422300  0.37369700  1
  C  C39  1  0.06865500  0.27577700  0.37369700  1
  C  C40  1  0.56543600  0.22491400  0.87639700  1
  C  C41  1  0.43456400  0.77508600  0.87639700  1
  C  C42  1  0.06598500  0.27518100  0.62377700  1
  C  C43  1  0.93401500  0.72481900  0.62377700  1
  C  C44  1  0.43796900  0.77405700  0.12642300  1
  C  C45  1  0.56203100  0.22594300  0.12642300  1
  C  C46  1  0.72422300  0.93134500  0.37369700  1
  C  C47  1  0.27577700  0.06865500  0.37369700  1
  C  C48  1  0.22491400  0.56543600  0.87639700  1
  C  C49  1  0.77508600  0.43456400  0.87639700  1
  C  C50  1  0.27518100  0.06598500  0.62377700  1
  C  C51  1  0.72481900  0.93401500  0.62377700  1
  C  C52  1  0.77405700  0.43796900  0.12642300  1
  C  C53  1  0.22594300  0.56203100  0.12642300  1
  C  C54  1  0.00000000  0.50000000  0.49769400  1
  C  C55  1  0.50000000  0.00000000  0.00130100  1
  C  C56  1  0.50000000  0.00000000  0.49769400  1
  C  C57  1  0.00000000  0.50000000  0.00130100  1
  C  C58  1  0.68399100  0.68399100  0.24549100  1
  C  C59  1  0.31600900  0.31600900  0.24549100  1
  C  C60  1  0.50000000  0.50000000  0.11220100  1
  C  C61  1  0.00000000  0.00000000  0.61200800  1
  C  C62  1  0.50000000  0.50000000  0.88916700  1
  C  C63  1  0.00000000  0.00000000  0.38735700  1
  C  C64  1  0.87580400  0.87580400  0.49951400  1
  C  C65  1  0.12419600  0.12419600  0.49951400  1
  C  C66  1  0.62536900  0.37463100  0.00104900  1
  C  C67  1  0.37463100  0.62536900  0.00104900  1
