# generated using pymatgen
data_Cu13(NiC17)4
_symmetry_space_group_name_H-M   'P 1'
_cell_length_a   3.92607900
_cell_length_b   3.94330500
_cell_length_c   66.66069500
_cell_angle_alpha   90.00000000
_cell_angle_beta   90.00000000
_cell_angle_gamma   90.00000000
_symmetry_Int_Tables_number   1
_chemical_formula_structural   Cu13(NiC17)4
_chemical_formula_sum   'Cu13 Ni4 C68'
_cell_volume   1032.02267836
_cell_formula_units_Z   1
loop_
 _symmetry_equiv_pos_site_id
 _symmetry_equiv_pos_as_xyz
  1  'x, y, z'
loop_
 _atom_site_type_symbol
 _atom_site_label
 _atom_site_symmetry_multiplicity
 _atom_site_fract_x
 _atom_site_fract_y
 _atom_site_fract_z
 _atom_site_occupancy
  Ni  Ni0  1  0.50000000  0.50000000  0.91156300  1
  Ni  Ni1  1  0.50000000  0.50000000  0.96924500  1
  Ni  Ni2  1  0.50000000  0.50000000  0.79734200  1
  Ni  Ni3  1  0.50000000  0.50000000  0.85385100  1
  Cu  Cu4  1  0.50000000  0.50000000  0.73826700  1
  Cu  Cu5  1  0.50000000  0.50000000  0.61852700  1
  Cu  Cu6  1  0.50000000  0.50000000  0.67834000  1
  Cu  Cu7  1  0.50000000  0.50000000  0.50010500  1
  Cu  Cu8  1  0.50000000  0.50000000  0.55923400  1
  Cu  Cu9  1  0.50000000  0.50000000  0.38231400  1
  Cu  Cu10  1  0.50000000  0.50000000  0.44118700  1
  Cu  Cu11  1  0.50000000  0.50000000  0.26444800  1
  Cu  Cu12  1  0.50000000  0.50000000  0.32346700  1
  Cu  Cu13  1  0.50000000  0.50000000  0.14543900  1
  Cu  Cu14  1  0.50000000  0.50000000  0.20515600  1
  Cu  Cu15  1  0.50000000  0.50000000  0.08547000  1
  Cu  Cu16  1  0.50000000  0.50000000  0.02412000  1
  C  C17  1  0.00000000  0.00000000  0.99912500  1
  C  C18  1  0.00000000  0.00000000  0.11726500  1
  C  C19  1  0.00000000  0.00000000  0.94093300  1
  C  C20  1  0.00000000  0.00000000  0.88246600  1
  C  C21  1  0.00000000  0.00000000  0.82412600  1
  C  C22  1  0.00000000  0.00000000  0.76580400  1
  C  C23  1  0.00000000  0.00000000  0.70631200  1
  C  C24  1  0.00000000  0.00000000  0.64728200  1
  C  C25  1  0.00000000  0.00000000  0.58833500  1
  C  C26  1  0.00000000  0.00000000  0.52944500  1
  C  C27  1  0.00000000  0.00000000  0.47058900  1
  C  C28  1  0.00000000  0.00000000  0.41177000  1
  C  C29  1  0.00000000  0.00000000  0.35294500  1
  C  C30  1  0.00000000  0.00000000  0.29410000  1
  C  C31  1  0.00000000  0.00000000  0.23523200  1
  C  C32  1  0.00000000  0.00000000  0.17625800  1
  C  C33  1  0.00000000  0.00000000  0.05826800  1
  C  C34  1  0.00000000  0.00000000  0.97021500  1
  C  C35  1  0.00000000  0.00000000  0.91177000  1
  C  C36  1  0.00000000  0.00000000  0.85309500  1
  C  C37  1  0.00000000  0.00000000  0.79425300  1
  C  C38  1  0.00000000  0.00000000  0.73544900  1
  C  C39  1  0.00000000  0.00000000  0.67643300  1
  C  C40  1  0.00000000  0.00000000  0.61772300  1
  C  C41  1  0.00000000  0.00000000  0.55880200  1
  C  C42  1  0.00000000  0.00000000  0.50003100  1
  C  C43  1  0.00000000  0.00000000  0.44116800  1
  C  C44  1  0.00000000  0.00000000  0.08810000  1
  C  C45  1  0.00000000  0.50000000  0.00162700  1
  C  C46  1  0.00000000  0.50000000  0.88234100  1
  C  C47  1  0.50000000  0.00000000  0.00159600  1
  C  C48  1  0.50000000  0.00000000  0.94113200  1
  C  C49  1  0.50000000  0.00000000  0.82341500  1
  C  C50  1  0.50000000  0.00000000  0.76179300  1
  C  C51  1  0.50000000  0.00000000  0.70434900  1
  C  C52  1  0.50000000  0.00000000  0.64635200  1
  C  C53  1  0.50000000  0.00000000  0.58789700  1
  C  C54  1  0.50000000  0.00000000  0.52926900  1
  C  C55  1  0.50000000  0.00000000  0.47052500  1
  C  C56  1  0.50000000  0.00000000  0.41176900  1
  C  C57  1  0.00000000  0.00000000  0.32352600  1
  C  C58  1  0.50000000  0.00000000  0.35298300  1
  C  C59  1  0.50000000  0.00000000  0.29423900  1
  C  C60  1  0.00000000  0.00000000  0.38238400  1
  C  C61  1  0.00000000  0.00000000  0.26472500  1
  C  C62  1  0.00000000  0.00000000  0.20582900  1
  C  C63  1  0.50000000  0.00000000  0.23556500  1
  C  C64  1  0.50000000  0.00000000  0.17703000  1
  C  C65  1  0.50000000  0.00000000  0.11893300  1
  C  C66  1  0.50000000  0.00000000  0.06124500  1
  C  C67  1  0.00000000  0.00000000  0.02968400  1
  C  C68  1  0.00000000  0.00000000  0.14700600  1
  C  C69  1  0.00000000  0.50000000  0.94125500  1
  C  C70  1  0.00000000  0.50000000  0.82337900  1
  C  C71  1  0.00000000  0.50000000  0.76293200  1
  C  C72  1  0.00000000  0.50000000  0.70514500  1
  C  C73  1  0.00000000  0.50000000  0.64672100  1
  C  C74  1  0.00000000  0.50000000  0.58809000  1
  C  C75  1  0.00000000  0.50000000  0.52934900  1
  C  C76  1  0.00000000  0.50000000  0.47052800  1
  C  C77  1  0.00000000  0.50000000  0.41175600  1
  C  C78  1  0.00000000  0.50000000  0.35296800  1
  C  C79  1  0.00000000  0.50000000  0.29417400  1
  C  C80  1  0.00000000  0.50000000  0.23546000  1
  C  C81  1  0.00000000  0.50000000  0.17665400  1
  C  C82  1  0.00000000  0.50000000  0.11821400  1
  C  C83  1  0.00000000  0.50000000  0.06044600  1
  C  C84  1  0.50000000  0.00000000  0.88234700  1
