# generated using pymatgen
data_CuNiC8
_symmetry_space_group_name_H-M   'P 1'
_cell_length_a   3.77657611
_cell_length_b   5.74227200
_cell_length_c   12.26915550
_cell_angle_alpha   90.00000000
_cell_angle_beta   98.95963877
_cell_angle_gamma   90.00000000
_symmetry_Int_Tables_number   1
_chemical_formula_structural   CuNiC8
_chemical_formula_sum   'Cu2 Ni2 C16'
_cell_volume   262.82395389
_cell_formula_units_Z   2
loop_
 _symmetry_equiv_pos_site_id
 _symmetry_equiv_pos_as_xyz
  1  'x, y, z'
loop_
 _atom_site_type_symbol
 _atom_site_label
 _atom_site_symmetry_multiplicity
 _atom_site_fract_x
 _atom_site_fract_y
 _atom_site_fract_z
 _atom_site_occupancy
  C  C0  1  0.58096700  0.64037200  0.24040800  1
  C  C1  1  0.91903300  0.14037200  0.25959200  1
  C  C2  1  0.41903300  0.35962800  0.75959200  1
  C  C3  1  0.08096700  0.85962800  0.74040800  1
  Ni  Ni4  1  0.50000000  0.50000000  0.50000000  1
  Ni  Ni5  1  0.00000000  0.00000000  0.00000000  1
  Cu  Cu6  1  0.50000000  0.50000000  0.00000000  1
  Cu  Cu7  1  0.00000000  0.00000000  0.50000000  1
  C  C8  1  0.77918700  0.73687200  0.07462000  1
  C  C9  1  0.72081300  0.23687200  0.42538000  1
  C  C10  1  0.26562800  0.24092300  0.58097600  1
  C  C11  1  0.23437200  0.74092300  0.91902400  1
  C  C12  1  0.22081300  0.26312800  0.92538000  1
  C  C13  1  0.27918700  0.76312800  0.57462000  1
  C  C14  1  0.73437200  0.75907700  0.41902400  1
  C  C15  1  0.76562800  0.25907700  0.08097600  1
  C  C16  1  0.37324600  0.98006800  0.21680300  1
  C  C17  1  0.12675400  0.48006800  0.28319700  1
  C  C18  1  0.62675400  0.01993200  0.78319700  1
  C  C19  1  0.87324600  0.51993200  0.71680300  1
