# generated using pymatgen
data_Cu14NiC16
_symmetry_space_group_name_H-M   'P 1'
_cell_length_a   8.63255018
_cell_length_b   8.61667130
_cell_length_c   4.33735953
_cell_angle_alpha   90.00000000
_cell_angle_beta   90.00000000
_cell_angle_gamma   90.00000000
_symmetry_Int_Tables_number   1
_chemical_formula_structural   Cu14NiC16
_chemical_formula_sum   'Cu14 Ni1 C16'
_cell_volume   322.62948932
_cell_formula_units_Z   1
loop_
 _symmetry_equiv_pos_site_id
 _symmetry_equiv_pos_as_xyz
  1  'x, y, z'
loop_
 _atom_site_type_symbol
 _atom_site_label
 _atom_site_symmetry_multiplicity
 _atom_site_fract_x
 _atom_site_fract_y
 _atom_site_fract_z
 _atom_site_occupancy
  C  C0  1  0.00010404  0.00000000  0.00000000  1
  Ni  Ni1  1  0.49286913  0.50000000  0.00000000  1
  Cu  Cu2  1  0.99853523  0.50000000  0.00000000  1
  Cu  Cu3  1  0.50024300  0.00000000  0.00000000  1
  Cu  Cu4  1  0.00080418  0.24534413  0.50000000  1
  Cu  Cu5  1  0.00080418  0.75465587  0.50000000  1
  Cu  Cu6  1  0.49893780  0.23971670  0.50000000  1
  Cu  Cu7  1  0.49893780  0.76028330  0.50000000  1
  Cu  Cu8  1  0.24376260  0.00000000  0.50000000  1
  Cu  Cu9  1  0.24390033  0.50000000  0.50000000  1
  Cu  Cu10  1  0.75584787  0.00000000  0.50000000  1
  Cu  Cu11  1  0.75854906  0.50000000  0.50000000  1
  Cu  Cu12  1  0.23965115  0.24091665  0.00000000  1
  Cu  Cu13  1  0.23965115  0.75908335  -0.00000000  1
  Cu  Cu14  1  0.75996597  0.24321442  0.00000000  1
  Cu  Cu15  1  0.75996597  0.75678558  0.00000000  1
  C  C16  1  0.26701506  0.00000000  0.00000000  1
  C  C17  1  0.73360721  0.00000000  0.00000000  1
  C  C18  1  0.75071573  0.50000000  0.00000000  1
  C  C19  1  0.25129237  0.24515030  0.50000000  1
  C  C20  1  0.25129237  0.75484970  0.50000000  1
  C  C21  1  0.74776386  0.25073854  0.50000000  1
  C  C22  1  0.74776386  0.74926146  0.50000000  1
  C  C23  1  0.99881176  0.00000000  0.50000000  1
  C  C24  1  0.99989130  0.50000000  0.50000000  1
  C  C25  1  0.50111074  0.00000000  0.50000000  1
  C  C26  1  0.50632947  0.50000000  0.50000000  1
  C  C27  1  0.00020965  0.26497275  0.00000000  1
  C  C28  1  0.00020965  0.73502725  0.00000000  1
  C  C29  1  0.50072875  0.25688827  0.00000000  1
  C  C30  1  0.50072875  0.74311173  0.00000000  1
