# generated using pymatgen
data_CuNiC5
_symmetry_space_group_name_H-M   'P 1'
_cell_length_a   5.40204347
_cell_length_b   5.40204347
_cell_length_c   7.55221716
_cell_angle_alpha   69.53089219
_cell_angle_beta   69.53089219
_cell_angle_gamma   72.89364966
_symmetry_Int_Tables_number   1
_chemical_formula_structural   CuNiC5
_chemical_formula_sum   'Cu2 Ni2 C10'
_cell_volume   189.69339313
_cell_formula_units_Z   2
loop_
 _symmetry_equiv_pos_site_id
 _symmetry_equiv_pos_as_xyz
  1  'x, y, z'
loop_
 _atom_site_type_symbol
 _atom_site_label
 _atom_site_symmetry_multiplicity
 _atom_site_fract_x
 _atom_site_fract_y
 _atom_site_fract_z
 _atom_site_occupancy
  Ni  Ni0  1  0.00000000  0.00000000  0.00000000  1
  Ni  Ni1  1  0.00000000  0.00000000  0.50000000  1
  Cu  Cu2  1  0.52119000  0.47881000  0.75000000  1
  Cu  Cu3  1  0.47881000  0.52119000  0.25000000  1
  C  C4  1  0.12455400  0.87544600  0.25000000  1
  C  C5  1  0.87544600  0.12455400  0.75000000  1
  C  C6  1  0.21992400  0.26831400  0.37245300  1
  C  C7  1  0.73168600  0.78007600  0.12754700  1
  C  C8  1  0.70533500  0.31786600  0.04500500  1
  C  C9  1  0.68213400  0.29466500  0.45499500  1
  C  C10  1  0.29466500  0.68213400  0.95499500  1
  C  C11  1  0.31786600  0.70533500  0.54500500  1
  C  C12  1  0.26831400  0.21992400  0.87245300  1
  C  C13  1  0.78007600  0.73168600  0.62754700  1
