# generated using pymatgen
data_Cu3NiC19
_symmetry_space_group_name_H-M   'P 1'
_cell_length_a   9.52829538
_cell_length_b   10.53593913
_cell_length_c   14.09315379
_cell_angle_alpha   90.00000000
_cell_angle_beta   90.00000000
_cell_angle_gamma   90.00000000
_symmetry_Int_Tables_number   1
_chemical_formula_structural   Cu3NiC19
_chemical_formula_sum   'Cu12 Ni4 C76'
_cell_volume   1414.80522805
_cell_formula_units_Z   4
loop_
 _symmetry_equiv_pos_site_id
 _symmetry_equiv_pos_as_xyz
  1  'x, y, z'
loop_
 _atom_site_type_symbol
 _atom_site_label
 _atom_site_symmetry_multiplicity
 _atom_site_fract_x
 _atom_site_fract_y
 _atom_site_fract_z
 _atom_site_occupancy
  Ni  Ni0  1  0.00000000  0.00000000  -0.00000000  1
  Ni  Ni1  1  0.50000000  0.50000000  -0.00000000  1
  Ni  Ni2  1  0.00000000  0.00000000  0.50000000  1
  Ni  Ni3  1  0.50000000  0.50000000  0.50000000  1
  Cu  Cu4  1  0.12157747  0.02287462  0.25000000  1
  Cu  Cu5  1  0.87842253  0.97712538  0.75000000  1
  Cu  Cu6  1  0.62157747  0.47712538  0.75000000  1
  Cu  Cu7  1  0.37842253  0.52287462  0.25000000  1
  Cu  Cu8  1  0.19510271  0.29607187  0.55443346  1
  Cu  Cu9  1  0.80489729  0.70392813  0.44556654  1
  Cu  Cu10  1  0.69510271  0.20392813  0.44556654  1
  Cu  Cu11  1  0.80489729  0.70392813  0.05443346  1
  Cu  Cu12  1  0.30489729  0.79607187  0.55443346  1
  Cu  Cu13  1  0.19510271  0.29607187  0.94556654  1
  Cu  Cu14  1  0.30489729  0.79607187  0.94556654  1
  Cu  Cu15  1  0.69510271  0.20392813  0.05443346  1
  C  C16  1  0.51496935  0.92312105  0.25000000  1
  C  C17  1  0.48503065  0.07687895  0.75000000  1
  C  C18  1  0.01496935  0.57687895  0.75000000  1
  C  C19  1  0.98503065  0.42312105  0.25000000  1
  C  C20  1  0.04182649  0.17295630  0.25000000  1
  C  C21  1  0.95817351  0.82704370  0.75000000  1
  C  C22  1  0.54182649  0.32704370  0.75000000  1
  C  C23  1  0.45817351  0.67295630  0.25000000  1
  C  C24  1  0.28638655  0.09704184  0.25000000  1
  C  C25  1  0.71361345  0.90295816  0.75000000  1
  C  C26  1  0.78638655  0.40295816  0.75000000  1
  C  C27  1  0.21361345  0.59704184  0.25000000  1
  C  C28  1  0.54240011  0.44985578  0.25000000  1
  C  C29  1  0.45759989  0.55014422  0.75000000  1
  C  C30  1  0.04240011  0.05014422  0.75000000  1
  C  C31  1  0.95759989  0.94985578  0.25000000  1
  C  C32  1  0.29373814  0.21761787  0.03173941  1
  C  C33  1  0.70626186  0.78238213  0.96826059  1
  C  C34  1  0.79373814  0.28238213  0.96826059  1
  C  C35  1  0.70626186  0.78238213  0.53173941  1
  C  C36  1  0.20626186  0.71761787  0.03173941  1
  C  C37  1  0.29373814  0.21761787  0.46826059  1
  C  C38  1  0.20626186  0.71761787  0.46826059  1
  C  C39  1  0.79373814  0.28238213  0.53173941  1
  C  C40  1  0.28303416  0.21225357  0.64440995  1
  C  C41  1  0.71696584  0.78774643  0.35559005  1
  C  C42  1  0.78303416  0.28774643  0.35559005  1
  C  C43  1  0.71696584  0.78774643  0.14440995  1
  C  C44  1  0.21696584  0.71225357  0.64440995  1
  C  C45  1  0.28303416  0.21225357  0.85559005  1
  C  C46  1  0.21696584  0.71225357  0.85559005  1
  C  C47  1  0.78303416  0.28774643  0.14440995  1
  C  C48  1  0.06228503  0.17084985  0.55025046  1
  C  C49  1  0.93771497  0.82915015  0.44974954  1
  C  C50  1  0.56228503  0.32915015  0.44974954  1
  C  C51  1  0.93771497  0.82915015  0.05025046  1
  C  C52  1  0.43771497  0.67084985  0.55025046  1
  C  C53  1  0.06228503  0.17084985  0.94974954  1
  C  C54  1  0.43771497  0.67084985  0.94974954  1
  C  C55  1  0.56228503  0.32915015  0.05025046  1
  C  C56  1  0.59625867  0.12601872  0.14205154  1
  C  C57  1  0.40374133  0.87398128  0.85794846  1
  C  C58  1  0.09625867  0.37398128  0.85794846  1
  C  C59  1  0.40374133  0.87398128  0.64205154  1
  C  C60  1  0.90374133  0.62601872  0.14205154  1
  C  C61  1  0.59625867  0.12601872  0.35794846  1
  C  C62  1  0.90374133  0.62601872  0.35794846  1
  C  C63  1  0.09625867  0.37398128  0.64205154  1
  C  C64  1  0.32784374  0.42176680  0.56264922  1
  C  C65  1  0.67215626  0.57823320  0.43735078  1
  C  C66  1  0.82784374  0.07823320  0.43735078  1
  C  C67  1  0.67215626  0.57823320  0.06264922  1
  C  C68  1  0.17215626  0.92176680  0.56264922  1
  C  C69  1  0.32784374  0.42176680  0.93735078  1
  C  C70  1  0.17215626  0.92176680  0.93735078  1
  C  C71  1  0.82784374  0.07823320  0.06264922  1
  C  C72  1  0.29313720  0.37669411  0.25000000  1
  C  C73  1  0.70686280  0.62330589  0.75000000  1
  C  C74  1  0.79313720  0.12330589  0.75000000  1
  C  C75  1  0.20686280  0.87669411  0.25000000  1
  C  C76  1  0.12009366  0.02342046  0.11998898  1
  C  C77  1  0.87990634  0.97657954  0.88001102  1
  C  C78  1  0.62009366  0.47657954  0.88001102  1
  C  C79  1  0.87990634  0.97657954  0.61998898  1
  C  C80  1  0.37990634  0.52342046  0.11998898  1
  C  C81  1  0.12009366  0.02342046  0.38001102  1
  C  C82  1  0.37990634  0.52342046  0.38001102  1
  C  C83  1  0.62009366  0.47657954  0.61998898  1
  C  C84  1  0.10598855  0.38023701  0.03362442  1
  C  C85  1  0.89401145  0.61976299  0.96637558  1
  C  C86  1  0.60598855  0.11976299  0.96637558  1
  C  C87  1  0.89401145  0.61976299  0.53362442  1
  C  C88  1  0.39401145  0.88023701  0.03362442  1
  C  C89  1  0.10598855  0.38023701  0.46637558  1
  C  C90  1  0.39401145  0.88023701  0.46637558  1
  C  C91  1  0.60598855  0.11976299  0.53362442  1
