# generated using pymatgen
data_Cu4Ni4C
_symmetry_space_group_name_H-M   'P 1'
_cell_length_a   9.00895151
_cell_length_b   13.34677409
_cell_length_c   15.07017468
_cell_angle_alpha   90.00000000
_cell_angle_beta   90.00000000
_cell_angle_gamma   90.69327505
_symmetry_Int_Tables_number   1
_chemical_formula_structural   Cu4Ni4C
_chemical_formula_sum   'Cu32 Ni32 C8'
_cell_volume   1811.91179574
_cell_formula_units_Z   8
loop_
 _symmetry_equiv_pos_site_id
 _symmetry_equiv_pos_as_xyz
  1  'x, y, z'
loop_
 _atom_site_type_symbol
 _atom_site_label
 _atom_site_symmetry_multiplicity
 _atom_site_fract_x
 _atom_site_fract_y
 _atom_site_fract_z
 _atom_site_occupancy
  C  C0  1  0.36871889  0.13332866  0.12709508  1
  C  C1  1  0.63128111  0.86667134  0.87290492  1
  C  C2  1  0.13128111  0.86667134  0.62709508  1
  C  C3  1  0.86871889  0.13332866  0.37290492  1
  C  C4  1  0.30573636  0.63478865  0.37612969  1
  C  C5  1  0.69426364  0.36521135  0.62387031  1
  C  C6  1  0.19426364  0.36521135  0.87612969  1
  C  C7  1  0.80573636  0.63478865  0.12387031  1
  Ni  Ni8  1  0.47572551  0.58130769  0.12844685  1
  Ni  Ni9  1  0.52427449  0.41869231  0.87155315  1
  Ni  Ni10  1  0.02427449  0.41869231  0.62844685  1
  Ni  Ni11  1  0.97572551  0.58130769  0.37155315  1
  Ni  Ni12  1  0.12545492  0.09645152  0.11613062  1
  Ni  Ni13  1  0.87454508  0.90354848  0.88386938  1
  Ni  Ni14  1  0.37454508  0.90354848  0.61613062  1
  Ni  Ni15  1  0.62545492  0.09645152  0.38386938  1
  Ni  Ni16  1  0.23292476  0.47302087  0.37108664  1
  Ni  Ni17  1  0.76707524  0.52697913  0.62891336  1
  Ni  Ni18  1  0.26707524  0.52697913  0.87108664  1
  Ni  Ni19  1  0.73292476  0.47302087  0.12891336  1
  Ni  Ni20  1  0.45765505  0.19972638  0.62827706  1
  Ni  Ni21  1  0.54234495  0.80027362  0.37172294  1
  Ni  Ni22  1  0.04234495  0.80027362  0.12827706  1
  Ni  Ni23  1  0.95765505  0.19972638  0.87172294  1
  Ni  Ni24  1  0.04665025  0.59613194  0.10929821  1
  Ni  Ni25  1  0.95334975  0.40386806  0.89070179  1
  Ni  Ni26  1  0.45334975  0.40386806  0.60929821  1
  Ni  Ni27  1  0.54665025  0.59613194  0.39070179  1
  Ni  Ni28  1  0.06486718  0.02844091  0.63519959  1
  Ni  Ni29  1  0.93513282  0.97155909  0.36480041  1
  Ni  Ni30  1  0.43513282  0.97155909  0.13519959  1
  Ni  Ni31  1  0.56486718  0.02844091  0.86480041  1
  Ni  Ni32  1  0.14159639  0.30062476  0.13441351  1
  Ni  Ni33  1  0.85840361  0.69937524  0.86558649  1
  Ni  Ni34  1  0.35840361  0.69937524  0.63441351  1
  Ni  Ni35  1  0.64159639  0.30062476  0.36558649  1
  Ni  Ni36  1  0.19625048  0.07883166  0.37607776  1
  Ni  Ni37  1  0.80374952  0.92116834  0.62392224  1
  Ni  Ni38  1  0.30374952  0.92116834  0.87607776  1
  Ni  Ni39  1  0.69625048  0.07883166  0.12392224  1
  Cu  Cu40  1  0.14155669  0.70106971  0.11380014  1
  Cu  Cu41  1  0.85844331  0.29893029  0.88619986  1
  Cu  Cu42  1  0.35844331  0.29893029  0.61380014  1
  Cu  Cu43  1  0.64155669  0.70106971  0.38619986  1
  Cu  Cu44  1  0.38431069  0.03000132  0.86654760  1
  Cu  Cu45  1  0.61568931  0.96999868  0.13345240  1
  Cu  Cu46  1  0.11568931  0.96999868  0.36654760  1
  Cu  Cu47  1  0.88431069  0.03000132  0.63345240  1
  Cu  Cu48  1  0.03635594  0.20222271  0.12084333  1
  Cu  Cu49  1  0.96364406  0.79777729  0.87915667  1
  Cu  Cu50  1  0.46364406  0.79777729  0.62084333  1
  Cu  Cu51  1  0.53635594  0.20222271  0.37915667  1
  Cu  Cu52  1  0.30879405  0.27761177  0.13662546  1
  Cu  Cu53  1  0.69120595  0.72238823  0.86337454  1
  Cu  Cu54  1  0.19120595  0.72238823  0.63662546  1
  Cu  Cu55  1  0.80879405  0.27761177  0.36337454  1
  Cu  Cu56  1  0.08899423  0.66913033  0.37429506  1
  Cu  Cu57  1  0.91100577  0.33086967  0.62570494  1
  Cu  Cu58  1  0.41100577  0.33086967  0.87429506  1
  Cu  Cu59  1  0.58899423  0.66913033  0.12570494  1
  Cu  Cu60  1  0.08646755  0.16692969  0.37859554  1
  Cu  Cu61  1  0.91353245  0.83307031  0.62140446  1
  Cu  Cu62  1  0.41353245  0.83307031  0.87859554  1
  Cu  Cu63  1  0.58646755  0.16692969  0.12140446  1
  Cu  Cu64  1  0.12616037  0.22121836  0.86752757  1
  Cu  Cu65  1  0.87383963  0.77878164  0.13247243  1
  Cu  Cu66  1  0.37383963  0.77878164  0.36752757  1
  Cu  Cu67  1  0.62616037  0.22121836  0.63247243  1
  Cu  Cu68  1  0.05255950  0.47190305  0.36801815  1
  Cu  Cu69  1  0.94744050  0.52809695  0.63198185  1
  Cu  Cu70  1  0.44744050  0.52809695  0.86801815  1
  Cu  Cu71  1  0.55255950  0.47190305  0.13198185  1
