# generated using pymatgen
data_Cu3NiC23
_symmetry_space_group_name_H-M   'P 1'
_cell_length_a   7.93395229
_cell_length_b   7.93395229
_cell_length_c   7.81896145
_cell_angle_alpha   77.67187100
_cell_angle_beta   77.67187100
_cell_angle_gamma   101.40729049
_symmetry_Int_Tables_number   1
_chemical_formula_structural   Cu3NiC23
_chemical_formula_sum   'Cu3 Ni1 C23'
_cell_volume   454.21936404
_cell_formula_units_Z   1
loop_
 _symmetry_equiv_pos_site_id
 _symmetry_equiv_pos_as_xyz
  1  'x, y, z'
loop_
 _atom_site_type_symbol
 _atom_site_label
 _atom_site_symmetry_multiplicity
 _atom_site_fract_x
 _atom_site_fract_y
 _atom_site_fract_z
 _atom_site_occupancy
  C  C0  1  0.54750400  0.54750400  0.94903800  1
  C  C1  1  0.13262800  0.63243700  0.63112400  1
  C  C2  1  0.63243700  0.13262800  0.63112400  1
  C  C3  1  0.96474800  0.57711500  0.03894300  1
  C  C4  1  0.57711500  0.96474800  0.03894300  1
  C  C5  1  0.97138400  0.97138400  0.43346100  1
  C  C6  1  0.32913400  0.32913400  0.67361300  1
  Ni  Ni7  1  0.00656900  0.00656900  0.99670800  1
  Cu  Cu8  1  0.83538700  0.38344700  0.62263300  1
  Cu  Cu9  1  0.38344700  0.83538700  0.62263300  1
  Cu  Cu10  1  0.36131300  0.36131300  0.18878200  1
  C  C11  1  0.98977300  0.76991500  0.51735700  1
  C  C12  1  0.76991500  0.98977300  0.51735700  1
  C  C13  1  0.97618200  0.49588100  0.24146600  1
  C  C14  1  0.49588100  0.97618200  0.24146600  1
  C  C15  1  0.76390600  0.50848100  0.01781900  1
  C  C16  1  0.50848100  0.76390600  0.01781900  1
  C  C17  1  0.02652800  0.02652800  0.18318500  1
  C  C18  1  0.11215700  0.11215700  0.48479800  1
  C  C19  1  0.45134200  0.45134200  0.76728900  1
  C  C20  1  0.10805900  0.52089600  0.89189200  1
  C  C21  1  0.52089600  0.10805900  0.89189200  1
  C  C22  1  0.15184800  0.15184800  0.84832000  1
  C  C23  1  0.24107100  0.45625700  0.54578100  1
  C  C24  1  0.45625700  0.24107100  0.54578100  1
  C  C25  1  0.02980200  0.82363700  0.97258700  1
  C  C26  1  0.82363700  0.02980200  0.97258700  1
