# generated using pymatgen
data_Cu8NiC14
_symmetry_space_group_name_H-M   'P 1'
_cell_length_a   6.00978210
_cell_length_b   6.00978210
_cell_length_c   33.28514600
_cell_angle_alpha   90.00000000
_cell_angle_beta   90.00000000
_cell_angle_gamma   120.00000111
_symmetry_Int_Tables_number   1
_chemical_formula_structural   Cu8NiC14
_chemical_formula_sum   'Cu32 Ni4 C56'
_cell_volume   1041.11461939
_cell_formula_units_Z   4
loop_
 _symmetry_equiv_pos_site_id
 _symmetry_equiv_pos_as_xyz
  1  'x, y, z'
loop_
 _atom_site_type_symbol
 _atom_site_label
 _atom_site_symmetry_multiplicity
 _atom_site_fract_x
 _atom_site_fract_y
 _atom_site_fract_z
 _atom_site_occupancy
  C  C0  1  0.00000000  0.00000000  0.25000000  1
  C  C1  1  0.00000000  0.00000000  0.75000000  1
  Ni  Ni2  1  0.00000000  0.00000000  0.05755700  1
  Ni  Ni3  1  0.00000000  0.00000000  0.94244300  1
  Ni  Ni4  1  0.00000000  0.00000000  0.55755700  1
  Ni  Ni5  1  0.00000000  0.00000000  0.44244300  1
  Cu  Cu6  1  0.33333300  0.66666700  0.59463800  1
  Cu  Cu7  1  0.66666700  0.33333300  0.40536200  1
  Cu  Cu8  1  0.66666700  0.33333300  0.09463800  1
  Cu  Cu9  1  0.33333300  0.66666700  0.90536200  1
  Cu  Cu10  1  0.16386700  0.32773400  0.15126200  1
  Cu  Cu11  1  0.83613300  0.67226600  0.84873800  1
  Cu  Cu12  1  0.67226600  0.83613300  0.15126200  1
  Cu  Cu13  1  0.83613300  0.67226600  0.65126200  1
  Cu  Cu14  1  0.32773400  0.16386700  0.84873800  1
  Cu  Cu15  1  0.16386700  0.32773400  0.34873800  1
  Cu  Cu16  1  0.16386700  0.83613300  0.15126200  1
  Cu  Cu17  1  0.32773400  0.16386700  0.65126200  1
  Cu  Cu18  1  0.83613300  0.16386700  0.84873800  1
  Cu  Cu19  1  0.67226600  0.83613300  0.34873800  1
  Cu  Cu20  1  0.83613300  0.16386700  0.65126200  1
  Cu  Cu21  1  0.16386700  0.83613300  0.34873800  1
  Cu  Cu22  1  0.33333300  0.66666700  0.25000000  1
  Cu  Cu23  1  0.66666700  0.33333300  0.75000000  1
  Cu  Cu24  1  0.33333300  0.66666700  0.07401000  1
  Cu  Cu25  1  0.66666700  0.33333300  0.92599000  1
  Cu  Cu26  1  0.66666700  0.33333300  0.57401000  1
  Cu  Cu27  1  0.33333300  0.66666700  0.42599000  1
  Cu  Cu28  1  0.33333300  0.66666700  0.70873200  1
  Cu  Cu29  1  0.66666700  0.33333300  0.29126800  1
  Cu  Cu30  1  0.66666700  0.33333300  0.20873200  1
  Cu  Cu31  1  0.33333300  0.66666700  0.79126800  1
  Cu  Cu32  1  0.50000000  0.00000000  0.00000000  1
  Cu  Cu33  1  0.00000000  0.50000000  0.00000000  1
  Cu  Cu34  1  0.50000000  0.00000000  0.50000000  1
  Cu  Cu35  1  0.50000000  0.50000000  0.00000000  1
  Cu  Cu36  1  0.00000000  0.50000000  0.50000000  1
  Cu  Cu37  1  0.50000000  0.50000000  0.50000000  1
  C  C38  1  0.18040400  0.36080800  0.03487800  1
  C  C39  1  0.81959600  0.63919200  0.96512200  1
  C  C40  1  0.63919200  0.81959600  0.03487800  1
  C  C41  1  0.81959600  0.63919200  0.53487800  1
  C  C42  1  0.36080800  0.18040400  0.96512200  1
  C  C43  1  0.18040400  0.36080800  0.46512200  1
  C  C44  1  0.18040400  0.81959600  0.03487800  1
  C  C45  1  0.36080800  0.18040400  0.53487800  1
  C  C46  1  0.81959600  0.18040400  0.96512200  1
  C  C47  1  0.63919200  0.81959600  0.46512200  1
  C  C48  1  0.81959600  0.18040400  0.53487800  1
  C  C49  1  0.18040400  0.81959600  0.46512200  1
  C  C50  1  0.51548300  0.03096700  0.25000000  1
  C  C51  1  0.48451700  0.96903300  0.75000000  1
  C  C52  1  0.96903300  0.48451700  0.25000000  1
  C  C53  1  0.03096700  0.51548300  0.75000000  1
  C  C54  1  0.51548300  0.48451700  0.25000000  1
  C  C55  1  0.48451700  0.51548300  0.75000000  1
  C  C56  1  0.16272900  0.32545800  0.68064000  1
  C  C57  1  0.83727100  0.67454200  0.31936000  1
  C  C58  1  0.67454200  0.83727100  0.68064000  1
  C  C59  1  0.83727100  0.67454200  0.18064000  1
  C  C60  1  0.32545800  0.16272900  0.31936000  1
  C  C61  1  0.16272900  0.32545800  0.81936000  1
  C  C62  1  0.16272900  0.83727100  0.68064000  1
  C  C63  1  0.32545800  0.16272900  0.18064000  1
  C  C64  1  0.83727100  0.16272900  0.31936000  1
  C  C65  1  0.67454200  0.83727100  0.81936000  1
  C  C66  1  0.83727100  0.16272900  0.18064000  1
  C  C67  1  0.16272900  0.83727100  0.81936000  1
  C  C68  1  0.33333300  0.66666700  0.53471800  1
  C  C69  1  0.66666700  0.33333300  0.46528200  1
  C  C70  1  0.66666700  0.33333300  0.03471800  1
  C  C71  1  0.33333300  0.66666700  0.96528200  1
  C  C72  1  0.48874900  0.97749700  0.11060000  1
  C  C73  1  0.51125100  0.02250300  0.88940000  1
  C  C74  1  0.02250300  0.51125100  0.11060000  1
  C  C75  1  0.51125100  0.02250300  0.61060000  1
  C  C76  1  0.97749700  0.48874900  0.88940000  1
  C  C77  1  0.48874900  0.97749700  0.38940000  1
  C  C78  1  0.48874900  0.51125100  0.11060000  1
  C  C79  1  0.97749700  0.48874900  0.61060000  1
  C  C80  1  0.51125100  0.48874900  0.88940000  1
  C  C81  1  0.02250300  0.51125100  0.38940000  1
  C  C82  1  0.51125100  0.48874900  0.61060000  1
  C  C83  1  0.48874900  0.51125100  0.38940000  1
  C  C84  1  0.00000000  0.00000000  0.11631200  1
  C  C85  1  0.00000000  0.00000000  0.88368800  1
  C  C86  1  0.00000000  0.00000000  0.61631200  1
  C  C87  1  0.00000000  0.00000000  0.38368800  1
  C  C88  1  0.33333300  0.66666700  0.18039100  1
  C  C89  1  0.66666700  0.33333300  0.81960900  1
  C  C90  1  0.66666700  0.33333300  0.68039100  1
  C  C91  1  0.33333300  0.66666700  0.31960900  1
