# generated using pymatgen
data_CuNiC18
_symmetry_space_group_name_H-M   'P 1'
_cell_length_a   8.66092900
_cell_length_b   8.75751237
_cell_length_c   15.08153322
_cell_angle_alpha   73.25625329
_cell_angle_beta   74.38729956
_cell_angle_gamma   61.54984305
_symmetry_Int_Tables_number   1
_chemical_formula_structural   CuNiC18
_chemical_formula_sum   'Cu4 Ni4 C72'
_cell_volume   951.22841510
_cell_formula_units_Z   4
loop_
 _symmetry_equiv_pos_site_id
 _symmetry_equiv_pos_as_xyz
  1  'x, y, z'
loop_
 _atom_site_type_symbol
 _atom_site_label
 _atom_site_symmetry_multiplicity
 _atom_site_fract_x
 _atom_site_fract_y
 _atom_site_fract_z
 _atom_site_occupancy
  C  C0  1  0.30241300  0.42729500  0.31963700  1
  C  C1  1  0.18420900  0.15194700  0.55488200  1
  C  C2  1  0.68336700  0.65382100  0.05524900  1
  C  C3  1  0.17333100  0.05958000  0.18948300  1
  C  C4  1  0.21066400  0.85127000  0.82545400  1
  C  C5  1  0.71288700  0.35190000  0.32513900  1
  C  C6  1  0.26106300  0.57607600  0.63112100  1
  C  C7  1  0.76026500  0.07656100  0.13042000  1
  C  C8  1  0.80498000  0.92752400  0.81894800  1
  C  C9  1  0.67432800  0.55830400  0.68775800  1
  C  C10  1  0.36719900  0.19574400  0.98158800  1
  C  C11  1  0.86537800  0.69389300  0.48158400  1
  Ni  Ni12  1  0.28482500  0.78190700  0.07425500  1
  Ni  Ni13  1  0.03163400  0.53693100  0.82091700  1
  Ni  Ni14  1  0.78610100  0.28019100  0.57378400  1
  Ni  Ni15  1  0.97899700  0.46342800  0.17510200  1
  Cu  Cu16  1  0.47340100  0.96096000  0.67924600  1
  Cu  Cu17  1  0.53074400  0.03690000  0.32166000  1
  Cu  Cu18  1  0.21854600  0.71641300  0.42404400  1
  Cu  Cu19  1  0.71796300  0.21962500  0.92350100  1
  C  C20  1  0.01322500  0.21920300  0.73464900  1
  C  C21  1  0.51442500  0.71938200  0.23525900  1
  C  C22  1  0.02228600  0.23895500  0.02272800  1
  C  C23  1  0.09645800  0.16265200  0.37580400  1
  C  C24  1  0.40721800  0.32869200  0.12528800  1
  C  C25  1  0.47615900  0.27674800  0.47816400  1
  C  C26  1  0.52172400  0.73220400  0.52387200  1
  C  C27  1  0.59792300  0.66532100  0.87527900  1
  C  C28  1  0.90591800  0.82621700  0.62668600  1
  C  C29  1  0.97426300  0.78242200  0.97713000  1
  C  C30  1  0.48657300  0.27764400  0.76257900  1
  C  C31  1  0.98559000  0.77431200  0.26193100  1
  C  C32  1  0.02295500  0.59774600  0.23844800  1
  C  C33  1  0.45586900  0.78267900  0.13592600  1
  C  C34  1  0.40057800  0.63431300  0.30948200  1
  C  C35  1  0.01018100  0.20526700  0.47493800  1
  C  C36  1  0.29876900  0.44682800  0.47044500  1
  C  C37  1  0.36024100  0.51789000  0.12594300  1
  C  C38  1  0.23991200  0.29396900  0.14321900  1
  C  C39  1  0.26521800  0.19797300  0.35193100  1
  C  C40  1  0.20491800  0.06868400  0.72477900  1
  C  C41  1  0.70480700  0.56973300  0.22515800  1
  C  C42  1  0.20305200  0.07710600  0.03748900  1
  C  C43  1  0.15365200  0.96910800  0.37018900  1
  C  C44  1  0.10277500  0.85982400  0.18996200  1
  C  C45  1  0.01595200  0.75630900  0.53523500  1
  C  C46  1  0.12325500  0.81332800  0.99712000  1
  C  C47  1  0.42840800  0.13902600  0.55530900  1
  C  C48  1  0.51568600  0.26135600  0.03280000  1
  C  C49  1  0.02691700  0.70848800  0.70466300  1
  C  C50  1  0.04829300  0.73173100  0.87810100  1
  C  C51  1  0.62474400  0.30988000  0.49601000  1
  C  C52  1  0.92319600  0.64573200  0.05173700  1
  C  C53  1  0.03226100  0.71902900  0.36260300  1
  C  C54  1  0.52890500  0.21089700  0.20145400  1
  C  C55  1  0.54953500  0.22066600  0.37962600  1
  C  C56  1  0.52364600  0.10232100  0.73871300  1
  C  C57  1  0.49288900  0.88736500  0.25917500  1
  C  C58  1  0.43820000  0.80555300  0.61672700  1
  C  C59  1  0.93772200  0.31539700  0.11606900  1
  C  C60  1  0.95689400  0.27829800  0.63509900  1
  C  C61  1  0.46936900  0.78390700  0.80217200  1
  C  C62  1  0.06831300  0.37018600  0.93906900  1
  C  C63  1  0.38313700  0.68259600  0.50848100  1
  C  C64  1  0.96786800  0.27787500  0.30411100  1
  C  C65  1  0.56351300  0.86706100  0.44167600  1
  C  C66  1  0.88081300  0.19079600  0.00997900  1
  C  C67  1  0.90115700  0.13302700  0.80967700  1
  C  C68  1  0.50738400  0.70902700  0.97361900  1
  C  C69  1  0.79712800  0.95444600  0.97108200  1
  C  C70  1  0.86488300  0.01409700  0.62718100  1
  C  C71  1  0.29528300  0.42187000  0.75855300  1
  C  C72  1  0.79362000  0.91802300  0.25919200  1
  C  C73  1  0.73615200  0.79661900  0.64446600  1
  C  C74  1  0.76499800  0.70138700  0.85290600  1
  C  C75  1  0.70489900  0.57167100  0.53690500  1
  C  C76  1  0.65222000  0.47377300  0.86835400  1
  C  C77  1  0.60537100  0.36082200  0.69039500  1
  C  C78  1  0.53095900  0.22424400  0.86364900  1
  C  C79  1  0.99244700  0.38688400  0.75604600  1
