# generated using pymatgen
data_Cu(NiC5)2
_symmetry_space_group_name_H-M   'P 1'
_cell_length_a   5.29738200
_cell_length_b   11.98916300
_cell_length_c   20.70852300
_cell_angle_alpha   90.00000000
_cell_angle_beta   90.00000000
_cell_angle_gamma   90.00000000
_symmetry_Int_Tables_number   1
_chemical_formula_structural   Cu(NiC5)2
_chemical_formula_sum   'Cu8 Ni16 C80'
_cell_volume   1315.22265457
_cell_formula_units_Z   8
loop_
 _symmetry_equiv_pos_site_id
 _symmetry_equiv_pos_as_xyz
  1  'x, y, z'
loop_
 _atom_site_type_symbol
 _atom_site_label
 _atom_site_symmetry_multiplicity
 _atom_site_fract_x
 _atom_site_fract_y
 _atom_site_fract_z
 _atom_site_occupancy
  C  C0  1  0.75558900  0.66389400  0.82574400  1
  C  C1  1  0.25558900  0.33610600  0.67425600  1
  C  C2  1  0.74441100  0.16389400  0.17425600  1
  C  C3  1  0.24441100  0.83610600  0.32574400  1
  C  C4  1  0.24441100  0.33610600  0.17425600  1
  C  C5  1  0.74441100  0.66389400  0.32574400  1
  C  C6  1  0.25558900  0.83610600  0.82574400  1
  C  C7  1  0.75558900  0.16389400  0.67425600  1
  C  C8  1  0.75802000  0.17438700  0.99745400  1
  C  C9  1  0.25802000  0.82561300  0.50254600  1
  C  C10  1  0.25802000  0.32561300  0.99745400  1
  C  C11  1  0.75802000  0.67438700  0.50254600  1
  C  C12  1  0.24198000  0.82561300  0.00254600  1
  C  C13  1  0.74198000  0.17438700  0.49745400  1
  C  C14  1  0.74198000  0.67438700  0.00254600  1
  C  C15  1  0.24198000  0.32561300  0.49745400  1
  C  C16  1  0.79139600  0.68657800  0.66656800  1
  C  C17  1  0.79139600  0.18657800  0.83343200  1
  C  C18  1  0.29139600  0.81342200  0.66656800  1
  C  C19  1  0.70860400  0.68657800  0.16656800  1
  C  C20  1  0.20860400  0.31342200  0.33343200  1
  C  C21  1  0.20860400  0.81342200  0.16656800  1
  C  C22  1  0.70860400  0.18657800  0.33343200  1
  C  C23  1  0.29139600  0.31342200  0.83343200  1
  Ni  Ni24  1  0.25461900  0.07939200  0.24079400  1
  Ni  Ni25  1  0.24538100  0.57939200  0.75920600  1
  Ni  Ni26  1  0.75461900  0.92060800  0.25920600  1
  Ni  Ni27  1  0.78528800  0.91978900  0.57225700  1
  Ni  Ni28  1  0.25461900  0.57939200  0.25920600  1
  Ni  Ni29  1  0.75461900  0.42060800  0.24079400  1
  Ni  Ni30  1  0.24538100  0.07939200  0.74079400  1
  Ni  Ni31  1  0.74538100  0.92060800  0.75920600  1
  Ni  Ni32  1  0.28528800  0.08021100  0.92774300  1
  Ni  Ni33  1  0.71471200  0.41978900  0.42774300  1
  Ni  Ni34  1  0.21471200  0.58021100  0.07225700  1
  Ni  Ni35  1  0.78528800  0.41978900  0.92774300  1
  Ni  Ni36  1  0.71471200  0.91978900  0.07225700  1
  Ni  Ni37  1  0.28528800  0.58021100  0.57225700  1
  Ni  Ni38  1  0.21471200  0.08021100  0.42774300  1
  Ni  Ni39  1  0.74538100  0.42060800  0.74079400  1
  Cu  Cu40  1  0.78289600  0.92898500  0.91154200  1
  Cu  Cu41  1  0.28289600  0.07101500  0.58845800  1
  Cu  Cu42  1  0.71710400  0.42898500  0.08845800  1
  Cu  Cu43  1  0.21710400  0.57101500  0.41154200  1
  Cu  Cu44  1  0.21710400  0.07101500  0.08845800  1
  Cu  Cu45  1  0.71710400  0.92898500  0.41154200  1
  Cu  Cu46  1  0.28289600  0.57101500  0.91154200  1
  Cu  Cu47  1  0.78289600  0.42898500  0.58845800  1
  C  C48  1  0.69506400  0.34809600  0.65574600  1
  C  C49  1  0.19506400  0.65190400  0.84425400  1
  C  C50  1  0.80493600  0.84809600  0.34425400  1
  C  C51  1  0.30493600  0.15190400  0.15574600  1
  C  C52  1  0.30493600  0.65190400  0.34425400  1
  C  C53  1  0.80493600  0.34809600  0.15574600  1
  C  C54  1  0.19506400  0.15190400  0.65574600  1
  C  C55  1  0.69506400  0.84809600  0.84425400  1
  C  C56  1  0.65199600  0.06773500  0.90208100  1
  C  C57  1  0.15199600  0.93226500  0.59791900  1
  C  C58  1  0.84800400  0.56773500  0.09791900  1
  C  C59  1  0.34800400  0.43226500  0.40208100  1
  C  C60  1  0.34800400  0.93226500  0.09791900  1
  C  C61  1  0.84800400  0.06773500  0.40208100  1
  C  C62  1  0.15199600  0.43226500  0.90208100  1
  C  C63  1  0.65199600  0.56773500  0.59791900  1
  C  C64  1  0.67417600  0.36278600  0.51737800  1
  C  C65  1  0.17417600  0.63721400  0.98262200  1
  C  C66  1  0.82582400  0.86278600  0.48262200  1
  C  C67  1  0.32582400  0.13721400  0.01737800  1
  C  C68  1  0.32582400  0.63721400  0.48262200  1
  C  C69  1  0.82582400  0.36278600  0.01737800  1
  C  C70  1  0.17417600  0.13721400  0.51737800  1
  C  C71  1  0.67417600  0.86278600  0.98262200  1
  C  C72  1  0.95189400  0.30517800  0.78569200  1
  C  C73  1  0.58817000  0.29772200  0.88682700  1
  C  C74  1  0.45189400  0.69482200  0.71430800  1
  C  C75  1  0.04810600  0.19482200  0.28569200  1
  C  C76  1  0.04810600  0.69482200  0.21430800  1
  C  C77  1  0.54810600  0.30517800  0.28569200  1
  C  C78  1  0.45189400  0.19482200  0.78569200  1
  C  C79  1  0.95189400  0.80517800  0.71430800  1
  C  C80  1  0.61732900  0.06255300  0.58422500  1
  C  C81  1  0.11732900  0.93744700  0.91577500  1
  C  C82  1  0.88267100  0.56255300  0.41577500  1
  C  C83  1  0.38267100  0.43744700  0.08422500  1
  C  C84  1  0.38267100  0.93744700  0.41577500  1
  C  C85  1  0.88267100  0.06255300  0.08422500  1
  C  C86  1  0.11732900  0.43744700  0.58422500  1
  C  C87  1  0.61732900  0.56255300  0.91577500  1
  C  C88  1  0.89573300  0.06908000  0.77590000  1
  C  C89  1  0.39573300  0.93092000  0.72410000  1
  C  C90  1  0.60426700  0.56908000  0.22410000  1
  C  C91  1  0.10426700  0.43092000  0.27590000  1
  C  C92  1  0.10426700  0.93092000  0.22410000  1
  C  C93  1  0.60426700  0.06908000  0.27590000  1
  C  C94  1  0.39573300  0.43092000  0.77590000  1
  C  C95  1  0.89573300  0.56908000  0.72410000  1
  C  C96  1  0.58817000  0.79772200  0.61317300  1
  C  C97  1  0.08817000  0.20227800  0.88682700  1
  C  C98  1  0.91183000  0.29772200  0.38682700  1
  C  C99  1  0.41183000  0.70227800  0.11317300  1
  C  C100  1  0.41183000  0.20227800  0.38682700  1
  C  C101  1  0.91183000  0.79772200  0.11317300  1
  C  C102  1  0.08817000  0.70227800  0.61317300  1
  C  C103  1  0.54810600  0.80517800  0.21430800  1
