# generated using pymatgen
data_Cu2Ni30C29
_symmetry_space_group_name_H-M   'P 1'
_cell_length_a   13.79875115
_cell_length_b   13.79875115
_cell_length_c   12.80381091
_cell_angle_alpha   64.36396851
_cell_angle_beta   64.36396851
_cell_angle_gamma   48.54087857
_symmetry_Int_Tables_number   1
_chemical_formula_structural   Cu2Ni30C29
_chemical_formula_sum   'Cu2 Ni30 C29'
_cell_volume   1608.16653081
_cell_formula_units_Z   1
loop_
 _symmetry_equiv_pos_site_id
 _symmetry_equiv_pos_as_xyz
  1  'x, y, z'
loop_
 _atom_site_type_symbol
 _atom_site_label
 _atom_site_symmetry_multiplicity
 _atom_site_fract_x
 _atom_site_fract_y
 _atom_site_fract_z
 _atom_site_occupancy
  C  C0  1  0.00000000  0.00000000  0.00000000  1
  C  C1  1  0.74997400  0.74997400  0.07062900  1
  C  C2  1  0.25002600  0.25002600  0.92937100  1
  C  C3  1  0.62827400  0.24430900  0.80331300  1
  C  C4  1  0.24430900  0.62827400  0.80331300  1
  C  C5  1  0.37172600  0.75569100  0.19668700  1
  C  C6  1  0.75569100  0.37172600  0.19668700  1
  C  C7  1  0.83503100  0.44306900  0.47606100  1
  C  C8  1  0.44306900  0.83503100  0.47606100  1
  C  C9  1  0.16496900  0.55693100  0.52393900  1
  C  C10  1  0.55693100  0.16496900  0.52393900  1
  C  C11  1  0.00000000  0.00000000  0.50000000  1
  C  C12  1  0.52340700  0.52340700  0.88857200  1
  C  C13  1  0.47659300  0.47659300  0.11142800  1
  C  C14  1  0.82253900  0.82253900  0.74568600  1
  C  C15  1  0.17746100  0.17746100  0.25431400  1
  C  C16  1  0.04972600  0.04972600  0.64766800  1
  C  C17  1  0.95027400  0.95027400  0.35233200  1
  C  C18  1  0.76013000  0.76013000  0.55499100  1
  C  C19  1  0.23987000  0.23987000  0.44500900  1
  C  C20  1  0.29747400  0.00578800  0.75269900  1
  C  C21  1  0.00578800  0.29747400  0.75269900  1
  C  C22  1  0.70252600  0.99421200  0.24730100  1
  C  C23  1  0.99421200  0.70252600  0.24730100  1
  C  C24  1  0.52722100  0.85562500  0.85217900  1
  C  C25  1  0.85562500  0.52722100  0.85217900  1
  C  C26  1  0.47277900  0.14437500  0.14782100  1
  C  C27  1  0.14437500  0.47277900  0.14782100  1
  C  C28  1  0.50000000  0.50000000  0.50000000  1
  Ni  Ni29  1  0.85803600  0.85803600  0.53772200  1
  Ni  Ni30  1  0.14196400  0.14196400  0.46227800  1
  Ni  Ni31  1  0.54757100  0.54757100  0.69480300  1
  Ni  Ni32  1  0.45242900  0.45242900  0.30519700  1
  Ni  Ni33  1  0.62326100  0.62326100  0.30918200  1
  Ni  Ni34  1  0.37673900  0.37673900  0.69081800  1
  Ni  Ni35  1  0.22209900  0.22209900  0.64219600  1
  Ni  Ni36  1  0.77790100  0.77790100  0.35780400  1
  Ni  Ni37  1  0.65103900  0.65103900  0.96885800  1
  Ni  Ni38  1  0.34896100  0.34896100  0.03114200  1
  Ni  Ni39  1  0.94775700  0.94775700  0.69032400  1
  Ni  Ni40  1  0.05224300  0.05224300  0.30967600  1
  Ni  Ni41  1  0.69432500  0.30567500  0.50000000  1
  Ni  Ni42  1  0.30567500  0.69432500  0.50000000  1
  Ni  Ni43  1  0.22845200  0.89852500  0.74285200  1
  Ni  Ni44  1  0.89852500  0.22845200  0.74285200  1
  Ni  Ni45  1  0.77154800  0.10147500  0.25714800  1
  Ni  Ni46  1  0.10147500  0.77154800  0.25714800  1
  Ni  Ni47  1  0.30166100  0.97561900  0.94198300  1
  Ni  Ni48  1  0.97561900  0.30166100  0.94198300  1
  Ni  Ni49  1  0.69833900  0.02438100  0.05801700  1
  Ni  Ni50  1  0.02438100  0.69833900  0.05801700  1
  Ni  Ni51  1  0.61426300  0.97530400  0.82460900  1
  Ni  Ni52  1  0.97530400  0.61426300  0.82460900  1
  Ni  Ni53  1  0.38573700  0.02469600  0.17539100  1
  Ni  Ni54  1  0.02469600  0.38573700  0.17539100  1
  Ni  Ni55  1  0.54084500  0.87494300  0.65547100  1
  Ni  Ni56  1  0.87494300  0.54084500  0.65547100  1
  Ni  Ni57  1  0.45915500  0.12505700  0.34452900  1
  Ni  Ni58  1  0.12505700  0.45915500  0.34452900  1
  Cu  Cu59  1  0.38328100  0.61671900  0.00000000  1
  Cu  Cu60  1  0.61671900  0.38328100  0.00000000  1
