# generated using pymatgen
data_CuNi5
_symmetry_space_group_name_H-M   'P 1'
_cell_length_a   6.68982727
_cell_length_b   6.68982727
_cell_length_c   6.68982727
_cell_angle_alpha   123.24166388
_cell_angle_beta   123.24166388
_cell_angle_gamma   84.47137158
_symmetry_Int_Tables_number   1
_chemical_formula_structural   CuNi5
_chemical_formula_sum   'Cu2 Ni10'
_cell_volume   200.31179757
_cell_formula_units_Z   2
loop_
 _symmetry_equiv_pos_site_id
 _symmetry_equiv_pos_as_xyz
  1  'x, y, z'
loop_
 _atom_site_type_symbol
 _atom_site_label
 _atom_site_symmetry_multiplicity
 _atom_site_fract_x
 _atom_site_fract_y
 _atom_site_fract_z
 _atom_site_occupancy
  Ni  Ni0  1  0.00000000  0.00000000  0.00000000  1
  Ni  Ni1  1  0.50000000  0.50000000  0.00000000  1
  Ni  Ni2  1  0.00639200  0.50639200  0.79976600  1
  Ni  Ni3  1  0.70662600  0.20662600  0.20023400  1
  Ni  Ni4  1  0.50639200  0.70662600  0.50000000  1
  Ni  Ni5  1  0.20662600  0.00639200  0.50000000  1
  Ni  Ni6  1  0.99360800  0.49360800  0.20023400  1
  Ni  Ni7  1  0.29337400  0.79337400  0.79976600  1
  Ni  Ni8  1  0.49360800  0.29337400  0.50000000  1
  Ni  Ni9  1  0.79337400  0.99360800  0.50000000  1
  Cu  Cu10  1  0.75000000  0.75000000  0.00000000  1
  Cu  Cu11  1  0.25000000  0.25000000  0.00000000  1
