# generated using pymatgen
data_Cu12Ni32C5
_symmetry_space_group_name_H-M   'P 1'
_cell_length_a   15.06518399
_cell_length_b   15.65613803
_cell_length_c   17.00166388
_cell_angle_alpha   90.00000000
_cell_angle_beta   90.00000000
_cell_angle_gamma   90.00000000
_symmetry_Int_Tables_number   1
_chemical_formula_structural   Cu12Ni32C5
_chemical_formula_sum   'Cu96 Ni256 C40'
_cell_volume   4010.05664697
_cell_formula_units_Z   8
loop_
 _symmetry_equiv_pos_site_id
 _symmetry_equiv_pos_as_xyz
  1  'x, y, z'
loop_
 _atom_site_type_symbol
 _atom_site_label
 _atom_site_symmetry_multiplicity
 _atom_site_fract_x
 _atom_site_fract_y
 _atom_site_fract_z
 _atom_site_occupancy
  C  C0  1  0.99584653  0.37277763  0.01441111  1
  C  C1  1  0.50415347  0.87277763  0.98558889  1
  C  C2  1  0.49584653  0.62722237  0.48558889  1
  C  C3  1  0.00415347  0.12722237  0.51441111  1
  C  C4  1  0.00415347  0.62722237  0.98558889  1
  C  C5  1  0.49584653  0.12722237  0.01441111  1
  C  C6  1  0.50415347  0.37277763  0.51441111  1
  C  C7  1  0.99584653  0.87277763  0.48558889  1
  C  C8  1  0.10158077  0.50565239  0.07322573  1
  C  C9  1  0.39841923  0.00565239  0.92677427  1
  C  C10  1  0.60158077  0.49434761  0.42677427  1
  C  C11  1  0.89841923  0.99434761  0.57322573  1
  C  C12  1  0.89841923  0.49434761  0.92677427  1
  C  C13  1  0.60158077  0.99434761  0.07322573  1
  C  C14  1  0.39841923  0.50565239  0.57322573  1
  C  C15  1  0.10158077  0.00565239  0.42677427  1
  Ni  Ni16  1  0.92551125  0.39868470  0.84786419  1
  Ni  Ni17  1  0.57448875  0.89868470  0.15213581  1
  Ni  Ni18  1  0.42551125  0.60131530  0.65213581  1
  Ni  Ni19  1  0.07448875  0.10131530  0.34786419  1
  Ni  Ni20  1  0.07448875  0.60131530  0.15213581  1
  Ni  Ni21  1  0.42551125  0.10131530  0.84786419  1
  Ni  Ni22  1  0.57448875  0.39868470  0.34786419  1
  Ni  Ni23  1  0.92551125  0.89868470  0.65213581  1
  Ni  Ni24  1  0.03281365  0.37261918  0.81781341  1
  Ni  Ni25  1  0.46718635  0.87261918  0.18218659  1
  Ni  Ni26  1  0.53281365  0.62738082  0.68218659  1
  Ni  Ni27  1  0.96718635  0.12738082  0.31781341  1
  Ni  Ni28  1  0.96718635  0.62738082  0.18218659  1
  Ni  Ni29  1  0.53281365  0.12738082  0.81781341  1
  Ni  Ni30  1  0.46718635  0.37261918  0.31781341  1
  Ni  Ni31  1  0.03281365  0.87261918  0.68218659  1
  Ni  Ni32  1  0.98967628  0.32454276  0.90187051  1
  Ni  Ni33  1  0.51032372  0.82454276  0.09812949  1
  Ni  Ni34  1  0.48967628  0.67545724  0.59812949  1
  Ni  Ni35  1  0.01032372  0.17545724  0.40187051  1
  Ni  Ni36  1  0.01032372  0.67545724  0.09812949  1
  Ni  Ni37  1  0.48967628  0.17545724  0.90187051  1
  Ni  Ni38  1  0.51032372  0.32454276  0.40187051  1
  Ni  Ni39  1  0.98967628  0.82454276  0.59812949  1
  Ni  Ni40  1  0.05114832  0.62644021  0.82811934  1
  Ni  Ni41  1  0.44885168  0.12644021  0.17188066  1
  Ni  Ni42  1  0.55114832  0.37355979  0.67188066  1
  Ni  Ni43  1  0.94885168  0.87355979  0.32811934  1
  Ni  Ni44  1  0.94885168  0.37355979  0.17188066  1
  Ni  Ni45  1  0.55114832  0.87355979  0.82811934  1
  Ni  Ni46  1  0.44885168  0.62644021  0.32811934  1
  Ni  Ni47  1  0.05114832  0.12644021  0.67188066  1
  Ni  Ni48  1  0.98466989  0.54223426  0.79151053  1
  Ni  Ni49  1  0.51533011  0.04223426  0.20848947  1
  Ni  Ni50  1  0.48466989  0.45776574  0.70848947  1
  Ni  Ni51  1  0.01533011  0.95776574  0.29151053  1
  Ni  Ni52  1  0.01533011  0.45776574  0.20848947  1
  Ni  Ni53  1  0.48466989  0.95776574  0.79151053  1
  Ni  Ni54  1  0.51533011  0.54223426  0.29151053  1
  Ni  Ni55  1  0.98466989  0.04223426  0.70848947  1
  Ni  Ni56  1  0.94313515  0.61156211  0.86375974  1
  Ni  Ni57  1  0.55686485  0.11156211  0.13624026  1
  Ni  Ni58  1  0.44313515  0.38843789  0.63624026  1
  Ni  Ni59  1  0.05686485  0.88843789  0.36375974  1
  Ni  Ni60  1  0.05686485  0.38843789  0.13624026  1
  Ni  Ni61  1  0.44313515  0.88843789  0.86375974  1
  Ni  Ni62  1  0.55686485  0.61156211  0.36375974  1
  Ni  Ni63  1  0.94313515  0.11156211  0.63624026  1
  Ni  Ni64  1  0.16391138  0.60976325  0.01884135  1
  Ni  Ni65  1  0.33608862  0.10976325  0.98115865  1
  Ni  Ni66  1  0.66391138  0.39023675  0.48115865  1
  Ni  Ni67  1  0.83608862  0.89023675  0.51884135  1
  Ni  Ni68  1  0.83608862  0.39023675  0.98115865  1
  Ni  Ni69  1  0.66391138  0.89023675  0.01884135  1
  Ni  Ni70  1  0.33608862  0.60976325  0.51884135  1
  Ni  Ni71  1  0.16391138  0.10976325  0.48115865  1
  Ni  Ni72  1  0.22627474  0.56221124  0.94356982  1
  Ni  Ni73  1  0.27372526  0.06221124  0.05643018  1
  Ni  Ni74  1  0.72627474  0.43778876  0.55643018  1
  Ni  Ni75  1  0.77372526  0.93778876  0.44356982  1
  Ni  Ni76  1  0.77372526  0.43778876  0.05643018  1
  Ni  Ni77  1  0.72627474  0.93778876  0.94356982  1
  Ni  Ni78  1  0.27372526  0.56221124  0.44356982  1
  Ni  Ni79  1  0.22627474  0.06221124  0.55643018  1
  Ni  Ni80  1  0.15088928  0.64488373  0.92137890  1
  Ni  Ni81  1  0.34911072  0.14488373  0.07862110  1
  Ni  Ni82  1  0.65088928  0.35511627  0.57862110  1
  Ni  Ni83  1  0.84911072  0.85511627  0.42137890  1
  Ni  Ni84  1  0.84911072  0.35511627  0.07862110  1
  Ni  Ni85  1  0.65088928  0.85511627  0.92137890  1
  Ni  Ni86  1  0.34911072  0.64488373  0.42137890  1
  Ni  Ni87  1  0.15088928  0.14488373  0.57862110  1
  Ni  Ni88  1  0.16268060  0.39427629  0.04509896  1
  Ni  Ni89  1  0.33731940  0.89427629  0.95490104  1
  Ni  Ni90  1  0.66268060  0.60572371  0.45490104  1
  Ni  Ni91  1  0.83731940  0.10572371  0.54509896  1
  Ni  Ni92  1  0.83731940  0.60572371  0.95490104  1
  Ni  Ni93  1  0.66268060  0.10572371  0.04509896  1
  Ni  Ni94  1  0.33731940  0.39427629  0.54509896  1
  Ni  Ni95  1  0.16268060  0.89427629  0.45490104  1
  Ni  Ni96  1  0.13043238  0.32932468  0.96545761  1
  Ni  Ni97  1  0.36956762  0.82932468  0.03454239  1
  Ni  Ni98  1  0.63043238  0.67067532  0.53454239  1
  Ni  Ni99  1  0.86956762  0.17067532  0.46545761  1
  Ni  Ni100  1  0.86956762  0.67067532  0.03454239  1
  Ni  Ni101  1  0.63043238  0.17067532  0.96545761  1
  Ni  Ni102  1  0.36956762  0.32932468  0.46545761  1
  Ni  Ni103  1  0.13043238  0.82932468  0.53454239  1
  Ni  Ni104  1  0.21630618  0.40433725  0.95482349  1
  Ni  Ni105  1  0.28369382  0.90433725  0.04517651  1
  Ni  Ni106  1  0.71630618  0.59566275  0.54517651  1
  Ni  Ni107  1  0.78369382  0.09566275  0.45482349  1
  Ni  Ni108  1  0.78369382  0.59566275  0.04517651  1
  Ni  Ni109  1  0.71630618  0.09566275  0.95482349  1
  Ni  Ni110  1  0.28369382  0.40433725  0.45482349  1
  Ni  Ni111  1  0.21630618  0.90433725  0.54517651  1
  Ni  Ni112  1  0.12759025  0.21898081  0.04081142  1
  Ni  Ni113  1  0.37240975  0.71898081  0.95918858  1
  Ni  Ni114  1  0.62759025  0.78101919  0.45918858  1
  Ni  Ni115  1  0.87240975  0.28101919  0.54081142  1
  Ni  Ni116  1  0.87240975  0.78101919  0.95918858  1
  Ni  Ni117  1  0.62759025  0.28101919  0.04081142  1
  Ni  Ni118  1  0.37240975  0.21898081  0.54081142  1
  Ni  Ni119  1  0.12759025  0.71898081  0.45918858  1
  Ni  Ni120  1  0.07474363  0.12135982  0.01819799  1
  Ni  Ni121  1  0.42525637  0.62135982  0.98180201  1
  Ni  Ni122  1  0.57474363  0.87864018  0.48180201  1
  Ni  Ni123  1  0.92525637  0.37864018  0.51819799  1
  Ni  Ni124  1  0.92525637  0.87864018  0.98180201  1
  Ni  Ni125  1  0.57474363  0.37864018  0.01819799  1
  Ni  Ni126  1  0.42525637  0.12135982  0.51819799  1
  Ni  Ni127  1  0.07474363  0.62135982  0.48180201  1
  Ni  Ni128  1  0.12393543  0.12504090  0.15745195  1
  Ni  Ni129  1  0.37606457  0.62504090  0.84254805  1
  Ni  Ni130  1  0.62393543  0.87495910  0.34254805  1
  Ni  Ni131  1  0.87606457  0.37495910  0.65745195  1
  Ni  Ni132  1  0.87606457  0.87495910  0.84254805  1
  Ni  Ni133  1  0.62393543  0.37495910  0.15745195  1
  Ni  Ni134  1  0.37606457  0.12504090  0.65745195  1
  Ni  Ni135  1  0.12393543  0.62504090  0.34254805  1
  Ni  Ni136  1  0.05832481  0.21779566  0.17566090  1
  Ni  Ni137  1  0.44167519  0.71779566  0.82433910  1
  Ni  Ni138  1  0.55832481  0.78220434  0.32433910  1
  Ni  Ni139  1  0.94167519  0.28220434  0.67566090  1
  Ni  Ni140  1  0.94167519  0.78220434  0.82433910  1
  Ni  Ni141  1  0.55832481  0.28220434  0.17566090  1
  Ni  Ni142  1  0.44167519  0.21779566  0.67566090  1
  Ni  Ni143  1  0.05832481  0.71779566  0.32433910  1
  Ni  Ni144  1  0.00652810  0.11808634  0.15527088  1
  Ni  Ni145  1  0.49347190  0.61808634  0.84472912  1
  Ni  Ni146  1  0.50652810  0.88191366  0.34472912  1
  Ni  Ni147  1  0.99347190  0.38191366  0.65527088  1
  Ni  Ni148  1  0.99347190  0.88191366  0.84472912  1
  Ni  Ni149  1  0.50652810  0.38191366  0.15527088  1
  Ni  Ni150  1  0.49347190  0.11808634  0.65527088  1
  Ni  Ni151  1  0.00652810  0.61808634  0.34472912  1
  Ni  Ni152  1  0.86610431  0.22482861  0.98741839  1
  Ni  Ni153  1  0.63389569  0.72482861  0.01258161  1
  Ni  Ni154  1  0.36610431  0.77517139  0.51258161  1
  Ni  Ni155  1  0.13389569  0.27517139  0.48741839  1
  Ni  Ni156  1  0.13389569  0.77517139  0.01258161  1
  Ni  Ni157  1  0.36610431  0.27517139  0.98741839  1
  Ni  Ni158  1  0.63389569  0.22482861  0.48741839  1
  Ni  Ni159  1  0.86610431  0.72482861  0.51258161  1
  Ni  Ni160  1  0.89444462  0.14190166  0.05367482  1
  Ni  Ni161  1  0.60555538  0.64190166  0.94632518  1
  Ni  Ni162  1  0.39444462  0.85809834  0.44632518  1
  Ni  Ni163  1  0.10555538  0.35809834  0.55367482  1
  Ni  Ni164  1  0.10555538  0.85809834  0.94632518  1
  Ni  Ni165  1  0.39444462  0.35809834  0.05367482  1
  Ni  Ni166  1  0.60555538  0.14190166  0.55367482  1
  Ni  Ni167  1  0.89444462  0.64190166  0.44632518  1
  Ni  Ni168  1  0.87198805  0.08714240  0.91728069  1
  Ni  Ni169  1  0.62801195  0.58714240  0.08271931  1
  Ni  Ni170  1  0.37198805  0.91285760  0.58271931  1
  Ni  Ni171  1  0.12801195  0.41285760  0.41728069  1
  Ni  Ni172  1  0.12801195  0.91285760  0.08271931  1
  Ni  Ni173  1  0.37198805  0.41285760  0.91728069  1
  Ni  Ni174  1  0.62801195  0.08714240  0.41728069  1
  Ni  Ni175  1  0.87198805  0.58714240  0.58271931  1
  Ni  Ni176  1  0.95778125  0.15510069  0.88098857  1
  Ni  Ni177  1  0.54221875  0.65510069  0.11901143  1
  Ni  Ni178  1  0.45778125  0.84489931  0.61901143  1
  Ni  Ni179  1  0.04221875  0.34489931  0.38098857  1
  Ni  Ni180  1  0.04221875  0.84489931  0.11901143  1
  Ni  Ni181  1  0.45778125  0.34489931  0.88098857  1
  Ni  Ni182  1  0.54221875  0.15510069  0.38098857  1
  Ni  Ni183  1  0.95778125  0.65510069  0.61901143  1
  Ni  Ni184  1  0.98318797  0.06863410  0.94509859  1
  Ni  Ni185  1  0.51681203  0.56863410  0.05490141  1
  Ni  Ni186  1  0.48318797  0.93136590  0.55490141  1
  Ni  Ni187  1  0.01681203  0.43136590  0.44509859  1
  Ni  Ni188  1  0.01681203  0.93136590  0.05490141  1
  Ni  Ni189  1  0.48318797  0.43136590  0.94509859  1
  Ni  Ni190  1  0.51681203  0.06863410  0.44509859  1
  Ni  Ni191  1  0.98318797  0.56863410  0.55490141  1
  Ni  Ni192  1  0.36211327  0.51778380  0.16984657  1
  Ni  Ni193  1  0.13788673  0.01778380  0.83015343  1
  Ni  Ni194  1  0.86211327  0.48221620  0.33015343  1
  Ni  Ni195  1  0.63788673  0.98221620  0.66984657  1
  Ni  Ni196  1  0.63788673  0.48221620  0.83015343  1
  Ni  Ni197  1  0.86211327  0.98221620  0.16984657  1
  Ni  Ni198  1  0.13788673  0.51778380  0.66984657  1
  Ni  Ni199  1  0.36211327  0.01778380  0.33015343  1
  Ni  Ni200  1  0.31417580  0.54999334  0.07892294  1
  Ni  Ni201  1  0.18582420  0.04999334  0.92107706  1
  Ni  Ni202  1  0.81417580  0.45000666  0.42107706  1
  Ni  Ni203  1  0.68582420  0.95000666  0.57892294  1
  Ni  Ni204  1  0.68582420  0.45000666  0.92107706  1
  Ni  Ni205  1  0.81417580  0.95000666  0.07892294  1
  Ni  Ni206  1  0.18582420  0.54999334  0.57892294  1
  Ni  Ni207  1  0.31417580  0.04999334  0.42107706  1
  Ni  Ni208  1  0.36698701  0.67637357  0.15694421  1
  Ni  Ni209  1  0.13301299  0.17637357  0.84305579  1
  Ni  Ni210  1  0.86698701  0.32362643  0.34305579  1
  Ni  Ni211  1  0.63301299  0.82362643  0.65694421  1
  Ni  Ni212  1  0.63301299  0.32362643  0.84305579  1
  Ni  Ni213  1  0.86698701  0.82362643  0.15694421  1
  Ni  Ni214  1  0.13301299  0.67637357  0.65694421  1
  Ni  Ni215  1  0.36698701  0.17637357  0.34305579  1
  Ni  Ni216  1  0.24960213  0.67989914  0.14346690  1
  Ni  Ni217  1  0.25039787  0.17989914  0.85653310  1
  Ni  Ni218  1  0.74960213  0.32010086  0.35653310  1
  Ni  Ni219  1  0.75039787  0.82010086  0.64346690  1
  Ni  Ni220  1  0.75039787  0.32010086  0.85653310  1
  Ni  Ni221  1  0.74960213  0.82010086  0.14346690  1
  Ni  Ni222  1  0.25039787  0.67989914  0.64346690  1
  Ni  Ni223  1  0.24960213  0.17989914  0.35653310  1
  Ni  Ni224  1  0.29541276  0.64867872  0.23568441  1
  Ni  Ni225  1  0.20458724  0.14867872  0.76431559  1
  Ni  Ni226  1  0.79541276  0.35132128  0.26431559  1
  Ni  Ni227  1  0.70458724  0.85132128  0.73568441  1
  Ni  Ni228  1  0.70458724  0.35132128  0.76431559  1
  Ni  Ni229  1  0.79541276  0.85132128  0.23568441  1
  Ni  Ni230  1  0.20458724  0.64867872  0.73568441  1
  Ni  Ni231  1  0.29541276  0.14867872  0.26431559  1
  Ni  Ni232  1  0.26926726  0.50503276  0.27673658  1
  Ni  Ni233  1  0.23073274  0.00503276  0.72326342  1
  Ni  Ni234  1  0.76926726  0.49496724  0.22326342  1
  Ni  Ni235  1  0.73073274  0.99496724  0.77673658  1
  Ni  Ni236  1  0.73073274  0.49496724  0.72326342  1
  Ni  Ni237  1  0.76926726  0.99496724  0.27673658  1
  Ni  Ni238  1  0.23073274  0.50503276  0.77673658  1
  Ni  Ni239  1  0.26926726  0.00503276  0.22326342  1
  Ni  Ni240  1  0.15863165  0.46956288  0.25994666  1
  Ni  Ni241  1  0.34136835  0.96956288  0.74005334  1
  Ni  Ni242  1  0.65863165  0.53043712  0.24005334  1
  Ni  Ni243  1  0.84136835  0.03043712  0.75994666  1
  Ni  Ni244  1  0.84136835  0.53043712  0.74005334  1
  Ni  Ni245  1  0.65863165  0.03043712  0.25994666  1
  Ni  Ni246  1  0.34136835  0.46956288  0.75994666  1
  Ni  Ni247  1  0.15863165  0.96956288  0.24005334  1
  Ni  Ni248  1  0.25979347  0.34755526  0.29208549  1
  Ni  Ni249  1  0.24020653  0.84755526  0.70791451  1
  Ni  Ni250  1  0.75979347  0.65244474  0.20791451  1
  Ni  Ni251  1  0.74020653  0.15244474  0.79208549  1
  Ni  Ni252  1  0.74020653  0.65244474  0.70791451  1
  Ni  Ni253  1  0.75979347  0.15244474  0.29208549  1
  Ni  Ni254  1  0.24020653  0.34755526  0.79208549  1
  Ni  Ni255  1  0.25979347  0.84755526  0.20791451  1
  Ni  Ni256  1  0.21623480  0.33681311  0.19485327  1
  Ni  Ni257  1  0.28376520  0.83681311  0.80514673  1
  Ni  Ni258  1  0.71623480  0.66318689  0.30514673  1
  Ni  Ni259  1  0.78376520  0.16318689  0.69485327  1
  Ni  Ni260  1  0.78376520  0.66318689  0.80514673  1
  Ni  Ni261  1  0.71623480  0.16318689  0.19485327  1
  Ni  Ni262  1  0.28376520  0.33681311  0.69485327  1
  Ni  Ni263  1  0.21623480  0.83681311  0.30514673  1
  Ni  Ni264  1  0.32766226  0.37151553  0.21007471  1
  Ni  Ni265  1  0.17233774  0.87151553  0.78992529  1
  Ni  Ni266  1  0.82766226  0.62848447  0.28992529  1
  Ni  Ni267  1  0.67233774  0.12848447  0.71007471  1
  Ni  Ni268  1  0.67233774  0.62848447  0.78992529  1
  Ni  Ni269  1  0.82766226  0.12848447  0.21007471  1
  Ni  Ni270  1  0.17233774  0.37151553  0.71007471  1
  Ni  Ni271  1  0.32766226  0.87151553  0.28992529  1
  C  C272  1  0.06885975  0.48819044  0.92239334  1
  C  C273  1  0.43114025  0.98819044  0.07760666  1
  C  C274  1  0.56885975  0.51180956  0.57760666  1
  C  C275  1  0.93114025  0.01180956  0.42239334  1
  C  C276  1  0.93114025  0.51180956  0.07760666  1
  C  C277  1  0.56885975  0.01180956  0.92239334  1
  C  C278  1  0.43114025  0.48819044  0.42239334  1
  C  C279  1  0.06885975  0.98819044  0.57760666  1
  Cu  Cu280  1  0.06845347  0.18017309  0.05320272  1
  Cu  Cu281  1  0.43154653  0.68017309  0.94679728  1
  Cu  Cu282  1  0.56845347  0.81982691  0.44679728  1
  Cu  Cu283  1  0.93154653  0.31982691  0.55320272  1
  Cu  Cu284  1  0.93154653  0.81982691  0.94679728  1
  Cu  Cu285  1  0.56845347  0.31982691  0.05320272  1
  Cu  Cu286  1  0.43154653  0.18017309  0.55320272  1
  Cu  Cu287  1  0.06845347  0.68017309  0.44679728  1
  Cu  Cu288  1  0.06298578  0.15946688  0.14032849  1
  Cu  Cu289  1  0.43701422  0.65946688  0.85967151  1
  Cu  Cu290  1  0.56298578  0.84053312  0.35967151  1
  Cu  Cu291  1  0.93701422  0.34053312  0.64032849  1
  Cu  Cu292  1  0.93701422  0.84053312  0.85967151  1
  Cu  Cu293  1  0.56298578  0.34053312  0.14032849  1
  Cu  Cu294  1  0.43701422  0.15946688  0.64032849  1
  Cu  Cu295  1  0.06298578  0.65946688  0.35967151  1
  Cu  Cu296  1  0.91813891  0.17834362  0.00228881  1
  Cu  Cu297  1  0.58186109  0.67834362  0.99771119  1
  Cu  Cu298  1  0.41813891  0.82165638  0.49771119  1
  Cu  Cu299  1  0.08186109  0.32165638  0.50228881  1
  Cu  Cu300  1  0.08186109  0.82165638  0.99771119  1
  Cu  Cu301  1  0.41813891  0.32165638  0.00228881  1
  Cu  Cu302  1  0.58186109  0.17834362  0.50228881  1
  Cu  Cu303  1  0.91813891  0.67834362  0.49771119  1
  Cu  Cu304  1  0.93458554  0.11925298  0.93248501  1
  Cu  Cu305  1  0.56541446  0.61925298  0.06751499  1
  Cu  Cu306  1  0.43458554  0.88074702  0.56751499  1
  Cu  Cu307  1  0.06541446  0.38074702  0.43248501  1
  Cu  Cu308  1  0.06541446  0.88074702  0.06751499  1
  Cu  Cu309  1  0.43458554  0.38074702  0.93248501  1
  Cu  Cu310  1  0.56541446  0.11925298  0.43248501  1
  Cu  Cu311  1  0.93458554  0.61925298  0.56751499  1
  Cu  Cu312  1  0.30591074  0.55252398  0.14302962  1
  Cu  Cu313  1  0.19408926  0.05252398  0.85697038  1
  Cu  Cu314  1  0.80591074  0.44747602  0.35697038  1
  Cu  Cu315  1  0.69408926  0.94747602  0.64302962  1
  Cu  Cu316  1  0.69408926  0.44747602  0.85697038  1
  Cu  Cu317  1  0.80591074  0.94747602  0.14302962  1
  Cu  Cu318  1  0.19408926  0.55252398  0.64302962  1
  Cu  Cu319  1  0.30591074  0.05252398  0.35697038  1
  Cu  Cu320  1  0.30404326  0.64460621  0.17166051  1
  Cu  Cu321  1  0.19595674  0.14460621  0.82833949  1
  Cu  Cu322  1  0.80404326  0.35539379  0.32833949  1
  Cu  Cu323  1  0.69595674  0.85539379  0.67166051  1
  Cu  Cu324  1  0.69595674  0.35539379  0.82833949  1
  Cu  Cu325  1  0.80404326  0.85539379  0.17166051  1
  Cu  Cu326  1  0.19595674  0.64460621  0.67166051  1
  Cu  Cu327  1  0.30404326  0.14460621  0.32833949  1
  Cu  Cu328  1  0.22664610  0.46722968  0.23697276  1
  Cu  Cu329  1  0.27335390  0.96722968  0.76302724  1
  Cu  Cu330  1  0.72664610  0.53277032  0.26302724  1
  Cu  Cu331  1  0.77335390  0.03277032  0.73697276  1
  Cu  Cu332  1  0.77335390  0.53277032  0.76302724  1
  Cu  Cu333  1  0.72664610  0.03277032  0.23697276  1
  Cu  Cu334  1  0.27335390  0.46722968  0.73697276  1
  Cu  Cu335  1  0.22664610  0.96722968  0.26302724  1
  Cu  Cu336  1  0.25950808  0.37550414  0.23277554  1
  Cu  Cu337  1  0.24049192  0.87550414  0.76722446  1
  Cu  Cu338  1  0.75950808  0.62449586  0.26722446  1
  Cu  Cu339  1  0.74049192  0.12449586  0.73277554  1
  Cu  Cu340  1  0.74049192  0.62449586  0.76722446  1
  Cu  Cu341  1  0.75950808  0.12449586  0.23277554  1
  Cu  Cu342  1  0.24049192  0.37550414  0.73277554  1
  Cu  Cu343  1  0.25950808  0.87550414  0.26722446  1
  Cu  Cu344  1  0.99329281  0.38675312  0.87092268  1
  Cu  Cu345  1  0.50670719  0.88675312  0.12907732  1
  Cu  Cu346  1  0.49329281  0.61324688  0.62907732  1
  Cu  Cu347  1  0.00670719  0.11324688  0.37092268  1
  Cu  Cu348  1  0.00670719  0.61324688  0.12907732  1
  Cu  Cu349  1  0.49329281  0.11324688  0.87092268  1
  Cu  Cu350  1  0.50670719  0.38675312  0.37092268  1
  Cu  Cu351  1  0.99329281  0.88675312  0.62907732  1
  Cu  Cu352  1  0.00397543  0.57607738  0.84577656  1
  Cu  Cu353  1  0.49602457  0.07607738  0.15422344  1
  Cu  Cu354  1  0.50397543  0.42392262  0.65422344  1
  Cu  Cu355  1  0.99602457  0.92392262  0.34577656  1
  Cu  Cu356  1  0.99602457  0.42392262  0.15422344  1
  Cu  Cu357  1  0.50397543  0.92392262  0.84577656  1
  Cu  Cu358  1  0.49602457  0.57607738  0.34577656  1
  Cu  Cu359  1  0.00397543  0.07607738  0.65422344  1
  Cu  Cu360  1  0.15918173  0.58641530  0.95709674  1
  Cu  Cu361  1  0.34081827  0.08641530  0.04290326  1
  Cu  Cu362  1  0.65918173  0.41358470  0.54290326  1
  Cu  Cu363  1  0.84081827  0.91358470  0.45709674  1
  Cu  Cu364  1  0.84081827  0.41358470  0.04290326  1
  Cu  Cu365  1  0.65918173  0.91358470  0.95709674  1
  Cu  Cu366  1  0.34081827  0.58641530  0.45709674  1
  Cu  Cu367  1  0.15918173  0.08641530  0.54290326  1
  Cu  Cu368  1  0.14987984  0.39533430  0.98072343  1
  Cu  Cu369  1  0.35012016  0.89533430  0.01927657  1
  Cu  Cu370  1  0.64987984  0.60466570  0.51927657  1
  Cu  Cu371  1  0.85012016  0.10466570  0.48072343  1
  Cu  Cu372  1  0.85012016  0.60466570  0.01927657  1
  Cu  Cu373  1  0.64987984  0.10466570  0.98072343  1
  Cu  Cu374  1  0.35012016  0.39533430  0.48072343  1
  Cu  Cu375  1  0.14987984  0.89533430  0.51927657  1
  C  C376  1  0.99418682  0.22963699  0.02409978  1
  C  C377  1  0.50581318  0.72963699  0.97590022  1
  C  C378  1  0.49418682  0.77036301  0.47590022  1
  C  C379  1  0.00581318  0.27036301  0.52409978  1
  C  C380  1  0.00581318  0.77036301  0.97590022  1
  C  C381  1  0.49418682  0.27036301  0.02409978  1
  C  C382  1  0.50581318  0.22963699  0.52409978  1
  C  C383  1  0.99418682  0.72963699  0.47590022  1
  C  C384  1  0.22437473  0.50757833  0.16025619  1
  C  C385  1  0.27562527  0.00757833  0.83974381  1
  C  C386  1  0.72437473  0.49242167  0.33974381  1
  C  C387  1  0.77562527  0.99242167  0.66025619  1
  C  C388  1  0.77562527  0.49242167  0.83974381  1
  C  C389  1  0.72437473  0.99242167  0.16025619  1
  C  C390  1  0.27562527  0.50757833  0.66025619  1
  C  C391  1  0.22437473  0.00757833  0.33974381  1
