# generated using pymatgen
data_CuNiC8
_symmetry_space_group_name_H-M   'P 1'
_cell_length_a   3.93313800
_cell_length_b   8.70368428
_cell_length_c   7.80516800
_cell_angle_alpha   63.35970555
_cell_angle_beta   89.99921028
_cell_angle_gamma   89.99992737
_symmetry_Int_Tables_number   1
_chemical_formula_structural   CuNiC8
_chemical_formula_sum   'Cu2 Ni2 C16'
_cell_volume   238.82727703
_cell_formula_units_Z   2
loop_
 _symmetry_equiv_pos_site_id
 _symmetry_equiv_pos_as_xyz
  1  'x, y, z'
loop_
 _atom_site_type_symbol
 _atom_site_label
 _atom_site_symmetry_multiplicity
 _atom_site_fract_x
 _atom_site_fract_y
 _atom_site_fract_z
 _atom_site_occupancy
  C  C0  1  0.50000100  0.25533600  0.12231500  1
  C  C1  1  0.50000000  0.25533400  0.62233100  1
  C  C2  1  0.50000000  0.74466500  0.87766900  1
  C  C3  1  0.49999900  0.74466500  0.37768300  1
  Ni  Ni4  1  0.00000000  0.00000100  0.49999800  1
  Ni  Ni5  1  0.00000000  0.99999500  0.00000200  1
  Cu  Cu6  1  0.00000500  0.50000200  0.25000300  1
  Cu  Cu7  1  0.99999500  0.50000000  0.75000200  1
  C  C8  1  0.00000000  0.25369400  0.37317900  1
  C  C9  1  0.99999900  0.25368700  0.87318100  1
  C  C10  1  0.00000100  0.74630500  0.12682200  1
  C  C11  1  0.00000000  0.74631300  0.62681800  1
  C  C12  1  0.00000000  0.00000100  0.25000000  1
  C  C13  1  0.00000000  0.00000100  0.74999900  1
  C  C14  1  0.50000000  0.99999900  0.50000000  1
  C  C15  1  0.50000000  0.00000200  0.99999800  1
  C  C16  1  0.00000000  0.49999900  0.00000500  1
  C  C17  1  0.00000000  0.50000000  0.49999400  1
  C  C18  1  0.50000000  0.50000000  0.25000000  1
  C  C19  1  0.50000000  0.50000000  0.74999900  1
