# generated using pymatgen
data_Cu2Ni3C14
_symmetry_space_group_name_H-M   'P 1'
_cell_length_a   6.01384266
_cell_length_b   6.09742169
_cell_length_c   8.76430162
_cell_angle_alpha   63.11279208
_cell_angle_beta   93.97199045
_cell_angle_gamma   116.45409553
_symmetry_Int_Tables_number   1
_chemical_formula_structural   Cu2Ni3C14
_chemical_formula_sum   'Cu2 Ni3 C14'
_cell_volume   253.08192905
_cell_formula_units_Z   1
loop_
 _symmetry_equiv_pos_site_id
 _symmetry_equiv_pos_as_xyz
  1  'x, y, z'
loop_
 _atom_site_type_symbol
 _atom_site_label
 _atom_site_symmetry_multiplicity
 _atom_site_fract_x
 _atom_site_fract_y
 _atom_site_fract_z
 _atom_site_occupancy
  C  C0  1  0.47409000  0.98437400  0.54016100  1
  C  C1  1  0.12012000  0.59861200  0.29138400  1
  C  C2  1  0.04179300  0.49442500  0.96584100  1
  C  C3  1  0.54699500  0.98596900  0.96331900  1
  Ni  Ni4  1  0.75977300  0.50772500  0.73145600  1
  Ni  Ni5  1  0.36658400  0.47300300  0.15534000  1
  Ni  Ni6  1  0.61413600  0.47755300  0.88614300  1
  Cu  Cu7  1  0.08935100  0.19926900  0.72086900  1
  Cu  Cu8  1  0.84954300  0.80360200  0.34323300  1
  C  C9  1  0.81186100  0.03025400  0.78162100  1
  C  C10  1  0.19969400  0.40838000  0.78509800  1
  C  C11  1  0.13524600  0.94140300  0.29474500  1
  C  C12  1  0.76312600  0.56395100  0.30114100  1
  C  C13  1  0.72296500  0.41168700  0.86293000  1
  C  C14  1  0.29030200  0.59722700  0.10911800  1
  C  C15  1  0.21191700  0.01814600  0.77697400  1
  C  C16  1  0.74638400  0.99477500  0.24086600  1
  C  C17  1  0.13655200  0.35214300  0.52376200  1
  C  C18  1  0.77821700  0.69842200  0.52999800  1
