# generated using pymatgen
data_CuNiC6
_symmetry_space_group_name_H-M   'P 1'
_cell_length_a   4.55818600
_cell_length_b   12.63205500
_cell_length_c   7.17018026
_cell_angle_alpha   90.00000000
_cell_angle_beta   111.42836539
_cell_angle_gamma   90.00000000
_symmetry_Int_Tables_number   1
_chemical_formula_structural   CuNiC6
_chemical_formula_sum   'Cu4 Ni4 C24'
_cell_volume   384.31516418
_cell_formula_units_Z   4
loop_
 _symmetry_equiv_pos_site_id
 _symmetry_equiv_pos_as_xyz
  1  'x, y, z'
loop_
 _atom_site_type_symbol
 _atom_site_label
 _atom_site_symmetry_multiplicity
 _atom_site_fract_x
 _atom_site_fract_y
 _atom_site_fract_z
 _atom_site_occupancy
  C  C0  1  0.33894900  0.93445300  0.69832500  1
  C  C1  1  0.33894900  0.56554700  0.19832500  1
  C  C2  1  0.66105100  0.06554700  0.30167500  1
  C  C3  1  0.66105100  0.43445300  0.80167500  1
  Ni  Ni4  1  0.30628200  0.15221200  0.53715800  1
  Ni  Ni5  1  0.30628200  0.34778800  0.03715800  1
  Ni  Ni6  1  0.69371800  0.84778800  0.46284200  1
  Ni  Ni7  1  0.69371800  0.65221200  0.96284200  1
  Cu  Cu8  1  0.09514200  0.85494400  0.11222000  1
  Cu  Cu9  1  0.09514200  0.64505600  0.61222000  1
  Cu  Cu10  1  0.90485800  0.14505600  0.88778000  1
  Cu  Cu11  1  0.90485800  0.35494400  0.38778000  1
  C  C12  1  0.80483400  0.83485100  0.93961000  1
  C  C13  1  0.80483400  0.66514900  0.43961000  1
  C  C14  1  0.19516600  0.16514900  0.06039000  1
  C  C15  1  0.19516600  0.33485100  0.56039000  1
  C  C16  1  0.30250200  0.93048100  0.05038400  1
  C  C17  1  0.30250200  0.56951900  0.55038400  1
  C  C18  1  0.69749800  0.06951900  0.94961600  1
  C  C19  1  0.69749800  0.43048100  0.44961600  1
  C  C20  1  0.27087300  0.75550600  0.18251300  1
  C  C21  1  0.27087300  0.74449400  0.68251300  1
  C  C22  1  0.72912700  0.24449400  0.81748700  1
  C  C23  1  0.72912700  0.25550600  0.31748700  1
  C  C24  1  0.02940000  0.90532100  0.28078800  1
  C  C25  1  0.02940000  0.59467900  0.78078800  1
  C  C26  1  0.97060000  0.09467900  0.71921200  1
  C  C27  1  0.97060000  0.40532100  0.21921200  1
  C  C28  1  0.26629300  0.08501800  0.46270200  1
  C  C29  1  0.26629300  0.41498200  0.96270200  1
  C  C30  1  0.73370700  0.91498200  0.53729800  1
  C  C31  1  0.73370700  0.58501800  0.03729800  1
