# generated using pymatgen
data_CuNiC10
_symmetry_space_group_name_H-M   'P 1'
_cell_length_a   5.28101400
_cell_length_b   5.28101400
_cell_length_c   6.83166353
_cell_angle_alpha   67.26247841
_cell_angle_beta   67.26247841
_cell_angle_gamma   90.00000000
_symmetry_Int_Tables_number   1
_chemical_formula_structural   CuNiC10
_chemical_formula_sum   'Cu1 Ni1 C10'
_cell_volume   159.54684267
_cell_formula_units_Z   1
loop_
 _symmetry_equiv_pos_site_id
 _symmetry_equiv_pos_as_xyz
  1  'x, y, z'
loop_
 _atom_site_type_symbol
 _atom_site_label
 _atom_site_symmetry_multiplicity
 _atom_site_fract_x
 _atom_site_fract_y
 _atom_site_fract_z
 _atom_site_occupancy
  Ni  Ni0  1  0.37500000  0.62500000  0.25000000  1
  Cu  Cu1  1  0.62500000  0.37500000  0.75000000  1
  C  C2  1  0.87500000  0.12500000  0.25000000  1
  C  C3  1  0.12500000  0.87500000  0.75000000  1
  C  C4  1  0.71983600  0.35638600  0.07122000  1
  C  C5  1  0.20894400  0.07239400  0.07122000  1
  C  C6  1  0.36838000  0.20125400  0.58662500  1
  C  C7  1  0.04499500  0.71212100  0.58662500  1
  C  C8  1  0.28787900  0.63162000  0.91337500  1
  C  C9  1  0.79874600  0.95500500  0.91337500  1
  C  C10  1  0.64361400  0.79105600  0.42878000  1
  C  C11  1  0.92760600  0.28016400  0.42878000  1
