# generated using pymatgen
data_Cu7Ni3C
_symmetry_space_group_name_H-M   'P 1'
_cell_length_a   12.90826000
_cell_length_b   5.62084000
_cell_length_c   10.62861600
_cell_angle_alpha   90.00000000
_cell_angle_beta   90.00000000
_cell_angle_gamma   90.00000000
_symmetry_Int_Tables_number   1
_chemical_formula_structural   Cu7Ni3C
_chemical_formula_sum   'Cu28 Ni12 C4'
_cell_volume   771.16204131
_cell_formula_units_Z   4
loop_
 _symmetry_equiv_pos_site_id
 _symmetry_equiv_pos_as_xyz
  1  'x, y, z'
loop_
 _atom_site_type_symbol
 _atom_site_label
 _atom_site_symmetry_multiplicity
 _atom_site_fract_x
 _atom_site_fract_y
 _atom_site_fract_z
 _atom_site_occupancy
  C  C0  1  0.78812500  0.25000000  0.48394700  1
  C  C1  1  0.28812500  0.25000000  0.01605300  1
  C  C2  1  0.21187500  0.75000000  0.51605300  1
  C  C3  1  0.71187500  0.75000000  0.98394700  1
  Ni  Ni4  1  0.48576500  0.25000000  0.11674000  1
  Ni  Ni5  1  0.98576500  0.25000000  0.38326000  1
  Ni  Ni6  1  0.51423500  0.75000000  0.88326000  1
  Ni  Ni7  1  0.01423500  0.75000000  0.61674000  1
  Ni  Ni8  1  0.88166600  0.25000000  0.04482500  1
  Ni  Ni9  1  0.38166600  0.25000000  0.45517500  1
  Ni  Ni10  1  0.11833400  0.75000000  0.95517500  1
  Ni  Ni11  1  0.61833400  0.75000000  0.54482500  1
  Ni  Ni12  1  0.64452100  0.25000000  0.75535400  1
  Ni  Ni13  1  0.14452100  0.25000000  0.74464600  1
  Ni  Ni14  1  0.35547900  0.75000000  0.24464600  1
  Ni  Ni15  1  0.85547900  0.75000000  0.25535400  1
  Cu  Cu16  1  0.86785400  0.25000000  0.22997100  1
  Cu  Cu17  1  0.36785400  0.25000000  0.27002900  1
  Cu  Cu18  1  0.13214600  0.75000000  0.77002900  1
  Cu  Cu19  1  0.63214600  0.75000000  0.72997100  1
  Cu  Cu20  1  0.66084900  0.25000000  0.56093100  1
  Cu  Cu21  1  0.16084900  0.25000000  0.93906900  1
  Cu  Cu22  1  0.33915100  0.75000000  0.43906900  1
  Cu  Cu23  1  0.83915100  0.75000000  0.06093100  1
  Cu  Cu24  1  0.88846800  0.46110200  0.76665800  1
  Cu  Cu25  1  0.38846800  0.03889800  0.73334200  1
  Cu  Cu26  1  0.11153200  0.96110200  0.23334200  1
  Cu  Cu27  1  0.61153200  0.53889800  0.26665800  1
  Cu  Cu28  1  0.11153200  0.53889800  0.23334200  1
  Cu  Cu29  1  0.61153200  0.96110200  0.26665800  1
  Cu  Cu30  1  0.88846800  0.03889800  0.76665800  1
  Cu  Cu31  1  0.38846800  0.46110200  0.73334200  1
  Cu  Cu32  1  0.88804500  0.01117800  0.45358400  1
  Cu  Cu33  1  0.38804500  0.48882200  0.04641600  1
  Cu  Cu34  1  0.11195500  0.51117800  0.54641600  1
  Cu  Cu35  1  0.61195500  0.98882200  0.95358400  1
  Cu  Cu36  1  0.11195500  0.98882200  0.54641600  1
  Cu  Cu37  1  0.61195500  0.51117800  0.95358400  1
  Cu  Cu38  1  0.88804500  0.48882200  0.45358400  1
  Cu  Cu39  1  0.38804500  0.01117800  0.04641600  1
  Cu  Cu40  1  0.89061900  0.25000000  0.76352700  1
  Cu  Cu41  1  0.39061900  0.25000000  0.73647300  1
  Cu  Cu42  1  0.10938100  0.75000000  0.23647300  1
  Cu  Cu43  1  0.60938100  0.75000000  0.26352700  1
