# generated using pymatgen
data_CuNiC10
_symmetry_space_group_name_H-M   'P 1'
_cell_length_a   8.97073900
_cell_length_b   10.26629700
_cell_length_c   10.54773900
_cell_angle_alpha   90.00000000
_cell_angle_beta   90.00000000
_cell_angle_gamma   90.00000000
_symmetry_Int_Tables_number   1
_chemical_formula_structural   CuNiC10
_chemical_formula_sum   'Cu8 Ni8 C80'
_cell_volume   971.40742815
_cell_formula_units_Z   8
loop_
 _symmetry_equiv_pos_site_id
 _symmetry_equiv_pos_as_xyz
  1  'x, y, z'
loop_
 _atom_site_type_symbol
 _atom_site_label
 _atom_site_symmetry_multiplicity
 _atom_site_fract_x
 _atom_site_fract_y
 _atom_site_fract_z
 _atom_site_occupancy
  Ni  Ni0  1  0.85849300  0.83272700  0.87155300  1
  Ni  Ni1  1  0.35849300  0.66727300  0.12844700  1
  Ni  Ni2  1  0.14150700  0.33272700  0.62844700  1
  Ni  Ni3  1  0.64150700  0.16727300  0.37155300  1
  Ni  Ni4  1  0.14150700  0.16727300  0.12844700  1
  Ni  Ni5  1  0.64150700  0.33272700  0.87155300  1
  Ni  Ni6  1  0.85849300  0.66727300  0.37155300  1
  Ni  Ni7  1  0.35849300  0.83272700  0.62844700  1
  Cu  Cu8  1  0.54300200  0.65199800  0.85074800  1
  Cu  Cu9  1  0.04300200  0.84800200  0.14925200  1
  Cu  Cu10  1  0.45699800  0.15199800  0.64925200  1
  Cu  Cu11  1  0.95699800  0.34800200  0.35074800  1
  Cu  Cu12  1  0.45699800  0.34800200  0.14925200  1
  Cu  Cu13  1  0.95699800  0.15199800  0.85074800  1
  Cu  Cu14  1  0.54300200  0.84800200  0.35074800  1
  Cu  Cu15  1  0.04300200  0.65199800  0.64925200  1
  C  C16  1  0.69140700  0.81212800  0.67737900  1
  C  C17  1  0.19140700  0.68787200  0.32262100  1
  C  C18  1  0.30859300  0.31212800  0.82262100  1
  C  C19  1  0.80859300  0.18787200  0.17737900  1
  C  C20  1  0.30859300  0.18787200  0.32262100  1
  C  C21  1  0.80859300  0.31212800  0.67737900  1
  C  C22  1  0.69140700  0.68787200  0.17737900  1
  C  C23  1  0.19140700  0.81212800  0.82262100  1
  C  C24  1  0.67793100  0.95368200  0.71106300  1
  C  C25  1  0.17793100  0.54631800  0.28893700  1
  C  C26  1  0.32206900  0.45368200  0.78893700  1
  C  C27  1  0.82206900  0.04631800  0.21106300  1
  C  C28  1  0.32206900  0.04631800  0.28893700  1
  C  C29  1  0.82206900  0.45368200  0.71106300  1
  C  C30  1  0.67793100  0.54631800  0.21106300  1
  C  C31  1  0.17793100  0.95368200  0.78893700  1
  C  C32  1  0.65954200  0.93595500  0.03577600  1
  C  C33  1  0.15954200  0.56404500  0.96422400  1
  C  C34  1  0.34045800  0.43595500  0.46422400  1
  C  C35  1  0.84045800  0.06404500  0.53577600  1
  C  C36  1  0.34045800  0.06404500  0.96422400  1
  C  C37  1  0.84045800  0.43595500  0.03577600  1
  C  C38  1  0.65954200  0.56404500  0.53577600  1
  C  C39  1  0.15954200  0.93595500  0.46422400  1
  C  C40  1  0.69936400  0.03915300  0.92679800  1
  C  C41  1  0.19936400  0.46084700  0.07320200  1
  C  C42  1  0.30063600  0.53915300  0.57320200  1
  C  C43  1  0.80063600  0.96084700  0.42679800  1
  C  C44  1  0.30063600  0.96084700  0.07320200  1
  C  C45  1  0.80063600  0.53915300  0.92679800  1
  C  C46  1  0.69936400  0.46084700  0.42679800  1
  C  C47  1  0.19936400  0.03915300  0.57320200  1
  C  C48  1  0.51652300  0.72252900  0.70364700  1
  C  C49  1  0.01652300  0.77747100  0.29635300  1
  C  C50  1  0.48347700  0.22252900  0.79635300  1
  C  C51  1  0.98347700  0.27747100  0.20364700  1
  C  C52  1  0.48347700  0.27747100  0.29635300  1
  C  C53  1  0.98347700  0.22252900  0.70364700  1
  C  C54  1  0.51652300  0.77747100  0.20364700  1
  C  C55  1  0.01652300  0.72252900  0.79635300  1
  C  C56  1  0.51307200  0.48680100  0.84423400  1
  C  C57  1  0.01307200  0.01319900  0.15576600  1
  C  C58  1  0.48692800  0.98680100  0.65576600  1
  C  C59  1  0.98692800  0.51319900  0.34423400  1
  C  C60  1  0.48692800  0.51319900  0.15576600  1
  C  C61  1  0.98692800  0.98680100  0.84423400  1
  C  C62  1  0.51307200  0.01319900  0.34423400  1
  C  C63  1  0.01307200  0.48680100  0.65576600  1
  C  C64  1  0.42212000  0.71518200  0.95829100  1
  C  C65  1  0.92212000  0.78481800  0.04170900  1
  C  C66  1  0.57788000  0.21518200  0.54170900  1
  C  C67  1  0.07788000  0.28481800  0.45829100  1
  C  C68  1  0.57788000  0.28481800  0.04170900  1
  C  C69  1  0.07788000  0.21518200  0.95829100  1
  C  C70  1  0.42212000  0.78481800  0.45829100  1
  C  C71  1  0.92212000  0.71518200  0.54170900  1
  C  C72  1  0.73125000  0.67414700  0.88138500  1
  C  C73  1  0.23125000  0.82585300  0.11861500  1
  C  C74  1  0.26875000  0.17414700  0.61861500  1
  C  C75  1  0.76875000  0.32585300  0.38138500  1
  C  C76  1  0.26875000  0.32585300  0.11861500  1
  C  C77  1  0.76875000  0.17414700  0.88138500  1
  C  C78  1  0.73125000  0.82585300  0.38138500  1
  C  C79  1  0.23125000  0.67414700  0.61861500  1
  C  C80  1  0.75653400  0.88583100  0.70242400  1
  C  C81  1  0.25653400  0.61416900  0.29757600  1
  C  C82  1  0.24346600  0.38583100  0.79757600  1
  C  C83  1  0.74346600  0.11416900  0.20242400  1
  C  C84  1  0.24346600  0.11416900  0.29757600  1
  C  C85  1  0.74346600  0.38583100  0.70242400  1
  C  C86  1  0.75653400  0.61416900  0.20242400  1
  C  C87  1  0.25653400  0.88583100  0.79757600  1
  C  C88  1  0.68098900  0.94355300  0.94539300  1
  C  C89  1  0.18098900  0.55644700  0.05460700  1
  C  C90  1  0.31901100  0.44355300  0.55460700  1
  C  C91  1  0.81901100  0.05644700  0.44539300  1
  C  C92  1  0.31901100  0.05644700  0.05460700  1
  C  C93  1  0.81901100  0.44355300  0.94539300  1
  C  C94  1  0.68098900  0.55644700  0.44539300  1
  C  C95  1  0.18098900  0.94355300  0.55460700  1
