# generated using pymatgen
data_Cu8(Ni2C3)3
_symmetry_space_group_name_H-M   'P 1'
_cell_length_a   8.32649328
_cell_length_b   8.32649328
_cell_length_c   13.35092000
_cell_angle_alpha   90.00000000
_cell_angle_beta   90.00000000
_cell_angle_gamma   118.30245672
_symmetry_Int_Tables_number   1
_chemical_formula_structural   Cu8(Ni2C3)3
_chemical_formula_sum   'Cu16 Ni12 C18'
_cell_volume   814.97376457
_cell_formula_units_Z   2
loop_
 _symmetry_equiv_pos_site_id
 _symmetry_equiv_pos_as_xyz
  1  'x, y, z'
loop_
 _atom_site_type_symbol
 _atom_site_label
 _atom_site_symmetry_multiplicity
 _atom_site_fract_x
 _atom_site_fract_y
 _atom_site_fract_z
 _atom_site_occupancy
  C  C0  1  0.63240900  0.65258300  0.25000000  1
  C  C1  1  0.65258300  0.63240900  0.75000000  1
  C  C2  1  0.36811500  0.11034900  0.25000000  1
  C  C3  1  0.11034900  0.36811500  0.75000000  1
  C  C4  1  0.80371800  0.39565700  0.02380200  1
  C  C5  1  0.39565700  0.80371800  0.97619800  1
  C  C6  1  0.39565700  0.80371800  0.52380200  1
  C  C7  1  0.80371800  0.39565700  0.47619800  1
  C  C8  1  0.99135300  0.99135300  0.00000000  1
  C  C9  1  0.99135300  0.99135300  0.50000000  1
  C  C10  1  0.64055100  0.00098100  0.25000000  1
  C  C11  1  0.00098100  0.64055100  0.75000000  1
  C  C12  1  0.25007200  0.38527400  0.25000000  1
  C  C13  1  0.38527400  0.25007200  0.75000000  1
  C  C14  1  0.29819800  0.29819800  0.00000000  1
  C  C15  1  0.29819800  0.29819800  0.50000000  1
  C  C16  1  0.05375900  0.75905600  0.25000000  1
  C  C17  1  0.75905600  0.05375900  0.75000000  1
  Ni  Ni18  1  0.93245700  0.41007400  0.13436700  1
  Ni  Ni19  1  0.41007400  0.93245700  0.86563300  1
  Ni  Ni20  1  0.41007400  0.93245700  0.63436700  1
  Ni  Ni21  1  0.93245700  0.41007400  0.36563300  1
  Ni  Ni22  1  0.39752700  0.69315700  0.09326200  1
  Ni  Ni23  1  0.69315700  0.39752800  0.90673800  1
  Ni  Ni24  1  0.69315700  0.39752800  0.59326200  1
  Ni  Ni25  1  0.39752700  0.69315700  0.40673800  1
  Ni  Ni26  1  0.96133800  0.04692900  0.12695800  1
  Ni  Ni27  1  0.04692900  0.96133800  0.87304200  1
  Ni  Ni28  1  0.04692900  0.96133800  0.62695800  1
  Ni  Ni29  1  0.96133800  0.04692900  0.37304200  1
  Cu  Cu30  1  0.85770900  0.69883400  0.05473800  1
  Cu  Cu31  1  0.69883400  0.85770900  0.94526200  1
  Cu  Cu32  1  0.69883400  0.85770900  0.55473800  1
  Cu  Cu33  1  0.85770900  0.69883400  0.44526200  1
  Cu  Cu34  1  0.37772800  0.57636400  0.61895400  1
  Cu  Cu35  1  0.57636400  0.37772800  0.38104600  1
  Cu  Cu36  1  0.57636400  0.37772800  0.11895400  1
  Cu  Cu37  1  0.37772800  0.57636400  0.88104600  1
  Cu  Cu38  1  0.08429500  0.61263300  0.54737800  1
  Cu  Cu39  1  0.61263300  0.08429500  0.45262200  1
  Cu  Cu40  1  0.61263300  0.08429500  0.04737800  1
  Cu  Cu41  1  0.08429500  0.61263300  0.95262200  1
  Cu  Cu42  1  0.96013800  0.23701600  0.55424700  1
  Cu  Cu43  1  0.23701600  0.96013800  0.44575300  1
  Cu  Cu44  1  0.23701600  0.96013800  0.05424700  1
  Cu  Cu45  1  0.96013800  0.23701600  0.94575300  1
