# generated using pymatgen
data_Cu6Ni3C2
_symmetry_space_group_name_H-M   'P 1'
_cell_length_a   7.28036718
_cell_length_b   7.28036718
_cell_length_c   7.28036718
_cell_angle_alpha   60.00000000
_cell_angle_beta   60.00000000
_cell_angle_gamma   60.00000000
_symmetry_Int_Tables_number   1
_chemical_formula_structural   Cu6Ni3C2
_chemical_formula_sum   'Cu12 Ni6 C4'
_cell_volume   272.86312655
_cell_formula_units_Z   2
loop_
 _symmetry_equiv_pos_site_id
 _symmetry_equiv_pos_as_xyz
  1  'x, y, z'
loop_
 _atom_site_type_symbol
 _atom_site_label
 _atom_site_symmetry_multiplicity
 _atom_site_fract_x
 _atom_site_fract_y
 _atom_site_fract_z
 _atom_site_occupancy
  C  C0  1  0.25000000  0.25000000  0.25000000  1
  C  C1  1  0.75000000  0.75000000  0.75000000  1
  C  C2  1  0.50000000  0.50000000  0.50000000  1
  C  C3  1  0.00000000  0.00000000  0.00000000  1
  Ni  Ni4  1  0.80640600  0.19359400  0.19359400  1
  Ni  Ni5  1  0.19359400  0.80640600  0.80640600  1
  Ni  Ni6  1  0.19359400  0.80640600  0.19359400  1
  Ni  Ni7  1  0.80640600  0.19359400  0.80640600  1
  Ni  Ni8  1  0.19359400  0.19359400  0.80640600  1
  Ni  Ni9  1  0.80640600  0.80640600  0.19359400  1
  Cu  Cu10  1  0.35995500  0.15016600  0.84983400  1
  Cu  Cu11  1  0.64004500  0.84983400  0.15016600  1
  Cu  Cu12  1  0.15016600  0.35995500  0.64004500  1
  Cu  Cu13  1  0.84983400  0.64004500  0.35995500  1
  Cu  Cu14  1  0.84983400  0.35995500  0.15016600  1
  Cu  Cu15  1  0.15016600  0.64004500  0.84983400  1
  Cu  Cu16  1  0.64004500  0.15016600  0.35995500  1
  Cu  Cu17  1  0.35995500  0.84983400  0.64004500  1
  Cu  Cu18  1  0.15016600  0.84983400  0.35995500  1
  Cu  Cu19  1  0.84983400  0.15016600  0.64004500  1
  Cu  Cu20  1  0.64004500  0.35995500  0.84983400  1
  Cu  Cu21  1  0.35995500  0.64004500  0.15016600  1
