# generated using pymatgen
data_Cu2NiC9
_symmetry_space_group_name_H-M   'P 1'
_cell_length_a   2.90605076
_cell_length_b   2.90605076
_cell_length_c   14.46545300
_cell_angle_alpha   90.00000000
_cell_angle_beta   90.00000000
_cell_angle_gamma   120.00001726
_symmetry_Int_Tables_number   1
_chemical_formula_structural   Cu2NiC9
_chemical_formula_sum   'Cu2 Ni1 C9'
_cell_volume   105.79593616
_cell_formula_units_Z   1
loop_
 _symmetry_equiv_pos_site_id
 _symmetry_equiv_pos_as_xyz
  1  'x, y, z'
loop_
 _atom_site_type_symbol
 _atom_site_label
 _atom_site_symmetry_multiplicity
 _atom_site_fract_x
 _atom_site_fract_y
 _atom_site_fract_z
 _atom_site_occupancy
  C  C0  1  0.00000000  0.00000000  0.50000000  1
  C  C1  1  0.66666700  0.33333300  0.83315200  1
  C  C2  1  0.33333300  0.66666700  0.16684800  1
  Ni  Ni3  1  0.00000000  0.00000000  0.00000000  1
  Cu  Cu4  1  0.66666700  0.33333300  0.33346400  1
  Cu  Cu5  1  0.33333300  0.66666700  0.66653600  1
  C  C6  1  0.66666700  0.33333300  0.58935400  1
  C  C7  1  0.33333300  0.66666700  0.93010500  1
  C  C8  1  0.00000000  0.00000000  0.25616600  1
  C  C9  1  0.00000000  0.00000000  0.74383400  1
  C  C10  1  0.66666700  0.33333300  0.06989500  1
  C  C11  1  0.33333300  0.66666700  0.41064600  1
