# generated using pymatgen
data_Cu16Ni3C5
_symmetry_space_group_name_H-M   'P 1'
_cell_length_a   7.89800200
_cell_length_b   7.89800200
_cell_length_c   7.51295800
_cell_angle_alpha   90.00000000
_cell_angle_beta   90.00000000
_cell_angle_gamma   90.00000000
_symmetry_Int_Tables_number   1
_chemical_formula_structural   Cu16Ni3C5
_chemical_formula_sum   'Cu16 Ni3 C5'
_cell_volume   468.64656671
_cell_formula_units_Z   1
loop_
 _symmetry_equiv_pos_site_id
 _symmetry_equiv_pos_as_xyz
  1  'x, y, z'
loop_
 _atom_site_type_symbol
 _atom_site_label
 _atom_site_symmetry_multiplicity
 _atom_site_fract_x
 _atom_site_fract_y
 _atom_site_fract_z
 _atom_site_occupancy
  C  C0  1  0.00000000  0.00000000  0.00000000  1
  C  C1  1  0.50000000  0.50000000  0.00000000  1
  C  C2  1  0.00000000  0.00000000  0.50000000  1
  C  C3  1  0.00000000  0.50000000  0.75593100  1
  C  C4  1  0.50000000  0.00000000  0.24406900  1
  Ni  Ni5  1  0.50000000  0.50000000  0.50000000  1
  Ni  Ni6  1  0.00000000  0.50000000  0.24879100  1
  Ni  Ni7  1  0.50000000  0.00000000  0.75120900  1
  Cu  Cu8  1  0.43971400  0.34860500  0.88770800  1
  Cu  Cu9  1  0.95393500  0.85992600  0.36493900  1
  Cu  Cu10  1  0.03701500  0.34286300  0.86958800  1
  Cu  Cu11  1  0.56148400  0.85369200  0.36439700  1
  Cu  Cu12  1  0.04606500  0.14007400  0.36493900  1
  Cu  Cu13  1  0.56028600  0.65139500  0.88770800  1
  Cu  Cu14  1  0.96298500  0.65713700  0.86958800  1
  Cu  Cu15  1  0.43851600  0.14630800  0.36439700  1
  Cu  Cu16  1  0.65139500  0.43971400  0.11229200  1
  Cu  Cu17  1  0.14007400  0.95393500  0.63506100  1
  Cu  Cu18  1  0.34286300  0.96298500  0.13041200  1
  Cu  Cu19  1  0.85369200  0.43851600  0.63560300  1
  Cu  Cu20  1  0.85992600  0.04606500  0.63506100  1
  Cu  Cu21  1  0.34860500  0.56028600  0.11229200  1
  Cu  Cu22  1  0.65713700  0.03701500  0.13041200  1
  Cu  Cu23  1  0.14630800  0.56148400  0.63560300  1
