# generated using pymatgen
data_Cu2Ni3C4
_symmetry_space_group_name_H-M   'P 1'
_cell_length_a   7.35210997
_cell_length_b   9.57748987
_cell_length_c   6.19044365
_cell_angle_alpha   90.00000526
_cell_angle_beta   92.31611172
_cell_angle_gamma   130.64292615
_symmetry_Int_Tables_number   1
_chemical_formula_structural   Cu2Ni3C4
_chemical_formula_sum   'Cu4 Ni6 C8'
_cell_volume   330.28323197
_cell_formula_units_Z   2
loop_
 _symmetry_equiv_pos_site_id
 _symmetry_equiv_pos_as_xyz
  1  'x, y, z'
loop_
 _atom_site_type_symbol
 _atom_site_label
 _atom_site_symmetry_multiplicity
 _atom_site_fract_x
 _atom_site_fract_y
 _atom_site_fract_z
 _atom_site_occupancy
  Ni  Ni0  1  0.22546200  0.95333900  0.06764300  1
  Ni  Ni1  1  0.77453800  0.72787800  0.43235700  1
  Ni  Ni2  1  0.77453800  0.04666100  0.93235700  1
  Ni  Ni3  1  0.22546200  0.27212200  0.56764300  1
  Ni  Ni4  1  0.00000000  0.59574300  0.75000000  1
  Ni  Ni5  1  0.00000000  0.40425700  0.25000000  1
  Cu  Cu6  1  0.56682800  0.17053500  0.58790300  1
  Cu  Cu7  1  0.43317200  0.60370600  0.91209700  1
  Cu  Cu8  1  0.43317200  0.82946500  0.41209700  1
  Cu  Cu9  1  0.56682800  0.39629400  0.08790300  1
  C  C10  1  0.23094200  0.90944700  0.50587100  1
  C  C11  1  0.76905800  0.67850500  0.99412900  1
  C  C12  1  0.76905800  0.09055300  0.49412900  1
  C  C13  1  0.23094200  0.32149500  0.00587100  1
  C  C14  1  0.65124200  0.25242300  0.92109700  1
  C  C15  1  0.34875800  0.60118100  0.57890300  1
  C  C16  1  0.34875800  0.74757700  0.07890300  1
  C  C17  1  0.65124200  0.39881900  0.42109700  1
