# generated using pymatgen
data_Cu2NiC2
_symmetry_space_group_name_H-M   'P 1'
_cell_length_a   7.82922800
_cell_length_b   7.82922800
_cell_length_c   3.83330000
_cell_angle_alpha   90.00000000
_cell_angle_beta   90.00000000
_cell_angle_gamma   90.00000000
_symmetry_Int_Tables_number   1
_chemical_formula_structural   Cu2NiC2
_chemical_formula_sum   'Cu4 Ni2 C4'
_cell_volume   234.96906590
_cell_formula_units_Z   2
loop_
 _symmetry_equiv_pos_site_id
 _symmetry_equiv_pos_as_xyz
  1  'x, y, z'
loop_
 _atom_site_type_symbol
 _atom_site_label
 _atom_site_symmetry_multiplicity
 _atom_site_fract_x
 _atom_site_fract_y
 _atom_site_fract_z
 _atom_site_occupancy
  C  C0  1  0.32762100  0.82762100  0.50000000  1
  C  C1  1  0.82762100  0.67237900  0.50000000  1
  C  C2  1  0.17237900  0.32762100  0.50000000  1
  C  C3  1  0.67237900  0.17237900  0.50000000  1
  Ni  Ni4  1  0.00000000  0.00000000  0.00000000  1
  Ni  Ni5  1  0.50000000  0.50000000  0.00000000  1
  Cu  Cu6  1  0.36968800  0.13031200  0.00000000  1
  Cu  Cu7  1  0.86968800  0.36968800  0.00000000  1
  Cu  Cu8  1  0.13031200  0.63031200  0.00000000  1
  Cu  Cu9  1  0.63031200  0.86968800  0.00000000  1
