# generated using pymatgen
data_Cu14Ni5C23
_symmetry_space_group_name_H-M   'P 1'
_cell_length_a   8.20408400
_cell_length_b   8.20408400
_cell_length_c   13.97349764
_cell_angle_alpha   107.07113167
_cell_angle_beta   107.07113167
_cell_angle_gamma   90.00000000
_symmetry_Int_Tables_number   1
_chemical_formula_structural   Cu14Ni5C23
_chemical_formula_sum   'Cu28 Ni10 C46'
_cell_volume   855.63350138
_cell_formula_units_Z   2
loop_
 _symmetry_equiv_pos_site_id
 _symmetry_equiv_pos_as_xyz
  1  'x, y, z'
loop_
 _atom_site_type_symbol
 _atom_site_label
 _atom_site_symmetry_multiplicity
 _atom_site_fract_x
 _atom_site_fract_y
 _atom_site_fract_z
 _atom_site_occupancy
  C  C0  1  0.50156800  0.00156800  0.00313500  1
  C  C1  1  0.74843200  0.74843200  0.49686500  1
  C  C2  1  0.99843200  0.49843200  0.99686500  1
  C  C3  1  0.25156800  0.25156800  0.50313500  1
  C  C4  1  0.25000000  0.75000000  0.50000000  1
  C  C5  1  0.00000000  0.00000000  0.00000000  1
  C  C6  1  0.66903700  0.26300800  0.54591300  1
  C  C7  1  0.87687600  0.28290500  0.54591300  1
  C  C8  1  0.37312400  0.46709500  0.95408700  1
  C  C9  1  0.58096300  0.48699200  0.95408700  1
  C  C10  1  0.71709500  0.33096300  0.45408700  1
  C  C11  1  0.73699200  0.12312400  0.45408700  1
  C  C12  1  0.51300800  0.62687600  0.04591300  1
  C  C13  1  0.53290500  0.41903700  0.04591300  1
  C  C14  1  0.29556700  0.34967300  0.28750300  1
  C  C15  1  0.99193500  0.93783000  0.28750300  1
  C  C16  1  0.25806500  0.81217000  0.21249700  1
  C  C17  1  0.95443300  0.40032700  0.21249700  1
  C  C18  1  0.06217000  0.70443300  0.71249700  1
  C  C19  1  0.65032700  0.00806500  0.71249700  1
  C  C20  1  0.59967300  0.74193500  0.78750300  1
  C  C21  1  0.18783000  0.04556700  0.78750300  1
  C  C22  1  0.47755900  0.44946000  0.29223400  1
  C  C23  1  0.81467500  0.84277400  0.29223400  1
  C  C24  1  0.43532500  0.90722600  0.20776600  1
  C  C25  1  0.77244100  0.30054000  0.20776600  1
  C  C26  1  0.15722600  0.52244100  0.70776600  1
  C  C27  1  0.55054000  0.18532500  0.70776600  1
  C  C28  1  0.69946000  0.56467500  0.79223400  1
  C  C29  1  0.09277400  0.22755900  0.79223400  1
  C  C30  1  0.38963300  0.27361200  0.19313500  1
  C  C31  1  0.80350100  0.91952200  0.19313400  1
  C  C32  1  0.44649900  0.83047800  0.30686500  1
  C  C33  1  0.86036700  0.47638800  0.30686600  1
  C  C34  1  0.08047800  0.61036700  0.80686500  1
  C  C35  1  0.72638800  0.19649900  0.80686500  1
  C  C36  1  0.52361200  0.55350100  0.69313500  1
  C  C37  1  0.16952200  0.13963300  0.69313400  1
  C  C38  1  0.29226800  0.45409600  0.19541200  1
  C  C39  1  0.90314400  0.74131600  0.19541200  1
  C  C40  1  0.34685600  0.00868400  0.30458800  1
  C  C41  1  0.95773200  0.29590400  0.30458800  1
  C  C42  1  0.25868400  0.70773200  0.80458800  1
  C  C43  1  0.54590400  0.09685600  0.80458800  1
  C  C44  1  0.70409600  0.65314400  0.69541200  1
  C  C45  1  0.99131600  0.04226800  0.69541200  1
  Ni  Ni46  1  0.75000000  0.25000000  0.50000000  1
  Ni  Ni47  1  0.50000000  0.50000000  0.00000000  1
  Ni  Ni48  1  0.63236300  0.63172700  0.74284500  1
  Ni  Ni49  1  0.11048100  0.11111800  0.74284500  1
  Ni  Ni50  1  0.13951900  0.63888200  0.75715500  1
  Ni  Ni51  1  0.61763700  0.11827300  0.75715500  1
  Ni  Ni52  1  0.88888200  0.36763700  0.25715500  1
  Ni  Ni53  1  0.36827300  0.88951900  0.25715500  1
  Ni  Ni54  1  0.88172700  0.86048100  0.24284500  1
  Ni  Ni55  1  0.36111800  0.38236300  0.24284500  1
  Cu  Cu56  1  0.11949900  0.44343800  0.88316900  1
  Cu  Cu57  1  0.76366900  0.43973100  0.88316900  1
  Cu  Cu58  1  0.48633100  0.31026900  0.61683100  1
  Cu  Cu59  1  0.13050100  0.30656200  0.61683100  1
  Cu  Cu60  1  0.56026900  0.88050100  0.11683100  1
  Cu  Cu61  1  0.55656200  0.23633100  0.11683100  1
  Cu  Cu62  1  0.69343800  0.51366900  0.38316900  1
  Cu  Cu63  1  0.68973100  0.86949900  0.38316900  1
  Cu  Cu64  1  0.22854100  0.55363600  0.10859200  1
  Cu  Cu65  1  0.88005100  0.55495600  0.10859200  1
  Cu  Cu66  1  0.36994900  0.19504400  0.39140800  1
  Cu  Cu67  1  0.02145900  0.19636400  0.39140800  1
  Cu  Cu68  1  0.44504400  0.77145900  0.89140800  1
  Cu  Cu69  1  0.44636400  0.11994900  0.89140800  1
  Cu  Cu70  1  0.80363600  0.63005100  0.60859200  1
  Cu  Cu71  1  0.80495600  0.97854100  0.60859200  1
  Cu  Cu72  1  0.49938000  0.74914300  0.49632400  1
  Cu  Cu73  1  0.99694400  0.74718200  0.49632400  1
  Cu  Cu74  1  0.25305600  0.00281800  0.00367600  1
  Cu  Cu75  1  0.75062000  0.00085700  0.00367600  1
  Cu  Cu76  1  0.25281800  0.50062000  0.50367600  1
  Cu  Cu77  1  0.25085700  0.00305600  0.50367600  1
  Cu  Cu78  1  0.99914300  0.74694400  0.99632400  1
  Cu  Cu79  1  0.99718200  0.24938000  0.99632400  1
  Cu  Cu80  1  0.32813700  0.82813700  0.65627400  1
  Cu  Cu81  1  0.92186300  0.92186300  0.84372600  1
  Cu  Cu82  1  0.17186300  0.67186300  0.34372600  1
  Cu  Cu83  1  0.07813700  0.07813700  0.15627400  1
