# generated using pymatgen
data_Cu8Ni2C15
_symmetry_space_group_name_H-M   'P 1'
_cell_length_a   5.05606800
_cell_length_b   10.71745000
_cell_length_c   18.64453600
_cell_angle_alpha   90.00000000
_cell_angle_beta   90.00000000
_cell_angle_gamma   90.00000000
_symmetry_Int_Tables_number   1
_chemical_formula_structural   Cu8Ni2C15
_chemical_formula_sum   'Cu32 Ni8 C60'
_cell_volume   1010.31302507
_cell_formula_units_Z   4
loop_
 _symmetry_equiv_pos_site_id
 _symmetry_equiv_pos_as_xyz
  1  'x, y, z'
loop_
 _atom_site_type_symbol
 _atom_site_label
 _atom_site_symmetry_multiplicity
 _atom_site_fract_x
 _atom_site_fract_y
 _atom_site_fract_z
 _atom_site_occupancy
  C  C0  1  0.29119600  0.64185500  0.50024600  1
  C  C1  1  0.20880400  0.14185500  0.99975400  1
  C  C2  1  0.70880400  0.35814500  0.00024600  1
  C  C3  1  0.79119600  0.85814500  0.49975400  1
  C  C4  1  0.70880400  0.35814500  0.49975400  1
  C  C5  1  0.79119600  0.85814500  0.00024600  1
  C  C6  1  0.29119600  0.64185500  0.99975400  1
  C  C7  1  0.20880400  0.14185500  0.50024600  1
  C  C8  1  0.94162500  0.73817800  0.75000000  1
  C  C9  1  0.55837500  0.23817800  0.75000000  1
  C  C10  1  0.05837500  0.26182200  0.25000000  1
  C  C11  1  0.44162500  0.76182200  0.25000000  1
  Ni  Ni12  1  0.77115600  0.60286400  0.59499600  1
  Ni  Ni13  1  0.72884400  0.10286400  0.90500400  1
  Ni  Ni14  1  0.22884400  0.39713600  0.09499600  1
  Ni  Ni15  1  0.27115600  0.89713600  0.40500400  1
  Ni  Ni16  1  0.22884400  0.39713600  0.40500400  1
  Ni  Ni17  1  0.27115600  0.89713600  0.09499600  1
  Ni  Ni18  1  0.77115600  0.60286400  0.90500400  1
  Ni  Ni19  1  0.72884400  0.10286400  0.59499600  1
  Cu  Cu20  1  0.03963600  0.90065700  0.63678800  1
  Cu  Cu21  1  0.46036400  0.40065700  0.86321200  1
  Cu  Cu22  1  0.96036400  0.09934300  0.13678800  1
  Cu  Cu23  1  0.53963600  0.59934300  0.36321200  1
  Cu  Cu24  1  0.96036400  0.09934300  0.36321200  1
  Cu  Cu25  1  0.53963600  0.59934300  0.13678800  1
  Cu  Cu26  1  0.03963600  0.90065700  0.86321200  1
  Cu  Cu27  1  0.46036400  0.40065700  0.63678800  1
  Cu  Cu28  1  0.71042200  0.97617100  0.75000000  1
  Cu  Cu29  1  0.78957800  0.47617100  0.75000000  1
  Cu  Cu30  1  0.28957800  0.02382900  0.25000000  1
  Cu  Cu31  1  0.21042200  0.52382900  0.25000000  1
  Cu  Cu32  1  0.32181600  0.83807100  0.65078700  1
  Cu  Cu33  1  0.17818400  0.33807100  0.84921300  1
  Cu  Cu34  1  0.67818400  0.16192900  0.15078700  1
  Cu  Cu35  1  0.82181600  0.66192900  0.34921300  1
  Cu  Cu36  1  0.67818400  0.16192900  0.34921300  1
  Cu  Cu37  1  0.82181600  0.66192900  0.15078700  1
  Cu  Cu38  1  0.32181600  0.83807100  0.84921300  1
  Cu  Cu39  1  0.17818400  0.33807100  0.65078700  1
  Cu  Cu40  1  0.46068400  0.89175200  0.75000000  1
  Cu  Cu41  1  0.03931600  0.39175200  0.75000000  1
  Cu  Cu42  1  0.53931600  0.10824800  0.25000000  1
  Cu  Cu43  1  0.96068400  0.60824800  0.25000000  1
  Cu  Cu44  1  0.37296700  0.61051300  0.70886800  1
  Cu  Cu45  1  0.12703300  0.11051300  0.79113200  1
  Cu  Cu46  1  0.62703300  0.38948700  0.20886800  1
  Cu  Cu47  1  0.87296700  0.88948700  0.29113200  1
  Cu  Cu48  1  0.62703300  0.38948700  0.29113200  1
  Cu  Cu49  1  0.87296700  0.88948700  0.20886800  1
  Cu  Cu50  1  0.37296700  0.61051300  0.79113200  1
  Cu  Cu51  1  0.12703300  0.11051300  0.70886800  1
  C  C52  1  0.06841300  0.59389600  0.57997900  1
  C  C53  1  0.43158700  0.09389600  0.92002100  1
  C  C54  1  0.93158700  0.40610400  0.07997900  1
  C  C55  1  0.56841300  0.90610400  0.42002100  1
  C  C56  1  0.93158700  0.40610400  0.42002100  1
  C  C57  1  0.56841300  0.90610400  0.07997900  1
  C  C58  1  0.06841300  0.59389600  0.92002100  1
  C  C59  1  0.43158700  0.09389600  0.57997900  1
  C  C60  1  0.63738300  0.70023600  0.54137500  1
  C  C61  1  0.86261700  0.20023600  0.95862500  1
  C  C62  1  0.36261700  0.29976400  0.04137500  1
  C  C63  1  0.13738300  0.79976400  0.45862500  1
  C  C64  1  0.36261700  0.29976400  0.45862500  1
  C  C65  1  0.13738300  0.79976400  0.04137500  1
  C  C66  1  0.63738300  0.70023600  0.95862500  1
  C  C67  1  0.86261700  0.20023600  0.54137500  1
  C  C68  1  0.71228600  0.64066100  0.67297600  1
  C  C69  1  0.78771400  0.14066100  0.82702400  1
  C  C70  1  0.28771400  0.35933900  0.17297600  1
  C  C71  1  0.21228600  0.85933900  0.32702400  1
  C  C72  1  0.28771400  0.35933900  0.32702400  1
  C  C73  1  0.21228600  0.85933900  0.17297600  1
  C  C74  1  0.71228600  0.64066100  0.82702400  1
  C  C75  1  0.78771400  0.14066100  0.67297600  1
  C  C76  1  0.63295400  0.47562200  0.57828000  1
  C  C77  1  0.86704600  0.97562200  0.92172000  1
  C  C78  1  0.36704600  0.52437800  0.07828000  1
  C  C79  1  0.13295400  0.02437800  0.42172000  1
  C  C80  1  0.36704600  0.52437800  0.42172000  1
  C  C81  1  0.13295400  0.02437800  0.07828000  1
  C  C82  1  0.63295400  0.47562200  0.92172000  1
  C  C83  1  0.86704600  0.97562200  0.57828000  1
  C  C84  1  0.14469700  0.84635900  0.67060700  1
  C  C85  1  0.35530300  0.34635900  0.82939300  1
  C  C86  1  0.85530300  0.15364100  0.17060700  1
  C  C87  1  0.64469700  0.65364100  0.32939300  1
  C  C88  1  0.85530300  0.15364100  0.32939300  1
  C  C89  1  0.64469700  0.65364100  0.17060700  1
  C  C90  1  0.14469700  0.84635900  0.82939300  1
  C  C91  1  0.35530300  0.34635900  0.67060700  1
  C  C92  1  0.24904600  0.60822800  0.75000000  1
  C  C93  1  0.25095400  0.10822800  0.75000000  1
  C  C94  1  0.75095400  0.39177200  0.25000000  1
  C  C95  1  0.74904600  0.89177200  0.25000000  1
  C  C96  1  0.65390900  0.88856300  0.75000000  1
  C  C97  1  0.84609100  0.38856300  0.75000000  1
  C  C98  1  0.34609100  0.11143700  0.25000000  1
  C  C99  1  0.15390900  0.61143700  0.25000000  1
