# generated using pymatgen
data_CuNiC10
_symmetry_space_group_name_H-M   'P 1'
_cell_length_a   9.86570000
_cell_length_b   10.69007900
_cell_length_c   14.66910700
_cell_angle_alpha   90.00000000
_cell_angle_beta   90.00000000
_cell_angle_gamma   90.00000000
_symmetry_Int_Tables_number   1
_chemical_formula_structural   CuNiC10
_chemical_formula_sum   'Cu4 Ni4 C40'
_cell_volume   1547.07901842
_cell_formula_units_Z   4
loop_
 _symmetry_equiv_pos_site_id
 _symmetry_equiv_pos_as_xyz
  1  'x, y, z'
loop_
 _atom_site_type_symbol
 _atom_site_label
 _atom_site_symmetry_multiplicity
 _atom_site_fract_x
 _atom_site_fract_y
 _atom_site_fract_z
 _atom_site_occupancy
  Ni  Ni0  1  0.00000000  0.50000000  0.00000000  1
  Ni  Ni1  1  0.50000000  0.50000000  0.50000000  1
  Ni  Ni2  1  0.50000000  0.50000000  0.00000000  1
  Ni  Ni3  1  0.00000000  0.50000000  0.50000000  1
  Cu  Cu4  1  0.65738800  0.00000000  0.17280000  1
  Cu  Cu5  1  0.34261200  0.00000000  0.82720000  1
  Cu  Cu6  1  0.15738800  0.00000000  0.32720000  1
  Cu  Cu7  1  0.84261200  0.00000000  0.67280000  1
  C  C8  1  0.05658100  0.00000000  0.19119600  1
  C  C9  1  0.94341900  0.00000000  0.80880400  1
  C  C10  1  0.55658100  0.00000000  0.30880400  1
  C  C11  1  0.44341900  0.00000000  0.69119600  1
  C  C12  1  0.73544300  0.00000000  0.03144500  1
  C  C13  1  0.26455700  0.00000000  0.96855500  1
  C  C14  1  0.23544300  0.00000000  0.46855500  1
  C  C15  1  0.76455700  0.00000000  0.53144500  1
  C  C16  1  0.74113300  0.34399400  0.39624500  1
  C  C17  1  0.25886700  0.34399400  0.60375500  1
  C  C18  1  0.24113300  0.65600600  0.10375500  1
  C  C19  1  0.75886700  0.65600600  0.89624500  1
  C  C20  1  0.25886700  0.65600600  0.60375500  1
  C  C21  1  0.74113300  0.65600600  0.39624500  1
  C  C22  1  0.75886700  0.34399400  0.89624500  1
  C  C23  1  0.24113300  0.34399400  0.10375500  1
  C  C24  1  0.01280000  0.50000000  0.88465200  1
  C  C25  1  0.98720000  0.50000000  0.11534800  1
  C  C26  1  0.51280000  0.50000000  0.61534800  1
  C  C27  1  0.48720000  0.50000000  0.38465200  1
  C  C28  1  0.85899400  0.35083400  0.99191900  1
  C  C29  1  0.14100600  0.35083400  0.00808100  1
  C  C30  1  0.35899400  0.64916600  0.50808100  1
  C  C31  1  0.64100600  0.64916600  0.49191900  1
  C  C32  1  0.14100600  0.64916600  0.00808100  1
  C  C33  1  0.85899400  0.64916600  0.99191900  1
  C  C34  1  0.64100600  0.35083400  0.49191900  1
  C  C35  1  0.35899400  0.35083400  0.50808100  1
  C  C36  1  0.37183900  0.50000000  0.92411100  1
  C  C37  1  0.62816100  0.50000000  0.07588900  1
  C  C38  1  0.87183900  0.50000000  0.57588900  1
  C  C39  1  0.12816100  0.50000000  0.42411100  1
  C  C40  1  0.58946700  0.35371100  0.92339200  1
  C  C41  1  0.41053300  0.35371100  0.07660800  1
  C  C42  1  0.08946700  0.64628900  0.57660800  1
  C  C43  1  0.91053300  0.64628900  0.42339200  1
  C  C44  1  0.41053300  0.64628900  0.07660800  1
  C  C45  1  0.58946700  0.64628900  0.92339200  1
  C  C46  1  0.91053300  0.35371100  0.42339200  1
  C  C47  1  0.08946700  0.35371100  0.57660800  1
