# generated using pymatgen
data_CuNiC6
_symmetry_space_group_name_H-M   'P 1'
_cell_length_a   6.77042976
_cell_length_b   7.06819200
_cell_length_c   8.33622459
_cell_angle_alpha   90.00000000
_cell_angle_beta   117.48068312
_cell_angle_gamma   90.00000000
_symmetry_Int_Tables_number   1
_chemical_formula_structural   CuNiC6
_chemical_formula_sum   'Cu4 Ni4 C24'
_cell_volume   353.91510225
_cell_formula_units_Z   4
loop_
 _symmetry_equiv_pos_site_id
 _symmetry_equiv_pos_as_xyz
  1  'x, y, z'
loop_
 _atom_site_type_symbol
 _atom_site_label
 _atom_site_symmetry_multiplicity
 _atom_site_fract_x
 _atom_site_fract_y
 _atom_site_fract_z
 _atom_site_occupancy
  C  C0  1  0.20962400  0.10790200  0.57593100  1
  C  C1  1  0.70962400  0.39209800  0.07593100  1
  C  C2  1  0.79037600  0.89209800  0.42406900  1
  C  C3  1  0.29037600  0.60790200  0.92406900  1
  C  C4  1  0.16716200  0.87593000  0.49261000  1
  C  C5  1  0.66716200  0.62407000  0.99261000  1
  C  C6  1  0.83283800  0.12407000  0.50739000  1
  C  C7  1  0.33283800  0.37593000  0.00739000  1
  C  C8  1  0.13929400  0.92852000  0.68540200  1
  C  C9  1  0.63929400  0.57148000  0.18540200  1
  C  C10  1  0.86070600  0.07148000  0.31459800  1
  C  C11  1  0.36070600  0.42852000  0.81459800  1
  C  C12  1  0.22014500  0.92660300  0.96943700  1
  C  C13  1  0.72014500  0.57339700  0.46943700  1
  C  C14  1  0.77985500  0.07339700  0.03056300  1
  C  C15  1  0.27985500  0.42660300  0.53056300  1
  C  C16  1  0.98908500  0.82676500  0.85373800  1
  C  C17  1  0.48908500  0.67323500  0.35373800  1
  C  C18  1  0.01091500  0.17323500  0.14626200  1
  C  C19  1  0.51091500  0.32676500  0.64626200  1
  Ni  Ni20  1  0.13621200  0.63997200  0.31286300  1
  Ni  Ni21  1  0.63621200  0.86002800  0.81286300  1
  Ni  Ni22  1  0.86378800  0.36002800  0.68713700  1
  Ni  Ni23  1  0.36378800  0.13997200  0.18713700  1
  Cu  Cu24  1  0.38261800  0.48169400  0.94270700  1
  Cu  Cu25  1  0.88261800  0.01830600  0.44270700  1
  Cu  Cu26  1  0.61738200  0.51830600  0.05729300  1
  Cu  Cu27  1  0.11738200  0.98169400  0.55729300  1
  C  C28  1  0.14387200  0.83344700  0.86885400  1
  C  C29  1  0.64387200  0.66655300  0.36885400  1
  C  C30  1  0.85612800  0.16655300  0.13114600  1
  C  C31  1  0.35612800  0.33344700  0.63114600  1
