# generated using pymatgen
data_CuNi3C10
_symmetry_space_group_name_H-M   'P 1'
_cell_length_a   7.68540500
_cell_length_b   8.91321000
_cell_length_c   10.60354800
_cell_angle_alpha   90.00000000
_cell_angle_beta   90.00000000
_cell_angle_gamma   90.00000000
_symmetry_Int_Tables_number   1
_chemical_formula_structural   CuNi3C10
_chemical_formula_sum   'Cu4 Ni12 C40'
_cell_volume   726.36030800
_cell_formula_units_Z   4
loop_
 _symmetry_equiv_pos_site_id
 _symmetry_equiv_pos_as_xyz
  1  'x, y, z'
loop_
 _atom_site_type_symbol
 _atom_site_label
 _atom_site_symmetry_multiplicity
 _atom_site_fract_x
 _atom_site_fract_y
 _atom_site_fract_z
 _atom_site_occupancy
  C  C0  1  0.56223100  0.43005300  0.88612700  1
  C  C1  1  0.06223100  0.06994700  0.61387300  1
  C  C2  1  0.43776900  0.56994700  0.38612700  1
  C  C3  1  0.93776900  0.93005300  0.11387300  1
  C  C4  1  0.43776900  0.56994700  0.11387300  1
  C  C5  1  0.93776900  0.93005300  0.38612700  1
  C  C6  1  0.56223100  0.43005300  0.61387300  1
  C  C7  1  0.06223100  0.06994700  0.88612700  1
  Ni  Ni8  1  0.77003400  0.65676100  0.75000000  1
  Ni  Ni9  1  0.27003400  0.84323900  0.75000000  1
  Ni  Ni10  1  0.22996600  0.34323900  0.25000000  1
  Ni  Ni11  1  0.72996600  0.15676100  0.25000000  1
  Ni  Ni12  1  0.74526600  0.69907300  0.98109200  1
  Ni  Ni13  1  0.24526600  0.80092700  0.51890800  1
  Ni  Ni14  1  0.25473400  0.30092700  0.48109200  1
  Ni  Ni15  1  0.75473400  0.19907300  0.01890800  1
  Ni  Ni16  1  0.25473400  0.30092700  0.01890800  1
  Ni  Ni17  1  0.75473400  0.19907300  0.48109200  1
  Ni  Ni18  1  0.74526600  0.69907300  0.51890800  1
  Ni  Ni19  1  0.24526600  0.80092700  0.98109200  1
  Cu  Cu20  1  0.32422900  0.31880500  0.75000000  1
  Cu  Cu21  1  0.82422900  0.18119500  0.75000000  1
  Cu  Cu22  1  0.67577100  0.68119500  0.25000000  1
  Cu  Cu23  1  0.17577100  0.81880500  0.25000000  1
  C  C24  1  0.42841600  0.38204500  0.75000000  1
  C  C25  1  0.92841600  0.11795500  0.75000000  1
  C  C26  1  0.57158400  0.61795500  0.25000000  1
  C  C27  1  0.07158400  0.88204500  0.25000000  1
  C  C28  1  0.68105400  0.52331000  0.75000000  1
  C  C29  1  0.18105400  0.97669000  0.75000000  1
  C  C30  1  0.31894600  0.47669000  0.25000000  1
  C  C31  1  0.81894600  0.02331000  0.25000000  1
  C  C32  1  0.81638500  0.72569400  0.86148900  1
  C  C33  1  0.31638500  0.77430600  0.63851100  1
  C  C34  1  0.18361500  0.27430600  0.36148900  1
  C  C35  1  0.68361500  0.22569400  0.13851100  1
  C  C36  1  0.18361500  0.27430600  0.13851100  1
  C  C37  1  0.68361500  0.22569400  0.36148900  1
  C  C38  1  0.81638500  0.72569400  0.63851100  1
  C  C39  1  0.31638500  0.77430600  0.86148900  1
  C  C40  1  0.61747000  0.58777900  0.99364100  1
  C  C41  1  0.11747000  0.91222100  0.50635900  1
  C  C42  1  0.38253000  0.41222100  0.49364100  1
  C  C43  1  0.88253000  0.08777900  0.00635900  1
  C  C44  1  0.38253000  0.41222100  0.00635900  1
  C  C45  1  0.88253000  0.08777900  0.49364100  1
  C  C46  1  0.61747000  0.58777900  0.50635900  1
  C  C47  1  0.11747000  0.91222100  0.99364100  1
  C  C48  1  0.70431400  0.27946900  0.91862600  1
  C  C49  1  0.20431400  0.22053100  0.58137400  1
  C  C50  1  0.29568600  0.72053100  0.41862600  1
  C  C51  1  0.79568600  0.77946900  0.08137400  1
  C  C52  1  0.29568600  0.72053100  0.08137400  1
  C  C53  1  0.79568600  0.77946900  0.41862600  1
  C  C54  1  0.70431400  0.27946900  0.58137400  1
  C  C55  1  0.20431400  0.22053100  0.91862600  1
