# generated using pymatgen
data_Cu17Ni3C23
_symmetry_space_group_name_H-M   'P 1'
_cell_length_a   10.42259400
_cell_length_b   10.43332638
_cell_length_c   16.91452159
_cell_angle_alpha   83.54798295
_cell_angle_beta   86.71895982
_cell_angle_gamma   69.62735326
_symmetry_Int_Tables_number   1
_chemical_formula_structural   Cu17Ni3C23
_chemical_formula_sum   'Cu68 Ni12 C92'
_cell_volume   1713.02652725
_cell_formula_units_Z   4
loop_
 _symmetry_equiv_pos_site_id
 _symmetry_equiv_pos_as_xyz
  1  'x, y, z'
loop_
 _atom_site_type_symbol
 _atom_site_label
 _atom_site_symmetry_multiplicity
 _atom_site_fract_x
 _atom_site_fract_y
 _atom_site_fract_z
 _atom_site_occupancy
  C  C0  1  0.44079300  0.18892200  0.11183000  1
  C  C1  1  0.55920700  0.81107800  0.88817000  1
  C  C2  1  0.31192500  0.86822500  0.00696200  1
  C  C3  1  0.68807500  0.13177500  0.99303800  1
  C  C4  1  0.34823500  0.93821600  0.18190300  1
  C  C5  1  0.65176500  0.06178400  0.81809700  1
  C  C6  1  0.59654800  0.87929600  0.06275200  1
  C  C7  1  0.40345200  0.12070400  0.93724800  1
  C  C8  1  0.16210100  0.16736700  0.05894200  1
  C  C9  1  0.83789900  0.83263300  0.94105800  1
  C  C10  1  0.73642800  0.58834500  0.56206000  1
  C  C11  1  0.26357200  0.41165500  0.43794000  1
  C  C12  1  0.02131600  0.65579700  0.35925700  1
  C  C13  1  0.97868400  0.34420300  0.64074300  1
  C  C14  1  0.72092000  0.63904700  0.37424400  1
  C  C15  1  0.27908000  0.36095300  0.62575600  1
  C  C16  1  0.96220700  0.39257000  0.45029200  1
  C  C17  1  0.03779300  0.60743000  0.54970800  1
  C  C18  1  0.79838200  0.84441100  0.47080400  1
  C  C19  1  0.20161800  0.15558900  0.52919600  1
  C  C20  1  0.55115300  0.31787300  0.54245300  1
  C  C21  1  0.44884700  0.68212700  0.45754700  1
  C  C22  1  0.64796200  0.22063600  0.61902300  1
  C  C23  1  0.35203800  0.77936400  0.38097700  1
  C  C24  1  0.68131900  0.16963100  0.52616900  1
  C  C25  1  0.31868100  0.83036900  0.47383100  1
  C  C26  1  0.71907400  0.30753300  0.54953500  1
  C  C27  1  0.28092600  0.69246700  0.45046500  1
  C  C28  1  0.94779700  0.54922800  0.12931900  1
  C  C29  1  0.05220300  0.45077200  0.87068100  1
  C  C30  1  0.94229300  0.42443800  0.19843500  1
  C  C31  1  0.05770700  0.57556200  0.80156500  1
  C  C32  1  0.85574300  0.58689100  0.21444300  1
  C  C33  1  0.14425700  0.41310900  0.78555700  1
  C  C34  1  0.79673000  0.51728800  0.14231400  1
  C  C35  1  0.20327000  0.48271200  0.85768600  1
  C  C36  1  0.43308300  0.00759700  0.62943700  1
  C  C37  1  0.56691700  0.99240300  0.37056300  1
  C  C38  1  0.52811900  0.91091500  0.70704500  1
  C  C39  1  0.47188100  0.08908500  0.29295500  1
  C  C40  1  0.42835100  0.84632900  0.65807600  1
  C  C41  1  0.57164900  0.15367100  0.34192400  1
  C  C42  1  0.57211200  0.86462500  0.61285400  1
  C  C43  1  0.42788800  0.13537500  0.38714600  1
  C  C44  1  0.96692800  0.89909200  0.07529800  1
  C  C45  1  0.03307200  0.10090800  0.92470200  1
  C  C46  1  0.09794100  0.87914600  0.13575100  1
  C  C47  1  0.90205900  0.12085400  0.86424900  1
  C  C48  1  0.04819600  0.74572600  0.12824500  1
  C  C49  1  0.95180400  0.25427400  0.87175500  1
  C  C50  1  0.94020900  0.88246400  0.17456800  1
  C  C51  1  0.05979100  0.11753600  0.82543200  1
  C  C52  1  0.66726200  0.43282300  0.75049800  1
  C  C53  1  0.33273800  0.56717700  0.24950200  1
  C  C54  1  0.63078400  0.34613500  0.83472400  1
  C  C55  1  0.36921600  0.65386500  0.16527600  1
  C  C56  1  0.51448900  0.41204900  0.76299300  1
  C  C57  1  0.48551100  0.58795100  0.23700700  1
  C  C58  1  0.55200100  0.52149700  0.81745900  1
  C  C59  1  0.44799900  0.47850300  0.18254100  1
  C  C60  1  0.10547600  0.02325100  0.29208400  1
  C  C61  1  0.89452400  0.97674900  0.70791600  1
  C  C62  1  0.02143100  0.11646100  0.36567200  1
  C  C63  1  0.97856900  0.88353900  0.63432800  1
  C  C64  1  0.98034400  0.97893900  0.34453800  1
  C  C65  1  0.01965600  0.02106100  0.65546200  1
  C  C66  1  0.94302400  0.12601500  0.27831000  1
  C  C67  1  0.05697600  0.87398500  0.72169000  1
  C  C68  1  0.60588400  0.59205100  0.05257600  1
  C  C69  1  0.39411600  0.40794900  0.94742400  1
  C  C70  1  0.66501700  0.42853400  0.06599900  1
  C  C71  1  0.33498300  0.57146600  0.93400100  1
  C  C72  1  0.82925400  0.53034900  0.91313200  1
  C  C73  1  0.17074600  0.46965100  0.08686800  1
  C  C74  1  0.90037800  0.39630200  0.97105400  1
  C  C75  1  0.09962200  0.60369800  0.02894600  1
  C  C76  1  0.83042600  0.72221500  0.78553300  1
  C  C77  1  0.16957400  0.27778500  0.21446700  1
  C  C78  1  0.88937300  0.64725800  0.70755800  1
  C  C79  1  0.11062700  0.35274200  0.29244200  1
  C  C80  1  0.71491500  0.97701400  0.18698800  1
  C  C81  1  0.28508500  0.02298600  0.81301200  1
  C  C82  1  0.77124500  0.90041400  0.27174100  1
  C  C83  1  0.22875500  0.09958600  0.72825900  1
  C  C84  1  0.77961900  0.16232300  0.19578300  1
  C  C85  1  0.22038100  0.83767700  0.80421700  1
  C  C86  1  0.86501200  0.24546800  0.15088800  1
  C  C87  1  0.13498800  0.75453200  0.84911200  1
  C  C88  1  0.69645700  0.30169800  0.29220700  1
  C  C89  1  0.30354300  0.69830200  0.70779300  1
  C  C90  1  0.56217600  0.35965300  0.34462900  1
  C  C91  1  0.43782400  0.64034700  0.65537100  1
  Ni  Ni92  1  0.64976700  0.25463300  0.55902900  1
  Ni  Ni93  1  0.35023300  0.74536700  0.44097100  1
  Ni  Ni94  1  0.88271600  0.51966000  0.17049100  1
  Ni  Ni95  1  0.11728400  0.48034000  0.82950900  1
  Ni  Ni96  1  0.49019200  0.90805000  0.65165400  1
  Ni  Ni97  1  0.50980800  0.09195000  0.34834600  1
  Ni  Ni98  1  0.01355100  0.85146500  0.12903200  1
  Ni  Ni99  1  0.98644900  0.14853500  0.87096800  1
  Ni  Ni100  1  0.59110800  0.42941400  0.79159500  1
  Ni  Ni101  1  0.40889200  0.57058600  0.20840500  1
  Ni  Ni102  1  0.01198600  0.06034700  0.32068300  1
  Ni  Ni103  1  0.98801400  0.93965300  0.67931700  1
  Cu  Cu104  1  0.00221000  0.27332200  0.05896900  1
  Cu  Cu105  1  0.99779000  0.72667800  0.94103100  1
  Cu  Cu106  1  0.32180700  0.87495700  0.27258400  1
  Cu  Cu107  1  0.67819300  0.12504300  0.72741600  1
  Cu  Cu108  1  0.26862900  0.75098400  0.96932300  1
  Cu  Cu109  1  0.73137100  0.24901600  0.03067700  1
  Cu  Cu110  1  0.48614800  0.30277100  0.15162100  1
  Cu  Cu111  1  0.51385200  0.69722900  0.84837900  1
  Cu  Cu112  1  0.41445800  0.07764600  0.19982500  1
  Cu  Cu113  1  0.58554200  0.92235400  0.80017500  1
  Cu  Cu114  1  0.54228800  0.83026900  0.15620900  1
  Cu  Cu115  1  0.45771200  0.16973100  0.84379100  1
  Cu  Cu116  1  0.17730800  0.06607200  0.15646300  1
  Cu  Cu117  1  0.82269200  0.93392800  0.84353700  1
  Cu  Cu118  1  0.25613300  0.27609300  0.09633500  1
  Cu  Cu119  1  0.74386700  0.72390700  0.90366500  1
  Cu  Cu120  1  0.15217200  0.01746600  0.00826000  1
  Cu  Cu121  1  0.84782800  0.98253400  0.99174000  1
  Cu  Cu122  1  0.30888900  0.81947900  0.11523300  1
  Cu  Cu123  1  0.69111100  0.18052100  0.88476700  1
  Cu  Cu124  1  0.76676100  0.78030900  0.04956400  1
  Cu  Cu125  1  0.23323900  0.21969100  0.95043600  1
  Cu  Cu126  1  0.62585400  0.04178500  0.09379800  1
  Cu  Cu127  1  0.37414600  0.95821500  0.90620200  1
  Cu  Cu128  1  0.51912700  0.77381200  0.00394200  1
  Cu  Cu129  1  0.48087300  0.22618800  0.99605800  1
  Cu  Cu130  1  0.39480100  0.02287200  0.04948600  1
  Cu  Cu131  1  0.60519900  0.97712800  0.95051400  1
  Cu  Cu132  1  0.60555400  0.64522300  0.31083700  1
  Cu  Cu133  1  0.39444600  0.35477700  0.68916300  1
  Cu  Cu134  1  0.73602600  0.01003000  0.48044500  1
  Cu  Cu135  1  0.26397400  0.98997000  0.51955500  1
  Cu  Cu136  1  0.12456300  0.67883700  0.28627500  1
  Cu  Cu137  1  0.87543700  0.32116300  0.71372500  1
  Cu  Cu138  1  0.63145500  0.56420400  0.63439000  1
  Cu  Cu139  1  0.36854500  0.43579600  0.36561000  1
  Cu  Cu140  1  0.63893800  0.60142400  0.47224500  1
  Cu  Cu141  1  0.36106200  0.39857600  0.52775500  1
  Cu  Cu142  1  0.83082000  0.44056000  0.38341600  1
  Cu  Cu143  1  0.16918000  0.55944000  0.61658400  1
  Cu  Cu144  1  0.68389200  0.82122800  0.39764600  1
  Cu  Cu145  1  0.31610800  0.17877200  0.60235400  1
  Cu  Cu146  1  0.70644800  0.77285000  0.55516800  1
  Cu  Cu147  1  0.29355200  0.22715000  0.44483200  1
  Cu  Cu148  1  0.93748900  0.82985600  0.39149300  1
  Cu  Cu149  1  0.06251100  0.17014400  0.60850700  1
  Cu  Cu150  1  0.86990700  0.65694300  0.30830300  1
  Cu  Cu151  1  0.13009300  0.34305700  0.69169700  1
  Cu  Cu152  1  0.04373200  0.21660100  0.45081000  1
  Cu  Cu153  1  0.95626800  0.78339900  0.54919000  1
  Cu  Cu154  1  0.84901600  0.39126200  0.54585300  1
  Cu  Cu155  1  0.15098400  0.60873800  0.45414700  1
  Cu  Cu156  1  0.09047200  0.44853800  0.37703500  1
  Cu  Cu157  1  0.90952800  0.55146200  0.62296500  1
  Cu  Cu158  1  0.89919000  0.60550000  0.46806600  1
  Cu  Cu159  1  0.10081000  0.39450000  0.53193400  1
  Cu  Cu160  1  0.65042800  0.51280200  0.09136600  1
  Cu  Cu161  1  0.34957200  0.48719800  0.90863400  1
  Cu  Cu162  1  0.88993900  0.43303400  0.91473400  1
  Cu  Cu163  1  0.11006100  0.56696600  0.08526600  1
  Cu  Cu164  1  0.90868400  0.69851400  0.74861900  1
  Cu  Cu165  1  0.09131600  0.30148600  0.25138100  1
  Cu  Cu166  1  0.78444000  0.96431500  0.22762000  1
  Cu  Cu167  1  0.21556000  0.03568500  0.77238000  1
  Cu  Cu168  1  0.82717400  0.22594000  0.20350000  1
  Cu  Cu169  1  0.17282600  0.77406000  0.79650000  1
  Cu  Cu170  1  0.64586800  0.27999500  0.33942200  1
  Cu  Cu171  1  0.35413200  0.72000500  0.66057800  1
