# generated using pymatgen
data_Cu2NiC4
_symmetry_space_group_name_H-M   'P 1'
_cell_length_a   6.27368090
_cell_length_b   6.27368090
_cell_length_c   20.99836289
_cell_angle_alpha   82.29886272
_cell_angle_beta   82.29886272
_cell_angle_gamma   62.55449185
_symmetry_Int_Tables_number   1
_chemical_formula_structural   Cu2NiC4
_chemical_formula_sum   'Cu16 Ni8 C32'
_cell_volume   724.38404609
_cell_formula_units_Z   8
loop_
 _symmetry_equiv_pos_site_id
 _symmetry_equiv_pos_as_xyz
  1  'x, y, z'
loop_
 _atom_site_type_symbol
 _atom_site_label
 _atom_site_symmetry_multiplicity
 _atom_site_fract_x
 _atom_site_fract_y
 _atom_site_fract_z
 _atom_site_occupancy
  Ni  Ni0  1  0.85826300  0.85826300  0.96995000  1
  Ni  Ni1  1  0.37649700  0.37649700  0.87539300  1
  Ni  Ni2  1  0.60763100  0.60763100  0.71965500  1
  Ni  Ni3  1  0.12636300  0.12636300  0.62507800  1
  Ni  Ni4  1  0.87528300  0.87528300  0.37513300  1
  Ni  Ni5  1  0.00031100  0.00031100  0.49903400  1
  Ni  Ni6  1  0.62607900  0.62607900  0.12484500  1
  Ni  Ni7  1  0.74940800  0.74940800  0.25073300  1
  Cu  Cu8  1  0.37711500  0.87233200  0.87538300  1
  Cu  Cu9  1  0.25236900  0.25236900  0.74842500  1
  Cu  Cu10  1  0.87233200  0.37711500  0.87538300  1
  Cu  Cu11  1  0.35737000  0.35737000  0.46643800  1
  Cu  Cu12  1  0.12419400  0.63053400  0.62359300  1
  Cu  Cu13  1  0.89815100  0.89815100  0.78121200  1
  Cu  Cu14  1  0.10818400  0.10818400  0.21800500  1
  Cu  Cu15  1  0.63053400  0.12419400  0.62359300  1
  Cu  Cu16  1  0.87475200  0.37483100  0.37528200  1
  Cu  Cu17  1  0.64298600  0.64298600  0.53185300  1
  Cu  Cu18  1  0.37483100  0.87475200  0.37528200  1
  Cu  Cu19  1  0.11704700  0.62786500  0.12638400  1
  Cu  Cu20  1  0.62786500  0.11704700  0.12638400  1
  Cu  Cu21  1  0.39244300  0.39244300  0.28350100  1
  Cu  Cu22  1  0.49977200  0.49977200  0.00018400  1
  Cu  Cu23  1  0.14832600  0.14832600  0.03222000  1
  C  C24  1  0.66987800  0.21539300  0.93395600  1
  C  C25  1  0.55880600  0.55880600  0.81939200  1
  C  C26  1  0.21539300  0.66987800  0.93395600  1
  C  C27  1  0.69009800  0.69009800  0.93736600  1
  C  C28  1  0.07406700  0.07406700  0.81299000  1
  C  C29  1  0.42591700  0.96834300  0.68409900  1
  C  C30  1  0.51495900  0.08252200  0.81518900  1
  C  C31  1  0.31323700  0.31323700  0.57441900  1
  C  C32  1  0.96834300  0.42591700  0.68409900  1
  C  C33  1  0.18735800  0.18735800  0.92572500  1
  C  C34  1  0.43749000  0.43749000  0.68550600  1
  C  C35  1  0.08252200  0.51495900  0.81518900  1
  C  C36  1  0.16340200  0.73877300  0.43320500  1
  C  C37  1  0.82218000  0.82218000  0.56385600  1
  C  C38  1  0.26438700  0.83670400  0.56658700  1
  C  C39  1  0.06173200  0.06173200  0.32258700  1
  C  C40  1  0.73877300  0.16340200  0.43320500  1
  C  C41  1  0.93900200  0.93900200  0.67529100  1
  C  C42  1  0.17465900  0.17465900  0.43338000  1
  C  C43  1  0.83670400  0.26438700  0.56658700  1
  C  C44  1  0.57472700  0.57472700  0.31718300  1
  C  C45  1  0.91037400  0.48849800  0.18292200  1
  C  C46  1  0.01175700  0.58527300  0.31736000  1
  C  C47  1  0.80689700  0.80689700  0.06706700  1
  C  C48  1  0.48849800  0.91037400  0.18292200  1
  C  C49  1  0.68771300  0.68771300  0.42777300  1
  C  C50  1  0.92480600  0.92480600  0.18580600  1
  C  C51  1  0.58527300  0.01175700  0.31736000  1
  C  C52  1  0.32232000  0.32232000  0.06868200  1
  C  C53  1  0.76429300  0.32869800  0.06737200  1
  C  C54  1  0.43757000  0.43757000  0.17865900  1
  C  C55  1  0.32869800  0.76429300  0.06737200  1
