# generated using pymatgen
data_CuNiC8
_symmetry_space_group_name_H-M   'P 1'
_cell_length_a   5.46175200
_cell_length_b   5.51974000
_cell_length_c   7.67900100
_cell_angle_alpha   90.00000000
_cell_angle_beta   90.00000000
_cell_angle_gamma   90.00000000
_symmetry_Int_Tables_number   1
_chemical_formula_structural   CuNiC8
_chemical_formula_sum   'Cu2 Ni2 C16'
_cell_volume   231.50230626
_cell_formula_units_Z   2
loop_
 _symmetry_equiv_pos_site_id
 _symmetry_equiv_pos_as_xyz
  1  'x, y, z'
loop_
 _atom_site_type_symbol
 _atom_site_label
 _atom_site_symmetry_multiplicity
 _atom_site_fract_x
 _atom_site_fract_y
 _atom_site_fract_z
 _atom_site_occupancy
  Ni  Ni0  1  0.25854000  0.53819600  0.50000000  1
  Ni  Ni1  1  0.74146000  0.03819600  0.50000000  1
  Cu  Cu2  1  0.24209200  0.45630500  0.00000000  1
  Cu  Cu3  1  0.75790800  0.95630500  0.00000000  1
  C  C4  1  0.74906500  0.49889100  0.74383400  1
  C  C5  1  0.25093500  0.99889200  0.25616600  1
  C  C6  1  0.74906500  0.49889100  0.25616600  1
  C  C7  1  0.25093500  0.99889200  0.74383400  1
  C  C8  1  0.96854800  0.21722000  0.79669200  1
  C  C9  1  0.03145200  0.71722000  0.20330800  1
  C  C10  1  0.54333600  0.79339900  0.28592200  1
  C  C11  1  0.45666400  0.29339900  0.71407800  1
  C  C12  1  0.54333600  0.79339900  0.71407800  1
  C  C13  1  0.45666400  0.29339900  0.28592200  1
  C  C14  1  0.96854800  0.21722000  0.20330800  1
  C  C15  1  0.03145200  0.71722000  0.79669200  1
  C  C16  1  0.32496000  0.01297700  0.00000000  1
  C  C17  1  0.67504000  0.51297700  0.00000000  1
  C  C18  1  0.16584200  0.97350000  0.50000000  1
  C  C19  1  0.83415800  0.47350000  0.50000000  1
