# generated using pymatgen
data_Cu3NiC16
_symmetry_space_group_name_H-M   'P 1'
_cell_length_a   7.66056582
_cell_length_b   7.66056582
_cell_length_c   7.65752900
_cell_angle_alpha   90.00000000
_cell_angle_beta   90.00000000
_cell_angle_gamma   90.01353901
_symmetry_Int_Tables_number   1
_chemical_formula_structural   Cu3NiC16
_chemical_formula_sum   'Cu6 Ni2 C32'
_cell_volume   449.37647653
_cell_formula_units_Z   2
loop_
 _symmetry_equiv_pos_site_id
 _symmetry_equiv_pos_as_xyz
  1  'x, y, z'
loop_
 _atom_site_type_symbol
 _atom_site_label
 _atom_site_symmetry_multiplicity
 _atom_site_fract_x
 _atom_site_fract_y
 _atom_site_fract_z
 _atom_site_occupancy
  Ni  Ni0  1  0.75149000  0.24850900  0.74883700  1
  Ni  Ni1  1  0.75149000  0.24850900  0.25116300  1
  Cu  Cu2  1  0.24756000  0.24723500  0.74719100  1
  Cu  Cu3  1  0.24703200  0.75296800  0.74724800  1
  Cu  Cu4  1  0.75276500  0.75244000  0.74719100  1
  Cu  Cu5  1  0.24756000  0.24723500  0.25280900  1
  Cu  Cu6  1  0.24703200  0.75296800  0.25275200  1
  Cu  Cu7  1  0.75276500  0.75244000  0.25280900  1
  C  C8  1  0.49662400  0.50337600  0.00000000  1
  C  C9  1  0.00111300  0.99888700  0.00000000  1
  C  C10  1  0.49843600  0.99970200  0.00000000  1
  C  C11  1  0.00029800  0.50156400  0.00000000  1
  C  C12  1  0.00130800  0.99869200  0.50000000  1
  C  C13  1  0.49856100  0.99887100  0.50000000  1
  C  C14  1  0.00112900  0.50143900  0.50000000  1
  C  C15  1  0.49840000  0.50160000  0.50000000  1
  C  C16  1  0.00417500  0.99582500  0.74998800  1
  C  C17  1  0.49588700  0.99570800  0.74981800  1
  C  C18  1  0.00429200  0.50411300  0.74981800  1
  C  C19  1  0.49725900  0.50274100  0.74717600  1
  C  C20  1  0.00417500  0.99582500  0.25001200  1
  C  C21  1  0.49588700  0.99570800  0.25018200  1
  C  C22  1  0.00429200  0.50411300  0.25018200  1
  C  C23  1  0.49725900  0.50274100  0.25282400  1
  C  C24  1  0.00743600  0.24982700  0.00000000  1
  C  C25  1  0.49613500  0.24710600  0.00000000  1
  C  C26  1  0.00116200  0.75017100  0.00000000  1
  C  C27  1  0.49798800  0.75277600  0.00000000  1
  C  C28  1  0.00692500  0.24998100  0.50000000  1
  C  C29  1  0.49295900  0.24976400  0.50000000  1
  C  C30  1  0.00163700  0.74994200  0.50000000  1
  C  C31  1  0.49865800  0.75012200  0.50000000  1
  C  C32  1  0.24982900  0.99883800  0.00000000  1
  C  C33  1  0.75017300  0.99256400  0.00000000  1
  C  C34  1  0.24722400  0.50201200  0.00000000  1
  C  C35  1  0.75289400  0.50386500  0.00000000  1
  C  C36  1  0.25005800  0.99836300  0.50000000  1
  C  C37  1  0.75001900  0.99307500  0.50000000  1
  C  C38  1  0.24987800  0.50134200  0.50000000  1
  C  C39  1  0.75023600  0.50704100  0.50000000  1
