# generated using pymatgen
data_Cu2NiC11
_symmetry_space_group_name_H-M   'P 1'
_cell_length_a   17.17878630
_cell_length_b   17.17878630
_cell_length_c   5.26244254
_cell_angle_alpha   84.02721181
_cell_angle_beta   84.02721181
_cell_angle_gamma   9.52877907
_symmetry_Int_Tables_number   1
_chemical_formula_structural   Cu2NiC11
_chemical_formula_sum   'Cu4 Ni2 C22'
_cell_volume   255.68342318
_cell_formula_units_Z   2
loop_
 _symmetry_equiv_pos_site_id
 _symmetry_equiv_pos_as_xyz
  1  'x, y, z'
loop_
 _atom_site_type_symbol
 _atom_site_label
 _atom_site_symmetry_multiplicity
 _atom_site_fract_x
 _atom_site_fract_y
 _atom_site_fract_z
 _atom_site_occupancy
  C  C0  1  0.49675300  0.49675300  0.49876800  1
  C  C1  1  0.92643300  0.92643300  0.35066100  1
  C  C2  1  0.35621800  0.35621800  0.20585400  1
  C  C3  1  0.78466300  0.78466300  0.05601600  1
  C  C4  1  0.21384900  0.21384900  0.93385400  1
  C  C5  1  0.07434500  0.07434500  0.63574200  1
  C  C6  1  0.64820000  0.64820000  0.80799100  1
  C  C7  1  0.71437800  0.71437800  0.42645400  1
  Ni  Ni8  1  0.99854000  0.99854000  0.00126800  1
  Ni  Ni9  1  0.57259900  0.57259900  0.14832400  1
  Cu  Cu10  1  0.42666700  0.42666700  0.84981700  1
  Cu  Cu11  1  0.85646200  0.85646200  0.71987600  1
  Cu  Cu12  1  0.28139900  0.28139900  0.53465800  1
  Cu  Cu13  1  0.14950300  0.14950300  0.31815100  1
  C  C14  1  0.53515000  0.53515000  0.86972700  1
  C  C15  1  0.96284200  0.96284200  0.68231400  1
  C  C16  1  0.38929800  0.38929800  0.56433600  1
  C  C17  1  0.81730300  0.81730300  0.42116600  1
  C  C18  1  0.25333400  0.25333400  0.26236300  1
  C  C19  1  0.10159200  0.10159200  0.97058800  1
  C  C20  1  0.67681100  0.67681100  0.11527500  1
  C  C21  1  0.46599700  0.46599700  0.16338100  1
  C  C22  1  0.89437300  0.89437300  0.03413300  1
  C  C23  1  0.32574600  0.32574600  0.87611700  1
  C  C24  1  0.75521300  0.75521300  0.72663700  1
  C  C25  1  0.17520700  0.17520700  0.59435700  1
  C  C26  1  0.04059000  0.04059000  0.31900300  1
  C  C27  1  0.60653800  0.60653800  0.41317000  1
