# generated using pymatgen
data_Cu(Ni3C17)2
_symmetry_space_group_name_H-M   'P 1'
_cell_length_a   9.65639706
_cell_length_b   10.31960642
_cell_length_c   11.13414148
_cell_angle_alpha   68.28628982
_cell_angle_beta   72.26774963
_cell_angle_gamma   81.99136597
_symmetry_Int_Tables_number   1
_chemical_formula_structural   Cu(Ni3C17)2
_chemical_formula_sum   'Cu2 Ni12 C68'
_cell_volume   981.37481265
_cell_formula_units_Z   2
loop_
 _symmetry_equiv_pos_site_id
 _symmetry_equiv_pos_as_xyz
  1  'x, y, z'
loop_
 _atom_site_type_symbol
 _atom_site_label
 _atom_site_symmetry_multiplicity
 _atom_site_fract_x
 _atom_site_fract_y
 _atom_site_fract_z
 _atom_site_occupancy
  C  C0  1  0.27514600  0.50660200  0.39646700  1
  C  C1  1  0.72485400  0.49339800  0.60353300  1
  C  C2  1  0.07730300  0.02614100  0.23594500  1
  C  C3  1  0.92269700  0.97385900  0.76405500  1
  C  C4  1  0.17026300  0.99967500  0.50494200  1
  C  C5  1  0.82973700  0.00032500  0.49505800  1
  C  C6  1  0.50000000  0.00000000  0.50000000  1
  C  C7  1  0.44027000  0.37773400  0.95680600  1
  C  C8  1  0.55973000  0.62226600  0.04319400  1
  C  C9  1  0.20467700  0.61142700  0.03453900  1
  C  C10  1  0.79532300  0.38857300  0.96546100  1
  C  C11  1  0.10230700  0.35694700  0.97331300  1
  C  C12  1  0.89769300  0.64305300  0.02668700  1
  C  C13  1  0.42624300  0.00900700  0.23081600  1
  C  C14  1  0.57375700  0.99099300  0.76918400  1
  C  C15  1  0.00000000  0.00000000  0.00000000  1
  C  C16  1  0.25058300  0.99154100  0.74238400  1
  C  C17  1  0.74941700  0.00845900  0.25761600  1
  Ni  Ni18  1  0.04810500  0.28733300  0.72898900  1
  Ni  Ni19  1  0.95189500  0.71266700  0.27101100  1
  Ni  Ni20  1  0.35279600  0.27995300  0.72953500  1
  Ni  Ni21  1  0.64720400  0.72004700  0.27046500  1
  Ni  Ni22  1  0.37501900  0.71966900  0.49893400  1
  Ni  Ni23  1  0.62498100  0.28033000  0.50106600  1
  Ni  Ni24  1  0.05495000  0.72539800  0.50044300  1
  Ni  Ni25  1  0.94505000  0.27460200  0.49955700  1
  Ni  Ni26  1  0.78834700  0.70788800  0.73835300  1
  Ni  Ni27  1  0.21165300  0.29211200  0.26164700  1
  Ni  Ni28  1  0.47576000  0.70163100  0.73981500  1
  Ni  Ni29  1  0.52424000  0.29836900  0.26018500  1
  Cu  Cu30  1  0.32611200  0.83850200  0.06160300  1
  Cu  Cu31  1  0.67388800  0.16149800  0.93839700  1
  C  C32  1  0.21133700  0.86815100  0.95987200  1
  C  C33  1  0.78866300  0.13184900  0.04012800  1
  C  C34  1  0.27431700  0.90968800  0.18449400  1
  C  C35  1  0.72568300  0.09031200  0.81550600  1
  C  C36  1  0.31850400  0.65352700  0.14061900  1
  C  C37  1  0.68149600  0.34647300  0.85938100  1
  C  C38  1  0.49293200  0.14819600  0.02408600  1
  C  C39  1  0.50706800  0.85180400  0.97591400  1
  C  C40  1  0.96716700  0.33947700  0.60761100  1
  C  C41  1  0.03283300  0.66052300  0.39238900  1
  C  C42  1  0.96367100  0.88362500  0.19675300  1
  C  C43  1  0.03632900  0.11637500  0.80324700  1
  C  C44  1  0.97963400  0.37018000  0.83408200  1
  C  C45  1  0.02036600  0.62982000  0.16591800  1
  C  C46  1  0.21955700  0.33169600  0.65471600  1
  C  C47  1  0.78044300  0.66830400  0.34528400  1
  C  C48  1  0.31205500  0.34936900  0.84738000  1
  C  C49  1  0.68794500  0.65063100  0.15262000  1
  C  C50  1  0.36911700  0.11020600  0.78446300  1
  C  C51  1  0.63088300  0.88979400  0.21553700  1
  C  C52  1  0.50754400  0.34252100  0.61286800  1
  C  C53  1  0.49245600  0.65747900  0.38713200  1
  C  C54  1  0.41555700  0.65007900  0.64261400  1
  C  C55  1  0.58444300  0.34992100  0.35738600  1
  C  C56  1  0.36803900  0.88772200  0.44647200  1
  C  C57  1  0.63196100  0.11227800  0.55352800  1
  C  C58  1  0.21685800  0.66025300  0.51759600  1
  C  C59  1  0.78314200  0.33974700  0.48240400  1
  C  C60  1  0.04251600  0.89340900  0.44765100  1
  C  C61  1  0.95748400  0.10659100  0.55234900  1
  C  C62  1  0.93381800  0.65562500  0.64354000  1
  C  C63  1  0.06618200  0.34437500  0.35646000  1
  C  C64  1  0.78704100  0.87446800  0.70731300  1
  C  C65  1  0.21295900  0.12553200  0.29268700  1
  C  C66  1  0.76939700  0.61779600  0.89811600  1
  C  C67  1  0.23060300  0.38220400  0.10188400  1
  C  C68  1  0.65203800  0.65994900  0.70379600  1
  C  C69  1  0.34796200  0.34005100  0.29620400  1
  C  C70  1  0.40994700  0.60610600  0.90066600  1
  C  C71  1  0.59005300  0.39389400  0.09933400  1
  C  C72  1  0.45582500  0.86774500  0.70784800  1
  C  C73  1  0.54417500  0.13225500  0.29215200  1
  C  C74  1  0.08467500  0.13952400  0.03717000  1
  C  C75  1  0.91532500  0.86047600  0.96283000  1
  C  C76  1  0.30316500  0.09301500  0.55724800  1
  C  C77  1  0.69683500  0.90698500  0.44275200  1
  C  C78  1  0.12590700  0.89342900  0.70829700  1
  C  C79  1  0.87409300  0.10657100  0.29170300  1
  C  C80  1  0.09616800  0.58697200  0.93197700  1
  C  C81  1  0.90383200  0.41302800  0.06802300  1
