# generated using pymatgen
data_Cu3NiC2
_symmetry_space_group_name_H-M   'P 1'
_cell_length_a   3.38554800
_cell_length_b   5.90004500
_cell_length_c   10.25322619
_cell_angle_alpha   89.84988183
_cell_angle_beta   90.00000000
_cell_angle_gamma   90.00000000
_symmetry_Int_Tables_number   1
_chemical_formula_structural   Cu3NiC2
_chemical_formula_sum   'Cu9 Ni3 C6'
_cell_volume   204.80631674
_cell_formula_units_Z   3
loop_
 _symmetry_equiv_pos_site_id
 _symmetry_equiv_pos_as_xyz
  1  'x, y, z'
loop_
 _atom_site_type_symbol
 _atom_site_label
 _atom_site_symmetry_multiplicity
 _atom_site_fract_x
 _atom_site_fract_y
 _atom_site_fract_z
 _atom_site_occupancy
  Ni  Ni0  1  0.50000000  0.40809100  0.99934800  1
  Ni  Ni1  1  0.50000000  0.90945600  0.50190400  1
  Ni  Ni2  1  0.50000000  0.79694900  0.20508900  1
  Cu  Cu3  1  0.50000000  0.29684300  0.70413100  1
  Cu  Cu4  1  0.50000000  0.29530400  0.29662300  1
  Cu  Cu5  1  0.50000000  0.79566800  0.79497100  1
  Cu  Cu6  1  0.00000000  0.74627600  0.99865000  1
  Cu  Cu7  1  0.00000000  0.24635400  0.50112400  1
  Cu  Cu8  1  0.00000000  0.62617900  0.37393900  1
  Cu  Cu9  1  0.00000000  0.12804400  0.87183600  1
  Cu  Cu10  1  0.00000000  0.12698000  0.12654600  1
  Cu  Cu11  1  0.00000000  0.62737000  0.62754700  1
  C  C12  1  0.00000000  0.00213900  0.33570800  1
  C  C13  1  0.00000000  0.50137600  0.83261500  1
  C  C14  1  0.00000000  0.50194400  0.16728400  1
  C  C15  1  0.00000000  0.00206500  0.66766700  1
  C  C16  1  0.50000000  0.99495700  0.99358200  1
  C  C17  1  0.50000000  0.49420600  0.50143700  1
