# generated using pymatgen
data_Cu4Ni6C43
_symmetry_space_group_name_H-M   'P 1'
_cell_length_a   11.01891225
_cell_length_b   11.01891225
_cell_length_c   17.53590100
_cell_angle_alpha   90.00000000
_cell_angle_beta   90.00000000
_cell_angle_gamma   120.00000149
_symmetry_Int_Tables_number   1
_chemical_formula_structural   Cu4Ni6C43
_chemical_formula_sum   'Cu8 Ni12 C86'
_cell_volume   1843.89488279
_cell_formula_units_Z   2
loop_
 _symmetry_equiv_pos_site_id
 _symmetry_equiv_pos_as_xyz
  1  'x, y, z'
loop_
 _atom_site_type_symbol
 _atom_site_label
 _atom_site_symmetry_multiplicity
 _atom_site_fract_x
 _atom_site_fract_y
 _atom_site_fract_z
 _atom_site_occupancy
  Ni  Ni0  1  0.47570100  0.47570100  0.91196900  1
  Ni  Ni1  1  0.52429900  0.00000000  0.91196900  1
  Ni  Ni2  1  0.00000000  0.52429900  0.91196900  1
  Ni  Ni3  1  0.52429900  0.52429900  0.08803100  1
  Ni  Ni4  1  0.47570100  0.00000000  0.08803100  1
  Ni  Ni5  1  0.00000000  0.47570100  0.08803100  1
  Ni  Ni6  1  0.52429900  0.52429900  0.41196900  1
  Ni  Ni7  1  0.47570100  0.00000000  0.41196900  1
  Ni  Ni8  1  0.00000000  0.47570100  0.41196900  1
  Ni  Ni9  1  0.47570100  0.47570100  0.58803100  1
  Ni  Ni10  1  0.52429900  0.00000000  0.58803100  1
  Ni  Ni11  1  0.00000000  0.52429900  0.58803100  1
  C  C12  1  0.84071200  0.23549300  0.83665800  1
  C  C13  1  0.76450700  0.60521900  0.83665800  1
  C  C14  1  0.39478100  0.15928800  0.83665800  1
  C  C15  1  0.23549300  0.84071200  0.83665800  1
  C  C16  1  0.60521900  0.76450700  0.83665800  1
  C  C17  1  0.15928800  0.39478100  0.83665800  1
  C  C18  1  0.15928800  0.76450700  0.16334200  1
  C  C19  1  0.23549300  0.39478100  0.16334200  1
  C  C20  1  0.60521900  0.84071200  0.16334200  1
  C  C21  1  0.76450700  0.15928800  0.16334200  1
  C  C22  1  0.39478100  0.23549300  0.16334200  1
  C  C23  1  0.84071200  0.60521900  0.16334200  1
  C  C24  1  0.15928800  0.76450700  0.33665800  1
  C  C25  1  0.23549300  0.39478100  0.33665800  1
  C  C26  1  0.60521900  0.84071200  0.33665800  1
  C  C27  1  0.76450700  0.15928800  0.33665800  1
  C  C28  1  0.39478100  0.23549300  0.33665800  1
  C  C29  1  0.84071200  0.60521900  0.33665800  1
  C  C30  1  0.84071200  0.23549300  0.66334200  1
  C  C31  1  0.76450700  0.60521900  0.66334200  1
  C  C32  1  0.39478100  0.15928800  0.66334200  1
  C  C33  1  0.23549300  0.84071200  0.66334200  1
  C  C34  1  0.60521900  0.76450700  0.66334200  1
  C  C35  1  0.15928800  0.39478100  0.66334200  1
  C  C36  1  0.83885200  0.83885200  0.38573300  1
  C  C37  1  0.16114800  0.00000000  0.38573300  1
  C  C38  1  0.00000000  0.16114800  0.38573300  1
  C  C39  1  0.16114800  0.16114800  0.61426700  1
  C  C40  1  0.83885200  0.00000000  0.61426700  1
  C  C41  1  0.00000000  0.83885200  0.61426700  1
  C  C42  1  0.16114800  0.16114800  0.88573300  1
  C  C43  1  0.83885200  0.00000000  0.88573300  1
  C  C44  1  0.00000000  0.83885200  0.88573300  1
  C  C45  1  0.83885200  0.83885200  0.11426700  1
  C  C46  1  0.16114800  0.00000000  0.11426700  1
  C  C47  1  0.00000000  0.16114800  0.11426700  1
  C  C48  1  0.74501600  0.74501600  0.97021600  1
  C  C49  1  0.25498400  0.00000000  0.97021600  1
  C  C50  1  0.00000000  0.25498400  0.97021600  1
  C  C51  1  0.25498400  0.25498400  0.02978400  1
  C  C52  1  0.74501600  0.00000000  0.02978400  1
  C  C53  1  0.00000000  0.74501600  0.02978400  1
  C  C54  1  0.25498400  0.25498400  0.47021600  1
  C  C55  1  0.74501600  0.00000000  0.47021600  1
  C  C56  1  0.00000000  0.74501600  0.47021600  1
  C  C57  1  0.74501600  0.74501600  0.52978400  1
  C  C58  1  0.25498400  0.00000000  0.52978400  1
  C  C59  1  0.00000000  0.25498400  0.52978400  1
  C  C60  1  0.85640100  0.44939800  0.75000000  1
  C  C61  1  0.55060200  0.40700300  0.75000000  1
  C  C62  1  0.59299700  0.14359900  0.75000000  1
  C  C63  1  0.44939800  0.85640100  0.75000000  1
  C  C64  1  0.40700300  0.55060200  0.75000000  1
  C  C65  1  0.14359900  0.59299700  0.75000000  1
  C  C66  1  0.14359900  0.55060200  0.25000000  1
  C  C67  1  0.44939800  0.59299700  0.25000000  1
  C  C68  1  0.40700300  0.85640100  0.25000000  1
  C  C69  1  0.55060200  0.14359900  0.25000000  1
  C  C70  1  0.59299700  0.44939800  0.25000000  1
  C  C71  1  0.85640100  0.40700300  0.25000000  1
  C  C72  1  0.75315500  0.24684500  0.00000000  1
  C  C73  1  0.75315500  0.50631000  0.00000000  1
  C  C74  1  0.49369000  0.24684500  0.00000000  1
  C  C75  1  0.24684500  0.75315500  0.00000000  1
  C  C76  1  0.50631000  0.75315500  0.00000000  1
  C  C77  1  0.24684500  0.49369000  0.00000000  1
  C  C78  1  0.24684500  0.75315500  0.50000000  1
  C  C79  1  0.24684500  0.49369000  0.50000000  1
  C  C80  1  0.50631000  0.75315500  0.50000000  1
  C  C81  1  0.75315500  0.24684500  0.50000000  1
  C  C82  1  0.49369000  0.24684500  0.50000000  1
  C  C83  1  0.75315500  0.50631000  0.50000000  1
  C  C84  1  0.66666700  0.33333300  0.87277900  1
  C  C85  1  0.33333300  0.66666700  0.87277900  1
  C  C86  1  0.33333300  0.66666700  0.12722100  1
  C  C87  1  0.66666700  0.33333300  0.12722100  1
  C  C88  1  0.33333300  0.66666700  0.37277900  1
  C  C89  1  0.66666700  0.33333300  0.37277900  1
  C  C90  1  0.66666700  0.33333300  0.62722100  1
  C  C91  1  0.33333300  0.66666700  0.62722100  1
  C  C92  1  0.85366600  0.85366600  0.75000000  1
  C  C93  1  0.14633400  0.00000000  0.75000000  1
  C  C94  1  0.00000000  0.14633400  0.75000000  1
  C  C95  1  0.14633400  0.14633400  0.25000000  1
  C  C96  1  0.85366600  0.00000000  0.25000000  1
  C  C97  1  0.00000000  0.85366600  0.25000000  1
  Cu  Cu98  1  0.26963300  0.26963300  0.75000000  1
  Cu  Cu99  1  0.73036700  0.00000000  0.75000000  1
  Cu  Cu100  1  0.00000000  0.73036700  0.75000000  1
  Cu  Cu101  1  0.73036700  0.73036700  0.25000000  1
  Cu  Cu102  1  0.26963300  0.00000000  0.25000000  1
  Cu  Cu103  1  0.00000000  0.26963300  0.25000000  1
  Cu  Cu104  1  0.00000000  0.00000000  0.00000000  1
  Cu  Cu105  1  0.00000000  0.00000000  0.50000000  1
