# generated using pymatgen
data_Cu4Ni6C13
_symmetry_space_group_name_H-M   'P 1'
_cell_length_a   12.33372514
_cell_length_b   12.33372514
_cell_length_c   13.02723970
_cell_angle_alpha   81.07360696
_cell_angle_beta   81.07360696
_cell_angle_gamma   35.58143223
_symmetry_Int_Tables_number   1
_chemical_formula_structural   Cu4Ni6C13
_chemical_formula_sum   'Cu16 Ni24 C52'
_cell_volume   1137.66562832
_cell_formula_units_Z   4
loop_
 _symmetry_equiv_pos_site_id
 _symmetry_equiv_pos_as_xyz
  1  'x, y, z'
loop_
 _atom_site_type_symbol
 _atom_site_label
 _atom_site_symmetry_multiplicity
 _atom_site_fract_x
 _atom_site_fract_y
 _atom_site_fract_z
 _atom_site_occupancy
  C  C0  1  0.41928500  0.42016400  0.86998400  1
  C  C1  1  0.57983600  0.58071500  0.63001600  1
  C  C2  1  0.58071500  0.57983600  0.13001600  1
  C  C3  1  0.42016400  0.41928500  0.36998400  1
  C  C4  1  0.86377600  0.86266100  0.51387000  1
  C  C5  1  0.13733900  0.13622400  0.98613000  1
  C  C6  1  0.13622400  0.13733900  0.48613000  1
  C  C7  1  0.86266100  0.86377600  0.01387000  1
  Ni  Ni8  1  0.45939400  0.17807600  0.62265200  1
  Ni  Ni9  1  0.82192400  0.54060600  0.87734800  1
  Ni  Ni10  1  0.54060600  0.82192400  0.37734800  1
  Ni  Ni11  1  0.17807600  0.45939400  0.12265200  1
  Ni  Ni12  1  0.44380100  0.15542900  0.51115500  1
  Ni  Ni13  1  0.84457100  0.55619900  0.98884500  1
  Ni  Ni14  1  0.55619900  0.84457100  0.48884500  1
  Ni  Ni15  1  0.15542900  0.44380100  0.01115500  1
  Ni  Ni16  1  0.19791900  0.43225500  0.71828300  1
  Ni  Ni17  1  0.56774500  0.80208100  0.78171700  1
  Ni  Ni18  1  0.80208100  0.56774500  0.28171700  1
  Ni  Ni19  1  0.43225500  0.19791900  0.21828300  1
  Ni  Ni20  1  0.30614900  0.26859200  0.80183100  1
  Ni  Ni21  1  0.73140800  0.69385100  0.69816900  1
  Ni  Ni22  1  0.69385100  0.73140800  0.19816900  1
  Ni  Ni23  1  0.26859200  0.30614900  0.30183100  1
  Ni  Ni24  1  0.35480000  0.54014100  0.61542800  1
  Ni  Ni25  1  0.45985900  0.64520000  0.88457200  1
  Ni  Ni26  1  0.64520000  0.45985900  0.38457200  1
  Ni  Ni27  1  0.54014100  0.35480000  0.11542800  1
  Ni  Ni28  1  0.55679300  0.32616400  0.63554700  1
  Ni  Ni29  1  0.67383600  0.44320700  0.86445300  1
  Ni  Ni30  1  0.44320700  0.67383600  0.36445300  1
  Ni  Ni31  1  0.32616400  0.55679300  0.13554700  1
  Cu  Cu32  1  0.94045300  0.75867600  0.76882900  1
  Cu  Cu33  1  0.24132400  0.05954700  0.73117100  1
  Cu  Cu34  1  0.05954700  0.24132400  0.23117100  1
  Cu  Cu35  1  0.75867600  0.94045300  0.26882900  1
  Cu  Cu36  1  0.81024300  0.96601600  0.75639900  1
  Cu  Cu37  1  0.03398400  0.18975700  0.74360100  1
  Cu  Cu38  1  0.18975700  0.03398400  0.24360100  1
  Cu  Cu39  1  0.96601600  0.81024300  0.25639900  1
  Cu  Cu40  1  0.90541500  0.09730900  0.47578500  1
  Cu  Cu41  1  0.90269100  0.09458500  0.02421500  1
  Cu  Cu42  1  0.09458500  0.90269100  0.52421500  1
  Cu  Cu43  1  0.09730900  0.90541500  0.97578500  1
  Cu  Cu44  1  0.89927600  0.55919900  0.51208100  1
  Cu  Cu45  1  0.44080100  0.10072400  0.98791900  1
  Cu  Cu46  1  0.10072400  0.44080100  0.48791900  1
  Cu  Cu47  1  0.55919900  0.89927600  0.01208100  1
  C  C48  1  0.00134600  0.67828600  0.85812700  1
  C  C49  1  0.32171400  0.99865400  0.64187300  1
  C  C50  1  0.99865400  0.32171400  0.14187300  1
  C  C51  1  0.67828600  0.00134600  0.35812700  1
  C  C52  1  0.97930600  0.68293600  0.68855500  1
  C  C53  1  0.31706400  0.02069400  0.81144500  1
  C  C54  1  0.02069400  0.31706400  0.31144500  1
  C  C55  1  0.68293600  0.97930600  0.18855500  1
  C  C56  1  0.76422400  0.04155000  0.83865300  1
  C  C57  1  0.95845000  0.23577600  0.66134700  1
  C  C58  1  0.23577600  0.95845000  0.16134700  1
  C  C59  1  0.04155000  0.76422400  0.33865300  1
  C  C60  1  0.76180600  0.04146700  0.66529400  1
  C  C61  1  0.95853300  0.23819400  0.83470600  1
  C  C62  1  0.23819400  0.95853300  0.33470600  1
  C  C63  1  0.04146700  0.76180600  0.16529400  1
  C  C64  1  0.79532700  0.11493200  0.45351000  1
  C  C65  1  0.88506800  0.20467300  0.04649000  1
  C  C66  1  0.20467300  0.88506800  0.54649000  1
  C  C67  1  0.11493200  0.79532700  0.95351000  1
  C  C68  1  0.87607100  0.22400600  0.46233400  1
  C  C69  1  0.77599400  0.12392900  0.03766600  1
  C  C70  1  0.12392900  0.77599400  0.53766600  1
  C  C71  1  0.22400600  0.87607100  0.96233400  1
  C  C72  1  0.77405100  0.72978300  0.53051000  1
  C  C73  1  0.27021700  0.22594900  0.96949000  1
  C  C74  1  0.22594900  0.27021700  0.46949000  1
  C  C75  1  0.72978300  0.77405100  0.03051000  1
  C  C76  1  0.87351600  0.47899800  0.51247400  1
  C  C77  1  0.52100200  0.12648400  0.98752600  1
  C  C78  1  0.12648400  0.52100200  0.48752600  1
  C  C79  1  0.47899800  0.87351600  0.01247400  1
  C  C80  1  0.52601400  0.12607800  0.55337100  1
  C  C81  1  0.87392200  0.47398600  0.94662900  1
  C  C82  1  0.47398600  0.87392200  0.44662900  1
  C  C83  1  0.12607800  0.52601400  0.05337100  1
  C  C84  1  0.32401300  0.30124500  0.73459400  1
  C  C85  1  0.69875500  0.67598700  0.76540600  1
  C  C86  1  0.67598700  0.69875500  0.26540600  1
  C  C87  1  0.30124500  0.32401300  0.23459400  1
  C  C88  1  0.46760400  0.45376300  0.65408000  1
  C  C89  1  0.54623700  0.53239600  0.84592000  1
  C  C90  1  0.53239600  0.54623700  0.34592000  1
  C  C91  1  0.45376300  0.46760400  0.15408000  1
