# generated using pymatgen
data_Cu3(Ni2C5)2
_symmetry_space_group_name_H-M   'P 1'
_cell_length_a   5.07204000
_cell_length_b   7.00511900
_cell_length_c   13.17553717
_cell_angle_alpha   86.57654674
_cell_angle_beta   90.00000000
_cell_angle_gamma   90.00000000
_symmetry_Int_Tables_number   1
_chemical_formula_structural   Cu3(Ni2C5)2
_chemical_formula_sum   'Cu6 Ni8 C20'
_cell_volume   467.29465436
_cell_formula_units_Z   2
loop_
 _symmetry_equiv_pos_site_id
 _symmetry_equiv_pos_as_xyz
  1  'x, y, z'
loop_
 _atom_site_type_symbol
 _atom_site_label
 _atom_site_symmetry_multiplicity
 _atom_site_fract_x
 _atom_site_fract_y
 _atom_site_fract_z
 _atom_site_occupancy
  C  C0  1  0.26542400  0.00000000  0.75000000  1
  C  C1  1  0.73457600  0.00000000  0.25000000  1
  Ni  Ni2  1  0.16905400  0.78941400  0.06056500  1
  Ni  Ni3  1  0.16905400  0.21058600  0.43943500  1
  Ni  Ni4  1  0.83094600  0.21058600  0.93943500  1
  Ni  Ni5  1  0.83094600  0.78941400  0.56056500  1
  Ni  Ni6  1  0.35297200  0.48849600  0.87427000  1
  Ni  Ni7  1  0.35297200  0.51150400  0.62573000  1
  Ni  Ni8  1  0.64702800  0.51150400  0.12573000  1
  Ni  Ni9  1  0.64702800  0.48849600  0.37427000  1
  Cu  Cu10  1  0.84750200  0.50000000  0.75000000  1
  Cu  Cu11  1  0.15249800  0.50000000  0.25000000  1
  Cu  Cu12  1  0.34465500  0.19273400  0.04199700  1
  Cu  Cu13  1  0.34465500  0.80726600  0.45800300  1
  Cu  Cu14  1  0.65534500  0.80726600  0.95800300  1
  Cu  Cu15  1  0.65534500  0.19273400  0.54199700  1
  C  C16  1  0.20011600  0.27737700  0.96079300  1
  C  C17  1  0.20011600  0.72262300  0.53920700  1
  C  C18  1  0.79988400  0.72262300  0.03920700  1
  C  C19  1  0.79988400  0.27737700  0.46079300  1
  C  C20  1  0.12335400  0.50000000  0.75000000  1
  C  C21  1  0.87664600  0.50000000  0.25000000  1
  C  C22  1  0.40159800  0.72900800  0.94228100  1
  C  C23  1  0.40159800  0.27099200  0.55771900  1
  C  C24  1  0.59840200  0.27099200  0.05771900  1
  C  C25  1  0.59840200  0.72900800  0.44228100  1
  C  C26  1  0.70996000  0.40601400  0.82894500  1
  C  C27  1  0.70996000  0.59398600  0.67105500  1
  C  C28  1  0.29004000  0.59398600  0.17105500  1
  C  C29  1  0.29004000  0.40601400  0.32894500  1
  C  C30  1  0.25223700  0.04311300  0.10136500  1
  C  C31  1  0.25223700  0.95688700  0.39863500  1
  C  C32  1  0.74776300  0.95688700  0.89863500  1
  C  C33  1  0.74776300  0.04311300  0.60136500  1
