# generated using pymatgen
data_Cu5Ni2C25
_symmetry_space_group_name_H-M   'P 1'
_cell_length_a   5.14846132
_cell_length_b   7.73372584
_cell_length_c   7.73372492
_cell_angle_alpha   96.28460304
_cell_angle_beta   75.94413024
_cell_angle_gamma   75.94413940
_symmetry_Int_Tables_number   1
_chemical_formula_structural   Cu5Ni2C25
_chemical_formula_sum   'Cu5 Ni2 C25'
_cell_volume   285.08816854
_cell_formula_units_Z   1
loop_
 _symmetry_equiv_pos_site_id
 _symmetry_equiv_pos_as_xyz
  1  'x, y, z'
loop_
 _atom_site_type_symbol
 _atom_site_label
 _atom_site_symmetry_multiplicity
 _atom_site_fract_x
 _atom_site_fract_y
 _atom_site_fract_z
 _atom_site_occupancy
  C  C0  1  0.01025700  0.12034400  0.37034400  1
  C  C1  1  0.98974300  0.62965600  0.87965600  1
  C  C2  1  0.50170800  0.00012200  0.49970200  1
  C  C3  1  0.49829200  0.50029800  0.99987800  1
  C  C4  1  0.00000000  0.87500000  0.62500000  1
  C  C5  1  0.00000000  0.37500000  0.12500000  1
  C  C6  1  0.49829200  0.74987800  0.75029800  1
  C  C7  1  0.50170800  0.24970200  0.25012200  1
  C  C8  1  0.50000000  0.87500000  0.12500000  1
  Ni  Ni9  1  0.00000000  0.99982100  0.00017900  1
  Ni  Ni10  1  0.00000000  0.75017900  0.24982100  1
  Cu  Cu11  1  0.00000000  0.50111000  0.49889000  1
  Cu  Cu12  1  0.50000000  0.37500000  0.62500000  1
  Cu  Cu13  1  0.00000000  0.24889000  0.75111000  1
  Cu  Cu14  1  0.50000000  0.62711300  0.37288700  1
  Cu  Cu15  1  0.50000000  0.12288700  0.87711300  1
  C  C16  1  0.78296800  0.99181100  0.24181100  1
  C  C17  1  0.76181000  0.49355200  0.74355200  1
  C  C18  1  0.24695400  0.85043500  0.36324000  1
  C  C19  1  0.26523000  0.35732000  0.86247300  1
  C  C20  1  0.77165600  0.74752600  0.49015400  1
  C  C21  1  0.77165600  0.24015400  0.99752600  1
  C  C22  1  0.26523000  0.61247300  0.60732000  1
  C  C23  1  0.24695400  0.11324000  0.10043500  1
  C  C24  1  0.23819000  0.25644800  0.50644800  1
  C  C25  1  0.21703200  0.75818900  0.00818900  1
  C  C26  1  0.73477000  0.13752700  0.64268000  1
  C  C27  1  0.75304600  0.63676000  0.14956500  1
  C  C28  1  0.22834400  0.00247400  0.75984600  1
  C  C29  1  0.22834400  0.50984600  0.25247400  1
  C  C30  1  0.75304600  0.89956500  0.88676000  1
  C  C31  1  0.73477000  0.39268000  0.38752700  1
