# generated using pymatgen
data_Cu2NiC7
_symmetry_space_group_name_H-M   'P 1'
_cell_length_a   7.83612353
_cell_length_b   7.83612353
_cell_length_c   5.93116266
_cell_angle_alpha   78.26774494
_cell_angle_beta   78.26774494
_cell_angle_gamma   30.33727179
_symmetry_Int_Tables_number   1
_chemical_formula_structural   Cu2NiC7
_chemical_formula_sum   'Cu4 Ni2 C14'
_cell_volume   179.82572109
_cell_formula_units_Z   2
loop_
 _symmetry_equiv_pos_site_id
 _symmetry_equiv_pos_as_xyz
  1  'x, y, z'
loop_
 _atom_site_type_symbol
 _atom_site_label
 _atom_site_symmetry_multiplicity
 _atom_site_fract_x
 _atom_site_fract_y
 _atom_site_fract_z
 _atom_site_occupancy
  C  C0  1  0.50000000  0.50000000  0.00000000  1
  C  C1  1  0.69468800  0.69468800  0.39134600  1
  C  C2  1  0.50000000  0.50000000  0.50000000  1
  C  C3  1  0.30531200  0.30531200  0.60865400  1
  Ni  Ni4  1  0.89630200  0.89630200  0.31223100  1
  Ni  Ni5  1  0.10369800  0.10369800  0.68776900  1
  Cu  Cu6  1  0.70034900  0.70034900  0.90029500  1
  Cu  Cu7  1  0.90185800  0.90185800  0.80055600  1
  Cu  Cu8  1  0.29965100  0.29965100  0.09970500  1
  Cu  Cu9  1  0.09814200  0.09814200  0.19944400  1
  C  C10  1  0.19380000  0.19380000  0.88740000  1
  C  C11  1  0.39436000  0.39436000  0.81030300  1
  C  C12  1  0.00000000  0.00000000  0.00000000  1
  C  C13  1  0.80620000  0.80620000  0.11260000  1
  C  C14  1  0.19147900  0.19147900  0.41912500  1
  C  C15  1  0.60564000  0.60564000  0.18969700  1
  C  C16  1  0.39918100  0.39918100  0.30049500  1
  C  C17  1  0.00000000  0.00000000  0.50000000  1
  C  C18  1  0.80852100  0.80852100  0.58087500  1
  C  C19  1  0.60081900  0.60081900  0.69950500  1
