# generated using pymatgen
data_Cu2NiC11
_symmetry_space_group_name_H-M   'P 1'
_cell_length_a   6.78713300
_cell_length_b   7.65027700
_cell_length_c   14.74728600
_cell_angle_alpha   90.00000000
_cell_angle_beta   90.00000000
_cell_angle_gamma   90.00000000
_symmetry_Int_Tables_number   1
_chemical_formula_structural   Cu2NiC11
_chemical_formula_sum   'Cu8 Ni4 C44'
_cell_volume   765.72993018
_cell_formula_units_Z   4
loop_
 _symmetry_equiv_pos_site_id
 _symmetry_equiv_pos_as_xyz
  1  'x, y, z'
loop_
 _atom_site_type_symbol
 _atom_site_label
 _atom_site_symmetry_multiplicity
 _atom_site_fract_x
 _atom_site_fract_y
 _atom_site_fract_z
 _atom_site_occupancy
  C  C0  1  0.75000000  0.91583500  0.29646700  1
  C  C1  1  0.75000000  0.58416500  0.79646700  1
  C  C2  1  0.25000000  0.08416500  0.70353300  1
  C  C3  1  0.25000000  0.41583500  0.20353300  1
  C  C4  1  0.50000000  0.00000000  0.50000000  1
  C  C5  1  0.50000000  0.50000000  0.00000000  1
  C  C6  1  0.00000000  0.50000000  0.00000000  1
  C  C7  1  0.00000000  0.00000000  0.50000000  1
  Ni  Ni8  1  0.75000000  0.35860800  0.38234500  1
  Ni  Ni9  1  0.25000000  0.64139200  0.61765500  1
  Ni  Ni10  1  0.25000000  0.85860800  0.11765500  1
  Ni  Ni11  1  0.75000000  0.14139200  0.88234500  1
  Cu  Cu12  1  0.25000000  0.34711000  0.42049100  1
  Cu  Cu13  1  0.75000000  0.65289000  0.57950900  1
  Cu  Cu14  1  0.75000000  0.84711000  0.07950900  1
  Cu  Cu15  1  0.25000000  0.15289000  0.92049100  1
  Cu  Cu16  1  0.75000000  0.37677200  0.18180600  1
  Cu  Cu17  1  0.25000000  0.62322800  0.81819400  1
  Cu  Cu18  1  0.25000000  0.87677200  0.31819400  1
  Cu  Cu19  1  0.75000000  0.12322800  0.68180600  1
  C  C20  1  0.05847900  0.61699600  0.87479700  1
  C  C21  1  0.55847900  0.38300400  0.12520300  1
  C  C22  1  0.94152100  0.11699600  0.62520300  1
  C  C23  1  0.44152100  0.88300400  0.37479700  1
  C  C24  1  0.94152100  0.38300400  0.12520300  1
  C  C25  1  0.44152100  0.61699600  0.87479700  1
  C  C26  1  0.05847900  0.88300400  0.37479700  1
  C  C27  1  0.55847900  0.11699600  0.62520300  1
  C  C28  1  0.25000000  0.32318400  0.97537700  1
  C  C29  1  0.75000000  0.67681600  0.02462300  1
  C  C30  1  0.75000000  0.82318400  0.52462300  1
  C  C31  1  0.25000000  0.17681600  0.47537700  1
  C  C32  1  0.75000000  0.10080700  0.43372900  1
  C  C33  1  0.25000000  0.89919300  0.56627100  1
  C  C34  1  0.25000000  0.60080700  0.06627100  1
  C  C35  1  0.75000000  0.39919300  0.93372900  1
  C  C36  1  0.75000000  0.20921400  0.24383400  1
  C  C37  1  0.25000000  0.79078600  0.75616600  1
  C  C38  1  0.25000000  0.70921400  0.25616600  1
  C  C39  1  0.75000000  0.29078600  0.74383400  1
  C  C40  1  0.42519900  0.14234700  0.85179900  1
  C  C41  1  0.92519900  0.85765300  0.14820100  1
  C  C42  1  0.57480100  0.64234700  0.64820100  1
  C  C43  1  0.07480100  0.35765300  0.35179900  1
  C  C44  1  0.57480100  0.85765300  0.14820100  1
  C  C45  1  0.07480100  0.14234700  0.85179900  1
  C  C46  1  0.42519900  0.35765300  0.35179900  1
  C  C47  1  0.92519900  0.64234700  0.64820100  1
  C  C48  1  0.75000000  0.96571200  0.75305700  1
  C  C49  1  0.25000000  0.03428800  0.24694300  1
  C  C50  1  0.25000000  0.46571200  0.74694300  1
  C  C51  1  0.75000000  0.53428800  0.25305700  1
  C  C52  1  0.75000000  0.01029500  0.01920100  1
  C  C53  1  0.25000000  0.98970500  0.98079900  1
  C  C54  1  0.25000000  0.51029500  0.48079900  1
  C  C55  1  0.75000000  0.48970500  0.51920100  1
