# generated using pymatgen
data_CuNiC18
_symmetry_space_group_name_H-M   'P 1'
_cell_length_a   5.24275956
_cell_length_b   5.24275956
_cell_length_c   10.35315218
_cell_angle_alpha   94.05856195
_cell_angle_beta   94.05856195
_cell_angle_gamma   118.68993300
_symmetry_Int_Tables_number   1
_chemical_formula_structural   CuNiC18
_chemical_formula_sum   'Cu1 Ni1 C18'
_cell_volume   247.21862472
_cell_formula_units_Z   1
loop_
 _symmetry_equiv_pos_site_id
 _symmetry_equiv_pos_as_xyz
  1  'x, y, z'
loop_
 _atom_site_type_symbol
 _atom_site_label
 _atom_site_symmetry_multiplicity
 _atom_site_fract_x
 _atom_site_fract_y
 _atom_site_fract_z
 _atom_site_occupancy
  Ni  Ni0  1  0.50000000  0.50000000  0.00000000  1
  Cu  Cu1  1  0.00000000  0.00000000  0.50000000  1
  C  C2  1  0.65462900  0.34537100  0.50000000  1
  C  C3  1  0.34537100  0.65462900  0.50000000  1
  C  C4  1  0.89315100  0.23414500  0.22923300  1
  C  C5  1  0.23414500  0.89315100  0.22923300  1
  C  C6  1  0.10684900  0.76585500  0.77076700  1
  C  C7  1  0.76585500  0.10684900  0.77076700  1
  C  C8  1  0.04656700  0.04656700  0.17110700  1
  C  C9  1  0.95343300  0.95343300  0.82889300  1
  C  C10  1  0.04862200  0.54598500  0.16321100  1
  C  C11  1  0.54598500  0.04862200  0.16321100  1
  C  C12  1  0.95137800  0.45401500  0.83678900  1
  C  C13  1  0.45401500  0.95137800  0.83678900  1
  C  C14  1  0.92849900  0.28620900  0.38599400  1
  C  C15  1  0.28620900  0.92849900  0.38599400  1
  C  C16  1  0.07150100  0.71379100  0.61400600  1
  C  C17  1  0.71379100  0.07150100  0.61400600  1
  C  C18  1  0.61143000  0.61143000  0.39880200  1
  C  C19  1  0.38857000  0.38857000  0.60119800  1
