# generated using pymatgen
data_Cu2NiC5
_symmetry_space_group_name_H-M   'P 1'
_cell_length_a   8.73311131
_cell_length_b   8.73311131
_cell_length_c   8.73311131
_cell_angle_alpha   127.47576165
_cell_angle_beta   127.47576165
_cell_angle_gamma   77.47582595
_symmetry_Int_Tables_number   1
_chemical_formula_structural   Cu2NiC5
_chemical_formula_sum   'Cu4 Ni2 C10'
_cell_volume   406.86927607
_cell_formula_units_Z   2
loop_
 _symmetry_equiv_pos_site_id
 _symmetry_equiv_pos_as_xyz
  1  'x, y, z'
loop_
 _atom_site_type_symbol
 _atom_site_label
 _atom_site_symmetry_multiplicity
 _atom_site_fract_x
 _atom_site_fract_y
 _atom_site_fract_z
 _atom_site_occupancy
  C  C0  1  0.00000000  0.00000000  0.00000000  1
  C  C1  1  0.50000000  0.50000000  0.00000000  1
  C  C2  1  0.79916100  0.29916100  0.81346800  1
  C  C3  1  0.20083900  0.70083900  0.18653200  1
  C  C4  1  0.48569300  0.98569300  0.18653200  1
  C  C5  1  0.29916100  0.48569300  0.50000000  1
  C  C6  1  0.01430700  0.20083900  0.50000000  1
  C  C7  1  0.51430700  0.01430700  0.81346800  1
  C  C8  1  0.70083900  0.51430700  0.50000000  1
  C  C9  1  0.98569300  0.79916100  0.50000000  1
  Ni  Ni10  1  0.25000000  0.25000000  0.00000000  1
  Ni  Ni11  1  0.75000000  0.75000000  0.00000000  1
  Cu  Cu12  1  0.13733800  0.63733800  0.77467600  1
  Cu  Cu13  1  0.86266200  0.36266200  0.22532400  1
  Cu  Cu14  1  0.63733800  0.86266200  0.50000000  1
  Cu  Cu15  1  0.36266200  0.13733800  0.50000000  1
