# generated using pymatgen
data_Cu2NiC4
_symmetry_space_group_name_H-M   'P 1'
_cell_length_a   5.98663526
_cell_length_b   5.98663526
_cell_length_c   14.77406800
_cell_angle_alpha   90.00000000
_cell_angle_beta   90.00000000
_cell_angle_gamma   119.99999178
_symmetry_Int_Tables_number   1
_chemical_formula_structural   Cu2NiC4
_chemical_formula_sum   'Cu12 Ni6 C24'
_cell_volume   458.56020112
_cell_formula_units_Z   6
loop_
 _symmetry_equiv_pos_site_id
 _symmetry_equiv_pos_as_xyz
  1  'x, y, z'
loop_
 _atom_site_type_symbol
 _atom_site_label
 _atom_site_symmetry_multiplicity
 _atom_site_fract_x
 _atom_site_fract_y
 _atom_site_fract_z
 _atom_site_occupancy
  Ni  Ni0  1  0.00000000  0.00000000  0.04610100  1
  Ni  Ni1  1  0.66666700  0.33333300  0.37962400  1
  Ni  Ni2  1  0.33333300  0.66666700  0.33723800  1
  Ni  Ni3  1  0.33333300  0.66666700  0.70741800  1
  Ni  Ni4  1  0.66666700  0.33333300  0.00286600  1
  Ni  Ni5  1  0.66666700  0.33333300  0.62230200  1
  Cu  Cu6  1  0.99589600  0.49794800  0.16614400  1
  Cu  Cu7  1  0.50205200  0.00410400  0.16614400  1
  Cu  Cu8  1  0.66482900  0.83241400  0.49996500  1
  Cu  Cu9  1  0.50205200  0.49794800  0.16614400  1
  Cu  Cu10  1  0.16758600  0.33517100  0.49996500  1
  Cu  Cu11  1  0.00000000  0.00000000  0.66527100  1
  Cu  Cu12  1  0.00000000  0.00000000  0.28775300  1
  Cu  Cu13  1  0.33120200  0.16560100  0.83188300  1
  Cu  Cu14  1  0.16758600  0.83241400  0.49996500  1
  Cu  Cu15  1  0.83439900  0.66879800  0.83188300  1
  Cu  Cu16  1  0.83439900  0.16560100  0.83188300  1
  Cu  Cu17  1  0.33333300  0.66666700  0.95491100  1
  C  C18  1  0.35910000  0.17955000  0.08977300  1
  C  C19  1  0.66666700  0.33333300  0.23980200  1
  C  C20  1  0.82045000  0.64090000  0.08977300  1
  C  C21  1  0.82045000  0.17955000  0.08977300  1
  C  C22  1  0.02440100  0.51220100  0.42404000  1
  C  C23  1  0.17544900  0.82455100  0.24362600  1
  C  C24  1  0.33333300  0.66666700  0.57314300  1
  C  C25  1  0.17544900  0.35089800  0.24362600  1
  C  C26  1  0.33333300  0.66666700  0.09308300  1
  C  C27  1  0.48779900  0.97559900  0.42404000  1
  C  C28  1  0.48779900  0.51220100  0.42404000  1
  C  C29  1  0.64910200  0.82455100  0.24362600  1
  C  C30  1  0.69671600  0.84835800  0.75380000  1
  C  C31  1  0.84890200  0.15109800  0.58044200  1
  C  C32  1  0.84890200  0.69780400  0.58044200  1
  C  C33  1  0.00000000  0.00000000  0.90567100  1
  C  C34  1  0.00000000  0.00000000  0.42576200  1
  C  C35  1  0.15164200  0.30328400  0.75380000  1
  C  C36  1  0.15164200  0.84835800  0.75380000  1
  C  C37  1  0.30219600  0.15109800  0.58044200  1
  C  C38  1  0.50793400  0.49206600  0.90958000  1
  C  C39  1  0.50793400  0.01586800  0.90958000  1
  C  C40  1  0.66666700  0.33333300  0.76123100  1
  C  C41  1  0.98413200  0.49206600  0.90958000  1
