# generated using pymatgen
data_Cu22NiC6
_symmetry_space_group_name_H-M   'P 1'
_cell_length_a   7.43820755
_cell_length_b   7.43820755
_cell_length_c   7.43820755
_cell_angle_alpha   60.00000000
_cell_angle_beta   60.00000000
_cell_angle_gamma   60.00000000
_symmetry_Int_Tables_number   1
_chemical_formula_structural   Cu22NiC6
_chemical_formula_sum   'Cu22 Ni1 C6'
_cell_volume   290.99791667
_cell_formula_units_Z   1
loop_
 _symmetry_equiv_pos_site_id
 _symmetry_equiv_pos_as_xyz
  1  'x, y, z'
loop_
 _atom_site_type_symbol
 _atom_site_label
 _atom_site_symmetry_multiplicity
 _atom_site_fract_x
 _atom_site_fract_y
 _atom_site_fract_z
 _atom_site_occupancy
  Ni  Ni0  1  0.00000000  0.00000000  0.00000000  1
  Cu  Cu1  1  0.75000000  0.75000000  0.75000000  1
  Cu  Cu2  1  0.25000000  0.25000000  0.25000000  1
  Cu  Cu3  1  0.61893400  0.61893400  0.14319800  1
  Cu  Cu4  1  0.61893400  0.14319800  0.61893400  1
  Cu  Cu5  1  0.14319800  0.61893400  0.61893400  1
  Cu  Cu6  1  0.61893400  0.61893400  0.61893400  1
  Cu  Cu7  1  0.38106600  0.38106600  0.85680200  1
  Cu  Cu8  1  0.38106600  0.85680200  0.38106600  1
  Cu  Cu9  1  0.85680200  0.38106600  0.38106600  1
  Cu  Cu10  1  0.38106600  0.38106600  0.38106600  1
  Cu  Cu11  1  0.00000000  0.00000000  0.34616300  1
  Cu  Cu12  1  0.65383700  0.00000000  0.34616300  1
  Cu  Cu13  1  0.00000000  0.65383700  0.34616300  1
  Cu  Cu14  1  0.65383700  0.34616300  0.00000000  1
  Cu  Cu15  1  0.00000000  0.34616300  0.00000000  1
  Cu  Cu16  1  0.00000000  0.34616300  0.65383700  1
  Cu  Cu17  1  0.34616300  0.65383700  0.00000000  1
  Cu  Cu18  1  0.34616300  0.00000000  0.65383700  1
  Cu  Cu19  1  0.34616300  0.00000000  0.00000000  1
  Cu  Cu20  1  0.00000000  0.00000000  0.65383700  1
  Cu  Cu21  1  0.00000000  0.65383700  0.00000000  1
  Cu  Cu22  1  0.65383700  0.00000000  0.00000000  1
  C  C23  1  0.72300300  0.72300300  0.27699700  1
  C  C24  1  0.27699700  0.72300300  0.27699700  1
  C  C25  1  0.72300300  0.27699700  0.27699700  1
  C  C26  1  0.27699700  0.27699700  0.72300300  1
  C  C27  1  0.72300300  0.27699700  0.72300300  1
  C  C28  1  0.27699700  0.72300300  0.72300300  1
