# generated using pymatgen
data_Cu4NiC30
_symmetry_space_group_name_H-M   'P 1'
_cell_length_a   9.46460733
_cell_length_b   7.48343956
_cell_length_c   7.33525045
_cell_angle_alpha   115.86380218
_cell_angle_beta   107.51394395
_cell_angle_gamma   91.43993707
_symmetry_Int_Tables_number   1
_chemical_formula_structural   Cu4NiC30
_chemical_formula_sum   'Cu4 Ni1 C30'
_cell_volume   438.35967226
_cell_formula_units_Z   1
loop_
 _symmetry_equiv_pos_site_id
 _symmetry_equiv_pos_as_xyz
  1  'x, y, z'
loop_
 _atom_site_type_symbol
 _atom_site_label
 _atom_site_symmetry_multiplicity
 _atom_site_fract_x
 _atom_site_fract_y
 _atom_site_fract_z
 _atom_site_occupancy
  Ni  Ni0  1  0.49730800  0.49497900  0.99517600  1
  Cu  Cu1  1  0.27782500  0.68676700  0.73071800  1
  Cu  Cu2  1  0.38659200  0.63860500  0.34989500  1
  Cu  Cu3  1  0.60809800  0.35133700  0.64060200  1
  Cu  Cu4  1  0.71672300  0.30356600  0.25975800  1
  C  C5  1  0.05991400  0.36763200  0.24216800  1
  C  C6  1  0.20924300  0.20276300  0.92626300  1
  C  C7  1  0.24821600  0.17355600  0.51198700  1
  C  C8  1  0.60222900  0.99986800  0.80537200  1
  C  C9  1  0.39237700  0.99003300  0.18507700  1
  C  C10  1  0.74643600  0.81647000  0.47849300  1
  C  C11  1  0.78548000  0.78717500  0.06423400  1
  C  C12  1  0.93469900  0.62248300  0.74837500  1
  C  C13  1  0.09550500  0.56891200  0.74546600  1
  C  C14  1  0.11132200  0.21248500  0.34704400  1
  C  C15  1  0.20116900  0.56923000  0.38767200  1
  C  C16  1  0.05891000  0.24813300  0.98954700  1
  C  C17  1  0.18869300  0.11576700  0.67088200  1
  C  C18  1  0.31491900  0.98075300  0.35841200  1
  C  C19  1  0.39160900  0.36670400  0.65359500  1
  C  C20  1  0.45866400  0.80965800  0.66424300  1
  C  C21  1  0.42589500  0.76813800  0.05638100  1
  C  C22  1  0.27403800  0.02474700  0.98863200  1
  C  C23  1  0.33154800  0.41216800  0.06849400  1
  C  C24  1  0.66325100  0.57772800  0.92211900  1
  C  C25  1  0.72061600  0.96508400  0.00168400  1
  C  C26  1  0.56864700  0.22171600  0.93398100  1
  C  C27  1  0.53593100  0.18024700  0.32624200  1
  C  C28  1  0.60314200  0.62318600  0.33682400  1
  C  C29  1  0.67952500  0.00915000  0.63185700  1
  C  C30  1  0.80602100  0.87433700  0.31969800  1
  C  C31  1  0.93584200  0.74187500  0.00106600  1
  C  C32  1  0.79346900  0.42085900  0.60289300  1
  C  C33  1  0.88324800  0.77770400  0.64360400  1
  C  C34  1  0.89914700  0.42118100  0.24487900  1
