# generated using pymatgen
data_Cu4NiC18
_symmetry_space_group_name_H-M   'P 1'
_cell_length_a   6.90780900
_cell_length_b   6.90780897
_cell_length_c   6.90780853
_cell_angle_alpha   57.36992186
_cell_angle_beta   57.36992290
_cell_angle_gamma   57.36991811
_symmetry_Int_Tables_number   1
_chemical_formula_structural   Cu4NiC18
_chemical_formula_sum   'Cu4 Ni1 C18'
_cell_volume   218.97193034
_cell_formula_units_Z   1
loop_
 _symmetry_equiv_pos_site_id
 _symmetry_equiv_pos_as_xyz
  1  'x, y, z'
loop_
 _atom_site_type_symbol
 _atom_site_label
 _atom_site_symmetry_multiplicity
 _atom_site_fract_x
 _atom_site_fract_y
 _atom_site_fract_z
 _atom_site_occupancy
  Ni  Ni0  1  0.23811900  0.23811900  0.23811900  1
  C  C1  1  0.96129400  0.52613400  0.96129400  1
  C  C2  1  0.52613400  0.96129400  0.96129400  1
  C  C3  1  0.96129400  0.96129400  0.52613400  1
  C  C4  1  0.00278600  0.00278600  0.00278600  1
  Cu  Cu5  1  0.50594000  0.99762800  0.50594000  1
  Cu  Cu6  1  0.99762800  0.50594000  0.50594000  1
  Cu  Cu7  1  0.50594000  0.50594000  0.99762800  1
  Cu  Cu8  1  0.50530500  0.50530500  0.50530500  1
  C  C9  1  0.42321800  0.81982700  0.81982700  1
  C  C10  1  0.17505900  0.57603400  0.57603400  1
  C  C11  1  0.81982700  0.42321800  0.81982700  1
  C  C12  1  0.81982700  0.81982700  0.42321800  1
  C  C13  1  0.42455900  0.42455900  0.83397300  1
  C  C14  1  0.42455900  0.83397300  0.42455900  1
  C  C15  1  0.18785000  0.57516200  0.18785000  1
  C  C16  1  0.57603400  0.17505900  0.57603400  1
  C  C17  1  0.12443200  0.12443200  0.12443200  1
  C  C18  1  0.88717600  0.88717600  0.88717600  1
  C  C19  1  0.83397300  0.42455900  0.42455900  1
  C  C20  1  0.57603400  0.57603400  0.17505900  1
  C  C21  1  0.18785000  0.18785000  0.57516200  1
  C  C22  1  0.57516200  0.18785000  0.18785000  1
