# generated using pymatgen
data_Cu3(NiC8)2
_symmetry_space_group_name_H-M   'P 1'
_cell_length_a   13.11121788
_cell_length_b   9.98244699
_cell_length_c   9.74909774
_cell_angle_alpha   83.27588408
_cell_angle_beta   49.12418551
_cell_angle_gamma   47.59993041
_symmetry_Int_Tables_number   1
_chemical_formula_structural   Cu3(NiC8)2
_chemical_formula_sum   'Cu6 Ni4 C32'
_cell_volume   580.08086851
_cell_formula_units_Z   2
loop_
 _symmetry_equiv_pos_site_id
 _symmetry_equiv_pos_as_xyz
  1  'x, y, z'
loop_
 _atom_site_type_symbol
 _atom_site_label
 _atom_site_symmetry_multiplicity
 _atom_site_fract_x
 _atom_site_fract_y
 _atom_site_fract_z
 _atom_site_occupancy
  C  C0  1  0.60576300  0.82635700  0.45308100  1
  C  C1  1  0.11479900  0.45308100  0.82635700  1
  C  C2  1  0.79691900  0.13520100  0.64423700  1
  C  C3  1  0.42364300  0.64423700  0.13520100  1
  Ni  Ni4  1  0.73385300  0.57936900  0.69400200  1
  Ni  Ni5  1  0.99277500  0.69400200  0.57936900  1
  Ni  Ni6  1  0.55599800  0.25722500  0.51614700  1
  Ni  Ni7  1  0.67063100  0.51614700  0.25722500  1
  Cu  Cu8  1  0.24368600  0.25631400  0.25631400  1
  Cu  Cu9  1  0.99368600  0.00631400  0.00631400  1
  Cu  Cu10  1  0.49868500  0.57473600  0.69531900  1
  Cu  Cu11  1  0.23125900  0.69531900  0.57473600  1
  Cu  Cu12  1  0.55468100  0.01874100  0.75131500  1
  Cu  Cu13  1  0.67526400  0.75131500  0.01874100  1
  C  C14  1  0.02068600  0.34159700  0.44573100  1
  C  C15  1  0.19198500  0.44573100  0.34159700  1
  C  C16  1  0.80426900  0.05801500  0.22931400  1
  C  C17  1  0.90840300  0.22931400  0.05801500  1
  C  C18  1  0.60183800  0.53122600  0.76208400  1
  C  C19  1  0.10485300  0.76208400  0.53122600  1
  C  C20  1  0.48791600  0.14514700  0.64816200  1
  C  C21  1  0.71877400  0.64816200  0.14514700  1
  C  C22  1  0.62090600  0.81044300  0.67898400  1
  C  C23  1  0.88966600  0.67898400  0.81044300  1
  C  C24  1  0.57101600  0.36033400  0.62909400  1
  C  C25  1  0.43955700  0.62909400  0.36033400  1
  C  C26  1  0.59838700  0.59573200  0.48655400  1
  C  C27  1  0.31932800  0.48655400  0.59573200  1
  C  C28  1  0.76344600  0.93067200  0.65161300  1
  C  C29  1  0.65426800  0.65161300  0.93067200  1
  C  C30  1  0.22656800  0.80499400  0.91434800  1
  C  C31  1  0.05409000  0.91434800  0.80499400  1
  C  C32  1  0.33565200  0.19591000  0.02343200  1
  C  C33  1  0.44500600  0.02343200  0.19591000  1
  C  C34  1  0.10626500  0.02780000  0.24577000  1
  C  C35  1  0.62016500  0.24577000  0.02780000  1
  C  C36  1  0.00423000  0.62983500  0.14373500  1
  C  C37  1  0.22220000  0.14373500  0.62983500  1
  C  C38  1  0.12091800  0.11377800  0.14518100  1
  C  C39  1  0.62012300  0.14518100  0.11377800  1
  C  C40  1  0.10481900  0.62987700  0.12908200  1
  C  C41  1  0.13622200  0.12908200  0.62987700  1
