# generated using pymatgen
data_CuNiC10
_symmetry_space_group_name_H-M   'P 1'
_cell_length_a   6.94935242
_cell_length_b   6.94935242
_cell_length_c   6.94935242
_cell_angle_alpha   134.72310859
_cell_angle_beta   134.72310859
_cell_angle_gamma   65.96073196
_symmetry_Int_Tables_number   1
_chemical_formula_structural   CuNiC10
_chemical_formula_sum   'Cu1 Ni1 C10'
_cell_volume   166.84378752
_cell_formula_units_Z   1
loop_
 _symmetry_equiv_pos_site_id
 _symmetry_equiv_pos_as_xyz
  1  'x, y, z'
loop_
 _atom_site_type_symbol
 _atom_site_label
 _atom_site_symmetry_multiplicity
 _atom_site_fract_x
 _atom_site_fract_y
 _atom_site_fract_z
 _atom_site_occupancy
  Ni  Ni0  1  0.75000000  0.25000000  0.50000000  1
  Cu  Cu1  1  0.50000000  0.50000000  0.00000000  1
  C  C2  1  0.25000000  0.75000000  0.50000000  1
  C  C3  1  0.00000000  0.00000000  0.00000000  1
  C  C4  1  0.19592400  0.59600700  0.11753800  1
  C  C5  1  0.47846900  0.07838600  0.88246200  1
  C  C6  1  0.32574500  0.92956600  0.09210700  1
  C  C7  1  0.83745900  0.23363800  0.90789300  1
  C  C8  1  0.07043400  0.16254100  0.39617900  1
  C  C9  1  0.76636200  0.67425500  0.60382100  1
  C  C10  1  0.92161400  0.80407600  0.40008300  1
  C  C11  1  0.40399300  0.52153100  0.59991700  1
