# generated using pymatgen
data_Cu7NiC32
_symmetry_space_group_name_H-M   'P 1'
_cell_length_a   7.61570692
_cell_length_b   7.61570692
_cell_length_c   7.61570706
_cell_angle_alpha   89.99493530
_cell_angle_beta   89.99493530
_cell_angle_gamma   89.99493553
_symmetry_Int_Tables_number   1
_chemical_formula_structural   Cu7NiC32
_chemical_formula_sum   'Cu7 Ni1 C32'
_cell_volume   441.70332658
_cell_formula_units_Z   1
loop_
 _symmetry_equiv_pos_site_id
 _symmetry_equiv_pos_as_xyz
  1  'x, y, z'
loop_
 _atom_site_type_symbol
 _atom_site_label
 _atom_site_symmetry_multiplicity
 _atom_site_fract_x
 _atom_site_fract_y
 _atom_site_fract_z
 _atom_site_occupancy
  C  C0  1  0.24980600  0.24980600  0.75016900  1
  C  C1  1  0.75018200  0.24978800  0.75018200  1
  C  C2  1  0.75016900  0.24980600  0.24980600  1
  C  C3  1  0.24978800  0.75018200  0.75018200  1
  C  C4  1  0.75017000  0.75017000  0.75017000  1
  C  C5  1  0.24980600  0.75016900  0.24980600  1
  C  C6  1  0.75018200  0.75018200  0.24978800  1
  Ni  Ni7  1  0.24979600  0.24979600  0.24979600  1
  Cu  Cu8  1  0.49956200  0.00053100  0.00053100  1
  Cu  Cu9  1  0.00053100  0.00053100  0.49956200  1
  Cu  Cu10  1  0.49952700  0.00046300  0.49952700  1
  Cu  Cu11  1  0.00053100  0.49956200  0.00053100  1
  Cu  Cu12  1  0.49952700  0.49952700  0.00046300  1
  Cu  Cu13  1  0.00046300  0.49952700  0.49952700  1
  Cu  Cu14  1  0.49947600  0.49947600  0.49947600  1
  C  C15  1  0.00057300  0.00057300  0.00057300  1
  C  C16  1  0.00230700  0.25395800  0.00230700  1
  C  C17  1  0.49749500  0.25070800  0.00251600  1
  C  C18  1  0.00251600  0.25070800  0.49749500  1
  C  C19  1  0.49751200  0.25023000  0.49751200  1
  C  C20  1  0.00040900  0.74612000  0.00040900  1
  C  C21  1  0.49972400  0.74927600  0.00025600  1
  C  C22  1  0.00025600  0.74927600  0.49972400  1
  C  C23  1  0.49973300  0.74973000  0.49973300  1
  C  C24  1  0.00040900  0.00040900  0.74612000  1
  C  C25  1  0.49972400  0.00025600  0.74927600  1
  C  C26  1  0.00230700  0.00230700  0.25395800  1
  C  C27  1  0.49749500  0.00251600  0.25070800  1
  C  C28  1  0.00025600  0.49972400  0.74927600  1
  C  C29  1  0.49973300  0.49973300  0.74973000  1
  C  C30  1  0.00251600  0.49749500  0.25070800  1
  C  C31  1  0.49751200  0.49751200  0.25023000  1
  C  C32  1  0.25395800  0.00230700  0.00230700  1
  C  C33  1  0.74612000  0.00040900  0.00040900  1
  C  C34  1  0.25070800  0.00251600  0.49749500  1
  C  C35  1  0.74927600  0.00025600  0.49972400  1
  C  C36  1  0.25070800  0.49749500  0.00251600  1
  C  C37  1  0.74927600  0.49972400  0.00025600  1
  C  C38  1  0.25023000  0.49751200  0.49751200  1
  C  C39  1  0.74973000  0.49973300  0.49973300  1
