# generated using pymatgen
data_CuNiC2
_symmetry_space_group_name_H-M   'P 1'
_cell_length_a   7.53532800
_cell_length_b   16.41249000
_cell_length_c   20.68085194
_cell_angle_alpha   51.50431530
_cell_angle_beta   90.00000000
_cell_angle_gamma   90.00000000
_symmetry_Int_Tables_number   1
_chemical_formula_structural   CuNiC2
_chemical_formula_sum   'Cu16 Ni16 C32'
_cell_volume   2001.77585812
_cell_formula_units_Z   16
loop_
 _symmetry_equiv_pos_site_id
 _symmetry_equiv_pos_as_xyz
  1  'x, y, z'
loop_
 _atom_site_type_symbol
 _atom_site_label
 _atom_site_symmetry_multiplicity
 _atom_site_fract_x
 _atom_site_fract_y
 _atom_site_fract_z
 _atom_site_occupancy
  C  C0  1  0.00000000  0.00000000  0.50000000  1
  C  C1  1  0.00000000  0.00000000  0.00000000  1
  C  C2  1  0.00000000  0.50000000  0.00000000  1
  C  C3  1  0.00000000  0.50000000  0.50000000  1
  Ni  Ni4  1  0.51921300  0.32951300  0.97033100  1
  Ni  Ni5  1  0.51921300  0.67048700  0.52966900  1
  Ni  Ni6  1  0.48078700  0.67048700  0.02966900  1
  Ni  Ni7  1  0.48078700  0.32951300  0.47033100  1
  Ni  Ni8  1  0.49439400  0.82663100  0.19773100  1
  Ni  Ni9  1  0.49439400  0.17336900  0.30226900  1
  Ni  Ni10  1  0.50560600  0.17336900  0.80226900  1
  Ni  Ni11  1  0.50560600  0.82663100  0.69773100  1
  Ni  Ni12  1  0.90122500  0.14176500  0.64241200  1
  Ni  Ni13  1  0.90122500  0.85823500  0.85758800  1
  Ni  Ni14  1  0.09877500  0.85823500  0.35758800  1
  Ni  Ni15  1  0.09877500  0.14176500  0.14241200  1
  Ni  Ni16  1  0.90390500  0.36429100  0.78058900  1
  Ni  Ni17  1  0.90390500  0.63570900  0.71941100  1
  Ni  Ni18  1  0.09609500  0.63570900  0.21941100  1
  Ni  Ni19  1  0.09609500  0.36429100  0.28058900  1
  C  C20  1  0.75504300  0.13512000  0.47350800  1
  C  C21  1  0.75504300  0.86488000  0.02649200  1
  C  C22  1  0.24495700  0.86488000  0.52649200  1
  C  C23  1  0.24495700  0.13512000  0.97350800  1
  C  C24  1  0.25403000  0.12616900  0.48303200  1
  C  C25  1  0.25403000  0.87383100  0.01696800  1
  C  C26  1  0.74597000  0.87383100  0.51696800  1
  C  C27  1  0.74597000  0.12616900  0.98303200  1
  C  C28  1  0.22866500  0.64132300  0.88508200  1
  C  C29  1  0.22866500  0.35867700  0.61491800  1
  C  C30  1  0.77133500  0.35867700  0.11491800  1
  C  C31  1  0.77133500  0.64132300  0.38508200  1
  C  C32  1  0.61363000  0.00000000  0.25000000  1
  C  C33  1  0.38637000  0.00000000  0.75000000  1
  C  C34  1  0.98977300  0.90416300  0.66232100  1
  C  C35  1  0.98977300  0.09583700  0.83767900  1
  C  C36  1  0.01022700  0.09583700  0.33767900  1
  C  C37  1  0.01022700  0.90416300  0.16232100  1
  C  C38  1  0.98699100  0.59942300  0.06448000  1
  C  C39  1  0.98699100  0.40057700  0.43552000  1
  C  C40  1  0.01300900  0.40057700  0.93552000  1
  C  C41  1  0.01300900  0.59942300  0.56448000  1
  C  C42  1  0.73417200  0.61711900  0.89727800  1
  C  C43  1  0.73417200  0.38288100  0.60272200  1
  C  C44  1  0.26582800  0.38288100  0.10272200  1
  C  C45  1  0.26582800  0.61711900  0.39727800  1
  C  C46  1  0.61354900  0.50000000  0.25000000  1
  C  C47  1  0.38645100  0.50000000  0.75000000  1
  Cu  Cu48  1  0.50160100  0.91771000  0.14464200  1
  Cu  Cu49  1  0.50160100  0.08229000  0.35535800  1
  Cu  Cu50  1  0.49839900  0.08229000  0.85535800  1
  Cu  Cu51  1  0.49839900  0.91771000  0.64464200  1
  Cu  Cu52  1  0.47937400  0.41659800  0.93906900  1
  Cu  Cu53  1  0.47937400  0.58340200  0.56093100  1
  Cu  Cu54  1  0.52062600  0.58340200  0.06093100  1
  Cu  Cu55  1  0.52062600  0.41659800  0.43906900  1
  Cu  Cu56  1  0.04843000  0.15592300  0.61798800  1
  Cu  Cu57  1  0.04843000  0.84407700  0.88201200  1
  Cu  Cu58  1  0.95157000  0.84407700  0.38201200  1
  Cu  Cu59  1  0.95157000  0.15592300  0.11798800  1
  Cu  Cu60  1  0.05166400  0.34214400  0.77826900  1
  Cu  Cu61  1  0.05166400  0.65785600  0.72173100  1
  Cu  Cu62  1  0.94833600  0.65785600  0.22173100  1
  Cu  Cu63  1  0.94833600  0.34214400  0.27826900  1
