# generated using pymatgen
data_Cu3(Ni8C11)2
_symmetry_space_group_name_H-M   'P 1'
_cell_length_a   6.69950900
_cell_length_b   7.67212663
_cell_length_c   18.36402729
_cell_angle_alpha   101.57689538
_cell_angle_beta   90.00000000
_cell_angle_gamma   115.88801569
_symmetry_Int_Tables_number   1
_chemical_formula_structural   Cu3(Ni8C11)2
_chemical_formula_sum   'Cu6 Ni32 C44'
_cell_volume   827.78325916
_cell_formula_units_Z   2
loop_
 _symmetry_equiv_pos_site_id
 _symmetry_equiv_pos_as_xyz
  1  'x, y, z'
loop_
 _atom_site_type_symbol
 _atom_site_label
 _atom_site_symmetry_multiplicity
 _atom_site_fract_x
 _atom_site_fract_y
 _atom_site_fract_z
 _atom_site_occupancy
  C  C0  1  0.31548200  0.66713000  0.60810100  1
  C  C1  1  0.64835100  0.33287000  0.89189900  1
  C  C2  1  0.68451800  0.33287000  0.39189900  1
  C  C3  1  0.35164900  0.66713000  0.10810100  1
  Ni  Ni4  1  0.04066500  0.25976700  0.51055000  1
  Ni  Ni5  1  0.78089800  0.74023300  0.98945000  1
  Ni  Ni6  1  0.95933500  0.74023300  0.48945000  1
  Ni  Ni7  1  0.21910200  0.25976700  0.01055000  1
  Ni  Ni8  1  0.29233400  0.29522300  0.51873200  1
  Ni  Ni9  1  0.99711100  0.70477700  0.98126800  1
  Ni  Ni10  1  0.70766600  0.70477700  0.48126800  1
  Ni  Ni11  1  0.00288900  0.29522300  0.01873200  1
  Ni  Ni12  1  0.33452500  0.01058300  0.54435300  1
  Ni  Ni13  1  0.32394200  0.98941700  0.95564700  1
  Ni  Ni14  1  0.66547500  0.98941700  0.45564700  1
  Ni  Ni15  1  0.67605800  0.01058300  0.04435300  1
  Ni  Ni16  1  0.16953400  0.98082000  0.60763800  1
  Ni  Ni17  1  0.18871400  0.01918000  0.89236200  1
  Ni  Ni18  1  0.83046600  0.01918000  0.39236200  1
  Ni  Ni19  1  0.81128600  0.98082000  0.10763800  1
  Ni  Ni20  1  0.26483000  0.55332400  0.75594500  1
  Ni  Ni21  1  0.71150600  0.44667600  0.74405500  1
  Ni  Ni22  1  0.73517000  0.44667600  0.24405500  1
  Ni  Ni23  1  0.28849400  0.55332400  0.25594500  1
  Ni  Ni24  1  0.23342800  0.35660600  0.69697900  1
  Ni  Ni25  1  0.87682200  0.64339400  0.80302100  1
  Ni  Ni26  1  0.76657200  0.64339400  0.30302100  1
  Ni  Ni27  1  0.12317800  0.35660600  0.19697900  1
  Ni  Ni28  1  0.79379400  0.98198900  0.65639100  1
  Ni  Ni29  1  0.81180500  0.01801100  0.84360900  1
  Ni  Ni30  1  0.20620600  0.01801100  0.34360900  1
  Ni  Ni31  1  0.18819500  0.98198900  0.15639100  1
  Ni  Ni32  1  0.65508000  0.10070100  0.64511600  1
  Ni  Ni33  1  0.55437900  0.89929900  0.85488400  1
  Ni  Ni34  1  0.34492000  0.89929900  0.35488400  1
  Ni  Ni35  1  0.44562100  0.10070100  0.14511600  1
  Cu  Cu36  1  0.30568100  0.55959400  0.40978000  1
  Cu  Cu37  1  0.74608700  0.44040600  0.09022000  1
  Cu  Cu38  1  0.69431900  0.44040600  0.59022000  1
  Cu  Cu39  1  0.25391300  0.55959400  0.90978000  1
  Cu  Cu40  1  0.18624900  0.00000000  0.75000000  1
  Cu  Cu41  1  0.81375100  0.00000000  0.25000000  1
  C  C42  1  0.36321300  0.67397300  0.35078600  1
  C  C43  1  0.68924000  0.32602700  0.14921400  1
  C  C44  1  0.63678700  0.32602700  0.64921400  1
  C  C45  1  0.31076000  0.67397300  0.85078600  1
  C  C46  1  0.42712300  0.69963700  0.48371100  1
  C  C47  1  0.72748600  0.30036300  0.01628900  1
  C  C48  1  0.57287700  0.30036300  0.51628900  1
  C  C49  1  0.27251400  0.69963700  0.98371100  1
  C  C50  1  0.37601900  0.39835300  0.39389300  1
  C  C51  1  0.97766600  0.60164700  0.10610700  1
  C  C52  1  0.62398100  0.60164700  0.60610700  1
  C  C53  1  0.02233400  0.39835300  0.89389300  1
  C  C54  1  0.06380100  0.47239500  0.41769200  1
  C  C55  1  0.59140600  0.52760500  0.08230800  1
  C  C56  1  0.93619900  0.52760500  0.58230800  1
  C  C57  1  0.40859400  0.47239500  0.91769200  1
  C  C58  1  0.23106000  0.83189400  0.71267900  1
  C  C59  1  0.39916600  0.16810600  0.78732100  1
  C  C60  1  0.76894000  0.16810600  0.28732100  1
  C  C61  1  0.60083400  0.83189400  0.21267900  1
  C  C62  1  0.02690900  0.93470100  0.80710600  1
  C  C63  1  0.09220800  0.06529900  0.69289400  1
  C  C64  1  0.97309100  0.06529900  0.19289400  1
  C  C65  1  0.90779200  0.93470100  0.30710600  1
  C  C66  1  0.17905700  0.32543900  0.54484900  1
  C  C67  1  0.85361800  0.67456100  0.95515100  1
  C  C68  1  0.82094300  0.67456100  0.45515100  1
  C  C69  1  0.14638200  0.32543900  0.04484900  1
  C  C70  1  0.21663800  0.90843900  0.56488100  1
  C  C71  1  0.30819900  0.09156100  0.93511900  1
  C  C72  1  0.78336200  0.09156100  0.43511900  1
  C  C73  1  0.69180100  0.90843900  0.06488100  1
  C  C74  1  0.26023100  0.49521900  0.70232500  1
  C  C75  1  0.76501200  0.50478100  0.79767500  1
  C  C76  1  0.73976900  0.50478100  0.29767500  1
  C  C77  1  0.23498800  0.49521900  0.20232500  1
  C  C78  1  0.65007800  0.96702800  0.63537100  1
  C  C79  1  0.68305000  0.03297200  0.86462900  1
  C  C80  1  0.34992200  0.03297200  0.36462900  1
  C  C81  1  0.31695000  0.96702800  0.13537100  1
