# generated using pymatgen
data_Cu(NiC5)2
_symmetry_space_group_name_H-M   'P 1'
_cell_length_a   7.73871185
_cell_length_b   7.73871185
_cell_length_c   7.73871199
_cell_angle_alpha   42.52754135
_cell_angle_beta   42.52754135
_cell_angle_gamma   42.52754215
_symmetry_Int_Tables_number   1
_chemical_formula_structural   Cu(NiC5)2
_chemical_formula_sum   'Cu1 Ni2 C10'
_cell_volume   191.74838843
_cell_formula_units_Z   1
loop_
 _symmetry_equiv_pos_site_id
 _symmetry_equiv_pos_as_xyz
  1  'x, y, z'
loop_
 _atom_site_type_symbol
 _atom_site_label
 _atom_site_symmetry_multiplicity
 _atom_site_fract_x
 _atom_site_fract_y
 _atom_site_fract_z
 _atom_site_occupancy
  Ni  Ni0  1  0.20858400  0.20858400  0.20858400  1
  Ni  Ni1  1  0.79141600  0.79141600  0.79141600  1
  Cu  Cu2  1  0.00000000  0.00000000  0.00000000  1
  C  C3  1  0.40385500  0.40385500  0.40385500  1
  C  C4  1  0.59614500  0.59614500  0.59614500  1
  C  C5  1  0.27696400  0.73246500  0.27696400  1
  C  C6  1  0.27696400  0.27696400  0.73246500  1
  C  C7  1  0.73246500  0.27696400  0.27696400  1
  C  C8  1  0.72303600  0.26753500  0.72303600  1
  C  C9  1  0.72303600  0.72303600  0.26753500  1
  C  C10  1  0.26753500  0.72303600  0.72303600  1
  C  C11  1  0.33073400  0.33073400  0.33073400  1
  C  C12  1  0.66926600  0.66926600  0.66926600  1
