# generated using pymatgen
data_Cu2Ni2C23
_symmetry_space_group_name_H-M   'P 1'
_cell_length_a   6.96354500
_cell_length_b   6.99418040
_cell_length_c   8.93603160
_cell_angle_alpha   100.05423621
_cell_angle_beta   104.62397481
_cell_angle_gamma   113.96657959
_symmetry_Int_Tables_number   1
_chemical_formula_structural   Cu2Ni2C23
_chemical_formula_sum   'Cu2 Ni2 C23'
_cell_volume   365.42374717
_cell_formula_units_Z   1
loop_
 _symmetry_equiv_pos_site_id
 _symmetry_equiv_pos_as_xyz
  1  'x, y, z'
loop_
 _atom_site_type_symbol
 _atom_site_label
 _atom_site_symmetry_multiplicity
 _atom_site_fract_x
 _atom_site_fract_y
 _atom_site_fract_z
 _atom_site_occupancy
  Ni  Ni0  1  0.71343500  0.48115400  0.43360000  1
  Ni  Ni1  1  0.28656500  0.51884600  0.56640000  1
  Cu  Cu2  1  0.87469700  0.13639000  0.75232500  1
  Cu  Cu3  1  0.12530300  0.86361000  0.24767500  1
  C  C4  1  0.50000000  0.00000000  0.00000000  1
  C  C5  1  0.46222200  0.66676600  0.91906000  1
  C  C6  1  0.53777800  0.33323400  0.08094000  1
  C  C7  1  0.68718300  0.94661300  0.35782900  1
  C  C8  1  0.31281700  0.05338700  0.64217100  1
  C  C9  1  0.93511000  0.68724600  0.85946900  1
  C  C10  1  0.06489000  0.31275400  0.14053100  1
  C  C11  1  0.17231000  0.87076400  0.95818600  1
  C  C12  1  0.82769000  0.12923600  0.04181400  1
  C  C13  1  0.81052900  0.77144700  0.75134500  1
  C  C14  1  0.18947100  0.22855300  0.24865500  1
  C  C15  1  0.78061100  0.82868000  0.27043800  1
  C  C16  1  0.21938900  0.17132000  0.72956200  1
  C  C17  1  0.51245900  0.97217300  0.23107300  1
  C  C18  1  0.48754100  0.02782700  0.76892700  1
  C  C19  1  0.83062600  0.62301300  0.97937500  1
  C  C20  1  0.16937400  0.37698700  0.02062500  1
  C  C21  1  0.94597500  0.50360800  0.75633600  1
  C  C22  1  0.05402500  0.49639200  0.24366400  1
  C  C23  1  0.57603400  0.82121300  0.45561100  1
  C  C24  1  0.42396600  0.17878700  0.54438900  1
  C  C25  1  0.13791900  0.82961500  0.53179600  1
  C  C26  1  0.86208100  0.17038500  0.46820400  1
