# generated using pymatgen
data_Cu2NiC4
_symmetry_space_group_name_H-M   'P 1'
_cell_length_a   2.96603000
_cell_length_b   9.79379200
_cell_length_c   9.91403700
_cell_angle_alpha   90.00000000
_cell_angle_beta   90.00000000
_cell_angle_gamma   90.00000000
_symmetry_Int_Tables_number   1
_chemical_formula_structural   Cu2NiC4
_chemical_formula_sum   'Cu8 Ni4 C16'
_cell_volume   287.98969710
_cell_formula_units_Z   4
loop_
 _symmetry_equiv_pos_site_id
 _symmetry_equiv_pos_as_xyz
  1  'x, y, z'
loop_
 _atom_site_type_symbol
 _atom_site_label
 _atom_site_symmetry_multiplicity
 _atom_site_fract_x
 _atom_site_fract_y
 _atom_site_fract_z
 _atom_site_occupancy
  Ni  Ni0  1  0.72987100  0.86307500  0.25000000  1
  Ni  Ni1  1  0.72987100  0.63692500  0.75000000  1
  Ni  Ni2  1  0.27012900  0.36307500  0.25000000  1
  Ni  Ni3  1  0.27012900  0.13692500  0.75000000  1
  Cu  Cu4  1  0.24032000  0.61782000  0.42675900  1
  Cu  Cu5  1  0.24032000  0.88218000  0.92675900  1
  Cu  Cu6  1  0.75968000  0.38218000  0.92675900  1
  Cu  Cu7  1  0.24032000  0.88218000  0.57324100  1
  Cu  Cu8  1  0.75968000  0.38218000  0.57324100  1
  Cu  Cu9  1  0.24032000  0.61782000  0.07324100  1
  Cu  Cu10  1  0.75968000  0.11782000  0.07324100  1
  Cu  Cu11  1  0.75968000  0.11782000  0.42675900  1
  C  C12  1  0.75932700  0.47799300  0.11412500  1
  C  C13  1  0.24067300  0.52200700  0.88587500  1
  C  C14  1  0.71297100  0.75000000  0.00000000  1
  C  C15  1  0.24067300  0.97799300  0.11412500  1
  C  C16  1  0.24067300  0.97799300  0.38587500  1
  C  C17  1  0.22501500  0.78582600  0.75000000  1
  C  C18  1  0.75932700  0.02200700  0.88587500  1
  C  C19  1  0.77498500  0.28582600  0.75000000  1
  C  C20  1  0.71297100  0.75000000  0.50000000  1
  C  C21  1  0.28702900  0.25000000  0.00000000  1
  C  C22  1  0.75932700  0.47799300  0.38587500  1
  C  C23  1  0.77498500  0.21417400  0.25000000  1
  C  C24  1  0.22501500  0.71417400  0.25000000  1
  C  C25  1  0.28702900  0.25000000  0.50000000  1
  C  C26  1  0.75932700  0.02200700  0.61412500  1
  C  C27  1  0.24067300  0.52200700  0.61412500  1
