# generated using pymatgen
data_Cu12Ni3C2
_symmetry_space_group_name_H-M   'P 1'
_cell_length_a   4.77677300
_cell_length_b   8.44091791
_cell_length_c   18.00634874
_cell_angle_alpha   98.84594893
_cell_angle_beta   90.00000000
_cell_angle_gamma   90.00000000
_symmetry_Int_Tables_number   1
_chemical_formula_structural   Cu12Ni3C2
_chemical_formula_sum   'Cu48 Ni12 C8'
_cell_volume   717.38649848
_cell_formula_units_Z   4
loop_
 _symmetry_equiv_pos_site_id
 _symmetry_equiv_pos_as_xyz
  1  'x, y, z'
loop_
 _atom_site_type_symbol
 _atom_site_label
 _atom_site_symmetry_multiplicity
 _atom_site_fract_x
 _atom_site_fract_y
 _atom_site_fract_z
 _atom_site_occupancy
  C  C0  1  0.13594300  0.31570800  0.15847500  1
  C  C1  1  0.63594300  0.68429200  0.34152500  1
  C  C2  1  0.86405700  0.68429200  0.84152500  1
  C  C3  1  0.36405700  0.31570800  0.65847500  1
  C  C4  1  0.74545600  0.79367200  0.10484300  1
  C  C5  1  0.24545600  0.20632800  0.39515700  1
  C  C6  1  0.25454400  0.20632800  0.89515700  1
  C  C7  1  0.75454400  0.79367200  0.60484300  1
  Ni  Ni8  1  0.11912600  0.24852700  0.51274600  1
  Ni  Ni9  1  0.61912600  0.75147400  0.98725400  1
  Ni  Ni10  1  0.88087400  0.75147400  0.48725400  1
  Ni  Ni11  1  0.38087400  0.24852700  0.01274600  1
  Ni  Ni12  1  0.76939300  0.57833600  0.66700100  1
  Ni  Ni13  1  0.26939300  0.42166400  0.83299900  1
  Ni  Ni14  1  0.23060700  0.42166400  0.33299900  1
  Ni  Ni15  1  0.73060700  0.57833600  0.16700100  1
  Ni  Ni16  1  0.00091300  0.00547200  0.15816400  1
  Ni  Ni17  1  0.50091300  0.99452800  0.34183600  1
  Ni  Ni18  1  0.99908700  0.99452800  0.84183600  1
  Ni  Ni19  1  0.49908700  0.00547200  0.65816400  1
  Cu  Cu20  1  0.01655100  0.18954800  0.56409400  1
  Cu  Cu21  1  0.51655100  0.81045200  0.93590600  1
  Cu  Cu22  1  0.98344900  0.81045200  0.43590600  1
  Cu  Cu23  1  0.48344900  0.18954800  0.06409400  1
  Cu  Cu24  1  0.99929100  0.36878300  0.50207300  1
  Cu  Cu25  1  0.49929100  0.63121700  0.99792700  1
  Cu  Cu26  1  0.00070900  0.63121700  0.49792700  1
  Cu  Cu27  1  0.50070900  0.36878300  0.00207300  1
  Cu  Cu28  1  0.37476700  0.26518500  0.52033500  1
  Cu  Cu29  1  0.87476700  0.73481500  0.97966500  1
  Cu  Cu30  1  0.62523300  0.73481500  0.47966500  1
  Cu  Cu31  1  0.12523300  0.26518500  0.02033500  1
  Cu  Cu32  1  0.06289200  0.12680400  0.46398300  1
  Cu  Cu33  1  0.56289200  0.87319600  0.03601700  1
  Cu  Cu34  1  0.93710800  0.87319600  0.53601700  1
  Cu  Cu35  1  0.43710800  0.12680400  0.96398300  1
  Cu  Cu36  1  0.96205800  0.67862100  0.67831300  1
  Cu  Cu37  1  0.46205800  0.32137900  0.82168700  1
  Cu  Cu38  1  0.03794200  0.32137900  0.32168700  1
  Cu  Cu39  1  0.53794200  0.67862100  0.17831300  1
  Cu  Cu40  1  0.60537500  0.59849400  0.71961700  1
  Cu  Cu41  1  0.10537500  0.40150600  0.78038300  1
  Cu  Cu42  1  0.39462500  0.40150600  0.28038300  1
  Cu  Cu43  1  0.89462500  0.59849400  0.21961700  1
  Cu  Cu44  1  0.63297600  0.58753100  0.60846700  1
  Cu  Cu45  1  0.13297600  0.41246900  0.89153300  1
  Cu  Cu46  1  0.36702400  0.41246900  0.39153300  1
  Cu  Cu47  1  0.86702400  0.58753100  0.10846700  1
  Cu  Cu48  1  0.87574700  0.44610100  0.65519000  1
  Cu  Cu49  1  0.37574700  0.55389900  0.84481000  1
  Cu  Cu50  1  0.12425300  0.55389900  0.34481000  1
  Cu  Cu51  1  0.62425300  0.44610100  0.15519000  1
  Cu  Cu52  1  0.19833800  0.95750400  0.11830100  1
  Cu  Cu53  1  0.69833800  0.04249600  0.38170000  1
  Cu  Cu54  1  0.80166200  0.04249600  0.88169900  1
  Cu  Cu55  1  0.30166200  0.95750400  0.61830100  1
  Cu  Cu56  1  0.07758000  0.08141500  0.21753600  1
  Cu  Cu57  1  0.57758000  0.91858500  0.28246400  1
  Cu  Cu58  1  0.92242000  0.91858500  0.78246400  1
  Cu  Cu59  1  0.42242000  0.08141500  0.71753600  1
  Cu  Cu60  1  0.83189800  0.08044600  0.12659500  1
  Cu  Cu61  1  0.33189800  0.91955400  0.37340500  1
  Cu  Cu62  1  0.16810200  0.91955400  0.87340500  1
  Cu  Cu63  1  0.66810200  0.08044600  0.62659500  1
  Cu  Cu64  1  0.89023600  0.89524700  0.18829000  1
  Cu  Cu65  1  0.39023600  0.10475300  0.31171000  1
  Cu  Cu66  1  0.10976400  0.10475300  0.81171000  1
  Cu  Cu67  1  0.60976400  0.89524700  0.68829000  1
