# generated using pymatgen
data_Cu5(NiC8)2
_symmetry_space_group_name_H-M   'P 1'
_cell_length_a   10.13912982
_cell_length_b   14.06511694
_cell_length_c   15.22603145
_cell_angle_alpha   90.00000000
_cell_angle_beta   90.00000000
_cell_angle_gamma   100.70192080
_symmetry_Int_Tables_number   1
_chemical_formula_structural   Cu5(NiC8)2
_chemical_formula_sum   'Cu40 Ni16 C128'
_cell_volume   2133.58730137
_cell_formula_units_Z   8
loop_
 _symmetry_equiv_pos_site_id
 _symmetry_equiv_pos_as_xyz
  1  'x, y, z'
loop_
 _atom_site_type_symbol
 _atom_site_label
 _atom_site_symmetry_multiplicity
 _atom_site_fract_x
 _atom_site_fract_y
 _atom_site_fract_z
 _atom_site_occupancy
  C  C0  1  0.99283472  0.16793203  0.66810049  1
  C  C1  1  0.00716528  0.33206797  0.16810049  1
  C  C2  1  0.00716528  0.83206797  0.33189951  1
  C  C3  1  0.99283472  0.66793203  0.83189951  1
  C  C4  1  0.69170954  0.02465315  0.90325716  1
  C  C5  1  0.30829046  0.47534685  0.40325716  1
  C  C6  1  0.30829046  0.97534685  0.09674284  1
  C  C7  1  0.69170954  0.52465315  0.59674284  1
  C  C8  1  0.71000676  0.08226009  0.79957817  1
  C  C9  1  0.28999324  0.41773991  0.29957817  1
  C  C10  1  0.28999324  0.91773991  0.20042183  1
  C  C11  1  0.71000676  0.58226009  0.70042183  1
  C  C12  1  0.86740192  0.05048232  0.00283423  1
  C  C13  1  0.13259808  0.44951768  0.50283423  1
  C  C14  1  0.13259808  0.94951768  0.99716577  1
  C  C15  1  0.86740192  0.55048232  0.49716577  1
  C  C16  1  0.02031358  0.12360199  0.97241597  1
  C  C17  1  0.97968642  0.37639801  0.47241597  1
  C  C18  1  0.97968642  0.87639801  0.02758403  1
  C  C19  1  0.02031358  0.62360199  0.52758403  1
  C  C20  1  0.52859589  0.30708695  0.72569731  1
  C  C21  1  0.47140411  0.19291305  0.22569731  1
  C  C22  1  0.47140411  0.69291305  0.27430269  1
  C  C23  1  0.52859589  0.80708695  0.77430269  1
  C  C24  1  0.52691933  0.18901480  0.68766916  1
  C  C25  1  0.47308067  0.31098520  0.18766916  1
  C  C26  1  0.47308067  0.81098520  0.31233084  1
  C  C27  1  0.52691933  0.68901480  0.81233084  1
  C  C28  1  0.88431787  0.36504892  0.74015554  1
  C  C29  1  0.11568213  0.13495108  0.24015554  1
  C  C30  1  0.11568213  0.63495108  0.25984446  1
  C  C31  1  0.88431787  0.86504892  0.75984446  1
  C  C32  1  0.73310953  0.40560191  0.75926604  1
  C  C33  1  0.26689047  0.09439809  0.25926604  1
  C  C34  1  0.26689047  0.59439809  0.24073396  1
  C  C35  1  0.73310953  0.90560191  0.74073396  1
  C  C36  1  0.92670271  0.20269974  0.36896240  1
  C  C37  1  0.07329729  0.29730026  0.86896240  1
  C  C38  1  0.07329729  0.79730026  0.63103760  1
  C  C39  1  0.92670271  0.70269974  0.13103760  1
  C  C40  1  0.78177470  0.11973198  0.34415028  1
  C  C41  1  0.21822530  0.38026802  0.84415028  1
  C  C42  1  0.21822530  0.88026802  0.65584972  1
  C  C43  1  0.78177470  0.61973198  0.15584972  1
  C  C44  1  0.65529257  0.03850546  0.46092743  1
  C  C45  1  0.34470743  0.46149454  0.96092743  1
  C  C46  1  0.34470743  0.96149454  0.53907257  1
  C  C47  1  0.65529257  0.53850546  0.03907257  1
  C  C48  1  0.68867222  0.07837543  0.56922681  1
  C  C49  1  0.31132778  0.42162457  0.06922681  1
  C  C50  1  0.31132778  0.92162457  0.43077319  1
  C  C51  1  0.68867222  0.57837543  0.93077319  1
  C  C52  1  0.28733623  0.12452337  0.43695265  1
  C  C53  1  0.71266377  0.37547663  0.93695265  1
  C  C54  1  0.71266377  0.87547663  0.56304735  1
  C  C55  1  0.28733623  0.62452337  0.06304735  1
  C  C56  1  0.41364956  0.22941962  0.43767315  1
  C  C57  1  0.58635044  0.27058038  0.93767315  1
  C  C58  1  0.58635044  0.77058038  0.56232685  1
  C  C59  1  0.41364956  0.72941962  0.06232685  1
  C  C60  1  0.41685653  0.34294909  0.54689919  1
  C  C61  1  0.58314347  0.15705091  0.04689919  1
  C  C62  1  0.58314347  0.65705091  0.45310081  1
  C  C63  1  0.41685653  0.84294909  0.95310081  1
  C  C64  1  0.28956226  0.32746533  0.62698351  1
  C  C65  1  0.71043774  0.17253467  0.12698351  1
  C  C66  1  0.71043774  0.67253467  0.37301649  1
  C  C67  1  0.28956226  0.82746533  0.87301649  1
  C  C68  1  0.19993789  0.10762432  0.80845908  1
  C  C69  1  0.80006211  0.39237568  0.30845908  1
  C  C70  1  0.80006211  0.89237568  0.19154092  1
  C  C71  1  0.19993789  0.60762432  0.69154092  1
  C  C72  1  0.25486623  0.09039373  0.71300450  1
  C  C73  1  0.74513377  0.40960627  0.21300450  1
  C  C74  1  0.74513377  0.90960627  0.28699550  1
  C  C75  1  0.25486623  0.59039373  0.78699550  1
  Ni  Ni76  1  0.87700523  0.10784725  0.87748773  1
  Ni  Ni77  1  0.12299477  0.39215275  0.37748773  1
  Ni  Ni78  1  0.12299477  0.89215275  0.12251227  1
  Ni  Ni79  1  0.87700523  0.60784725  0.62251227  1
  Ni  Ni80  1  0.71380737  0.26694079  0.71216410  1
  Ni  Ni81  1  0.28619263  0.23305921  0.21216410  1
  Ni  Ni82  1  0.28619263  0.73305921  0.28783590  1
  Ni  Ni83  1  0.71380737  0.76694079  0.78783590  1
  Ni  Ni84  1  0.82369839  0.14334599  0.47621577  1
  Ni  Ni85  1  0.17630161  0.35665401  0.97621577  1
  Ni  Ni86  1  0.17630161  0.85665401  0.52378423  1
  Ni  Ni87  1  0.82369839  0.64334599  0.02378423  1
  Ni  Ni88  1  0.27343615  0.21818324  0.53702871  1
  Ni  Ni89  1  0.72656385  0.28181676  0.03702871  1
  Ni  Ni90  1  0.72656385  0.78181676  0.46297129  1
  Ni  Ni91  1  0.27343615  0.71818324  0.96297129  1
  Cu  Cu92  1  0.74870166  0.06901189  0.85882289  1
  Cu  Cu93  1  0.25129834  0.43098811  0.35882289  1
  Cu  Cu94  1  0.25129834  0.93098811  0.14117711  1
  Cu  Cu95  1  0.74870166  0.56901189  0.64117711  1
  Cu  Cu96  1  0.92526130  0.09142114  0.95682552  1
  Cu  Cu97  1  0.07473870  0.40857886  0.45682552  1
  Cu  Cu98  1  0.07473870  0.90857886  0.04317448  1
  Cu  Cu99  1  0.92526130  0.59142114  0.54317448  1
  Cu  Cu100  1  0.57937734  0.25396658  0.70820242  1
  Cu  Cu101  1  0.42062266  0.24603342  0.20820242  1
  Cu  Cu102  1  0.42062266  0.74603342  0.29179758  1
  Cu  Cu103  1  0.57937734  0.75396658  0.79179758  1
  Cu  Cu104  1  0.78243529  0.35212989  0.74088206  1
  Cu  Cu105  1  0.21756471  0.14787011  0.24088206  1
  Cu  Cu106  1  0.21756471  0.64787011  0.25911794  1
  Cu  Cu107  1  0.78243529  0.85212989  0.75911794  1
  Cu  Cu108  1  0.84948588  0.15077847  0.38985050  1
  Cu  Cu109  1  0.15051412  0.34922153  0.88985050  1
  Cu  Cu110  1  0.15051412  0.84922153  0.61014950  1
  Cu  Cu111  1  0.84948588  0.65077847  0.11014950  1
  Cu  Cu112  1  0.71257966  0.08322011  0.50428067  1
  Cu  Cu113  1  0.28742034  0.41677989  0.00428067  1
  Cu  Cu114  1  0.28742034  0.91677989  0.49571933  1
  Cu  Cu115  1  0.71257966  0.58322011  0.99571933  1
  Cu  Cu116  1  0.33051814  0.18780797  0.46510643  1
  Cu  Cu117  1  0.66948186  0.31219203  0.96510643  1
  Cu  Cu118  1  0.66948186  0.81219203  0.53489357  1
  Cu  Cu119  1  0.33051814  0.68780797  0.03489357  1
  Cu  Cu120  1  0.32963638  0.30369947  0.57194457  1
  Cu  Cu121  1  0.67036362  0.19630053  0.07194457  1
  Cu  Cu122  1  0.67036362  0.69630053  0.42805543  1
  Cu  Cu123  1  0.32963638  0.80369947  0.92805543  1
  Cu  Cu124  1  0.35408530  0.10853550  0.94372086  1
  Cu  Cu125  1  0.64591470  0.39146450  0.44372086  1
  Cu  Cu126  1  0.64591470  0.89146450  0.05627914  1
  Cu  Cu127  1  0.35408530  0.60853550  0.55627914  1
  Cu  Cu128  1  0.46720109  0.97989275  0.69636219  1
  Cu  Cu129  1  0.53279891  0.52010725  0.19636219  1
  Cu  Cu130  1  0.53279891  0.02010725  0.30363781  1
  Cu  Cu131  1  0.46720109  0.47989275  0.80363781  1
  C  C132  1  0.92127945  0.04052277  0.65563925  1
  C  C133  1  0.07872055  0.45947723  0.15563925  1
  C  C134  1  0.07872055  0.95947723  0.34436075  1
  C  C135  1  0.92127945  0.54052277  0.84436075  1
  C  C136  1  0.05689435  0.29657923  0.68342565  1
  C  C137  1  0.94310565  0.20342077  0.18342565  1
  C  C138  1  0.94310565  0.70342077  0.31657435  1
  C  C139  1  0.05689435  0.79657923  0.81657435  1
  C  C140  1  0.95339250  0.16066152  0.82183190  1
  C  C141  1  0.04660750  0.33933848  0.32183190  1
  C  C142  1  0.04660750  0.83933848  0.17816810  1
  C  C143  1  0.95339250  0.66066152  0.67816810  1
  C  C144  1  0.77232816  0.19724961  0.68980299  1
  C  C145  1  0.22767184  0.30275039  0.18980299  1
  C  C146  1  0.22767184  0.80275039  0.31019701  1
  C  C147  1  0.77232816  0.69724961  0.81019701  1
  C  C148  1  0.90509421  0.19426060  0.53004691  1
  C  C149  1  0.09490579  0.30573940  0.03004691  1
  C  C150  1  0.09490579  0.80573940  0.46995309  1
  C  C151  1  0.90509421  0.69426060  0.96995309  1
  C  C152  1  0.16896851  0.16477133  0.57003743  1
  C  C153  1  0.83103149  0.33522867  0.07003743  1
  C  C154  1  0.83103149  0.83522867  0.42996257  1
  C  C155  1  0.16896851  0.66477133  0.92996257  1
  C  C156  1  0.18791261  0.11952830  0.74480629  1
  C  C157  1  0.81208739  0.38047170  0.24480629  1
  C  C158  1  0.81208739  0.88047170  0.25519371  1
  C  C159  1  0.18791261  0.61952830  0.75519371  1
  C  C160  1  0.42277082  0.17389153  0.89756981  1
  C  C161  1  0.57722918  0.32610847  0.39756981  1
  C  C162  1  0.57722918  0.82610847  0.10243019  1
  C  C163  1  0.42277082  0.67389153  0.60243019  1
  C  C164  1  0.40048732  0.08123775  0.01509694  1
  C  C165  1  0.59951268  0.41876225  0.51509694  1
  C  C166  1  0.59951268  0.91876225  0.98490306  1
  C  C167  1  0.40048732  0.58123775  0.48490306  1
  C  C168  1  0.23600797  0.06852728  0.91870758  1
  C  C169  1  0.76399203  0.43147272  0.41870758  1
  C  C170  1  0.76399203  0.93147272  0.08129242  1
  C  C171  1  0.23600797  0.56852728  0.58129242  1
  C  C172  1  0.40008093  0.91752076  0.74636460  1
  C  C173  1  0.59991907  0.58247924  0.24636460  1
  C  C174  1  0.59991907  0.08247924  0.25363540  1
  C  C175  1  0.40008093  0.41752076  0.75363540  1
  C  C176  1  0.59066674  0.98055982  0.68200017  1
  C  C177  1  0.40933326  0.51944018  0.18200017  1
  C  C178  1  0.40933326  0.01944018  0.31799983  1
  C  C179  1  0.59066674  0.48055982  0.81799983  1
  C  C180  1  0.41032180  0.04300169  0.65806563  1
  C  C181  1  0.58967820  0.45699831  0.15806563  1
  C  C182  1  0.58967820  0.95699831  0.34193437  1
  C  C183  1  0.41032180  0.54300169  0.84193437  1
