# generated using pymatgen
data_CuNiC
_symmetry_space_group_name_H-M   'P 1'
_cell_length_a   3.35229420
_cell_length_b   3.35229420
_cell_length_c   39.91731200
_cell_angle_alpha   90.00000000
_cell_angle_beta   90.00000000
_cell_angle_gamma   120.00000402
_symmetry_Int_Tables_number   1
_chemical_formula_structural   CuNiC
_chemical_formula_sum   'Cu4 Ni4 C4'
_cell_volume   388.48669979
_cell_formula_units_Z   4
loop_
 _symmetry_equiv_pos_site_id
 _symmetry_equiv_pos_as_xyz
  1  'x, y, z'
loop_
 _atom_site_type_symbol
 _atom_site_label
 _atom_site_symmetry_multiplicity
 _atom_site_fract_x
 _atom_site_fract_y
 _atom_site_fract_z
 _atom_site_occupancy
  Ni  Ni0  1  0.00000000  0.00000000  0.33072300  1
  Ni  Ni1  1  0.33333300  0.66666700  0.04481900  1
  Ni  Ni2  1  0.33333300  0.66666700  0.13959300  1
  Ni  Ni3  1  0.00000000  0.00000000  0.23593700  1
  C  C4  1  0.00000000  0.00000000  0.09218600  1
  C  C5  1  0.33333300  0.66666700  0.28335600  1
  C  C6  1  0.00000000  0.00000000  0.46987300  1
  C  C7  1  0.33333300  0.66666700  0.65752200  1
  Cu  Cu8  1  0.00000000  0.00000000  0.69556500  1
  Cu  Cu9  1  0.33333300  0.66666700  0.43179700  1
  Cu  Cu10  1  0.33333300  0.66666700  0.50791000  1
  Cu  Cu11  1  0.00000000  0.00000000  0.61946800  1
