# generated using pymatgen
data_Cu2Ni2C5
_symmetry_space_group_name_H-M   'P 1'
_cell_length_a   7.84986200
_cell_length_b   6.19754600
_cell_length_c   7.95851307
_cell_angle_alpha   73.04764053
_cell_angle_beta   90.00000000
_cell_angle_gamma   90.00000000
_symmetry_Int_Tables_number   1
_chemical_formula_structural   Cu2Ni2C5
_chemical_formula_sum   'Cu4 Ni4 C10'
_cell_volume   370.35675326
_cell_formula_units_Z   2
loop_
 _symmetry_equiv_pos_site_id
 _symmetry_equiv_pos_as_xyz
  1  'x, y, z'
loop_
 _atom_site_type_symbol
 _atom_site_label
 _atom_site_symmetry_multiplicity
 _atom_site_fract_x
 _atom_site_fract_y
 _atom_site_fract_z
 _atom_site_occupancy
  C  C0  1  0.26048600  0.35355900  0.26042300  1
  C  C1  1  0.76048600  0.64644100  0.73957700  1
  Ni  Ni2  1  0.74565400  0.25441600  0.46182700  1
  Ni  Ni3  1  0.24565400  0.74558400  0.53817300  1
  Ni  Ni4  1  0.25600400  0.06930400  0.88464800  1
  Ni  Ni5  1  0.75600400  0.93069600  0.11535200  1
  Cu  Cu6  1  0.19436400  0.54680100  0.03596400  1
  Cu  Cu7  1  0.69436400  0.45319900  0.96403600  1
  Cu  Cu8  1  0.10750300  0.60387100  0.18700500  1
  Cu  Cu9  1  0.60750300  0.39612900  0.81299500  1
  C  C10  1  0.22054800  0.29871800  0.50377400  1
  C  C11  1  0.72054800  0.70128200  0.49622600  1
  C  C12  1  0.91326000  0.82377700  0.82631800  1
  C  C13  1  0.45417300  0.51708200  0.29311900  1
  C  C14  1  0.59800700  0.87663300  0.72524900  1
  C  C15  1  0.95417300  0.48291800  0.70688100  1
  C  C16  1  0.09800700  0.12336700  0.27475100  1
  C  C17  1  0.41326000  0.17622300  0.17368200  1
