# generated using pymatgen
data_Cu3Ni9C2
_symmetry_space_group_name_H-M   'P 1'
_cell_length_a   7.60554213
_cell_length_b   7.60554213
_cell_length_c   9.40623500
_cell_angle_alpha   90.00000000
_cell_angle_beta   90.00000000
_cell_angle_gamma   119.45965656
_symmetry_Int_Tables_number   1
_chemical_formula_structural   Cu3Ni9C2
_chemical_formula_sum   'Cu6 Ni18 C4'
_cell_volume   473.74629153
_cell_formula_units_Z   2
loop_
 _symmetry_equiv_pos_site_id
 _symmetry_equiv_pos_as_xyz
  1  'x, y, z'
loop_
 _atom_site_type_symbol
 _atom_site_label
 _atom_site_symmetry_multiplicity
 _atom_site_fract_x
 _atom_site_fract_y
 _atom_site_fract_z
 _atom_site_occupancy
  C  C0  1  0.99510400  0.66916700  0.25000000  1
  C  C1  1  0.00489600  0.33083300  0.75000000  1
  C  C2  1  0.66916700  0.99510400  0.25000000  1
  C  C3  1  0.33083300  0.00489600  0.75000000  1
  Ni  Ni4  1  0.12704800  0.12704800  0.25000000  1
  Ni  Ni5  1  0.87295200  0.87295200  0.75000000  1
  Ni  Ni6  1  0.00214400  0.33469500  0.07437600  1
  Ni  Ni7  1  0.99785600  0.66530500  0.92562400  1
  Ni  Ni8  1  0.99785600  0.66530500  0.57437600  1
  Ni  Ni9  1  0.33469500  0.00214400  0.42562400  1
  Ni  Ni10  1  0.00214400  0.33469500  0.42562400  1
  Ni  Ni11  1  0.66530500  0.99785600  0.57437600  1
  Ni  Ni12  1  0.66530500  0.99785600  0.92562400  1
  Ni  Ni13  1  0.33469500  0.00214400  0.07437600  1
  Ni  Ni14  1  0.33445300  0.33445300  0.55577300  1
  Ni  Ni15  1  0.66554700  0.66554700  0.44422700  1
  Ni  Ni16  1  0.66554700  0.66554700  0.05577300  1
  Ni  Ni17  1  0.33445300  0.33445300  0.94422700  1
  Ni  Ni18  1  0.33934600  0.54723100  0.25000000  1
  Ni  Ni19  1  0.66065400  0.45276900  0.75000000  1
  Ni  Ni20  1  0.54723100  0.33934600  0.25000000  1
  Ni  Ni21  1  0.45276900  0.66065400  0.75000000  1
  Cu  Cu22  1  0.67260800  0.32739200  0.00000000  1
  Cu  Cu23  1  0.32739200  0.67260800  0.00000000  1
  Cu  Cu24  1  0.32739200  0.67260800  0.50000000  1
  Cu  Cu25  1  0.67260800  0.32739200  0.50000000  1
  Cu  Cu26  1  0.00000000  0.00000000  0.00000000  1
  Cu  Cu27  1  0.00000000  0.00000000  0.50000000  1
