# generated using pymatgen
data_Cu12Ni11C48
_symmetry_space_group_name_H-M   'P 1'
_cell_length_a   16.44286953
_cell_length_b   16.44280306
_cell_length_c   16.44280304
_cell_angle_alpha   51.28121641
_cell_angle_beta   51.28093072
_cell_angle_gamma   51.28093095
_symmetry_Int_Tables_number   1
_chemical_formula_structural   Cu12Ni11C48
_chemical_formula_sum   'Cu24 Ni22 C96'
_cell_volume   2497.85864456
_cell_formula_units_Z   2
loop_
 _symmetry_equiv_pos_site_id
 _symmetry_equiv_pos_as_xyz
  1  'x, y, z'
loop_
 _atom_site_type_symbol
 _atom_site_label
 _atom_site_symmetry_multiplicity
 _atom_site_fract_x
 _atom_site_fract_y
 _atom_site_fract_z
 _atom_site_occupancy
  Ni  Ni0  1  0.74996147  0.12349441  0.37654689  1
  Ni  Ni1  1  0.12349464  0.37654671  0.74996119  1
  Ni  Ni2  1  0.37654609  0.74996158  0.12349495  1
  Ni  Ni3  1  0.24996147  0.87654689  0.62349441  1
  Ni  Ni4  1  0.87654609  0.62349495  0.24996158  1
  Ni  Ni5  1  0.62349464  0.24996119  0.87654671  1
  Ni  Ni6  1  0.80514644  0.46578944  0.13612844  1
  Ni  Ni7  1  0.46578763  0.13612797  0.80514729  1
  Ni  Ni8  1  0.13612906  0.80514499  0.46578839  1
  Ni  Ni9  1  0.30514644  0.63612844  0.96578944  1
  Ni  Ni10  1  0.63612906  0.96578839  0.30514499  1
  Ni  Ni11  1  0.96578763  0.30514729  0.63612797  1
  Ni  Ni12  1  0.19480583  0.53426559  0.86386620  1
  Ni  Ni13  1  0.53426551  0.86386560  0.19480551  1
  Ni  Ni14  1  0.86386583  0.19480736  0.53426470  1
  Ni  Ni15  1  0.69480583  0.36386620  0.03426559  1
  Ni  Ni16  1  0.36386583  0.03426470  0.69480736  1
  Ni  Ni17  1  0.03426551  0.69480551  0.36386560  1
  Ni  Ni18  1  0.11406114  0.11408521  0.11409075  1
  Ni  Ni19  1  0.61406114  0.61409075  0.61408521  1
  Ni  Ni20  1  0.88592655  0.88590209  0.88589542  1
  Ni  Ni21  1  0.38592655  0.38589542  0.38590209  1
  Cu  Cu22  1  0.90326067  0.23877140  0.29660988  1
  Cu  Cu23  1  0.23876685  0.29660332  0.90327098  1
  Cu  Cu24  1  0.29660278  0.90326887  0.23876710  1
  Cu  Cu25  1  0.40326067  0.79660988  0.73877140  1
  Cu  Cu26  1  0.79660278  0.73876710  0.40326887  1
  Cu  Cu27  1  0.73876685  0.40327098  0.79660332  1
  Cu  Cu28  1  0.09664186  0.76126086  0.70351901  1
  Cu  Cu29  1  0.76126033  0.70350760  0.09665042  1
  Cu  Cu30  1  0.70352670  0.09663331  0.76126437  1
  Cu  Cu31  1  0.59664186  0.20351901  0.26126086  1
  Cu  Cu32  1  0.20352670  0.26126437  0.59663331  1
  Cu  Cu33  1  0.26126033  0.59665042  0.20350760  1
  Cu  Cu34  1  0.93322749  0.32898438  0.98579893  1
  Cu  Cu35  1  0.32897777  0.98580077  0.93323337  1
  Cu  Cu36  1  0.98579592  0.93323014  0.32898583  1
  Cu  Cu37  1  0.43322749  0.48579893  0.82898438  1
  Cu  Cu38  1  0.48579592  0.82898583  0.43323014  1
  Cu  Cu39  1  0.82897777  0.43323337  0.48580077  1
  Cu  Cu40  1  0.06669609  0.67113077  0.01412459  1
  Cu  Cu41  1  0.67114741  0.01411615  0.06668433  1
  Cu  Cu42  1  0.01412118  0.06668322  0.67114360  1
  Cu  Cu43  1  0.56669609  0.51412459  0.17113077  1
  Cu  Cu44  1  0.51412118  0.17114360  0.56668322  1
  Cu  Cu45  1  0.17114741  0.56668433  0.51411615  1
  C  C46  1  0.81396354  0.20893832  0.32483336  1
  C  C47  1  0.20893681  0.32483247  0.81396330  1
  C  C48  1  0.32483275  0.81396498  0.20893631  1
  C  C49  1  0.31396354  0.82483336  0.70893832  1
  C  C50  1  0.82483275  0.70893631  0.31396498  1
  C  C51  1  0.70893681  0.31396330  0.82483247  1
  C  C52  1  0.18602561  0.79107350  0.67515941  1
  C  C53  1  0.79107400  0.67516165  0.18602387  1
  C  C54  1  0.67515776  0.18602694  0.79107655  1
  C  C55  1  0.68602561  0.17515941  0.29107350  1
  C  C56  1  0.17515776  0.29107655  0.68602694  1
  C  C57  1  0.29107400  0.68602387  0.17516165  1
  C  C58  1  0.86036559  0.36927863  0.24276961  1
  C  C59  1  0.36927639  0.24276523  0.86037107  1
  C  C60  1  0.24276782  0.86036891  0.36927600  1
  C  C61  1  0.36036559  0.74276961  0.86927863  1
  C  C62  1  0.74276782  0.86927600  0.36036891  1
  C  C63  1  0.86927639  0.36037107  0.74276523  1
  C  C64  1  0.13966780  0.63077214  0.75716858  1
  C  C65  1  0.63077570  0.75717275  0.13966324  1
  C  C66  1  0.75717032  0.13966751  0.63077281  1
  C  C67  1  0.63966780  0.25716858  0.13077214  1
  C  C68  1  0.25717032  0.13077281  0.63966751  1
  C  C69  1  0.13077570  0.63966324  0.25717275  1
  C  C70  1  0.01863412  0.18805615  0.21504175  1
  C  C71  1  0.18804910  0.21503968  0.01863902  1
  C  C72  1  0.21503821  0.01863710  0.18804973  1
  C  C73  1  0.51863412  0.71504175  0.68805615  1
  C  C74  1  0.71503821  0.68804973  0.51863710  1
  C  C75  1  0.68804910  0.51863902  0.71503968  1
  C  C76  1  0.98146042  0.81188046  0.78493108  1
  C  C77  1  0.81189747  0.78494666  0.98143640  1
  C  C78  1  0.78493384  0.98145896  0.81188773  1
  C  C79  1  0.48146042  0.28493108  0.31188046  1
  C  C80  1  0.28493384  0.31188773  0.48145896  1
  C  C81  1  0.31189747  0.48143640  0.28494666  1
  C  C82  1  0.91520973  0.19480157  0.40429950  1
  C  C83  1  0.19480232  0.40429591  0.91521096  1
  C  C84  1  0.40429739  0.91521177  0.19480133  1
  C  C85  1  0.41520973  0.90429950  0.69480157  1
  C  C86  1  0.90429739  0.69480133  0.41521177  1
  C  C87  1  0.69480232  0.41521096  0.90429591  1
  C  C88  1  0.08480350  0.80518977  0.59570674  1
  C  C89  1  0.80518965  0.59571102  0.08480136  1
  C  C90  1  0.59570759  0.08480153  0.80519117  1
  C  C91  1  0.58480350  0.09570674  0.30518977  1
  C  C92  1  0.09570759  0.30519117  0.58480153  1
  C  C93  1  0.30518965  0.58480136  0.09571102  1
  C  C94  1  0.89120952  0.41464559  0.02908495  1
  C  C95  1  0.41464578  0.02908694  0.89120800  1
  C  C96  1  0.02908549  0.89120735  0.41464641  1
  C  C97  1  0.39120952  0.52908495  0.91464559  1
  C  C98  1  0.52908549  0.91464641  0.39120735  1
  C  C99  1  0.91464578  0.39120800  0.52908694  1
  C  C100  1  0.10879725  0.58537060  0.97092889  1
  C  C101  1  0.58537149  0.97092892  0.10879631  1
  C  C102  1  0.97092761  0.10879811  0.58536932  1
  C  C103  1  0.60879725  0.47092889  0.08537060  1
  C  C104  1  0.47092761  0.08536932  0.60879811  1
  C  C105  1  0.08537149  0.60879631  0.47092892  1
  C  C106  1  0.01542788  0.21355988  0.03624972  1
  C  C107  1  0.21355626  0.03625547  0.01543284  1
  C  C108  1  0.03624950  0.01542968  0.21355828  1
  C  C109  1  0.51542788  0.53624972  0.71355988  1
  C  C110  1  0.53624950  0.71355828  0.51542968  1
  C  C111  1  0.71355626  0.51543284  0.53625547  1
  C  C112  1  0.98460709  0.78639197  0.96377398  1
  C  C113  1  0.78638519  0.96377313  0.98460952  1
  C  C114  1  0.96378083  0.98461348  0.78637998  1
  C  C115  1  0.48460709  0.46377398  0.28639197  1
  C  C116  1  0.46378083  0.28637998  0.48461348  1
  C  C117  1  0.28638519  0.48460952  0.46377313  1
  C  C118  1  0.98952923  0.37986776  0.85622336  1
  C  C119  1  0.37986435  0.85622714  0.98953024  1
  C  C120  1  0.85622510  0.98952763  0.37986828  1
  C  C121  1  0.48952923  0.35622336  0.87986776  1
  C  C122  1  0.35622510  0.87986828  0.48952763  1
  C  C123  1  0.87986435  0.48953024  0.35622714  1
  C  C124  1  0.01052488  0.62012199  0.14375078  1
  C  C125  1  0.62012524  0.14374920  0.01052229  1
  C  C126  1  0.14375106  0.01052710  0.62012116  1
  C  C127  1  0.51052488  0.64375078  0.12012199  1
  C  C128  1  0.64375106  0.12012116  0.51052710  1
  C  C129  1  0.12012524  0.51052229  0.64374920  1
  C  C130  1  0.83258069  0.31333790  0.01752625  1
  C  C131  1  0.31333544  0.01752777  0.83258196  1
  C  C132  1  0.01752705  0.83257872  0.31333883  1
  C  C133  1  0.33258069  0.51752625  0.81333790  1
  C  C134  1  0.51752705  0.81333883  0.33257872  1
  C  C135  1  0.81333544  0.33258196  0.51752777  1
  C  C136  1  0.16742313  0.68665264  0.98246555  1
  C  C137  1  0.68665247  0.98246490  0.16742176  1
  C  C138  1  0.98246483  0.16742819  0.68665092  1
  C  C139  1  0.66742313  0.48246555  0.18665264  1
  C  C140  1  0.48246483  0.18665092  0.66742819  1
  C  C141  1  0.18665247  0.66742176  0.48246490  1
