# generated using pymatgen
data_Cu3Ni2C19
_symmetry_space_group_name_H-M   'P 1'
_cell_length_a   2.97198600
_cell_length_b   7.60288429
_cell_length_c   9.87037455
_cell_angle_alpha   101.04541877
_cell_angle_beta   92.30566530
_cell_angle_gamma   99.24499028
_symmetry_Int_Tables_number   1
_chemical_formula_structural   Cu3Ni2C19
_chemical_formula_sum   'Cu3 Ni2 C19'
_cell_volume   215.47162479
_cell_formula_units_Z   1
loop_
 _symmetry_equiv_pos_site_id
 _symmetry_equiv_pos_as_xyz
  1  'x, y, z'
loop_
 _atom_site_type_symbol
 _atom_site_label
 _atom_site_symmetry_multiplicity
 _atom_site_fract_x
 _atom_site_fract_y
 _atom_site_fract_z
 _atom_site_occupancy
  C  C0  1  0.09462200  0.17211400  0.75232100  1
  C  C1  1  0.59528900  0.17592000  0.24486200  1
  C  C2  1  0.74769800  0.50298800  0.75278200  1
  C  C3  1  0.24484100  0.48739700  0.23794100  1
  C  C4  1  0.41035900  0.83082600  0.75155000  1
  C  C5  1  0.91041000  0.83238400  0.25279700  1
  C  C6  1  0.65741800  0.33249100  0.00843500  1
  Ni  Ni7  1  0.00501600  0.00693200  0.00044600  1
  Ni  Ni8  1  0.82919000  0.66756100  0.49796100  1
  Cu  Cu9  1  0.50639500  0.00199900  0.50219800  1
  Cu  Cu10  1  0.16374700  0.32964000  0.50067700  1
  Cu  Cu11  1  0.32891600  0.65121800  0.99554400  1
  C  C12  1  0.51799800  0.07165700  0.89068900  1
  C  C13  1  0.08390300  0.08832000  0.38746600  1
  C  C14  1  0.22581900  0.44096100  0.88357700  1
  C  C15  1  0.70261800  0.42345300  0.38366600  1
  C  C16  1  0.90473400  0.75485200  0.88903000  1
  C  C17  1  0.40614300  0.76360200  0.38373900  1
  C  C18  1  0.63097300  0.24078800  0.61731500  1
  C  C19  1  0.10928400  0.22918600  0.11927900  1
  C  C20  1  0.25098600  0.57466600  0.61625700  1
  C  C21  1  0.77475000  0.59677400  0.11371700  1
  C  C22  1  0.92566400  0.91226400  0.61554100  1
  C  C23  1  0.47322700  0.91200700  0.10220900  1
