# generated using pymatgen
data_Cu3Ni9C4
_symmetry_space_group_name_H-M   'P 1'
_cell_length_a   5.81080722
_cell_length_b   9.54507200
_cell_length_c   10.70349591
_cell_angle_alpha   90.00000000
_cell_angle_beta   89.98123755
_cell_angle_gamma   90.00000000
_symmetry_Int_Tables_number   1
_chemical_formula_structural   Cu3Ni9C4
_chemical_formula_sum   'Cu12 Ni36 C16'
_cell_volume   593.66480156
_cell_formula_units_Z   4
loop_
 _symmetry_equiv_pos_site_id
 _symmetry_equiv_pos_as_xyz
  1  'x, y, z'
loop_
 _atom_site_type_symbol
 _atom_site_label
 _atom_site_symmetry_multiplicity
 _atom_site_fract_x
 _atom_site_fract_y
 _atom_site_fract_z
 _atom_site_occupancy
  C  C0  1  0.73802800  0.26800000  0.75849900  1
  C  C1  1  0.26197200  0.76800000  0.74150100  1
  C  C2  1  0.26197200  0.73200000  0.24150100  1
  C  C3  1  0.73802800  0.23200000  0.25849900  1
  Ni  Ni4  1  0.99043000  0.05929900  0.86214400  1
  Ni  Ni5  1  0.00957000  0.55929900  0.63785600  1
  Ni  Ni6  1  0.00957000  0.94070100  0.13785600  1
  Ni  Ni7  1  0.99043000  0.44070100  0.36214400  1
  Ni  Ni8  1  0.95955800  0.17476900  0.97405700  1
  Ni  Ni9  1  0.04044200  0.67476900  0.52594300  1
  Ni  Ni10  1  0.04044200  0.82523100  0.02594300  1
  Ni  Ni11  1  0.95955800  0.32523100  0.47405700  1
  Ni  Ni12  1  0.15688400  0.19851200  0.86645100  1
  Ni  Ni13  1  0.84311600  0.69851200  0.63354900  1
  Ni  Ni14  1  0.84311600  0.80148800  0.13354900  1
  Ni  Ni15  1  0.15688400  0.30148800  0.36645100  1
  Ni  Ni16  1  0.60917700  0.51642200  0.86037000  1
  Ni  Ni17  1  0.39082300  0.01642200  0.63963000  1
  Ni  Ni18  1  0.39082300  0.48357800  0.13963000  1
  Ni  Ni19  1  0.60917700  0.98357800  0.36037000  1
  Ni  Ni20  1  0.89593300  0.50839500  0.86190800  1
  Ni  Ni21  1  0.10406700  0.00839500  0.63809200  1
  Ni  Ni22  1  0.10406700  0.49160500  0.13809200  1
  Ni  Ni23  1  0.89593300  0.99160500  0.36190800  1
  Ni  Ni24  1  0.74297900  0.42787700  0.97197100  1
  Ni  Ni25  1  0.25702100  0.92787700  0.52802900  1
  Ni  Ni26  1  0.25702100  0.57212300  0.02802900  1
  Ni  Ni27  1  0.74297900  0.07212300  0.47197100  1
  Ni  Ni28  1  0.31969900  0.35509100  0.66448600  1
  Ni  Ni29  1  0.68030100  0.85509100  0.83551400  1
  Ni  Ni30  1  0.68030100  0.64490900  0.33551400  1
  Ni  Ni31  1  0.31969900  0.14490900  0.16448600  1
  Ni  Ni32  1  0.50752200  0.47917100  0.63618700  1
  Ni  Ni33  1  0.49247800  0.97917100  0.86381300  1
  Ni  Ni34  1  0.49247800  0.52082900  0.36381300  1
  Ni  Ni35  1  0.50752200  0.02082900  0.13618700  1
  Ni  Ni36  1  0.50156900  0.33771700  0.54754600  1
  Ni  Ni37  1  0.49843100  0.83771700  0.95245400  1
  Ni  Ni38  1  0.49843100  0.66228300  0.45245400  1
  Ni  Ni39  1  0.50156900  0.16228300  0.04754600  1
  Cu  Cu40  1  0.98984100  0.16547500  0.87981800  1
  Cu  Cu41  1  0.01015900  0.66547500  0.62018200  1
  Cu  Cu42  1  0.01015900  0.83452500  0.12018200  1
  Cu  Cu43  1  0.98984100  0.33452500  0.37981800  1
  Cu  Cu44  1  0.74816000  0.45257800  0.87821900  1
  Cu  Cu45  1  0.25184000  0.95257800  0.62178100  1
  Cu  Cu46  1  0.25184000  0.54742200  0.12178100  1
  Cu  Cu47  1  0.74816000  0.04742200  0.37821900  1
  Cu  Cu48  1  0.48784900  0.37203100  0.63837400  1
  Cu  Cu49  1  0.51215100  0.87203100  0.86162600  1
  Cu  Cu50  1  0.51215100  0.62796900  0.36162600  1
  Cu  Cu51  1  0.48784900  0.12796900  0.13837400  1
  C  C52  1  0.49514300  0.19590100  0.86597600  1
  C  C53  1  0.50485700  0.69590100  0.63402400  1
  C  C54  1  0.50485700  0.80409900  0.13402400  1
  C  C55  1  0.49514300  0.30409900  0.36597600  1
  C  C56  1  0.72761500  0.10630800  0.64787900  1
  C  C57  1  0.27238500  0.60630800  0.85212100  1
  C  C58  1  0.27238500  0.89369200  0.35212100  1
  C  C59  1  0.72761500  0.39369200  0.14787900  1
  C  C60  1  0.98361700  0.35728300  0.66387900  1
  C  C61  1  0.01638300  0.85728300  0.83612100  1
  C  C62  1  0.01638300  0.64271700  0.33612100  1
  C  C63  1  0.98361700  0.14271700  0.16387900  1
