# generated using pymatgen
data_CuNiC12
_symmetry_space_group_name_H-M   'P 1'
_cell_length_a   6.21801600
_cell_length_b   10.91927100
_cell_length_c   17.26452159
_cell_angle_alpha   50.82866353
_cell_angle_beta   90.00000000
_cell_angle_gamma   90.00000000
_symmetry_Int_Tables_number   1
_chemical_formula_structural   CuNiC12
_chemical_formula_sum   'Cu2 Ni2 C24'
_cell_volume   908.75691650
_cell_formula_units_Z   2
loop_
 _symmetry_equiv_pos_site_id
 _symmetry_equiv_pos_as_xyz
  1  'x, y, z'
loop_
 _atom_site_type_symbol
 _atom_site_label
 _atom_site_symmetry_multiplicity
 _atom_site_fract_x
 _atom_site_fract_y
 _atom_site_fract_z
 _atom_site_occupancy
  Ni  Ni0  1  0.50000000  0.00000000  0.00000000  1
  Ni  Ni1  1  0.00000000  0.00000000  0.50000000  1
  Cu  Cu2  1  0.00000000  0.50000000  0.00000000  1
  Cu  Cu3  1  0.50000000  0.50000000  0.50000000  1
  C  C4  1  0.66934900  0.66375400  0.90731000  1
  C  C5  1  0.83065100  0.66375400  0.40731000  1
  C  C6  1  0.33065100  0.33624600  0.09269000  1
  C  C7  1  0.16934900  0.33624600  0.59269000  1
  C  C8  1  0.18114200  0.75182800  0.86615200  1
  C  C9  1  0.31885800  0.75182800  0.36615200  1
  C  C10  1  0.81885800  0.24817200  0.13384800  1
  C  C11  1  0.68114200  0.24817200  0.63384800  1
  C  C12  1  0.46150900  0.85806000  0.63633300  1
  C  C13  1  0.03849100  0.85806000  0.13633300  1
  C  C14  1  0.53849100  0.14194000  0.36366700  1
  C  C15  1  0.96150900  0.14194000  0.86366700  1
  C  C16  1  0.41254200  0.34120500  0.84361700  1
  C  C17  1  0.08745800  0.34120500  0.34361700  1
  C  C18  1  0.58745800  0.65879500  0.15638300  1
  C  C19  1  0.91254200  0.65879500  0.65638300  1
  C  C20  1  0.73668500  0.04606000  0.94351700  1
  C  C21  1  0.76331500  0.04606000  0.44351700  1
  C  C22  1  0.26331500  0.95394000  0.05648300  1
  C  C23  1  0.23668500  0.95394000  0.55648300  1
  C  C24  1  0.51387900  0.32871600  0.90153500  1
  C  C25  1  0.98612100  0.32871600  0.40153500  1
  C  C26  1  0.48612100  0.67128400  0.09846500  1
  C  C27  1  0.01387900  0.67128400  0.59846500  1
