# generated using pymatgen
data_Cu3NiC18
_symmetry_space_group_name_H-M   'P 1'
_cell_length_a   7.54476000
_cell_length_b   7.31508900
_cell_length_c   9.58000780
_cell_angle_alpha   68.03322302
_cell_angle_beta   90.00000000
_cell_angle_gamma   90.00000000
_symmetry_Int_Tables_number   1
_chemical_formula_structural   Cu3NiC18
_chemical_formula_sum   'Cu6 Ni2 C36'
_cell_volume   490.34124623
_cell_formula_units_Z   2
loop_
 _symmetry_equiv_pos_site_id
 _symmetry_equiv_pos_as_xyz
  1  'x, y, z'
loop_
 _atom_site_type_symbol
 _atom_site_label
 _atom_site_symmetry_multiplicity
 _atom_site_fract_x
 _atom_site_fract_y
 _atom_site_fract_z
 _atom_site_occupancy
  Ni  Ni0  1  0.00000000  0.50000000  0.00000000  1
  Ni  Ni1  1  0.50000000  0.50000000  0.50000000  1
  Cu  Cu2  1  0.12886000  0.81285000  0.52190800  1
  Cu  Cu3  1  0.62886000  0.18715000  0.97809200  1
  Cu  Cu4  1  0.87114000  0.18715000  0.47809200  1
  Cu  Cu5  1  0.37114000  0.81285000  0.02190800  1
  Cu  Cu6  1  0.00000000  0.00000000  0.00000000  1
  Cu  Cu7  1  0.50000000  0.00000000  0.50000000  1
  C  C8  1  0.92639300  0.41228100  0.70514200  1
  C  C9  1  0.42639300  0.58771900  0.79485800  1
  C  C10  1  0.07360700  0.58771900  0.29485800  1
  C  C11  1  0.57360700  0.41228100  0.20514200  1
  C  C12  1  0.20732900  0.13120800  0.68769800  1
  C  C13  1  0.70732900  0.86879200  0.81230200  1
  C  C14  1  0.79267100  0.86879200  0.31230200  1
  C  C15  1  0.29267100  0.13120800  0.18769800  1
  C  C16  1  0.38310200  0.19403000  0.60212300  1
  C  C17  1  0.88310200  0.80597000  0.89787700  1
  C  C18  1  0.61689800  0.80597000  0.39787700  1
  C  C19  1  0.11689800  0.19403000  0.10212300  1
  C  C20  1  0.38438200  0.71124700  0.62542000  1
  C  C21  1  0.88438200  0.28875300  0.87458000  1
  C  C22  1  0.61561800  0.28875300  0.37458000  1
  C  C23  1  0.11561800  0.71124700  0.12542000  1
  C  C24  1  0.79074200  0.38454100  0.59662200  1
  C  C25  1  0.29074200  0.61545900  0.90337800  1
  C  C26  1  0.20925800  0.61545900  0.40337800  1
  C  C27  1  0.70925800  0.38454100  0.09662200  1
  C  C28  1  0.11477800  0.33437900  0.67147300  1
  C  C29  1  0.61477800  0.66562100  0.82852700  1
  C  C30  1  0.88522200  0.66562100  0.32852700  1
  C  C31  1  0.38522200  0.33437900  0.17147300  1
  C  C32  1  0.52728800  0.62109800  0.19009900  1
  C  C33  1  0.02728800  0.37890200  0.30990100  1
  C  C34  1  0.47271200  0.37890200  0.80990100  1
  C  C35  1  0.97271200  0.62109800  0.69009900  1
  C  C36  1  0.78503900  0.98347400  0.14131500  1
  C  C37  1  0.28503900  0.01652600  0.35868500  1
  C  C38  1  0.21496100  0.01652600  0.85868500  1
  C  C39  1  0.71496100  0.98347400  0.64131500  1
  C  C40  1  0.41427500  0.03212000  0.10916300  1
  C  C41  1  0.91427500  0.96788000  0.39083700  1
  C  C42  1  0.58572500  0.96788000  0.89083700  1
  C  C43  1  0.08572500  0.03212000  0.60916300  1
