# generated using pymatgen
data_Cu8Ni4C9
_symmetry_space_group_name_H-M   'P 1'
_cell_length_a   7.02348681
_cell_length_b   8.08078662
_cell_length_c   8.08078662
_cell_angle_alpha   111.57231277
_cell_angle_beta   95.58530055
_cell_angle_gamma   95.58530055
_symmetry_Int_Tables_number   1
_chemical_formula_structural   Cu8Ni4C9
_chemical_formula_sum   'Cu16 Ni8 C18'
_cell_volume   420.06467133
_cell_formula_units_Z   2
loop_
 _symmetry_equiv_pos_site_id
 _symmetry_equiv_pos_as_xyz
  1  'x, y, z'
loop_
 _atom_site_type_symbol
 _atom_site_label
 _atom_site_symmetry_multiplicity
 _atom_site_fract_x
 _atom_site_fract_y
 _atom_site_fract_z
 _atom_site_occupancy
  C  C0  1  0.50000000  0.00000000  0.50000000  1
  C  C1  1  0.00000000  0.50000000  0.00000000  1
  C  C2  1  0.26662600  0.22733700  0.47650700  1
  C  C3  1  0.23337400  0.52349300  0.77266300  1
  C  C4  1  0.73337400  0.77266300  0.52349300  1
  C  C5  1  0.76662600  0.47650700  0.22733700  1
  C  C6  1  0.45349400  0.27853800  0.40412200  1
  C  C7  1  0.04650600  0.59587800  0.72146200  1
  C  C8  1  0.54650600  0.72146200  0.59587800  1
  C  C9  1  0.95349400  0.40412200  0.27853800  1
  C  C10  1  0.13628200  0.86110000  0.55505400  1
  C  C11  1  0.36371800  0.44494600  0.13890000  1
  C  C12  1  0.86371800  0.13890000  0.44494600  1
  C  C13  1  0.63628200  0.55505400  0.86110000  1
  C  C14  1  0.12929600  0.84604100  0.35084300  1
  C  C15  1  0.37070400  0.64915700  0.15395900  1
  C  C16  1  0.87070400  0.15395900  0.64915700  1
  C  C17  1  0.62929600  0.35084300  0.84604100  1
  Ni  Ni18  1  0.49244400  0.94985600  0.10097500  1
  Ni  Ni19  1  0.00755600  0.89902500  0.05014400  1
  Ni  Ni20  1  0.50755600  0.05014400  0.89902500  1
  Ni  Ni21  1  0.99244400  0.10097500  0.94985600  1
  Ni  Ni22  1  0.49858700  0.86955800  0.90626400  1
  Ni  Ni23  1  0.00141300  0.09373600  0.13044200  1
  Ni  Ni24  1  0.50141300  0.13044200  0.09373600  1
  Ni  Ni25  1  0.99858700  0.90626400  0.86955800  1
  Cu  Cu26  1  0.40790200  0.24318100  0.50179600  1
  Cu  Cu27  1  0.09209800  0.49820400  0.75681900  1
  Cu  Cu28  1  0.59209800  0.75681900  0.49820400  1
  Cu  Cu29  1  0.90790200  0.50179600  0.24318100  1
  Cu  Cu30  1  0.48294900  0.88293100  0.21905100  1
  Cu  Cu31  1  0.01705100  0.78094900  0.11706900  1
  Cu  Cu32  1  0.51705100  0.11706900  0.78094900  1
  Cu  Cu33  1  0.98294900  0.21905100  0.88293100  1
  Cu  Cu34  1  0.49822700  0.71098200  0.79499500  1
  Cu  Cu35  1  0.00177300  0.20500500  0.28901800  1
  Cu  Cu36  1  0.50177300  0.28901800  0.20500500  1
  Cu  Cu37  1  0.99822700  0.79499500  0.71098200  1
  Cu  Cu38  1  0.20843300  0.89602400  0.47113700  1
  Cu  Cu39  1  0.29156700  0.52886300  0.10397600  1
  Cu  Cu40  1  0.79156700  0.10397600  0.52886300  1
  Cu  Cu41  1  0.70843300  0.47113700  0.89602400  1
