# generated using pymatgen
data_Cu2NiC22
_symmetry_space_group_name_H-M   'P 1'
_cell_length_a   10.60076368
_cell_length_b   10.60076368
_cell_length_c   13.40915200
_cell_angle_alpha   90.00000000
_cell_angle_beta   90.00000000
_cell_angle_gamma   120.09537516
_symmetry_Int_Tables_number   1
_chemical_formula_structural   Cu2NiC22
_chemical_formula_sum   'Cu8 Ni4 C88'
_cell_volume   1303.73121542
_cell_formula_units_Z   4
loop_
 _symmetry_equiv_pos_site_id
 _symmetry_equiv_pos_as_xyz
  1  'x, y, z'
loop_
 _atom_site_type_symbol
 _atom_site_label
 _atom_site_symmetry_multiplicity
 _atom_site_fract_x
 _atom_site_fract_y
 _atom_site_fract_z
 _atom_site_occupancy
  Ni  Ni0  1  0.00123800  0.28883300  0.75000000  1
  Ni  Ni1  1  0.28883300  0.00123800  0.75000000  1
  Ni  Ni2  1  0.99876200  0.71116700  0.25000000  1
  Ni  Ni3  1  0.71116700  0.99876200  0.25000000  1
  C  C4  1  0.00000000  0.00000000  0.00000000  1
  C  C5  1  0.00000000  0.00000000  0.50000000  1
  C  C6  1  0.83140100  0.16859900  0.00000000  1
  C  C7  1  0.33766900  0.16937600  0.99919800  1
  C  C8  1  0.83062400  0.66233100  0.00080200  1
  C  C9  1  0.16937600  0.33766900  0.99919800  1
  C  C10  1  0.66233100  0.83062400  0.00080200  1
  C  C11  1  0.16859900  0.83140100  0.00000000  1
  C  C12  1  0.16859900  0.83140100  0.50000000  1
  C  C13  1  0.66233100  0.83062400  0.49919800  1
  C  C14  1  0.16937600  0.33766900  0.50080200  1
  C  C15  1  0.83062400  0.66233100  0.49919800  1
  C  C16  1  0.33766900  0.16937600  0.50080200  1
  C  C17  1  0.83140100  0.16859900  0.50000000  1
  C  C18  1  0.00000000  0.50000000  0.00000000  1
  C  C19  1  0.50000000  0.00000000  0.00000000  1
  C  C20  1  0.50000000  0.50000000  0.00000000  1
  C  C21  1  0.00000000  0.50000000  0.50000000  1
  C  C22  1  0.50000000  0.00000000  0.50000000  1
  C  C23  1  0.50000000  0.50000000  0.50000000  1
  C  C24  1  0.33365800  0.66701300  0.85395200  1
  C  C25  1  0.66701300  0.33365800  0.85395200  1
  C  C26  1  0.66634200  0.33298700  0.14604800  1
  C  C27  1  0.33298700  0.66634200  0.14604800  1
  C  C28  1  0.66634200  0.33298700  0.35395200  1
  C  C29  1  0.33298700  0.66634200  0.35395200  1
  C  C30  1  0.33365800  0.66701300  0.64604800  1
  C  C31  1  0.66701300  0.33365800  0.64604800  1
  Cu  Cu32  1  0.73102200  0.73102200  0.75000000  1
  Cu  Cu33  1  0.26897800  0.26897800  0.25000000  1
  Cu  Cu34  1  0.39837000  0.39837000  0.75000000  1
  Cu  Cu35  1  0.99610200  0.61391200  0.75000000  1
  Cu  Cu36  1  0.61391200  0.99610200  0.75000000  1
  Cu  Cu37  1  0.60163000  0.60163000  0.25000000  1
  Cu  Cu38  1  0.00389800  0.38608800  0.25000000  1
  Cu  Cu39  1  0.38608800  0.00389800  0.25000000  1
  C  C40  1  0.99931200  0.83083700  0.92531100  1
  C  C41  1  0.83083700  0.99931200  0.92531100  1
  C  C42  1  0.16853500  0.16853500  0.92394000  1
  C  C43  1  0.00068800  0.16916300  0.07468900  1
  C  C44  1  0.16916300  0.00068800  0.07468900  1
  C  C45  1  0.83146500  0.83146500  0.07606000  1
  C  C46  1  0.00068800  0.16916300  0.42531100  1
  C  C47  1  0.16916300  0.00068800  0.42531100  1
  C  C48  1  0.83146500  0.83146500  0.42394000  1
  C  C49  1  0.99931200  0.83083700  0.57468900  1
  C  C50  1  0.83083700  0.99931200  0.57468900  1
  C  C51  1  0.16853500  0.16853500  0.57606000  1
  C  C52  1  0.15800400  0.66639700  0.91771400  1
  C  C53  1  0.50889600  0.84221000  0.91682200  1
  C  C54  1  0.33502700  0.49323300  0.91681000  1
  C  C55  1  0.84221000  0.50889600  0.91682200  1
  C  C56  1  0.49323300  0.33502700  0.91681000  1
  C  C57  1  0.66639700  0.15800400  0.91771400  1
  C  C58  1  0.84199600  0.33360300  0.08228600  1
  C  C59  1  0.49110400  0.15779000  0.08317800  1
  C  C60  1  0.66497300  0.50676700  0.08319000  1
  C  C61  1  0.15779000  0.49110400  0.08317800  1
  C  C62  1  0.50676700  0.66497300  0.08319000  1
  C  C63  1  0.33360300  0.84199600  0.08228600  1
  C  C64  1  0.84199600  0.33360300  0.41771400  1
  C  C65  1  0.49110400  0.15779000  0.41682200  1
  C  C66  1  0.66497300  0.50676700  0.41681000  1
  C  C67  1  0.15779000  0.49110400  0.41682200  1
  C  C68  1  0.50676700  0.66497300  0.41681000  1
  C  C69  1  0.33360300  0.84199600  0.41771400  1
  C  C70  1  0.15800400  0.66639700  0.58228600  1
  C  C71  1  0.50889600  0.84221000  0.58317800  1
  C  C72  1  0.33502700  0.49323300  0.58319000  1
  C  C73  1  0.84221000  0.50889600  0.58317800  1
  C  C74  1  0.49323300  0.33502700  0.58319000  1
  C  C75  1  0.66639700  0.15800400  0.58228600  1
  C  C76  1  0.99941200  0.33349300  0.92033100  1
  C  C77  1  0.33349300  0.99941200  0.92033100  1
  C  C78  1  0.66706200  0.66706200  0.92423000  1
  C  C79  1  0.00058800  0.66650700  0.07966900  1
  C  C80  1  0.66650700  0.00058800  0.07966900  1
  C  C81  1  0.33293800  0.33293800  0.07577000  1
  C  C82  1  0.00058800  0.66650700  0.42033100  1
  C  C83  1  0.66650700  0.00058800  0.42033100  1
  C  C84  1  0.33293800  0.33293800  0.42423000  1
  C  C85  1  0.99941200  0.33349300  0.57966900  1
  C  C86  1  0.33349300  0.99941200  0.57966900  1
  C  C87  1  0.66706200  0.66706200  0.57577000  1
  C  C88  1  0.47854500  0.65800000  0.75000000  1
  C  C89  1  0.17042900  0.51864400  0.75000000  1
  C  C90  1  0.34669900  0.82922500  0.75000000  1
  C  C91  1  0.51864400  0.17042900  0.75000000  1
  C  C92  1  0.82922500  0.34669900  0.75000000  1
  C  C93  1  0.65800000  0.47854500  0.75000000  1
  C  C94  1  0.52145500  0.34200000  0.25000000  1
  C  C95  1  0.82957100  0.48135600  0.25000000  1
  C  C96  1  0.65330100  0.17077500  0.25000000  1
  C  C97  1  0.48135600  0.82957100  0.25000000  1
  C  C98  1  0.17077500  0.65330100  0.25000000  1
  C  C99  1  0.34200000  0.52145500  0.25000000  1
