# generated using pymatgen
data_Cu4NiC16
_symmetry_space_group_name_H-M   'P 1'
_cell_length_a   5.83955000
_cell_length_b   5.83955031
_cell_length_c   10.21105100
_cell_angle_alpha   90.00000000
_cell_angle_beta   90.00000000
_cell_angle_gamma   119.99999827
_symmetry_Int_Tables_number   1
_chemical_formula_structural   Cu4NiC16
_chemical_formula_sum   'Cu4 Ni1 C16'
_cell_volume   301.55037304
_cell_formula_units_Z   1
loop_
 _symmetry_equiv_pos_site_id
 _symmetry_equiv_pos_as_xyz
  1  'x, y, z'
loop_
 _atom_site_type_symbol
 _atom_site_label
 _atom_site_symmetry_multiplicity
 _atom_site_fract_x
 _atom_site_fract_y
 _atom_site_fract_z
 _atom_site_occupancy
  C  C0  1  0.66666700  0.33333300  0.75038700  1
  C  C1  1  0.33333300  0.66666700  0.25029900  1
  C  C2  1  0.00000000  0.00000000  0.44670600  1
  C  C3  1  0.00000000  0.00000000  0.05550000  1
  Ni  Ni4  1  0.00000000  0.00000000  0.75157700  1
  Cu  Cu5  1  0.33333300  0.66666700  0.89161600  1
  Cu  Cu6  1  0.66666700  0.33333300  0.38357600  1
  Cu  Cu7  1  0.66666700  0.33333300  0.11696300  1
  Cu  Cu8  1  0.33333300  0.66666700  0.60841800  1
  C  C9  1  0.18427700  0.36855400  0.74991500  1
  C  C10  1  0.81936200  0.18063800  0.25038900  1
  C  C11  1  0.36127800  0.18063800  0.25038900  1
  C  C12  1  0.63144600  0.81572300  0.74991500  1
  C  C13  1  0.18427700  0.81572300  0.74991500  1
  C  C14  1  0.81936200  0.63872200  0.25038900  1
  C  C15  1  0.50390900  0.00781900  0.50482900  1
  C  C16  1  0.50403000  0.49597000  0.99526900  1
  C  C17  1  0.50403000  0.00806000  0.99526900  1
  C  C18  1  0.50390900  0.49609100  0.50482900  1
  C  C19  1  0.99218100  0.49609100  0.50482900  1
  C  C20  1  0.99194000  0.49597000  0.99526900  1
