# generated using pymatgen
data_Cu10(NiC)3
_symmetry_space_group_name_H-M   'P 1'
_cell_length_a   7.91346189
_cell_length_b   7.91346189
_cell_length_c   8.05996100
_cell_angle_alpha   90.00000000
_cell_angle_beta   90.00000000
_cell_angle_gamma   119.99999910
_symmetry_Int_Tables_number   1
_chemical_formula_structural   Cu10(NiC)3
_chemical_formula_sum   'Cu20 Ni6 C6'
_cell_volume   437.11590257
_cell_formula_units_Z   2
loop_
 _symmetry_equiv_pos_site_id
 _symmetry_equiv_pos_as_xyz
  1  'x, y, z'
loop_
 _atom_site_type_symbol
 _atom_site_label
 _atom_site_symmetry_multiplicity
 _atom_site_fract_x
 _atom_site_fract_y
 _atom_site_fract_z
 _atom_site_occupancy
  Ni  Ni0  1  0.45376000  0.54624000  0.25000000  1
  Ni  Ni1  1  0.45376000  0.90752000  0.25000000  1
  Ni  Ni2  1  0.09248000  0.54624000  0.25000000  1
  Ni  Ni3  1  0.54624000  0.45376000  0.75000000  1
  Ni  Ni4  1  0.54624000  0.09248000  0.75000000  1
  Ni  Ni5  1  0.90752000  0.45376000  0.75000000  1
  Cu  Cu6  1  0.12045700  0.87954300  0.25000000  1
  Cu  Cu7  1  0.12045700  0.24091300  0.25000000  1
  Cu  Cu8  1  0.75908700  0.87954300  0.25000000  1
  Cu  Cu9  1  0.87954300  0.12045700  0.75000000  1
  Cu  Cu10  1  0.87954300  0.75908700  0.75000000  1
  Cu  Cu11  1  0.24091300  0.12045700  0.75000000  1
  Cu  Cu12  1  0.20948200  0.79051800  0.93355500  1
  Cu  Cu13  1  0.20948200  0.41896400  0.93355500  1
  Cu  Cu14  1  0.58103600  0.79051800  0.93355500  1
  Cu  Cu15  1  0.79051800  0.20948200  0.06644500  1
  Cu  Cu16  1  0.79051800  0.58103600  0.06644500  1
  Cu  Cu17  1  0.41896400  0.20948200  0.06644500  1
  Cu  Cu18  1  0.79051800  0.20948200  0.43355500  1
  Cu  Cu19  1  0.79051800  0.58103600  0.43355500  1
  Cu  Cu20  1  0.41896400  0.20948200  0.43355500  1
  Cu  Cu21  1  0.20948200  0.79051800  0.56644500  1
  Cu  Cu22  1  0.20948200  0.41896400  0.56644500  1
  Cu  Cu23  1  0.58103600  0.79051800  0.56644500  1
  Cu  Cu24  1  0.00000000  0.00000000  0.50000000  1
  Cu  Cu25  1  0.00000000  0.00000000  0.00000000  1
  C  C26  1  0.50000000  0.50000000  0.50000000  1
  C  C27  1  0.50000000  0.00000000  0.50000000  1
  C  C28  1  0.00000000  0.50000000  0.50000000  1
  C  C29  1  0.50000000  0.50000000  0.00000000  1
  C  C30  1  0.50000000  0.00000000  0.00000000  1
  C  C31  1  0.00000000  0.50000000  0.00000000  1
