# generated using pymatgen
data_Cu2Ni12C17
_symmetry_space_group_name_H-M   'P 1'
_cell_length_a   13.06221200
_cell_length_b   7.00377400
_cell_length_c   9.52042636
_cell_angle_alpha   72.04462215
_cell_angle_beta   90.00000000
_cell_angle_gamma   90.00000000
_symmetry_Int_Tables_number   1
_chemical_formula_structural   Cu2Ni12C17
_chemical_formula_sum   'Cu4 Ni24 C34'
_cell_volume   828.55497137
_cell_formula_units_Z   2
loop_
 _symmetry_equiv_pos_site_id
 _symmetry_equiv_pos_as_xyz
  1  'x, y, z'
loop_
 _atom_site_type_symbol
 _atom_site_label
 _atom_site_symmetry_multiplicity
 _atom_site_fract_x
 _atom_site_fract_y
 _atom_site_fract_z
 _atom_site_occupancy
  C  C0  1  0.12288900  0.68185600  0.57924000  1
  C  C1  1  0.62288900  0.31814400  0.92076000  1
  C  C2  1  0.87711100  0.31814400  0.42076000  1
  C  C3  1  0.37711100  0.68185600  0.07924000  1
  C  C4  1  0.50000000  0.00000000  0.50000000  1
  C  C5  1  0.00000000  0.00000000  0.00000000  1
  Ni  Ni6  1  0.43363800  0.54300600  0.70375000  1
  Ni  Ni7  1  0.93363800  0.45699400  0.79625000  1
  Ni  Ni8  1  0.56636200  0.45699400  0.29625000  1
  Ni  Ni9  1  0.06636200  0.54300600  0.20375000  1
  Ni  Ni10  1  0.23399400  0.14347100  0.11772500  1
  Ni  Ni11  1  0.73399400  0.85652900  0.38227500  1
  Ni  Ni12  1  0.76600600  0.85652900  0.88227500  1
  Ni  Ni13  1  0.26600600  0.14347100  0.61772500  1
  Ni  Ni14  1  0.41735400  0.07346600  0.24559500  1
  Ni  Ni15  1  0.91735400  0.92653400  0.25440500  1
  Ni  Ni16  1  0.58264600  0.92653400  0.75440500  1
  Ni  Ni17  1  0.08264600  0.07346600  0.74559500  1
  Ni  Ni18  1  0.32839400  0.00233700  0.36974800  1
  Ni  Ni19  1  0.82839400  0.99766300  0.13025200  1
  Ni  Ni20  1  0.67160600  0.99766300  0.63025200  1
  Ni  Ni21  1  0.17160600  0.00233700  0.86974800  1
  Ni  Ni22  1  0.55309200  0.65228300  0.34627300  1
  Ni  Ni23  1  0.05309200  0.34771700  0.15372700  1
  Ni  Ni24  1  0.44690800  0.34771700  0.65372700  1
  Ni  Ni25  1  0.94690800  0.65228300  0.84627300  1
  Ni  Ni26  1  0.60524900  0.67683400  0.56469600  1
  Ni  Ni27  1  0.10524900  0.32316600  0.93530400  1
  Ni  Ni28  1  0.39475100  0.32316600  0.43530400  1
  Ni  Ni29  1  0.89475100  0.67683400  0.06469600  1
  Cu  Cu30  1  0.30353200  0.22728500  0.98555300  1
  Cu  Cu31  1  0.80353200  0.77271500  0.51444700  1
  Cu  Cu32  1  0.69646800  0.77271500  0.01444700  1
  Cu  Cu33  1  0.19646800  0.22728500  0.48555300  1
  C  C34  1  0.25724800  0.45490300  0.90334800  1
  C  C35  1  0.75724800  0.54509700  0.59665200  1
  C  C36  1  0.74275200  0.54509700  0.09665200  1
  C  C37  1  0.24275200  0.45490300  0.40334800  1
  C  C38  1  0.41865200  0.22008300  0.06455500  1
  C  C39  1  0.91865200  0.77991700  0.43544500  1
  C  C40  1  0.58134800  0.77991700  0.93544500  1
  C  C41  1  0.08134800  0.22008300  0.56455500  1
  C  C42  1  0.45143100  0.39829900  0.73983400  1
  C  C43  1  0.95143100  0.60170100  0.76016600  1
  C  C44  1  0.54856900  0.60170100  0.26016600  1
  C  C45  1  0.04856900  0.39829900  0.23983400  1
  C  C46  1  0.29026000  0.06323800  0.89006000  1
  C  C47  1  0.79026000  0.93676200  0.60994000  1
  C  C48  1  0.70974000  0.93676200  0.10994000  1
  C  C49  1  0.20974000  0.06323800  0.39006000  1
  C  C50  1  0.43680600  0.23641300  0.51517300  1
  C  C51  1  0.93680600  0.76358700  0.98482700  1
  C  C52  1  0.56319400  0.76358700  0.48482700  1
  C  C53  1  0.06319400  0.23641300  0.01517300  1
  C  C54  1  0.40144200  0.97483800  0.34518300  1
  C  C55  1  0.90144200  0.02516200  0.15481700  1
  C  C56  1  0.59855800  0.02516200  0.65481700  1
  C  C57  1  0.09855800  0.97483800  0.84518300  1
  C  C58  1  0.42717200  0.80678400  0.64367900  1
  C  C59  1  0.92717200  0.19321600  0.85632100  1
  C  C60  1  0.57282800  0.19321600  0.35632100  1
  C  C61  1  0.07282800  0.80678400  0.14367900  1
