# generated using pymatgen
data_Cu2NiC12
_symmetry_space_group_name_H-M   'P 1'
_cell_length_a   5.94574147
_cell_length_b   5.94574147
_cell_length_c   14.67531200
_cell_angle_alpha   90.00000000
_cell_angle_beta   90.00000000
_cell_angle_gamma   119.99999406
_symmetry_Int_Tables_number   1
_chemical_formula_structural   Cu2NiC12
_chemical_formula_sum   'Cu4 Ni2 C24'
_cell_volume   449.29340449
_cell_formula_units_Z   2
loop_
 _symmetry_equiv_pos_site_id
 _symmetry_equiv_pos_as_xyz
  1  'x, y, z'
loop_
 _atom_site_type_symbol
 _atom_site_label
 _atom_site_symmetry_multiplicity
 _atom_site_fract_x
 _atom_site_fract_y
 _atom_site_fract_z
 _atom_site_occupancy
  C  C0  1  0.33333300  0.66666700  0.08916900  1
  C  C1  1  0.66666700  0.33333300  0.91083100  1
  C  C2  1  0.66666700  0.33333300  0.58916900  1
  C  C3  1  0.33333300  0.66666700  0.41083100  1
  C  C4  1  0.00000000  0.00000000  0.25000000  1
  C  C5  1  0.00000000  0.00000000  0.75000000  1
  Ni  Ni6  1  0.00000000  0.00000000  0.00000000  1
  Ni  Ni7  1  0.00000000  0.00000000  0.50000000  1
  Cu  Cu8  1  0.33333300  0.66666700  0.65158600  1
  Cu  Cu9  1  0.66666700  0.33333300  0.34841400  1
  Cu  Cu10  1  0.66666700  0.33333300  0.15158600  1
  Cu  Cu11  1  0.33333300  0.66666700  0.84841400  1
  C  C12  1  0.51844800  0.03689600  0.25000000  1
  C  C13  1  0.48155200  0.96310400  0.75000000  1
  C  C14  1  0.96310400  0.48155200  0.25000000  1
  C  C15  1  0.03689600  0.51844800  0.75000000  1
  C  C16  1  0.51844800  0.48155200  0.25000000  1
  C  C17  1  0.48155200  0.51844800  0.75000000  1
  C  C18  1  0.16911200  0.33822400  0.58438700  1
  C  C19  1  0.83088800  0.66177600  0.41561300  1
  C  C20  1  0.66177600  0.83088800  0.58438700  1
  C  C21  1  0.83088800  0.66177600  0.08438700  1
  C  C22  1  0.33822400  0.16911200  0.41561300  1
  C  C23  1  0.16911200  0.33822400  0.91561300  1
  C  C24  1  0.16911200  0.83088800  0.58438700  1
  C  C25  1  0.33822400  0.16911200  0.08438700  1
  C  C26  1  0.83088800  0.16911200  0.41561300  1
  C  C27  1  0.66177600  0.83088800  0.91561300  1
  C  C28  1  0.83088800  0.16911200  0.08438700  1
  C  C29  1  0.16911200  0.83088800  0.91561300  1
