# generated using pymatgen
data_Cu2NiC7
_symmetry_space_group_name_H-M   'P 1'
_cell_length_a   9.15973100
_cell_length_b   5.45729200
_cell_length_c   9.70314670
_cell_angle_alpha   77.71446246
_cell_angle_beta   90.00000000
_cell_angle_gamma   90.00000000
_symmetry_Int_Tables_number   1
_chemical_formula_structural   Cu2NiC7
_chemical_formula_sum   'Cu8 Ni4 C28'
_cell_volume   473.92674531
_cell_formula_units_Z   4
loop_
 _symmetry_equiv_pos_site_id
 _symmetry_equiv_pos_as_xyz
  1  'x, y, z'
loop_
 _atom_site_type_symbol
 _atom_site_label
 _atom_site_symmetry_multiplicity
 _atom_site_fract_x
 _atom_site_fract_y
 _atom_site_fract_z
 _atom_site_occupancy
  Ni  Ni0  1  0.50012000  0.54569000  0.24639400  1
  Ni  Ni1  1  0.00012000  0.95431000  0.75360600  1
  Ni  Ni2  1  0.49988000  0.45431000  0.75360600  1
  Ni  Ni3  1  0.99988000  0.04569000  0.24639400  1
  C  C4  1  0.65566800  0.03839500  0.24667700  1
  C  C5  1  0.15566800  0.46160500  0.75332300  1
  C  C6  1  0.34433200  0.96160500  0.75332300  1
  C  C7  1  0.84433200  0.53839500  0.24667700  1
  Cu  Cu8  1  0.33781000  0.18501900  0.05561700  1
  Cu  Cu9  1  0.83781000  0.31498100  0.94438300  1
  Cu  Cu10  1  0.66219000  0.81498100  0.94438300  1
  Cu  Cu11  1  0.16219000  0.68501900  0.05561700  1
  Cu  Cu12  1  0.34219100  0.76208200  0.45479700  1
  Cu  Cu13  1  0.84219100  0.73791800  0.54520300  1
  Cu  Cu14  1  0.65780900  0.23791800  0.54520300  1
  Cu  Cu15  1  0.15780900  0.26208200  0.45479700  1
  C  C16  1  0.28213100  0.50484300  0.38049400  1
  C  C17  1  0.78213100  0.99515700  0.61950600  1
  C  C18  1  0.71786900  0.49515700  0.61950600  1
  C  C19  1  0.21786900  0.00484300  0.38049400  1
  C  C20  1  0.31664900  0.84894800  0.10927600  1
  C  C21  1  0.81664900  0.65105200  0.89072400  1
  C  C22  1  0.68335100  0.15105200  0.89072400  1
  C  C23  1  0.18335100  0.34894800  0.10927600  1
  C  C24  1  0.98670100  0.29893600  0.37427500  1
  C  C25  1  0.48670100  0.20106400  0.62572500  1
  C  C26  1  0.01329900  0.70106400  0.62572500  1
  C  C27  1  0.51329900  0.79893600  0.37427500  1
  C  C28  1  0.00899900  0.77125800  0.14042800  1
  C  C29  1  0.50899900  0.72874200  0.85957200  1
  C  C30  1  0.99100100  0.22874200  0.85957200  1
  C  C31  1  0.49100100  0.27125800  0.14042800  1
  C  C32  1  0.33405800  0.24493300  0.86843600  1
  C  C33  1  0.83405800  0.25506700  0.13156400  1
  C  C34  1  0.66594200  0.75506700  0.13156400  1
  C  C35  1  0.16594200  0.74493300  0.86843600  1
  C  C36  1  0.33391800  0.68501800  0.64013500  1
  C  C37  1  0.83391800  0.81498200  0.35986500  1
  C  C38  1  0.66608200  0.31498200  0.35986500  1
  C  C39  1  0.16608200  0.18501800  0.64013500  1
