# generated using pymatgen
data_Cu3(NiC4)2
_symmetry_space_group_name_H-M   'P 1'
_cell_length_a   6.28198838
_cell_length_b   6.28198838
_cell_length_c   5.62336701
_cell_angle_alpha   68.78327582
_cell_angle_beta   68.78327582
_cell_angle_gamma   63.86673842
_symmetry_Int_Tables_number   1
_chemical_formula_structural   Cu3(NiC4)2
_chemical_formula_sum   'Cu3 Ni2 C8'
_cell_volume   180.20836083
_cell_formula_units_Z   1
loop_
 _symmetry_equiv_pos_site_id
 _symmetry_equiv_pos_as_xyz
  1  'x, y, z'
loop_
 _atom_site_type_symbol
 _atom_site_label
 _atom_site_symmetry_multiplicity
 _atom_site_fract_x
 _atom_site_fract_y
 _atom_site_fract_z
 _atom_site_occupancy
  Ni  Ni0  1  0.32835700  0.32835700  0.65717000  1
  Ni  Ni1  1  0.67164300  0.67164300  0.34283000  1
  Cu  Cu2  1  0.00000000  0.00000000  0.50000000  1
  Cu  Cu3  1  0.26689500  0.73310500  0.00000000  1
  Cu  Cu4  1  0.73310500  0.26689500  0.00000000  1
  C  C5  1  0.61540800  0.61540800  0.75804700  1
  C  C6  1  0.38459200  0.38459200  0.24195300  1
  C  C7  1  0.11778100  0.11778100  0.77914200  1
  C  C8  1  0.88221900  0.88221900  0.22085800  1
  C  C9  1  0.63578000  0.14916300  0.77871700  1
  C  C10  1  0.14916300  0.63578000  0.77871700  1
  C  C11  1  0.85083700  0.36422000  0.22128300  1
  C  C12  1  0.36422000  0.85083700  0.22128300  1
