# generated using pymatgen
data_CuNiC11
_symmetry_space_group_name_H-M   'P 1'
_cell_length_a   10.00057200
_cell_length_b   10.00057200
_cell_length_c   6.59183200
_cell_angle_alpha   90.00000000
_cell_angle_beta   90.00000000
_cell_angle_gamma   90.00000000
_symmetry_Int_Tables_number   1
_chemical_formula_structural   CuNiC11
_chemical_formula_sum   'Cu2 Ni2 C22'
_cell_volume   659.25861271
_cell_formula_units_Z   2
loop_
 _symmetry_equiv_pos_site_id
 _symmetry_equiv_pos_as_xyz
  1  'x, y, z'
loop_
 _atom_site_type_symbol
 _atom_site_label
 _atom_site_symmetry_multiplicity
 _atom_site_fract_x
 _atom_site_fract_y
 _atom_site_fract_z
 _atom_site_occupancy
  Ni  Ni0  1  0.00000000  0.50000000  0.75000000  1
  Ni  Ni1  1  0.50000000  0.00000000  0.25000000  1
  Cu  Cu2  1  0.50000000  0.50000000  0.00000000  1
  Cu  Cu3  1  0.00000000  0.00000000  0.50000000  1
  C  C4  1  0.50000000  0.50000000  0.50000000  1
  C  C5  1  0.00000000  0.00000000  0.00000000  1
  C  C6  1  0.58990700  0.35564300  0.28742500  1
  C  C7  1  0.91009300  0.85564300  0.78742500  1
  C  C8  1  0.35564300  0.41009300  0.71257500  1
  C  C9  1  0.14435700  0.91009300  0.21257500  1
  C  C10  1  0.41009300  0.64435700  0.28742500  1
  C  C11  1  0.08990700  0.14435700  0.78742500  1
  C  C12  1  0.64435700  0.58990700  0.71257500  1
  C  C13  1  0.85564300  0.08990700  0.21257500  1
  C  C14  1  0.95128000  0.34653000  0.87456200  1
  C  C15  1  0.54872000  0.84653000  0.37456200  1
  C  C16  1  0.34653000  0.04872000  0.12543800  1
  C  C17  1  0.15347000  0.54872000  0.62543800  1
  C  C18  1  0.04872000  0.65347000  0.87456200  1
  C  C19  1  0.45128000  0.15347000  0.37456200  1
  C  C20  1  0.65347000  0.95128000  0.12543800  1
  C  C21  1  0.84653000  0.45128000  0.62543800  1
  C  C22  1  0.15422700  0.65422700  0.75000000  1
  C  C23  1  0.34577300  0.15422700  0.25000000  1
  C  C24  1  0.65422700  0.84577300  0.25000000  1
  C  C25  1  0.84577300  0.34577300  0.75000000  1
