# generated using pymatgen
data_Cu8NiC16
_symmetry_space_group_name_H-M   'P 1'
_cell_length_a   7.19703000
_cell_length_b   7.19733000
_cell_length_c   8.92848300
_cell_angle_alpha   90.00000000
_cell_angle_beta   90.00000000
_cell_angle_gamma   90.00000000
_symmetry_Int_Tables_number   1
_chemical_formula_structural   Cu8NiC16
_chemical_formula_sum   'Cu8 Ni1 C16'
_cell_volume   462.49006168
_cell_formula_units_Z   1
loop_
 _symmetry_equiv_pos_site_id
 _symmetry_equiv_pos_as_xyz
  1  'x, y, z'
loop_
 _atom_site_type_symbol
 _atom_site_label
 _atom_site_symmetry_multiplicity
 _atom_site_fract_x
 _atom_site_fract_y
 _atom_site_fract_z
 _atom_site_occupancy
  Ni  Ni0  1  0.00000000  0.00000000  0.50000000  1
  Cu  Cu1  1  0.78099900  0.50000000  0.18006600  1
  Cu  Cu2  1  0.50000000  0.78128900  0.67999300  1
  Cu  Cu3  1  0.50000000  0.21871100  0.67999300  1
  Cu  Cu4  1  0.78099900  0.50000000  0.81993400  1
  Cu  Cu5  1  0.21900100  0.50000000  0.81993400  1
  Cu  Cu6  1  0.21900100  0.50000000  0.18006600  1
  Cu  Cu7  1  0.50000000  0.78128900  0.32000700  1
  Cu  Cu8  1  0.50000000  0.21871100  0.32000700  1
  C  C9  1  0.68586600  0.31405700  0.24988700  1
  C  C10  1  0.68586600  0.68594300  0.75011300  1
  C  C11  1  0.31413400  0.31405700  0.75011300  1
  C  C12  1  0.31413400  0.68594300  0.24988700  1
  C  C13  1  0.31413400  0.68594300  0.75011300  1
  C  C14  1  0.31413400  0.31405700  0.24988700  1
  C  C15  1  0.68586600  0.68594300  0.24988700  1
  C  C16  1  0.68586600  0.31405700  0.75011300  1
  C  C17  1  0.75216300  0.50000000  0.00000000  1
  C  C18  1  0.50000000  0.75142400  0.50000000  1
  C  C19  1  0.50000000  0.24857600  0.50000000  1
  C  C20  1  0.24783700  0.50000000  0.00000000  1
  C  C21  1  0.00000000  0.50000000  0.22224900  1
  C  C22  1  0.50000000  0.00000000  0.72274200  1
  C  C23  1  0.00000000  0.50000000  0.77775100  1
  C  C24  1  0.50000000  0.00000000  0.27725800  1
