# generated using pymatgen
data_Cu10NiC7
_symmetry_space_group_name_H-M   'P 1'
_cell_length_a   6.69254800
_cell_length_b   13.51190618
_cell_length_c   14.49746942
_cell_angle_alpha   107.69564173
_cell_angle_beta   90.00000000
_cell_angle_gamma   90.00000000
_symmetry_Int_Tables_number   1
_chemical_formula_structural   Cu10NiC7
_chemical_formula_sum   'Cu40 Ni4 C28'
_cell_volume   1248.96268916
_cell_formula_units_Z   4
loop_
 _symmetry_equiv_pos_site_id
 _symmetry_equiv_pos_as_xyz
  1  'x, y, z'
loop_
 _atom_site_type_symbol
 _atom_site_label
 _atom_site_symmetry_multiplicity
 _atom_site_fract_x
 _atom_site_fract_y
 _atom_site_fract_z
 _atom_site_occupancy
  C  C0  1  0.49748100  0.88264100  0.52092800  1
  C  C1  1  0.50251900  0.11735900  0.47907200  1
  C  C2  1  0.99748100  0.11735900  0.97907200  1
  C  C3  1  0.00251900  0.88264100  0.02092800  1
  C  C4  1  0.70782200  0.93547600  0.85588200  1
  C  C5  1  0.29217800  0.06452400  0.14411800  1
  C  C6  1  0.20782200  0.06452400  0.64411800  1
  C  C7  1  0.79217800  0.93547600  0.35588200  1
  C  C8  1  0.19241000  0.89125700  0.78577100  1
  C  C9  1  0.80759000  0.10874300  0.21422900  1
  C  C10  1  0.69241000  0.10874300  0.71422900  1
  C  C11  1  0.30759000  0.89125700  0.28577100  1
  C  C12  1  0.48156900  0.80203600  0.98132800  1
  C  C13  1  0.51843100  0.19796400  0.01867200  1
  C  C14  1  0.98156900  0.19796400  0.51867200  1
  C  C15  1  0.01843100  0.80203600  0.48132800  1
  C  C16  1  0.70625800  0.71956300  0.64085700  1
  C  C17  1  0.29374200  0.28043700  0.35914300  1
  C  C18  1  0.20625800  0.28043700  0.85914300  1
  C  C19  1  0.79374200  0.71956300  0.14085700  1
  C  C20  1  0.96509400  0.63482200  0.86244200  1
  C  C21  1  0.03490600  0.36517800  0.13755800  1
  C  C22  1  0.46509400  0.36517800  0.63755800  1
  C  C23  1  0.53490600  0.63482200  0.36244200  1
  C  C24  1  0.84860800  0.38527500  0.77988900  1
  C  C25  1  0.15139200  0.61472500  0.22011100  1
  C  C26  1  0.34860800  0.61472500  0.72011100  1
  C  C27  1  0.65139200  0.38527500  0.27988900  1
  Ni  Ni28  1  0.69949800  0.43502600  0.54903800  1
  Ni  Ni29  1  0.30050200  0.56497400  0.45096200  1
  Ni  Ni30  1  0.19949800  0.56497400  0.95096200  1
  Ni  Ni31  1  0.80050200  0.43502600  0.04903800  1
  Cu  Cu32  1  0.40802200  0.76807600  0.40894800  1
  Cu  Cu33  1  0.59197800  0.23192400  0.59105200  1
  Cu  Cu34  1  0.90802200  0.23192400  0.09105200  1
  Cu  Cu35  1  0.09197800  0.76807600  0.90894800  1
  Cu  Cu36  1  0.76951100  0.78819800  0.77410300  1
  Cu  Cu37  1  0.23048900  0.21180200  0.22589700  1
  Cu  Cu38  1  0.26951100  0.21180200  0.72589700  1
  Cu  Cu39  1  0.73048900  0.78819800  0.27410300  1
  Cu  Cu40  1  0.76008000  0.66313800  0.95555800  1
  Cu  Cu41  1  0.23992000  0.33686200  0.04444200  1
  Cu  Cu42  1  0.26008000  0.33686200  0.54444200  1
  Cu  Cu43  1  0.73992000  0.66313800  0.45555800  1
  Cu  Cu44  1  0.95051900  0.78634100  0.60857300  1
  Cu  Cu45  1  0.04948100  0.21365900  0.39142700  1
  Cu  Cu46  1  0.45051900  0.21365900  0.89142700  1
  Cu  Cu47  1  0.54948100  0.78634100  0.10857300  1
  Cu  Cu48  1  0.74908000  0.98687700  0.74592200  1
  Cu  Cu49  1  0.25092000  0.01312300  0.25407800  1
  Cu  Cu50  1  0.24908000  0.01312300  0.75407800  1
  Cu  Cu51  1  0.75092000  0.98687700  0.24592200  1
  Cu  Cu52  1  0.48559200  0.96105300  0.39776500  1
  Cu  Cu53  1  0.51440800  0.03894700  0.60223500  1
  Cu  Cu54  1  0.98559200  0.03894700  0.10223500  1
  Cu  Cu55  1  0.01440800  0.96105300  0.89776500  1
  Cu  Cu56  1  0.42510300  0.89997500  0.86311800  1
  Cu  Cu57  1  0.57489700  0.10002500  0.13688200  1
  Cu  Cu58  1  0.92510300  0.10002500  0.63688200  1
  Cu  Cu59  1  0.07489700  0.89997500  0.36311800  1
  Cu  Cu60  1  0.51730200  0.81525100  0.62161700  1
  Cu  Cu61  1  0.48269800  0.18474900  0.37838300  1
  Cu  Cu62  1  0.01730200  0.18474900  0.87838300  1
  Cu  Cu63  1  0.98269800  0.81525100  0.12161700  1
  Cu  Cu64  1  0.71347400  0.88619900  0.97985900  1
  Cu  Cu65  1  0.28652600  0.11380100  0.02014100  1
  Cu  Cu66  1  0.21347400  0.11380100  0.52014100  1
  Cu  Cu67  1  0.78652600  0.88619900  0.47985900  1
  Cu  Cu68  1  0.19966400  0.91171600  0.55201200  1
  Cu  Cu69  1  0.80033600  0.08828400  0.44798800  1
  Cu  Cu70  1  0.69966400  0.08828400  0.94798800  1
  Cu  Cu71  1  0.30033600  0.91171600  0.05201200  1
