# generated using pymatgen
data_Cu18Ni8C
_symmetry_space_group_name_H-M   'P 1'
_cell_length_a   6.83538300
_cell_length_b   8.30773500
_cell_length_c   15.29455579
_cell_angle_alpha   58.80409044
_cell_angle_beta   90.00000000
_cell_angle_gamma   90.00000000
_symmetry_Int_Tables_number   1
_chemical_formula_structural   Cu18Ni8C
_chemical_formula_sum   'Cu36 Ni16 C2'
_cell_volume   742.93741918
_cell_formula_units_Z   2
loop_
 _symmetry_equiv_pos_site_id
 _symmetry_equiv_pos_as_xyz
  1  'x, y, z'
loop_
 _atom_site_type_symbol
 _atom_site_label
 _atom_site_symmetry_multiplicity
 _atom_site_fract_x
 _atom_site_fract_y
 _atom_site_fract_z
 _atom_site_occupancy
  C  C0  1  0.50000000  0.00000000  0.50000000  1
  C  C1  1  0.00000000  0.00000000  0.00000000  1
  Ni  Ni2  1  0.72985900  0.37430600  0.16099200  1
  Ni  Ni3  1  0.77014100  0.37430600  0.66099200  1
  Ni  Ni4  1  0.27014100  0.62569400  0.83900800  1
  Ni  Ni5  1  0.22985900  0.62569400  0.33900800  1
  Ni  Ni6  1  0.23430100  0.22485700  0.31565600  1
  Ni  Ni7  1  0.26569900  0.22485700  0.81565600  1
  Ni  Ni8  1  0.76569900  0.77514300  0.68434400  1
  Ni  Ni9  1  0.73430100  0.77514300  0.18434400  1
  Ni  Ni10  1  0.75152500  0.34011900  0.44816000  1
  Ni  Ni11  1  0.74847500  0.34011900  0.94816000  1
  Ni  Ni12  1  0.24847500  0.65988100  0.55184000  1
  Ni  Ni13  1  0.25152500  0.65988100  0.05184000  1
  Ni  Ni14  1  0.78141900  0.89440600  0.38393200  1
  Ni  Ni15  1  0.71858100  0.89440600  0.88393200  1
  Ni  Ni16  1  0.21858100  0.10559400  0.61606800  1
  Ni  Ni17  1  0.28141900  0.10559400  0.11606800  1
  Cu  Cu18  1  0.21298000  0.04760200  0.37799800  1
  Cu  Cu19  1  0.28702000  0.04760200  0.87799800  1
  Cu  Cu20  1  0.78702000  0.95239800  0.62200200  1
  Cu  Cu21  1  0.71298000  0.95239800  0.12200200  1
  Cu  Cu22  1  0.11534600  0.31945800  0.24773900  1
  Cu  Cu23  1  0.38465400  0.31945800  0.74773900  1
  Cu  Cu24  1  0.88465400  0.68054200  0.75226100  1
  Cu  Cu25  1  0.61534600  0.68054200  0.25226100  1
  Cu  Cu26  1  0.38826200  0.29774500  0.32929100  1
  Cu  Cu27  1  0.11173800  0.29774500  0.82929100  1
  Cu  Cu28  1  0.61173800  0.70225500  0.67070900  1
  Cu  Cu29  1  0.88826200  0.70225500  0.17070900  1
  Cu  Cu30  1  0.86376100  0.46427300  0.43806100  1
  Cu  Cu31  1  0.63623900  0.46427300  0.93806100  1
  Cu  Cu32  1  0.13623900  0.53572700  0.56193900  1
  Cu  Cu33  1  0.36376100  0.53572700  0.06193900  1
  Cu  Cu34  1  0.59395200  0.30144700  0.50100400  1
  Cu  Cu35  1  0.90604800  0.30144700  0.00100400  1
  Cu  Cu36  1  0.40604800  0.69855300  0.49899600  1
  Cu  Cu37  1  0.09395200  0.69855300  0.99899600  1
  Cu  Cu38  1  0.78457800  0.24099200  0.40782700  1
  Cu  Cu39  1  0.71542200  0.24099200  0.90782700  1
  Cu  Cu40  1  0.21542200  0.75900800  0.59217300  1
  Cu  Cu41  1  0.28457800  0.75900800  0.09217300  1
  Cu  Cu42  1  0.79880700  0.82831600  0.48017000  1
  Cu  Cu43  1  0.70119300  0.82831600  0.98017000  1
  Cu  Cu44  1  0.20119300  0.17168400  0.51983000  1
  Cu  Cu45  1  0.29880700  0.17168400  0.01983000  1
  Cu  Cu46  1  0.89687200  0.85686300  0.33580900  1
  Cu  Cu47  1  0.60312800  0.85686300  0.83580900  1
  Cu  Cu48  1  0.10312800  0.14313700  0.66419100  1
  Cu  Cu49  1  0.39687200  0.14313700  0.16419100  1
  Cu  Cu50  1  0.63470600  0.00442500  0.34070100  1
  Cu  Cu51  1  0.86529400  0.00442500  0.84070100  1
  Cu  Cu52  1  0.36529400  0.99557500  0.65929900  1
  Cu  Cu53  1  0.13470600  0.99557500  0.15929900  1
