# generated using pymatgen
data_Cu6Ni2C5
_symmetry_space_group_name_H-M   'P 1'
_cell_length_a   9.08830129
_cell_length_b   9.08830129
_cell_length_c   11.25645594
_cell_angle_alpha   75.76773866
_cell_angle_beta   75.76773866
_cell_angle_gamma   37.04130818
_symmetry_Int_Tables_number   1
_chemical_formula_structural   Cu6Ni2C5
_chemical_formula_sum   'Cu12 Ni4 C10'
_cell_volume   540.92035922
_cell_formula_units_Z   2
loop_
 _symmetry_equiv_pos_site_id
 _symmetry_equiv_pos_as_xyz
  1  'x, y, z'
loop_
 _atom_site_type_symbol
 _atom_site_label
 _atom_site_symmetry_multiplicity
 _atom_site_fract_x
 _atom_site_fract_y
 _atom_site_fract_z
 _atom_site_occupancy
  C  C0  1  0.60077900  0.60077900  0.94793200  1
  C  C1  1  0.39922100  0.39922100  0.05206800  1
  C  C2  1  0.86995700  0.86995700  0.58498900  1
  C  C3  1  0.13004300  0.13004300  0.41501100  1
  C  C4  1  0.26012100  0.26012100  0.79089800  1
  C  C5  1  0.73987900  0.73987900  0.20910200  1
  C  C6  1  0.02554500  0.02554500  0.80241300  1
  C  C7  1  0.97445500  0.97445500  0.19758700  1
  C  C8  1  0.66464300  0.66464300  0.60965400  1
  C  C9  1  0.33535700  0.33535700  0.39034600  1
  Ni  Ni10  1  0.81840600  0.81840600  0.90025900  1
  Ni  Ni11  1  0.18159400  0.18159400  0.09974100  1
  Ni  Ni12  1  0.46020800  0.46020800  0.69048400  1
  Ni  Ni13  1  0.53979200  0.53979200  0.30951600  1
  Cu  Cu14  1  0.86318500  0.40104600  0.81651400  1
  Cu  Cu15  1  0.40104600  0.86318500  0.81651400  1
  Cu  Cu16  1  0.13681500  0.59895400  0.18348600  1
  Cu  Cu17  1  0.59895400  0.13681500  0.18348600  1
  Cu  Cu18  1  0.71345700  0.28654300  0.00000000  1
  Cu  Cu19  1  0.28654300  0.71345700  0.00000000  1
  Cu  Cu20  1  0.88880700  0.88880700  0.41238400  1
  Cu  Cu21  1  0.11119300  0.11119300  0.58761600  1
  Cu  Cu22  1  0.02843700  0.55231100  0.61188500  1
  Cu  Cu23  1  0.55231100  0.02843700  0.61188500  1
  Cu  Cu24  1  0.97156300  0.44768900  0.38811500  1
  Cu  Cu25  1  0.44768900  0.97156300  0.38811500  1
