# generated using pymatgen
data_Cu19NiC17
_symmetry_space_group_name_H-M   'P 1'
_cell_length_a   9.68526500
_cell_length_b   7.46574900
_cell_length_c   17.57936844
_cell_angle_alpha   65.91605408
_cell_angle_beta   90.00000000
_cell_angle_gamma   90.00000000
_symmetry_Int_Tables_number   1
_chemical_formula_structural   Cu19NiC17
_chemical_formula_sum   'Cu38 Ni2 C34'
_cell_volume   1160.47146609
_cell_formula_units_Z   2
loop_
 _symmetry_equiv_pos_site_id
 _symmetry_equiv_pos_as_xyz
  1  'x, y, z'
loop_
 _atom_site_type_symbol
 _atom_site_label
 _atom_site_symmetry_multiplicity
 _atom_site_fract_x
 _atom_site_fract_y
 _atom_site_fract_z
 _atom_site_occupancy
  C  C0  1  0.79811500  0.07058900  0.47217200  1
  C  C1  1  0.79811500  0.92941100  0.02782800  1
  C  C2  1  0.20188500  0.92941100  0.52782800  1
  C  C3  1  0.20188500  0.07058900  0.97217200  1
  C  C4  1  0.39298500  0.30088600  0.45790900  1
  C  C5  1  0.39298500  0.69911400  0.04209100  1
  C  C6  1  0.60701500  0.69911400  0.54209100  1
  C  C7  1  0.60701500  0.30088600  0.95790900  1
  C  C8  1  0.60086800  0.28385800  0.31968200  1
  C  C9  1  0.60086800  0.71614200  0.18031800  1
  C  C10  1  0.39913200  0.71614200  0.68031800  1
  C  C11  1  0.39913200  0.28385800  0.81968200  1
  C  C12  1  0.64895600  0.25917600  0.57360200  1
  C  C13  1  0.64895600  0.74082400  0.92639800  1
  C  C14  1  0.35104400  0.74082400  0.42639800  1
  C  C15  1  0.35104400  0.25917600  0.07360200  1
  C  C16  1  0.45399900  0.00000000  0.25000000  1
  C  C17  1  0.54600100  0.00000000  0.75000000  1
  C  C18  1  0.22952400  0.59431500  0.22621600  1
  C  C19  1  0.22952400  0.40568500  0.27378400  1
  C  C20  1  0.77047600  0.40568500  0.77378400  1
  C  C21  1  0.77047600  0.59431500  0.72621600  1
  C  C22  1  0.90966800  0.36200600  0.17553500  1
  C  C23  1  0.90966800  0.63799400  0.32446500  1
  C  C24  1  0.09033200  0.63799400  0.82446500  1
  C  C25  1  0.09033200  0.36200600  0.67553500  1
  C  C26  1  0.89159500  0.26566500  0.13089200  1
  C  C27  1  0.89159500  0.73433500  0.36910800  1
  C  C28  1  0.10840500  0.73433500  0.86910800  1
  C  C29  1  0.10840500  0.26566500  0.63089200  1
  C  C30  1  0.95774100  0.45246600  0.22162600  1
  C  C31  1  0.95774100  0.54753400  0.27837400  1
  C  C32  1  0.04225900  0.54753400  0.77837400  1
  C  C33  1  0.04225900  0.45246600  0.72162600  1
  Ni  Ni34  1  0.07998900  0.50000000  0.25000000  1
  Ni  Ni35  1  0.92001100  0.50000000  0.75000000  1
  Cu  Cu36  1  0.73626800  0.18907900  0.37853800  1
  Cu  Cu37  1  0.73626800  0.81092100  0.12146200  1
  Cu  Cu38  1  0.26373200  0.81092100  0.62146200  1
  Cu  Cu39  1  0.26373200  0.18907900  0.87853800  1
  Cu  Cu40  1  0.77423100  0.19552500  0.52824100  1
  Cu  Cu41  1  0.77423100  0.80447500  0.97175900  1
  Cu  Cu42  1  0.22576900  0.80447500  0.47175900  1
  Cu  Cu43  1  0.22576900  0.19552500  0.02824100  1
  Cu  Cu44  1  0.50108700  0.22932400  0.53557100  1
  Cu  Cu45  1  0.50108700  0.77067600  0.96442900  1
  Cu  Cu46  1  0.49891300  0.77067600  0.46442900  1
  Cu  Cu47  1  0.49891300  0.22932400  0.03557100  1
  Cu  Cu48  1  0.47421800  0.30738000  0.37574000  1
  Cu  Cu49  1  0.47421800  0.69262000  0.12426000  1
  Cu  Cu50  1  0.52578200  0.69262000  0.62426000  1
  Cu  Cu51  1  0.52578200  0.30738000  0.87574000  1
  Cu  Cu52  1  0.55343200  0.14643400  0.27309700  1
  Cu  Cu53  1  0.55343200  0.85356600  0.22690300  1
  Cu  Cu54  1  0.44656800  0.85356600  0.72690300  1
  Cu  Cu55  1  0.44656800  0.14643400  0.77309700  1
  Cu  Cu56  1  0.64283800  0.50000000  0.25000000  1
  Cu  Cu57  1  0.35716200  0.50000000  0.75000000  1
  Cu  Cu58  1  0.96979400  0.05476800  0.45828200  1
  Cu  Cu59  1  0.96979400  0.94523200  0.04171800  1
  Cu  Cu60  1  0.03020600  0.94523200  0.54171800  1
  Cu  Cu61  1  0.03020600  0.05476800  0.95828200  1
  Cu  Cu62  1  0.73265400  0.85435400  0.51940900  1
  Cu  Cu63  1  0.73265400  0.14564600  0.98059100  1
  Cu  Cu64  1  0.26734600  0.14564600  0.48059100  1
  Cu  Cu65  1  0.26734600  0.85435400  0.01940900  1
  Cu  Cu66  1  0.67084200  0.48646100  0.55835200  1
  Cu  Cu67  1  0.67084200  0.51353900  0.94164800  1
  Cu  Cu68  1  0.32915800  0.51353900  0.44164800  1
  Cu  Cu69  1  0.32915800  0.48646100  0.05835200  1
  Cu  Cu70  1  0.64739700  0.12254900  0.67256400  1
  Cu  Cu71  1  0.64739700  0.87745100  0.82743600  1
  Cu  Cu72  1  0.35260300  0.87745100  0.32743600  1
  Cu  Cu73  1  0.35260300  0.12254900  0.17256400  1
