# generated using pymatgen
data_Cu3(NiC4)2
_symmetry_space_group_name_H-M   'P 1'
_cell_length_a   5.93764778
_cell_length_b   5.93764778
_cell_length_c   5.46100627
_cell_angle_alpha   80.78259027
_cell_angle_beta   80.78259027
_cell_angle_gamma   63.13734179
_symmetry_Int_Tables_number   1
_chemical_formula_structural   Cu3(NiC4)2
_chemical_formula_sum   'Cu3 Ni2 C8'
_cell_volume   168.69307675
_cell_formula_units_Z   1
loop_
 _symmetry_equiv_pos_site_id
 _symmetry_equiv_pos_as_xyz
  1  'x, y, z'
loop_
 _atom_site_type_symbol
 _atom_site_label
 _atom_site_symmetry_multiplicity
 _atom_site_fract_x
 _atom_site_fract_y
 _atom_site_fract_z
 _atom_site_occupancy
  Ni  Ni0  1  0.29766700  0.29766700  0.08353300  1
  Ni  Ni1  1  0.70233300  0.70233300  0.91646700  1
  Cu  Cu2  1  0.00000000  0.00000000  0.00000000  1
  Cu  Cu3  1  0.74278400  0.25721600  0.50000000  1
  Cu  Cu4  1  0.25721600  0.74278400  0.50000000  1
  C  C5  1  0.60955700  0.60955700  0.62279300  1
  C  C6  1  0.39044300  0.39044300  0.37720700  1
  C  C7  1  0.10397300  0.10397300  0.63439000  1
  C  C8  1  0.89602700  0.89602700  0.36561000  1
  C  C9  1  0.10511900  0.64684400  0.86520700  1
  C  C10  1  0.64684400  0.10511900  0.86520700  1
  C  C11  1  0.35315600  0.89488100  0.13479300  1
  C  C12  1  0.89488100  0.35315600  0.13479300  1
