# generated using pymatgen
data_Cu2Ni4C21
_symmetry_space_group_name_H-M   'P 1'
_cell_length_a   11.70096102
_cell_length_b   11.70096102
_cell_length_c   6.86148989
_cell_angle_alpha   89.57869919
_cell_angle_beta   89.57869919
_cell_angle_gamma   119.86109020
_symmetry_Int_Tables_number   1
_chemical_formula_structural   Cu2Ni4C21
_chemical_formula_sum   'Cu4 Ni8 C42'
_cell_volume   814.61341321
_cell_formula_units_Z   2
loop_
 _symmetry_equiv_pos_site_id
 _symmetry_equiv_pos_as_xyz
  1  'x, y, z'
loop_
 _atom_site_type_symbol
 _atom_site_label
 _atom_site_symmetry_multiplicity
 _atom_site_fract_x
 _atom_site_fract_y
 _atom_site_fract_z
 _atom_site_occupancy
  Ni  Ni0  1  0.82630500  0.65496700  0.32277700  1
  Ni  Ni1  1  0.34614700  0.17391000  0.33090800  1
  Ni  Ni2  1  0.82305300  0.17172600  0.32470100  1
  Ni  Ni3  1  0.17391000  0.34614700  0.83090800  1
  Ni  Ni4  1  0.65496700  0.82630500  0.82277700  1
  Ni  Ni5  1  0.17172600  0.82305300  0.82470100  1
  Ni  Ni6  1  0.66476700  0.33456500  0.00286500  1
  Ni  Ni7  1  0.33456500  0.66476700  0.50286500  1
  Cu  Cu8  1  0.00109800  0.00082900  0.51266300  1
  Cu  Cu9  1  0.00082900  0.00109800  0.01266300  1
  Cu  Cu10  1  0.52440700  0.04960000  0.66285100  1
  Cu  Cu11  1  0.04960000  0.52440700  0.16285100  1
  C  C12  1  0.95331100  0.47619000  0.66573000  1
  C  C13  1  0.52149200  0.47602700  0.65542600  1
  C  C14  1  0.47619000  0.95331100  0.16573000  1
  C  C15  1  0.47602700  0.52149200  0.15542600  1
  C  C16  1  0.82153400  0.64843300  0.82832600  1
  C  C17  1  0.35240600  0.17355000  0.84225700  1
  C  C18  1  0.82100200  0.17344100  0.83524700  1
  C  C19  1  0.17355000  0.35240600  0.34225700  1
  C  C20  1  0.64843300  0.82153400  0.32832600  1
  C  C21  1  0.17344100  0.82100200  0.33524700  1
  C  C22  1  0.66543300  0.33459400  0.46273500  1
  C  C23  1  0.33459400  0.66543300  0.96273500  1
  C  C24  1  0.09552000  0.18565200  0.25108000  1
  C  C25  1  0.82160000  0.90650800  0.25750100  1
  C  C26  1  0.08664000  0.90525500  0.25276900  1
  C  C27  1  0.90650800  0.82160000  0.75750100  1
  C  C28  1  0.18565200  0.09552000  0.75108000  1
  C  C29  1  0.90525500  0.08664000  0.75276900  1
  C  C30  1  0.58168800  0.16688700  0.31873800  1
  C  C31  1  0.83039500  0.41710200  0.34193100  1
  C  C32  1  0.57880600  0.41968500  0.32440900  1
  C  C33  1  0.41710200  0.83039500  0.84193100  1
  C  C34  1  0.16688700  0.58168800  0.81873800  1
  C  C35  1  0.41968500  0.57880600  0.82440900  1
  C  C36  1  0.74506500  0.50538300  0.65385700  1
  C  C37  1  0.49883700  0.26173500  0.66020200  1
  C  C38  1  0.75900100  0.25683500  0.66047100  1
  C  C39  1  0.26173500  0.49883700  0.16020200  1
  C  C40  1  0.50538300  0.74506500  0.15385700  1
  C  C41  1  0.25683500  0.75900100  0.16047100  1
  C  C42  1  0.33869300  0.40005800  0.46470600  1
  C  C43  1  0.59852100  0.93261400  0.44248900  1
  C  C44  1  0.05927200  0.66696400  0.48043800  1
  C  C45  1  0.60176700  0.66046500  0.45952900  1
  C  C46  1  0.06497400  0.39510700  0.47978900  1
  C  C47  1  0.33284000  0.93669600  0.45047900  1
  C  C48  1  0.66046500  0.60176700  0.95952900  1
  C  C49  1  0.39510700  0.06497400  0.97978900  1
  C  C50  1  0.93669600  0.33284000  0.95047900  1
  C  C51  1  0.40005800  0.33869300  0.96470600  1
  C  C52  1  0.93261400  0.59852100  0.94248900  1
  C  C53  1  0.66696400  0.05927200  0.98043800  1
