# generated using pymatgen
data_Cu8NiC11
_symmetry_space_group_name_H-M   'P 1'
_cell_length_a   7.76644900
_cell_length_b   13.07866200
_cell_length_c   7.64059121
_cell_angle_alpha   90.00000000
_cell_angle_beta   100.69845301
_cell_angle_gamma   90.00000000
_symmetry_Int_Tables_number   1
_chemical_formula_structural   Cu8NiC11
_chemical_formula_sum   'Cu32 Ni4 C44'
_cell_volume   762.60106380
_cell_formula_units_Z   4
loop_
 _symmetry_equiv_pos_site_id
 _symmetry_equiv_pos_as_xyz
  1  'x, y, z'
loop_
 _atom_site_type_symbol
 _atom_site_label
 _atom_site_symmetry_multiplicity
 _atom_site_fract_x
 _atom_site_fract_y
 _atom_site_fract_z
 _atom_site_occupancy
  C  C0  1  0.83830700  0.39602800  0.31155900  1
  C  C1  1  0.16169300  0.89602800  0.18844100  1
  C  C2  1  0.16169300  0.60397200  0.68844100  1
  C  C3  1  0.83830700  0.10397200  0.81155900  1
  C  C4  1  0.81274900  0.16582100  0.42159000  1
  C  C5  1  0.18725100  0.66582100  0.07841000  1
  C  C6  1  0.18725100  0.83417900  0.57841000  1
  C  C7  1  0.81274900  0.33417900  0.92159000  1
  C  C8  1  0.24449100  0.42705000  0.45336200  1
  C  C9  1  0.75550900  0.92705000  0.04663800  1
  C  C10  1  0.75550900  0.57295000  0.54663800  1
  C  C11  1  0.24449100  0.07295000  0.95336200  1
  C  C12  1  0.31367200  0.04553000  0.45756000  1
  C  C13  1  0.68632800  0.54553000  0.04244000  1
  C  C14  1  0.68632800  0.95447000  0.54244000  1
  C  C15  1  0.31367200  0.45447000  0.95756000  1
  C  C16  1  0.50136600  0.11696400  0.49700300  1
  C  C17  1  0.49863400  0.61696400  0.00299700  1
  C  C18  1  0.49863400  0.88303600  0.50299700  1
  C  C19  1  0.50136600  0.38303600  0.99700300  1
  C  C20  1  0.33022000  0.14798200  0.32929600  1
  C  C21  1  0.66978000  0.64798200  0.17070400  1
  C  C22  1  0.66978000  0.85201800  0.67070400  1
  C  C23  1  0.33022000  0.35201800  0.82929600  1
  C  C24  1  0.31132800  0.16404400  0.54320400  1
  C  C25  1  0.68867200  0.66404400  0.95679600  1
  C  C26  1  0.68867200  0.83595600  0.45679600  1
  C  C27  1  0.31132800  0.33595600  0.04320400  1
  C  C28  1  0.72792700  0.18455300  0.13568600  1
  C  C29  1  0.27207300  0.68455300  0.36431400  1
  C  C30  1  0.27207300  0.81544700  0.86431400  1
  C  C31  1  0.72792700  0.31544700  0.63568600  1
  C  C32  1  0.95291200  0.04494400  0.30366600  1
  C  C33  1  0.04708800  0.54494400  0.19633400  1
  C  C34  1  0.04708800  0.95505600  0.69633400  1
  C  C35  1  0.95291200  0.45505600  0.80366600  1
  C  C36  1  0.07960100  0.30574000  0.53776500  1
  C  C37  1  0.92039900  0.80574000  0.96223500  1
  C  C38  1  0.92039900  0.69426000  0.46223500  1
  C  C39  1  0.07960100  0.19426000  0.03776500  1
  C  C40  1  0.51015900  0.43654500  0.38199200  1
  C  C41  1  0.48984100  0.93654500  0.11800800  1
  C  C42  1  0.48984100  0.56345500  0.61800800  1
  C  C43  1  0.51015900  0.06345500  0.88199200  1
  Ni  Ni44  1  0.36388700  0.11885500  0.45676700  1
  Ni  Ni45  1  0.63611300  0.61885500  0.04323300  1
  Ni  Ni46  1  0.63611300  0.88114500  0.54323300  1
  Ni  Ni47  1  0.36388700  0.38114500  0.95676700  1
  Cu  Cu48  1  0.67283600  0.16608800  0.23971800  1
  Cu  Cu49  1  0.32716400  0.66608800  0.26028200  1
  Cu  Cu50  1  0.32716400  0.83391200  0.76028200  1
  Cu  Cu51  1  0.67283600  0.33391200  0.73971800  1
  Cu  Cu52  1  0.98065100  0.10922600  0.38187800  1
  Cu  Cu53  1  0.01934900  0.60922600  0.11812200  1
  Cu  Cu54  1  0.01934900  0.89077400  0.61812200  1
  Cu  Cu55  1  0.98065100  0.39077400  0.88187800  1
  Cu  Cu56  1  0.72504500  0.10875000  0.55582100  1
  Cu  Cu57  1  0.27495500  0.60875000  0.94417900  1
  Cu  Cu58  1  0.27495500  0.89125000  0.44417900  1
  Cu  Cu59  1  0.72504500  0.39125000  0.05582100  1
  Cu  Cu60  1  0.86691400  0.27523600  0.48007500  1
  Cu  Cu61  1  0.13308600  0.77523600  0.01992500  1
  Cu  Cu62  1  0.13308600  0.72476400  0.51992500  1
  Cu  Cu63  1  0.86691400  0.22476400  0.98007500  1
  Cu  Cu64  1  0.31115000  0.51006200  0.58887500  1
  Cu  Cu65  1  0.68885000  0.01006200  0.91112500  1
  Cu  Cu66  1  0.68885000  0.48993800  0.41112500  1
  Cu  Cu67  1  0.31115000  0.98993800  0.08887500  1
  Cu  Cu68  1  0.20791500  0.32541700  0.56015600  1
  Cu  Cu69  1  0.79208500  0.82541700  0.93984400  1
  Cu  Cu70  1  0.79208500  0.67458300  0.43984400  1
  Cu  Cu71  1  0.20791500  0.17458300  0.06015600  1
  Cu  Cu72  1  0.07621200  0.45093300  0.32179500  1
  Cu  Cu73  1  0.92378800  0.95093300  0.17820500  1
  Cu  Cu74  1  0.92378800  0.54906700  0.67820500  1
  Cu  Cu75  1  0.07621200  0.04906700  0.82179500  1
  Cu  Cu76  1  0.39507400  0.39532400  0.35070600  1
  Cu  Cu77  1  0.60492600  0.89532400  0.14929400  1
  Cu  Cu78  1  0.60492600  0.60467600  0.64929400  1
  Cu  Cu79  1  0.39507400  0.10467600  0.85070600  1
