# generated using pymatgen
data_Cu2NiC10
_symmetry_space_group_name_H-M   'P 1'
_cell_length_a   3.83375500
_cell_length_b   3.84736500
_cell_length_c   12.19178600
_cell_angle_alpha   90.00000000
_cell_angle_beta   90.00000000
_cell_angle_gamma   90.00000000
_symmetry_Int_Tables_number   1
_chemical_formula_structural   Cu2NiC10
_chemical_formula_sum   'Cu2 Ni1 C10'
_cell_volume   179.82707332
_cell_formula_units_Z   1
loop_
 _symmetry_equiv_pos_site_id
 _symmetry_equiv_pos_as_xyz
  1  'x, y, z'
loop_
 _atom_site_type_symbol
 _atom_site_label
 _atom_site_symmetry_multiplicity
 _atom_site_fract_x
 _atom_site_fract_y
 _atom_site_fract_z
 _atom_site_occupancy
  C  C0  1  0.50000000  0.48459600  0.79294100  1
  C  C1  1  0.50000000  0.48459600  0.20705900  1
  C  C2  1  0.50000000  0.49882700  0.50000000  1
  Ni  Ni3  1  0.00000000  0.93192100  0.00000000  1
  Cu  Cu4  1  0.00000000  0.99645200  0.63867900  1
  Cu  Cu5  1  0.00000000  0.99645200  0.36132100  1
  C  C6  1  0.50000000  0.99790400  0.61950300  1
  C  C7  1  0.00000000  0.49762200  0.62013300  1
  C  C8  1  0.50000000  0.99790400  0.38049700  1
  C  C9  1  0.00000000  0.49762200  0.37986700  1
  C  C10  1  0.50000000  0.55882900  0.00000000  1
  C  C11  1  0.00000000  0.99863700  0.82591400  1
  C  C12  1  0.00000000  0.99863700  0.17408600  1
