# generated using pymatgen
data_Cu10Ni4C25
_symmetry_space_group_name_H-M   'P 1'
_cell_length_a   10.35930284
_cell_length_b   10.35930284
_cell_length_c   9.95338851
_cell_angle_alpha   84.48370312
_cell_angle_beta   84.48370312
_cell_angle_gamma   54.26365891
_symmetry_Int_Tables_number   1
_chemical_formula_structural   Cu10Ni4C25
_chemical_formula_sum   'Cu20 Ni8 C50'
_cell_volume   861.95827999
_cell_formula_units_Z   2
loop_
 _symmetry_equiv_pos_site_id
 _symmetry_equiv_pos_as_xyz
  1  'x, y, z'
loop_
 _atom_site_type_symbol
 _atom_site_label
 _atom_site_symmetry_multiplicity
 _atom_site_fract_x
 _atom_site_fract_y
 _atom_site_fract_z
 _atom_site_occupancy
  C  C0  1  0.89530800  0.10469200  0.25000000  1
  C  C1  1  0.10469200  0.89530800  0.75000000  1
  C  C2  1  0.77374700  0.59899700  0.68587100  1
  C  C3  1  0.40100300  0.22625300  0.81412900  1
  C  C4  1  0.22625300  0.40100300  0.31412900  1
  C  C5  1  0.59899700  0.77374700  0.18587100  1
  C  C6  1  0.14577200  0.20278400  0.63713100  1
  C  C7  1  0.79721600  0.85422800  0.86286900  1
  C  C8  1  0.85422800  0.79721600  0.36286900  1
  C  C9  1  0.20278400  0.14577200  0.13713100  1
  Ni  Ni10  1  0.90339100  0.26628700  0.91204500  1
  Ni  Ni11  1  0.73371300  0.09660900  0.58795500  1
  Ni  Ni12  1  0.09660900  0.73371300  0.08795500  1
  Ni  Ni13  1  0.26628700  0.90339100  0.41204500  1
  Ni  Ni14  1  0.57868900  0.10225500  0.12546900  1
  Ni  Ni15  1  0.89774500  0.42131100  0.37453100  1
  Ni  Ni16  1  0.42131100  0.89774500  0.87453100  1
  Ni  Ni17  1  0.10225500  0.57868900  0.62546900  1
  Cu  Cu18  1  0.69054800  0.27096600  0.01423700  1
  Cu  Cu19  1  0.72903400  0.30945200  0.48576300  1
  Cu  Cu20  1  0.30945200  0.72903400  0.98576300  1
  Cu  Cu21  1  0.27096600  0.69054800  0.51423700  1
  Cu  Cu22  1  0.16692300  0.41918500  0.02516300  1
  Cu  Cu23  1  0.58081500  0.83307700  0.47483700  1
  Cu  Cu24  1  0.83307700  0.58081500  0.97483700  1
  Cu  Cu25  1  0.41918500  0.16692300  0.52516300  1
  Cu  Cu26  1  0.08851900  0.38289500  0.91551100  1
  Cu  Cu27  1  0.61710500  0.91148100  0.58448900  1
  Cu  Cu28  1  0.91148100  0.61710500  0.08448900  1
  Cu  Cu29  1  0.38289500  0.08851900  0.41551100  1
  Cu  Cu30  1  0.51573700  0.34476400  0.27606900  1
  Cu  Cu31  1  0.65523600  0.48426300  0.22393100  1
  Cu  Cu32  1  0.48426300  0.65523600  0.72393100  1
  Cu  Cu33  1  0.34476400  0.51573700  0.77606900  1
  Cu  Cu34  1  0.40005800  0.51612400  0.34700000  1
  Cu  Cu35  1  0.48387600  0.59994200  0.15300000  1
  Cu  Cu36  1  0.59994200  0.48387600  0.65300000  1
  Cu  Cu37  1  0.51612400  0.40005800  0.84700000  1
  C  C38  1  0.01547600  0.13848700  0.78649800  1
  C  C39  1  0.86151300  0.98452400  0.71350200  1
  C  C40  1  0.98452400  0.86151300  0.21350200  1
  C  C41  1  0.13848700  0.01547600  0.28649800  1
  C  C42  1  0.89071100  0.43741900  0.86568500  1
  C  C43  1  0.56258100  0.10928900  0.63431500  1
  C  C44  1  0.10928900  0.56258100  0.13431500  1
  C  C45  1  0.43741900  0.89071100  0.36568500  1
  C  C46  1  0.98089100  0.18873600  0.06783500  1
  C  C47  1  0.81126400  0.01910900  0.43216500  1
  C  C48  1  0.01910900  0.81126400  0.93216500  1
  C  C49  1  0.18873600  0.98089100  0.56783500  1
  C  C50  1  0.59862500  0.07246800  0.95374700  1
  C  C51  1  0.92753200  0.40137500  0.54625300  1
  C  C52  1  0.40137500  0.92753200  0.04625300  1
  C  C53  1  0.07246800  0.59862500  0.45374700  1
  C  C54  1  0.38156700  0.20437900  0.17800200  1
  C  C55  1  0.79562100  0.61843300  0.32199800  1
  C  C56  1  0.61843300  0.79562100  0.82199800  1
  C  C57  1  0.20437900  0.38156700  0.67800200  1
  C  C58  1  0.67722900  0.91938800  0.21136400  1
  C  C59  1  0.08061200  0.32277100  0.28863600  1
  C  C60  1  0.32277100  0.08061200  0.78863600  1
  C  C61  1  0.91938800  0.67722900  0.71136400  1
  C  C62  1  0.65800100  0.20454200  0.15787700  1
  C  C63  1  0.79545800  0.34199900  0.34212300  1
  C  C64  1  0.34199900  0.79545800  0.84212300  1
  C  C65  1  0.20454200  0.65800100  0.65787700  1
  C  C66  1  0.71052200  0.31091000  0.92190500  1
  C  C67  1  0.68909000  0.28947800  0.57809500  1
  C  C68  1  0.28947800  0.68909000  0.07809500  1
  C  C69  1  0.31091000  0.71052200  0.42190500  1
  C  C70  1  0.18201700  0.33288500  0.97216100  1
  C  C71  1  0.66711500  0.81798300  0.52783900  1
  C  C72  1  0.81798300  0.66711500  0.02783900  1
  C  C73  1  0.33288500  0.18201700  0.47216100  1
  C  C74  1  0.42344600  0.41030700  0.34095700  1
  C  C75  1  0.58969300  0.57655400  0.15904300  1
  C  C76  1  0.57655400  0.58969300  0.65904300  1
  C  C77  1  0.41030700  0.42344600  0.84095700  1
