# generated using pymatgen
data_CuNiC5
_symmetry_space_group_name_H-M   'P 1'
_cell_length_a   7.66702439
_cell_length_b   7.66702439
_cell_length_c   10.05235300
_cell_angle_alpha   90.00000000
_cell_angle_beta   90.00000000
_cell_angle_gamma   120.00000332
_symmetry_Int_Tables_number   1
_chemical_formula_structural   CuNiC5
_chemical_formula_sum   'Cu6 Ni6 C30'
_cell_volume   511.74314893
_cell_formula_units_Z   6
loop_
 _symmetry_equiv_pos_site_id
 _symmetry_equiv_pos_as_xyz
  1  'x, y, z'
loop_
 _atom_site_type_symbol
 _atom_site_label
 _atom_site_symmetry_multiplicity
 _atom_site_fract_x
 _atom_site_fract_y
 _atom_site_fract_z
 _atom_site_occupancy
  Ni  Ni0  1  0.03994500  0.23763000  0.25631000  1
  Ni  Ni1  1  0.76237000  0.80231500  0.25631000  1
  Ni  Ni2  1  0.19768500  0.96005500  0.25631000  1
  Ni  Ni3  1  0.23763000  0.03994500  0.75631000  1
  Ni  Ni4  1  0.80231500  0.76237000  0.75631000  1
  Ni  Ni5  1  0.96005500  0.19768500  0.75631000  1
  Cu  Cu6  1  0.01948100  0.54166700  0.48535400  1
  Cu  Cu7  1  0.98051900  0.52218600  0.98535400  1
  Cu  Cu8  1  0.47781400  0.45833300  0.98535400  1
  Cu  Cu9  1  0.54166700  0.01948100  0.98535400  1
  Cu  Cu10  1  0.52218600  0.98051900  0.48535400  1
  Cu  Cu11  1  0.45833300  0.47781400  0.48535400  1
  C  C12  1  0.00000000  0.00000000  0.99964800  1
  C  C13  1  0.33333300  0.66666700  0.75720400  1
  C  C14  1  0.66666700  0.33333300  0.25720400  1
  C  C15  1  0.66666700  0.33333300  0.68588400  1
  C  C16  1  0.33333300  0.66666700  0.18588400  1
  C  C17  1  0.00000000  0.00000000  0.49964800  1
  C  C18  1  0.76744400  0.55075200  0.62812400  1
  C  C19  1  0.52308400  0.66610600  0.80762700  1
  C  C20  1  0.33389400  0.85697900  0.80762700  1
  C  C21  1  0.14302100  0.47691600  0.80762700  1
  C  C22  1  0.66610600  0.52308400  0.30762700  1
  C  C23  1  0.85697900  0.33389400  0.30762700  1
  C  C24  1  0.47691600  0.14302100  0.30762700  1
  C  C25  1  0.78330800  0.23255600  0.62812400  1
  C  C26  1  0.66666700  0.33333300  0.84021600  1
  C  C27  1  0.44924800  0.21669200  0.62812400  1
  C  C28  1  0.23255600  0.78330800  0.12812400  1
  C  C29  1  0.55075200  0.76744400  0.12812400  1
  C  C30  1  0.00000000  0.00000000  0.15481800  1
  C  C31  1  0.00000000  0.00000000  0.65481800  1
  C  C32  1  0.33333300  0.66666700  0.34021600  1
  C  C33  1  0.22106100  0.12506200  0.94565600  1
  C  C34  1  0.66666700  0.33333300  0.10121900  1
  C  C35  1  0.33333300  0.66666700  0.60121900  1
  C  C36  1  0.77893900  0.90400100  0.44565600  1
  C  C37  1  0.87493800  0.09599900  0.94565600  1
  C  C38  1  0.90400100  0.77893900  0.94565600  1
  C  C39  1  0.12506200  0.22106100  0.44565600  1
  C  C40  1  0.09599900  0.87493800  0.44565600  1
  C  C41  1  0.21669200  0.44924800  0.12812400  1
