# generated using pymatgen
data_CuNiC3
_symmetry_space_group_name_H-M   'P 1'
_cell_length_a   6.01765000
_cell_length_b   8.24291100
_cell_length_c   5.80432200
_cell_angle_alpha   90.00000000
_cell_angle_beta   90.00000000
_cell_angle_gamma   90.00000000
_symmetry_Int_Tables_number   1
_chemical_formula_structural   CuNiC3
_chemical_formula_sum   'Cu4 Ni4 C12'
_cell_volume   287.91151356
_cell_formula_units_Z   4
loop_
 _symmetry_equiv_pos_site_id
 _symmetry_equiv_pos_as_xyz
  1  'x, y, z'
loop_
 _atom_site_type_symbol
 _atom_site_label
 _atom_site_symmetry_multiplicity
 _atom_site_fract_x
 _atom_site_fract_y
 _atom_site_fract_z
 _atom_site_occupancy
  Ni  Ni0  1  0.05271700  0.25000000  0.99031100  1
  Ni  Ni1  1  0.44728300  0.75000000  0.49031100  1
  Ni  Ni2  1  0.55271700  0.25000000  0.50968900  1
  Ni  Ni3  1  0.94728300  0.75000000  0.00968900  1
  Cu  Cu4  1  0.00000000  0.00000000  0.50000000  1
  Cu  Cu5  1  0.00000000  0.50000000  0.50000000  1
  Cu  Cu6  1  0.50000000  0.00000000  0.00000000  1
  Cu  Cu7  1  0.50000000  0.50000000  0.00000000  1
  C  C8  1  0.06493800  0.75000000  0.62801200  1
  C  C9  1  0.18480400  0.56593800  0.18135100  1
  C  C10  1  0.18480400  0.93406200  0.18135100  1
  C  C11  1  0.31519600  0.06593800  0.68135100  1
  C  C12  1  0.31519600  0.43406200  0.68135100  1
  C  C13  1  0.43506200  0.25000000  0.12801200  1
  C  C14  1  0.56493800  0.75000000  0.87198800  1
  C  C15  1  0.68480400  0.93406200  0.31864900  1
  C  C16  1  0.68480400  0.56593800  0.31864900  1
  C  C17  1  0.81519600  0.06593800  0.81864900  1
  C  C18  1  0.81519600  0.43406200  0.81864900  1
  C  C19  1  0.93506200  0.25000000  0.37198800  1
