# generated using pymatgen
data_Cu(Ni7C2)2
_symmetry_space_group_name_H-M   'P 1'
_cell_length_a   11.07118907
_cell_length_b   11.63215278
_cell_length_c   11.79602197
_cell_angle_alpha   90.00000000
_cell_angle_beta   99.15663175
_cell_angle_gamma   90.00000000
_symmetry_Int_Tables_number   1
_chemical_formula_structural   Cu(Ni7C2)2
_chemical_formula_sum   'Cu8 Ni112 C32'
_cell_volume   1499.75445032
_cell_formula_units_Z   8
loop_
 _symmetry_equiv_pos_site_id
 _symmetry_equiv_pos_as_xyz
  1  'x, y, z'
loop_
 _atom_site_type_symbol
 _atom_site_label
 _atom_site_symmetry_multiplicity
 _atom_site_fract_x
 _atom_site_fract_y
 _atom_site_fract_z
 _atom_site_occupancy
  C  C0  1  0.23051353  0.93103110  0.37026356  1
  C  C1  1  0.73051353  0.56896890  0.87026356  1
  C  C2  1  0.76948647  0.06896890  0.62973644  1
  C  C3  1  0.26948647  0.43103110  0.12973644  1
  C  C4  1  0.74085929  0.66727482  0.41877198  1
  C  C5  1  0.24085929  0.83272518  0.91877198  1
  C  C6  1  0.25914071  0.33272518  0.58122802  1
  C  C7  1  0.75914071  0.16727482  0.08122802  1
  C  C8  1  0.09572879  0.06267680  0.30741841  1
  C  C9  1  0.59572879  0.43732320  0.80741841  1
  C  C10  1  0.90427121  0.93732320  0.69258159  1
  C  C11  1  0.40427121  0.56267680  0.19258159  1
  C  C12  1  0.23847879  0.91319153  0.55755329  1
  C  C13  1  0.73847879  0.58680847  0.05755329  1
  C  C14  1  0.76152121  0.08680847  0.44244671  1
  C  C15  1  0.26152121  0.41319153  0.94244671  1
  C  C16  1  0.37286496  0.93512410  0.25885826  1
  C  C17  1  0.87286496  0.56487590  0.75885826  1
  C  C18  1  0.62713504  0.06487590  0.74114174  1
  C  C19  1  0.12713504  0.43512410  0.24114174  1
  C  C20  1  0.73192581  0.47953917  0.43339353  1
  C  C21  1  0.23192581  0.02046083  0.93339353  1
  C  C22  1  0.26807419  0.52046083  0.56660647  1
  C  C23  1  0.76807419  0.97953917  0.06660647  1
  C  C24  1  0.61493378  0.73950065  0.53212031  1
  C  C25  1  0.11493378  0.76049935  0.03212031  1
  C  C26  1  0.38506622  0.26049935  0.46787969  1
  C  C27  1  0.88506622  0.23950065  0.96787969  1
  C  C28  1  0.93103842  0.71052599  0.39167592  1
  C  C29  1  0.43103842  0.78947401  0.89167592  1
  C  C30  1  0.06896158  0.28947401  0.60832408  1
  C  C31  1  0.56896158  0.21052599  0.10832408  1
  Ni  Ni32  1  0.41106868  0.84168830  0.23687824  1
  Ni  Ni33  1  0.91106868  0.65831170  0.73687824  1
  Ni  Ni34  1  0.58893132  0.15831170  0.76312176  1
  Ni  Ni35  1  0.08893132  0.34168830  0.26312176  1
  Ni  Ni36  1  0.07720951  0.95591304  0.29536397  1
  Ni  Ni37  1  0.57720951  0.54408696  0.79536397  1
  Ni  Ni38  1  0.92279049  0.04408696  0.70463603  1
  Ni  Ni39  1  0.42279049  0.45591304  0.20463603  1
  Ni  Ni40  1  0.29984643  0.58333417  0.13643278  1
  Ni  Ni41  1  0.79984643  0.91666583  0.63643278  1
  Ni  Ni42  1  0.70015357  0.41666583  0.86356722  1
  Ni  Ni43  1  0.20015357  0.08333417  0.36356722  1
  Ni  Ni44  1  0.40524758  0.60081211  0.28783303  1
  Ni  Ni45  1  0.90524758  0.89918789  0.78783303  1
  Ni  Ni46  1  0.59475242  0.39918789  0.71216697  1
  Ni  Ni47  1  0.09475242  0.10081211  0.21216697  1
  Ni  Ni48  1  0.47707088  0.59696365  0.13485717  1
  Ni  Ni49  1  0.97707088  0.90303635  0.63485717  1
  Ni  Ni50  1  0.52292912  0.40303635  0.86514283  1
  Ni  Ni51  1  0.02292912  0.09696365  0.36514283  1
  Ni  Ni52  1  0.08174636  0.51799760  0.27960921  1
  Ni  Ni53  1  0.58174636  0.98200240  0.77960921  1
  Ni  Ni54  1  0.91825364  0.48200240  0.72039079  1
  Ni  Ni55  1  0.41825364  0.01799760  0.22039079  1
  Ni  Ni56  1  0.39376548  0.94830993  0.36546492  1
  Ni  Ni57  1  0.89376548  0.55169007  0.86546492  1
  Ni  Ni58  1  0.60623452  0.05169007  0.63453508  1
  Ni  Ni59  1  0.10623452  0.44830993  0.13453508  1
  Ni  Ni60  1  0.26175583  0.93819651  0.21998435  1
  Ni  Ni61  1  0.76175583  0.56180349  0.71998435  1
  Ni  Ni62  1  0.73824417  0.06180349  0.78001565  1
  Ni  Ni63  1  0.23824417  0.43819651  0.28001565  1
  Ni  Ni64  1  0.02555952  0.66718024  0.43756361  1
  Ni  Ni65  1  0.52555952  0.83281976  0.93756361  1
  Ni  Ni66  1  0.97444048  0.33281976  0.56243639  1
  Ni  Ni67  1  0.47444048  0.16718024  0.06243639  1
  Ni  Ni68  1  0.77389717  0.68154420  0.08972940  1
  Ni  Ni69  1  0.27389717  0.81845580  0.58972940  1
  Ni  Ni70  1  0.22610283  0.31845580  0.91027060  1
  Ni  Ni71  1  0.72610283  0.18154420  0.41027060  1
  Ni  Ni72  1  0.71660231  0.51867737  0.12896193  1
  Ni  Ni73  1  0.21660231  0.98132263  0.62896193  1
  Ni  Ni74  1  0.28339769  0.48132263  0.87103807  1
  Ni  Ni75  1  0.78339769  0.01867737  0.37103807  1
  Ni  Ni76  1  0.58310035  0.65828480  0.46571402  1
  Ni  Ni77  1  0.08310035  0.84171520  0.96571402  1
  Ni  Ni78  1  0.41689965  0.34171520  0.53428598  1
  Ni  Ni79  1  0.91689965  0.15828480  0.03428598  1
  Ni  Ni80  1  0.84691772  0.93233946  0.02426934  1
  Ni  Ni81  1  0.34691772  0.56766054  0.52426934  1
  Ni  Ni82  1  0.15308228  0.06766054  0.97573066  1
  Ni  Ni83  1  0.65308228  0.43233946  0.47573066  1
  Ni  Ni84  1  0.69079918  0.92326818  0.10201863  1
  Ni  Ni85  1  0.19079918  0.57673182  0.60201863  1
  Ni  Ni86  1  0.30920082  0.07673182  0.89798137  1
  Ni  Ni87  1  0.80920082  0.42326818  0.39798137  1
  Ni  Ni88  1  0.93509962  0.79152707  0.32815416  1
  Ni  Ni89  1  0.43509962  0.70847293  0.82815416  1
  Ni  Ni90  1  0.06490038  0.20847293  0.67184584  1
  Ni  Ni91  1  0.56490038  0.29152707  0.17184584  1
  Ni  Ni92  1  0.10143125  0.79120740  0.12756190  1
  Ni  Ni93  1  0.60143125  0.70879260  0.62756190  1
  Ni  Ni94  1  0.89856875  0.20879260  0.87243810  1
  Ni  Ni95  1  0.39856875  0.29120740  0.37243810  1
  Ni  Ni96  1  0.78806603  0.54504493  0.50933798  1
  Ni  Ni97  1  0.28806603  0.95495507  0.00933798  1
  Ni  Ni98  1  0.21193397  0.45495507  0.49066202  1
  Ni  Ni99  1  0.71193397  0.04504493  0.99066202  1
  Ni  Ni100  1  0.67715469  0.53639209  0.34960404  1
  Ni  Ni101  1  0.17715469  0.96360791  0.84960404  1
  Ni  Ni102  1  0.32284531  0.46360791  0.65039596  1
  Ni  Ni103  1  0.82284531  0.03639209  0.15039596  1
  Ni  Ni104  1  0.20438522  0.67804298  0.34135938  1
  Ni  Ni105  1  0.70438522  0.82195702  0.84135938  1
  Ni  Ni106  1  0.79561478  0.32195702  0.65864062  1
  Ni  Ni107  1  0.29561478  0.17804298  0.15864062  1
  Ni  Ni108  1  0.69433932  0.73358539  0.21014642  1
  Ni  Ni109  1  0.19433932  0.76641461  0.71014642  1
  Ni  Ni110  1  0.30566068  0.26641461  0.78985358  1
  Ni  Ni111  1  0.80566068  0.23358539  0.28985358  1
  Ni  Ni112  1  0.69446522  0.84515754  0.29565787  1
  Ni  Ni113  1  0.19446522  0.65484246  0.79565787  1
  Ni  Ni114  1  0.30553478  0.15484246  0.70434213  1
  Ni  Ni115  1  0.80553478  0.34515754  0.20434213  1
  Ni  Ni116  1  0.57336070  0.76123724  0.27276100  1
  Ni  Ni117  1  0.07336070  0.73876276  0.77276100  1
  Ni  Ni118  1  0.42663930  0.23876276  0.72723900  1
  Ni  Ni119  1  0.92663930  0.26123724  0.22723900  1
  Ni  Ni120  1  0.88212048  0.74530351  0.47420935  1
  Ni  Ni121  1  0.38212048  0.75469649  0.97420935  1
  Ni  Ni122  1  0.11787952  0.25469649  0.52579065  1
  Ni  Ni123  1  0.61787952  0.24530351  0.02579065  1
  Ni  Ni124  1  0.22752347  0.74145358  0.04052005  1
  Ni  Ni125  1  0.72752347  0.75854642  0.54052005  1
  Ni  Ni126  1  0.77247653  0.25854642  0.95947995  1
  Ni  Ni127  1  0.27247653  0.24145358  0.45947995  1
  Ni  Ni128  1  0.87079087  0.63201530  0.33774451  1
  Ni  Ni129  1  0.37079087  0.86798470  0.83774451  1
  Ni  Ni130  1  0.12920913  0.36798470  0.66225549  1
  Ni  Ni131  1  0.62920913  0.13201530  0.16225549  1
  Ni  Ni132  1  0.56287837  0.82647009  0.49587201  1
  Ni  Ni133  1  0.06287837  0.67352991  0.99587201  1
  Ni  Ni134  1  0.43712163  0.17352991  0.50412799  1
  Ni  Ni135  1  0.93712163  0.32647009  0.00412799  1
  Ni  Ni136  1  0.14063303  0.90526703  0.48930074  1
  Ni  Ni137  1  0.64063303  0.59473297  0.98930074  1
  Ni  Ni138  1  0.85936697  0.09473297  0.51069926  1
  Ni  Ni139  1  0.35936697  0.40526703  0.01069926  1
  Ni  Ni140  1  0.82156834  0.54185222  0.01251213  1
  Ni  Ni141  1  0.32156834  0.95814778  0.51251213  1
  Ni  Ni142  1  0.17843166  0.45814778  0.98748787  1
  Ni  Ni143  1  0.67843166  0.04185222  0.48748787  1
  Cu  Cu144  1  0.20789374  0.76671232  0.34517728  1
  Cu  Cu145  1  0.70789374  0.73328768  0.84517728  1
  Cu  Cu146  1  0.79210626  0.23328768  0.65482272  1
  Cu  Cu147  1  0.29210626  0.26671232  0.15482272  1
  Cu  Cu148  1  0.66745724  0.76077397  0.28557225  1
  Cu  Cu149  1  0.16745724  0.73922603  0.78557225  1
  Cu  Cu150  1  0.33254276  0.23922603  0.71442775  1
  Cu  Cu151  1  0.83254276  0.26077397  0.21442775  1
