# generated using pymatgen
data_CuNiC8
_symmetry_space_group_name_H-M   'P 1'
_cell_length_a   5.30759000
_cell_length_b   5.52152600
_cell_length_c   7.60387000
_cell_angle_alpha   90.00000000
_cell_angle_beta   90.00000000
_cell_angle_gamma   90.00000000
_symmetry_Int_Tables_number   1
_chemical_formula_structural   CuNiC8
_chemical_formula_sum   'Cu2 Ni2 C16'
_cell_volume   222.83898519
_cell_formula_units_Z   2
loop_
 _symmetry_equiv_pos_site_id
 _symmetry_equiv_pos_as_xyz
  1  'x, y, z'
loop_
 _atom_site_type_symbol
 _atom_site_label
 _atom_site_symmetry_multiplicity
 _atom_site_fract_x
 _atom_site_fract_y
 _atom_site_fract_z
 _atom_site_occupancy
  Ni  Ni0  1  0.49355700  0.71307400  0.50000000  1
  Ni  Ni1  1  0.99355700  0.28692600  0.00000000  1
  Cu  Cu2  1  0.01928900  0.17571700  0.50000000  1
  Cu  Cu3  1  0.51928900  0.82428300  0.00000000  1
  C  C4  1  0.51247000  0.26534100  0.75287000  1
  C  C5  1  0.01247000  0.73465900  0.25287000  1
  C  C6  1  0.51247000  0.26534100  0.24713000  1
  C  C7  1  0.01247000  0.73465900  0.74713000  1
  C  C8  1  0.18627100  0.44161700  0.69371300  1
  C  C9  1  0.27873000  0.96373400  0.29315700  1
  C  C10  1  0.77873000  0.03626600  0.20684300  1
  C  C11  1  0.68627100  0.55838300  0.80628700  1
  C  C12  1  0.77873000  0.03626600  0.79315700  1
  C  C13  1  0.68627100  0.55838300  0.19371300  1
  C  C14  1  0.18627100  0.44161700  0.30628700  1
  C  C15  1  0.27873000  0.96373400  0.70684300  1
  C  C16  1  0.92093200  0.77907600  0.50000000  1
  C  C17  1  0.61127900  0.27637700  0.50000000  1
  C  C18  1  0.11127900  0.72362300  0.00000000  1
  C  C19  1  0.42093200  0.22092400  0.00000000  1
