# generated using pymatgen
data_Cu4NiC21
_symmetry_space_group_name_H-M   'P 1'
_cell_length_a   12.82905816
_cell_length_b   12.82905816
_cell_length_c   12.82905816
_cell_angle_alpha   155.81683338
_cell_angle_beta   155.81683338
_cell_angle_gamma   34.46408979
_symmetry_Int_Tables_number   1
_chemical_formula_structural   Cu4NiC21
_chemical_formula_sum   'Cu4 Ni1 C21'
_cell_volume   353.96724789
_cell_formula_units_Z   1
loop_
 _symmetry_equiv_pos_site_id
 _symmetry_equiv_pos_as_xyz
  1  'x, y, z'
loop_
 _atom_site_type_symbol
 _atom_site_label
 _atom_site_symmetry_multiplicity
 _atom_site_fract_x
 _atom_site_fract_y
 _atom_site_fract_z
 _atom_site_occupancy
  C  C0  1  0.39240900  0.89240900  0.50000000  1
  C  C1  1  0.89240900  0.39240900  0.50000000  1
  C  C2  1  0.10759100  0.60759100  0.50000000  1
  C  C3  1  0.60759100  0.10759100  0.50000000  1
  C  C4  1  0.25000000  0.75000000  0.50000000  1
  C  C5  1  0.75000000  0.25000000  0.50000000  1
  Ni  Ni6  1  0.50000000  0.50000000  0.00000000  1
  Cu  Cu7  1  0.82226200  0.82226200  0.00000000  1
  Cu  Cu8  1  0.32043500  0.32043500  0.00000000  1
  Cu  Cu9  1  0.67956500  0.67956500  0.00000000  1
  Cu  Cu10  1  0.17773800  0.17773800  0.00000000  1
  C  C11  1  0.00000000  0.00000000  0.00000000  1
  C  C12  1  0.06530200  0.06530200  0.50064000  1
  C  C13  1  0.56466200  0.56466200  0.49936000  1
  C  C14  1  0.06530200  0.56466200  0.00000000  1
  C  C15  1  0.56466200  0.06530200  0.00000000  1
  C  C16  1  0.93469800  0.93469800  0.49936000  1
  C  C17  1  0.43533800  0.43533800  0.50064000  1
  C  C18  1  0.93469800  0.43533800  0.00000000  1
  C  C19  1  0.43533800  0.93469800  0.00000000  1
  C  C20  1  0.91288000  0.91288000  0.00000000  1
  C  C21  1  0.41506000  0.41506000  0.00000000  1
  C  C22  1  0.58494000  0.58494000  0.00000000  1
  C  C23  1  0.08712000  0.08712000  0.00000000  1
  C  C24  1  0.00000000  0.50000000  0.50000000  1
  C  C25  1  0.50000000  0.00000000  0.50000000  1
