# generated using pymatgen
data_CuNiC15
_symmetry_space_group_name_H-M   'P 1'
_cell_length_a   8.77392956
_cell_length_b   8.77392956
_cell_length_c   8.77392939
_cell_angle_alpha   58.84073487
_cell_angle_beta   58.84073487
_cell_angle_gamma   58.84073558
_symmetry_Int_Tables_number   1
_chemical_formula_structural   CuNiC15
_chemical_formula_sum   'Cu2 Ni2 C30'
_cell_volume   464.96229280
_cell_formula_units_Z   2
loop_
 _symmetry_equiv_pos_site_id
 _symmetry_equiv_pos_as_xyz
  1  'x, y, z'
loop_
 _atom_site_type_symbol
 _atom_site_label
 _atom_site_symmetry_multiplicity
 _atom_site_fract_x
 _atom_site_fract_y
 _atom_site_fract_z
 _atom_site_occupancy
  Ni  Ni0  1  0.86063700  0.86063700  0.86063700  1
  Ni  Ni1  1  0.36063700  0.36063700  0.36063700  1
  Cu  Cu2  1  0.64237000  0.64237000  0.64237000  1
  Cu  Cu3  1  0.14237000  0.14237000  0.14237000  1
  C  C4  1  0.25741300  0.96432900  0.52894600  1
  C  C5  1  0.96432900  0.52894600  0.25741300  1
  C  C6  1  0.52894600  0.25741300  0.96432900  1
  C  C7  1  0.46432900  0.75741300  0.02894600  1
  C  C8  1  0.02894600  0.46432900  0.75741300  1
  C  C9  1  0.75741300  0.02894600  0.46432900  1
  C  C10  1  0.72309900  0.85950800  0.49204600  1
  C  C11  1  0.49204600  0.72309900  0.85950800  1
  C  C12  1  0.08500900  0.93515600  0.71097300  1
  C  C13  1  0.85950800  0.49204600  0.72309900  1
  C  C14  1  0.22309900  0.99204600  0.35950800  1
  C  C15  1  0.42875800  0.78076900  0.55516600  1
  C  C16  1  0.93515600  0.71097300  0.08500900  1
  C  C17  1  0.78076900  0.55516600  0.42875800  1
  C  C18  1  0.63393600  0.79243800  0.99770500  1
  C  C19  1  0.55516600  0.42875800  0.78076900  1
  C  C20  1  0.28076900  0.92875800  0.05516600  1
  C  C21  1  0.99770500  0.63393600  0.79243800  1
  C  C22  1  0.99204600  0.35950800  0.22309900  1
  C  C23  1  0.71097300  0.08500900  0.93515600  1
  C  C24  1  0.43515600  0.58500900  0.21097300  1
  C  C25  1  0.35950800  0.22309900  0.99204600  1
  C  C26  1  0.21097300  0.43515600  0.58500900  1
  C  C27  1  0.05516600  0.28076900  0.92875800  1
  C  C28  1  0.58500900  0.21097300  0.43515600  1
  C  C29  1  0.79243800  0.99770500  0.63393600  1
  C  C30  1  0.13393600  0.49770500  0.29243800  1
  C  C31  1  0.92875800  0.05516600  0.28076900  1
  C  C32  1  0.49770500  0.29243800  0.13393600  1
  C  C33  1  0.29243800  0.13393600  0.49770500  1
