# generated using pymatgen
data_Cu2(NiC5)3
_symmetry_space_group_name_H-M   'P 1'
_cell_length_a   11.32427462
_cell_length_b   11.32427462
_cell_length_c   11.32427462
_cell_angle_alpha   109.47122063
_cell_angle_beta   109.47122063
_cell_angle_gamma   109.47122063
_symmetry_Int_Tables_number   1
_chemical_formula_structural   Cu2(NiC5)3
_chemical_formula_sum   'Cu8 Ni12 C60'
_cell_volume   1117.91629692
_cell_formula_units_Z   4
loop_
 _symmetry_equiv_pos_site_id
 _symmetry_equiv_pos_as_xyz
  1  'x, y, z'
loop_
 _atom_site_type_symbol
 _atom_site_label
 _atom_site_symmetry_multiplicity
 _atom_site_fract_x
 _atom_site_fract_y
 _atom_site_fract_z
 _atom_site_occupancy
  Ni  Ni0  1  0.25000000  0.37500000  0.12500000  1
  Ni  Ni1  1  0.75000000  0.62500000  0.87500000  1
  Ni  Ni2  1  0.75000000  0.12500000  0.37500000  1
  Ni  Ni3  1  0.12500000  0.25000000  0.37500000  1
  Ni  Ni4  1  0.37500000  0.75000000  0.12500000  1
  Ni  Ni5  1  0.25000000  0.87500000  0.62500000  1
  Ni  Ni6  1  0.87500000  0.75000000  0.62500000  1
  Ni  Ni7  1  0.62500000  0.25000000  0.87500000  1
  Ni  Ni8  1  0.37500000  0.12500000  0.25000000  1
  Ni  Ni9  1  0.62500000  0.87500000  0.75000000  1
  Ni  Ni10  1  0.12500000  0.37500000  0.75000000  1
  Ni  Ni11  1  0.87500000  0.62500000  0.25000000  1
  Cu  Cu12  1  0.00000000  0.00000000  0.00000000  1
  Cu  Cu13  1  0.50000000  0.00000000  0.50000000  1
  Cu  Cu14  1  0.00000000  0.50000000  0.50000000  1
  Cu  Cu15  1  0.50000000  0.00000000  0.00000000  1
  Cu  Cu16  1  0.50000000  0.50000000  0.00000000  1
  Cu  Cu17  1  0.50000000  0.50000000  0.50000000  1
  Cu  Cu18  1  0.00000000  0.00000000  0.50000000  1
  Cu  Cu19  1  0.00000000  0.50000000  0.00000000  1
  C  C20  1  0.25000000  0.62500000  0.37500000  1
  C  C21  1  0.75000000  0.37500000  0.62500000  1
  C  C22  1  0.75000000  0.87500000  0.12500000  1
  C  C23  1  0.37500000  0.25000000  0.62500000  1
  C  C24  1  0.62500000  0.75000000  0.37500000  1
  C  C25  1  0.25000000  0.12500000  0.87500000  1
  C  C26  1  0.12500000  0.75000000  0.87500000  1
  C  C27  1  0.87500000  0.25000000  0.12500000  1
  C  C28  1  0.62500000  0.37500000  0.25000000  1
  C  C29  1  0.37500000  0.62500000  0.75000000  1
  C  C30  1  0.87500000  0.12500000  0.75000000  1
  C  C31  1  0.12500000  0.87500000  0.25000000  1
  C  C32  1  0.47174800  0.37182200  0.28325100  1
  C  C33  1  0.52825200  0.62817800  0.71674900  1
  C  C34  1  0.58857100  0.18849600  0.21674900  1
  C  C35  1  0.91142900  0.12817800  0.59992500  1
  C  C36  1  0.28325100  0.47174800  0.37182200  1
  C  C37  1  0.31150400  0.91142900  0.28325100  1
  C  C38  1  0.41142900  0.81150400  0.78325100  1
  C  C39  1  0.08857100  0.87182200  0.40007500  1
  C  C40  1  0.71674900  0.52825200  0.62817800  1
  C  C41  1  0.68849600  0.08857100  0.71674900  1
  C  C42  1  0.02825200  0.31150400  0.90007500  1
  C  C43  1  0.21674900  0.58857100  0.18849600  1
  C  C44  1  0.12817800  0.02825200  0.21674900  1
  C  C45  1  0.97174800  0.68849600  0.09992500  1
  C  C46  1  0.78325100  0.41142900  0.81150400  1
  C  C47  1  0.87182200  0.97174800  0.78325100  1
  C  C48  1  0.59992500  0.91142900  0.12817800  1
  C  C49  1  0.18849600  0.47174800  0.59992500  1
  C  C50  1  0.40007500  0.08857100  0.87182200  1
  C  C51  1  0.81150400  0.52825200  0.40007500  1
  C  C52  1  0.90007500  0.02825200  0.31150400  1
  C  C53  1  0.37182200  0.58857100  0.90007500  1
  C  C54  1  0.09992500  0.97174800  0.68849600  1
  C  C55  1  0.62817800  0.41142900  0.09992500  1
  C  C56  1  0.37182200  0.28325100  0.47174800  1
  C  C57  1  0.58857100  0.90007500  0.37182200  1
  C  C58  1  0.62817800  0.71674900  0.52825200  1
  C  C59  1  0.41142900  0.09992500  0.62817800  1
  C  C60  1  0.12817800  0.59992500  0.91142900  1
  C  C61  1  0.02825200  0.21674900  0.12817800  1
  C  C62  1  0.87182200  0.40007500  0.08857100  1
  C  C63  1  0.97174800  0.78325100  0.87182200  1
  C  C64  1  0.31150400  0.90007500  0.02825200  1
  C  C65  1  0.91142900  0.28325100  0.31150400  1
  C  C66  1  0.68849600  0.09992500  0.97174800  1
  C  C67  1  0.08857100  0.71674900  0.68849600  1
  C  C68  1  0.18849600  0.21674900  0.58857100  1
  C  C69  1  0.47174800  0.59992500  0.18849600  1
  C  C70  1  0.81150400  0.78325100  0.41142900  1
  C  C71  1  0.52825200  0.40007500  0.81150400  1
  C  C72  1  0.28325100  0.31150400  0.91142900  1
  C  C73  1  0.71674900  0.68849600  0.08857100  1
  C  C74  1  0.21674900  0.12817800  0.02825200  1
  C  C75  1  0.78325100  0.87182200  0.97174800  1
  C  C76  1  0.90007500  0.37182200  0.58857100  1
  C  C77  1  0.09992500  0.62817800  0.41142900  1
  C  C78  1  0.59992500  0.18849600  0.47174800  1
  C  C79  1  0.40007500  0.81150400  0.52825200  1
