# generated using pymatgen
data_CuNi5C6
_symmetry_space_group_name_H-M   'P 1'
_cell_length_a   8.58920200
_cell_length_b   8.79873300
_cell_length_c   17.39621600
_cell_angle_alpha   90.00000000
_cell_angle_beta   90.00000000
_cell_angle_gamma   90.00000000
_symmetry_Int_Tables_number   1
_chemical_formula_structural   CuNi5C6
_chemical_formula_sum   'Cu4 Ni20 C24'
_cell_volume   1314.70328203
_cell_formula_units_Z   4
loop_
 _symmetry_equiv_pos_site_id
 _symmetry_equiv_pos_as_xyz
  1  'x, y, z'
loop_
 _atom_site_type_symbol
 _atom_site_label
 _atom_site_symmetry_multiplicity
 _atom_site_fract_x
 _atom_site_fract_y
 _atom_site_fract_z
 _atom_site_occupancy
  C  C0  1  0.25000000  0.15295000  0.06183000  1
  C  C1  1  0.75000000  0.84705000  0.93817000  1
  C  C2  1  0.75000000  0.65295000  0.43817000  1
  C  C3  1  0.25000000  0.34705000  0.56183000  1
  C  C4  1  0.25000000  0.65608700  0.16311300  1
  C  C5  1  0.75000000  0.34391300  0.83688700  1
  C  C6  1  0.75000000  0.15608700  0.33688700  1
  C  C7  1  0.25000000  0.84391300  0.66311300  1
  C  C8  1  0.25000000  0.55642500  0.03350400  1
  C  C9  1  0.75000000  0.44357500  0.96649600  1
  C  C10  1  0.75000000  0.05642500  0.46649600  1
  C  C11  1  0.25000000  0.94357500  0.53350400  1
  C  C12  1  0.03059800  0.15630300  0.34296700  1
  C  C13  1  0.96940200  0.84369700  0.65703300  1
  C  C14  1  0.96940200  0.65630300  0.15703300  1
  C  C15  1  0.53059800  0.84369700  0.65703300  1
  C  C16  1  0.03059800  0.34369700  0.84296700  1
  C  C17  1  0.46940200  0.15630300  0.34296700  1
  C  C18  1  0.46940200  0.34369700  0.84296700  1
  C  C19  1  0.53059800  0.65630300  0.15703300  1
  C  C20  1  0.25000000  0.75615200  0.29060800  1
  C  C21  1  0.75000000  0.24384800  0.70939200  1
  C  C22  1  0.75000000  0.25615200  0.20939200  1
  C  C23  1  0.25000000  0.74384800  0.79060800  1
  Ni  Ni24  1  0.10964300  0.10333300  0.18371500  1
  Ni  Ni25  1  0.89035700  0.89666700  0.81628500  1
  Ni  Ni26  1  0.89035700  0.60333300  0.31628500  1
  Ni  Ni27  1  0.60964300  0.89666700  0.81628500  1
  Ni  Ni28  1  0.10964300  0.39666700  0.68371500  1
  Ni  Ni29  1  0.39035700  0.10333300  0.18371500  1
  Ni  Ni30  1  0.39035700  0.39666700  0.68371500  1
  Ni  Ni31  1  0.60964300  0.60333300  0.31628500  1
  Ni  Ni32  1  0.11462700  0.27426400  0.04185500  1
  Ni  Ni33  1  0.88537300  0.72573600  0.95814500  1
  Ni  Ni34  1  0.88537300  0.77426400  0.45814500  1
  Ni  Ni35  1  0.61462700  0.72573600  0.95814500  1
  Ni  Ni36  1  0.11462700  0.22573600  0.54185500  1
  Ni  Ni37  1  0.38537300  0.27426400  0.04185500  1
  Ni  Ni38  1  0.38537300  0.22573600  0.54185500  1
  Ni  Ni39  1  0.61462700  0.77426400  0.45814500  1
  Ni  Ni40  1  0.25000000  0.10415300  0.18511900  1
  Ni  Ni41  1  0.75000000  0.89584700  0.81488100  1
  Ni  Ni42  1  0.75000000  0.60415300  0.31488100  1
  Ni  Ni43  1  0.25000000  0.39584700  0.68511900  1
  Cu  Cu44  1  0.25000000  0.53101100  0.48045800  1
  Cu  Cu45  1  0.75000000  0.46898900  0.51954200  1
  Cu  Cu46  1  0.75000000  0.03101100  0.01954200  1
  Cu  Cu47  1  0.25000000  0.96898900  0.98045800  1
