# generated using pymatgen
data_Cu8NiC5
_symmetry_space_group_name_H-M   'P 1'
_cell_length_a   14.92657113
_cell_length_b   14.92657113
_cell_length_c   14.92657113
_cell_angle_alpha   158.76336017
_cell_angle_beta   158.23012678
_cell_angle_gamma   30.59647705
_symmetry_Int_Tables_number   1
_chemical_formula_structural   Cu8NiC5
_chemical_formula_sum   'Cu16 Ni2 C10'
_cell_volume   446.48199197
_cell_formula_units_Z   2
loop_
 _symmetry_equiv_pos_site_id
 _symmetry_equiv_pos_as_xyz
  1  'x, y, z'
loop_
 _atom_site_type_symbol
 _atom_site_label
 _atom_site_symmetry_multiplicity
 _atom_site_fract_x
 _atom_site_fract_y
 _atom_site_fract_z
 _atom_site_occupancy
  C  C0  1  0.99819500  0.00000000  0.99819500  1
  C  C1  1  0.67317600  0.67994200  0.99323400  1
  C  C2  1  0.17378600  0.17993500  0.99385100  1
  C  C3  1  0.81391600  0.82006500  0.99385100  1
  C  C4  1  0.31329100  0.32005800  0.99323400  1
  C  C5  1  0.66069100  0.08850500  0.57218500  1
  C  C6  1  0.14728600  0.59123300  0.55605300  1
  C  C7  1  0.96482000  0.40876700  0.55605300  1
  C  C8  1  0.48368000  0.91149500  0.57218500  1
  C  C9  1  0.47742900  0.50000000  0.97742900  1
  Ni  Ni10  1  0.23883800  0.75056900  0.48827000  1
  Ni  Ni11  1  0.73770100  0.24943100  0.48827000  1
  Cu  Cu12  1  0.87891500  0.89342000  0.48889500  1
  Cu  Cu13  1  0.37744600  0.39766100  0.48921600  1
  Cu  Cu14  1  0.09155500  0.60233900  0.97978500  1
  Cu  Cu15  1  0.59547400  0.10658000  0.98549500  1
  Cu  Cu16  1  0.09155500  0.11177000  0.48921600  1
  Cu  Cu17  1  0.59547400  0.60997900  0.48889500  1
  Cu  Cu18  1  0.87891500  0.39002100  0.98549500  1
  Cu  Cu19  1  0.37744600  0.88823000  0.97978500  1
  Cu  Cu20  1  0.50805000  0.56816900  0.93988100  1
  Cu  Cu21  1  0.00962400  0.06724700  0.94237700  1
  Cu  Cu22  1  0.87513000  0.93275300  0.94237700  1
  Cu  Cu23  1  0.37171200  0.43183100  0.93988100  1
  Cu  Cu24  1  0.20731800  0.25641300  0.46373100  1
  Cu  Cu25  1  0.69662900  0.75236200  0.44899100  1
  Cu  Cu26  1  0.69662900  0.24763800  0.94426700  1
  Cu  Cu27  1  0.20731800  0.74358700  0.95090500  1
