# generated using pymatgen
data_Cu11NiC4
_symmetry_space_group_name_H-M   'P 1'
_cell_length_a   12.33884200
_cell_length_b   7.25681000
_cell_length_c   13.18949300
_cell_angle_alpha   67.77670027
_cell_angle_beta   90.00000000
_cell_angle_gamma   90.00000000
_symmetry_Int_Tables_number   1
_chemical_formula_structural   Cu11NiC4
_chemical_formula_sum   'Cu44 Ni4 C16'
_cell_volume   1093.26747816
_cell_formula_units_Z   4
loop_
 _symmetry_equiv_pos_site_id
 _symmetry_equiv_pos_as_xyz
  1  'x, y, z'
loop_
 _atom_site_type_symbol
 _atom_site_label
 _atom_site_symmetry_multiplicity
 _atom_site_fract_x
 _atom_site_fract_y
 _atom_site_fract_z
 _atom_site_occupancy
  C  C0  1  0.55149600  0.58676400  0.14946000  1
  C  C1  1  0.94850400  0.58676400  0.64946000  1
  C  C2  1  0.44850400  0.41323600  0.85054000  1
  C  C3  1  0.05149600  0.41323600  0.35054000  1
  C  C4  1  0.66427900  0.15932500  0.06457800  1
  C  C5  1  0.83572100  0.15932500  0.56457800  1
  C  C6  1  0.33572100  0.84067500  0.93542200  1
  C  C7  1  0.16427900  0.84067500  0.43542200  1
  C  C8  1  0.84895500  0.34824500  0.91868800  1
  C  C9  1  0.65104500  0.34824500  0.41868800  1
  C  C10  1  0.15104500  0.65175500  0.08131200  1
  C  C11  1  0.34895500  0.65175500  0.58131200  1
  C  C12  1  0.83023000  0.36400600  0.13577800  1
  C  C13  1  0.66977000  0.36400600  0.63577800  1
  C  C14  1  0.16977000  0.63599400  0.86422200  1
  C  C15  1  0.33023000  0.63599400  0.36422200  1
  Ni  Ni16  1  0.74682000  0.75953300  0.85370300  1
  Ni  Ni17  1  0.75318000  0.75953300  0.35370300  1
  Ni  Ni18  1  0.25318000  0.24046700  0.14629700  1
  Ni  Ni19  1  0.24682000  0.24046700  0.64629700  1
  Cu  Cu20  1  0.89726000  0.36276700  0.02658600  1
  Cu  Cu21  1  0.60274000  0.36276700  0.52658600  1
  Cu  Cu22  1  0.10274000  0.63723300  0.97341400  1
  Cu  Cu23  1  0.39726000  0.63723300  0.47341400  1
  Cu  Cu24  1  0.74875600  0.17313500  0.15572100  1
  Cu  Cu25  1  0.75124400  0.17313500  0.65572100  1
  Cu  Cu26  1  0.25124400  0.82686500  0.84427900  1
  Cu  Cu27  1  0.24875600  0.82686500  0.34427900  1
  Cu  Cu28  1  0.74486900  0.20940100  0.95763900  1
  Cu  Cu29  1  0.75513100  0.20940100  0.45763900  1
  Cu  Cu30  1  0.25513100  0.79059900  0.04236100  1
  Cu  Cu31  1  0.24486900  0.79059900  0.54236100  1
  Cu  Cu32  1  0.62778700  0.94991500  0.09737900  1
  Cu  Cu33  1  0.87221300  0.94991500  0.59737900  1
  Cu  Cu34  1  0.37221300  0.05008500  0.90262100  1
  Cu  Cu35  1  0.12778700  0.05008500  0.40262100  1
  Cu  Cu36  1  0.58163600  0.32496500  0.03475300  1
  Cu  Cu37  1  0.91836400  0.32496500  0.53475300  1
  Cu  Cu38  1  0.41836400  0.67503500  0.96524700  1
  Cu  Cu39  1  0.08163600  0.67503500  0.46524700  1
  Cu  Cu40  1  0.81298500  0.56089400  0.83535900  1
  Cu  Cu41  1  0.68701500  0.56089400  0.33535900  1
  Cu  Cu42  1  0.18701500  0.43910600  0.16464100  1
  Cu  Cu43  1  0.31298500  0.43910600  0.66464100  1
  Cu  Cu44  1  0.92602900  0.27330800  0.85686600  1
  Cu  Cu45  1  0.57397100  0.27330800  0.35686600  1
  Cu  Cu46  1  0.07397100  0.72669200  0.14313400  1
  Cu  Cu47  1  0.42602900  0.72669200  0.64313400  1
  Cu  Cu48  1  0.76286300  0.54862400  0.10176900  1
  Cu  Cu49  1  0.73713700  0.54862400  0.60176900  1
  Cu  Cu50  1  0.23713700  0.45137600  0.89823100  1
  Cu  Cu51  1  0.26286300  0.45137600  0.39823100  1
  Cu  Cu52  1  0.90935500  0.30778700  0.22723200  1
  Cu  Cu53  1  0.59064500  0.30778700  0.72723200  1
  Cu  Cu54  1  0.09064500  0.69221300  0.77276800  1
  Cu  Cu55  1  0.40935500  0.69221300  0.27276800  1
  Cu  Cu56  1  0.69165900  0.85348700  0.38304500  1
  Cu  Cu57  1  0.80834100  0.85348700  0.88304500  1
  Cu  Cu58  1  0.30834100  0.14651300  0.61695500  1
  Cu  Cu59  1  0.19165900  0.14651300  0.11695500  1
  Cu  Cu60  1  0.65600200  0.76520200  0.82312800  1
  Cu  Cu61  1  0.84399800  0.76520200  0.32312800  1
  Cu  Cu62  1  0.34399800  0.23479800  0.17687200  1
  Cu  Cu63  1  0.15600200  0.23479800  0.67687200  1
