# generated using pymatgen
data_CuNiC6
_symmetry_space_group_name_H-M   'P 1'
_cell_length_a   7.31564323
_cell_length_b   7.31564323
_cell_length_c   6.15283500
_cell_angle_alpha   90.00000000
_cell_angle_beta   90.00000000
_cell_angle_gamma   140.64288320
_symmetry_Int_Tables_number   1
_chemical_formula_structural   CuNiC6
_chemical_formula_sum   'Cu2 Ni2 C12'
_cell_volume   208.82075268
_cell_formula_units_Z   2
loop_
 _symmetry_equiv_pos_site_id
 _symmetry_equiv_pos_as_xyz
  1  'x, y, z'
loop_
 _atom_site_type_symbol
 _atom_site_label
 _atom_site_symmetry_multiplicity
 _atom_site_fract_x
 _atom_site_fract_y
 _atom_site_fract_z
 _atom_site_occupancy
  C  C0  1  0.00000000  0.00000000  0.00000000  1
  C  C1  1  0.00000000  0.00000000  0.50000000  1
  Ni  Ni2  1  0.17436800  0.82563200  0.75000000  1
  Ni  Ni3  1  0.82563200  0.17436800  0.25000000  1
  Cu  Cu4  1  0.52119700  0.47880300  0.75000000  1
  Cu  Cu5  1  0.47880300  0.52119700  0.25000000  1
  C  C6  1  0.26277600  0.73722400  0.75000000  1
  C  C7  1  0.73722400  0.26277600  0.25000000  1
  C  C8  1  0.12294400  0.87705600  0.93524200  1
  C  C9  1  0.87705600  0.12294400  0.06475800  1
  C  C10  1  0.12294400  0.87705600  0.56475800  1
  C  C11  1  0.87705600  0.12294400  0.43524200  1
  C  C12  1  0.68369000  0.75046100  0.75000000  1
  C  C13  1  0.75046100  0.68369000  0.25000000  1
  C  C14  1  0.31631000  0.24953900  0.25000000  1
  C  C15  1  0.24953900  0.31631000  0.75000000  1
