# generated using pymatgen
data_Cu2Ni2C13
_symmetry_space_group_name_H-M   'P 1'
_cell_length_a   5.51767819
_cell_length_b   7.52117958
_cell_length_c   9.43053787
_cell_angle_alpha   85.40683890
_cell_angle_beta   38.09736298
_cell_angle_gamma   103.95400444
_symmetry_Int_Tables_number   1
_chemical_formula_structural   Cu2Ni2C13
_chemical_formula_sum   'Cu2 Ni2 C13'
_cell_volume   209.19842593
_cell_formula_units_Z   1
loop_
 _symmetry_equiv_pos_site_id
 _symmetry_equiv_pos_as_xyz
  1  'x, y, z'
loop_
 _atom_site_type_symbol
 _atom_site_label
 _atom_site_symmetry_multiplicity
 _atom_site_fract_x
 _atom_site_fract_y
 _atom_site_fract_z
 _atom_site_occupancy
  C  C0  1  0.46931800  0.99368500  0.01969100  1
  Ni  Ni1  1  0.49065700  0.48154600  0.50530500  1
  Ni  Ni2  1  0.40367600  0.95829600  0.48044600  1
  Cu  Cu3  1  0.21172100  0.19882600  0.38435400  1
  Cu  Cu4  1  0.69227300  0.80087400  0.64079800  1
  C  C5  1  0.47880600  0.32034100  0.84358500  1
  C  C6  1  0.54937200  0.68211000  0.14706800  1
  C  C7  1  0.58168500  0.16794500  0.72777800  1
  C  C8  1  0.40888000  0.46232000  0.76118000  1
  C  C9  1  0.46927400  0.83862200  0.25928600  1
  C  C10  1  0.59203400  0.52750800  0.23736800  1
  C  C11  1  0.14992600  0.57314200  0.23209100  1
  C  C12  1  0.98087600  0.80953900  0.85186500  1
  C  C13  1  0.87457800  0.44473900  0.75925800  1
  C  C14  1  0.06011600  0.19049800  0.13885200  1
  C  C15  1  0.68310100  0.78917700  0.42638600  1
  C  C16  1  0.31039700  0.20595700  0.56889100  1
