# generated using pymatgen
data_Cu8Ni4C9
_symmetry_space_group_name_H-M   'P 1'
_cell_length_a   16.48574399
_cell_length_b   16.48574399
_cell_length_c   4.27349600
_cell_angle_alpha   90.00000000
_cell_angle_beta   90.00000000
_cell_angle_gamma   143.95260788
_symmetry_Int_Tables_number   1
_chemical_formula_structural   Cu8Ni4C9
_chemical_formula_sum   'Cu8 Ni4 C9'
_cell_volume   683.45998402
_cell_formula_units_Z   1
loop_
 _symmetry_equiv_pos_site_id
 _symmetry_equiv_pos_as_xyz
  1  'x, y, z'
loop_
 _atom_site_type_symbol
 _atom_site_label
 _atom_site_symmetry_multiplicity
 _atom_site_fract_x
 _atom_site_fract_y
 _atom_site_fract_z
 _atom_site_occupancy
  C  C0  1  0.33596400  0.16372300  0.50000000  1
  C  C1  1  0.66633900  0.83296300  0.50000000  1
  C  C2  1  0.00268500  0.49626400  0.50000000  1
  C  C3  1  0.16372300  0.33596400  0.50000000  1
  C  C4  1  0.49626400  0.00268500  0.50000000  1
  C  C5  1  0.83296300  0.66633900  0.50000000  1
  C  C6  1  0.00051700  0.00051700  0.00000000  1
  C  C7  1  0.33063500  0.66453300  0.00000000  1
  C  C8  1  0.66453300  0.33063500  0.00000000  1
  Ni  Ni9  1  0.24301300  0.24301300  0.00000000  1
  Ni  Ni10  1  0.57262800  0.90694500  0.00000000  1
  Ni  Ni11  1  0.90694500  0.57262800  0.00000000  1
  Ni  Ni12  1  0.75705500  0.75705500  0.00000000  1
  Cu  Cu13  1  0.10008000  0.43372400  0.00000000  1
  Cu  Cu14  1  0.43372400  0.10008000  0.00000000  1
  Cu  Cu15  1  0.59028000  0.40526900  0.00000000  1
  Cu  Cu16  1  0.92599900  0.07522000  0.00000000  1
  Cu  Cu17  1  0.25661600  0.73954500  0.00000000  1
  Cu  Cu18  1  0.40526900  0.59028000  0.00000000  1
  Cu  Cu19  1  0.73954500  0.25661600  0.00000000  1
  Cu  Cu20  1  0.07522000  0.92599900  0.00000000  1
