# generated using pymatgen
data_Cu6NiC
_symmetry_space_group_name_H-M   'P 1'
_cell_length_a   6.45086500
_cell_length_b   11.01801800
_cell_length_c   17.32378500
_cell_angle_alpha   90.00000000
_cell_angle_beta   90.00000000
_cell_angle_gamma   90.00000000
_symmetry_Int_Tables_number   1
_chemical_formula_structural   Cu6NiC
_chemical_formula_sum   'Cu48 Ni8 C8'
_cell_volume   1231.30095430
_cell_formula_units_Z   8
loop_
 _symmetry_equiv_pos_site_id
 _symmetry_equiv_pos_as_xyz
  1  'x, y, z'
loop_
 _atom_site_type_symbol
 _atom_site_label
 _atom_site_symmetry_multiplicity
 _atom_site_fract_x
 _atom_site_fract_y
 _atom_site_fract_z
 _atom_site_occupancy
  C  C0  1  0.66173700  0.03496700  0.42450900  1
  C  C1  1  0.16173700  0.46503300  0.57549100  1
  C  C2  1  0.33826300  0.53496700  0.07549100  1
  C  C3  1  0.83826300  0.96503300  0.92450900  1
  C  C4  1  0.33826300  0.96503300  0.57549100  1
  C  C5  1  0.83826300  0.53496700  0.42450900  1
  C  C6  1  0.66173700  0.46503300  0.92450900  1
  C  C7  1  0.16173700  0.03496700  0.07549100  1
  Ni  Ni8  1  0.82857800  0.30660300  0.71626100  1
  Ni  Ni9  1  0.32857800  0.19339700  0.28373900  1
  Ni  Ni10  1  0.17142200  0.80660300  0.78373900  1
  Ni  Ni11  1  0.67142200  0.69339700  0.21626100  1
  Ni  Ni12  1  0.17142200  0.69339700  0.28373900  1
  Ni  Ni13  1  0.67142200  0.80660300  0.71626100  1
  Ni  Ni14  1  0.82857800  0.19339700  0.21626100  1
  Ni  Ni15  1  0.32857800  0.30660300  0.78373900  1
  Cu  Cu16  1  0.54211100  0.57134300  0.85490100  1
  Cu  Cu17  1  0.04211100  0.92865700  0.14509900  1
  Cu  Cu18  1  0.45788900  0.07134300  0.64509900  1
  Cu  Cu19  1  0.95788900  0.42865700  0.35490100  1
  Cu  Cu20  1  0.45788900  0.42865700  0.14509900  1
  Cu  Cu21  1  0.95788900  0.07134300  0.85490100  1
  Cu  Cu22  1  0.54211100  0.92865700  0.35490100  1
  Cu  Cu23  1  0.04211100  0.57134300  0.64509900  1
  Cu  Cu24  1  0.75174000  0.32064900  0.96549900  1
  Cu  Cu25  1  0.25174000  0.17935100  0.03450100  1
  Cu  Cu26  1  0.24826000  0.82064900  0.53450100  1
  Cu  Cu27  1  0.74826000  0.67935100  0.46549900  1
  Cu  Cu28  1  0.24826000  0.67935100  0.03450100  1
  Cu  Cu29  1  0.74826000  0.82064900  0.96549900  1
  Cu  Cu30  1  0.75174000  0.17935100  0.46549900  1
  Cu  Cu31  1  0.25174000  0.32064900  0.53450100  1
  Cu  Cu32  1  0.63545400  0.56682100  0.02995400  1
  Cu  Cu33  1  0.13545400  0.93317900  0.97004600  1
  Cu  Cu34  1  0.36454600  0.06682100  0.47004600  1
  Cu  Cu35  1  0.86454600  0.43317900  0.52995400  1
  Cu  Cu36  1  0.36454600  0.43317900  0.97004600  1
  Cu  Cu37  1  0.86454600  0.06682100  0.02995400  1
  Cu  Cu38  1  0.63545400  0.93317900  0.52995400  1
  Cu  Cu39  1  0.13545400  0.56682100  0.47004600  1
  Cu  Cu40  1  0.60999400  0.76067600  0.65965400  1
  Cu  Cu41  1  0.10999400  0.73932400  0.34034600  1
  Cu  Cu42  1  0.39000600  0.26067600  0.84034600  1
  Cu  Cu43  1  0.89000600  0.23932400  0.15965400  1
  Cu  Cu44  1  0.39000600  0.23932400  0.34034600  1
  Cu  Cu45  1  0.89000600  0.26067600  0.65965400  1
  Cu  Cu46  1  0.60999400  0.73932400  0.15965400  1
  Cu  Cu47  1  0.10999400  0.76067600  0.84034600  1
  Cu  Cu48  1  0.73119800  0.85347100  0.77307600  1
  Cu  Cu49  1  0.23119800  0.64652900  0.22692400  1
  Cu  Cu50  1  0.26880200  0.35347100  0.72692400  1
  Cu  Cu51  1  0.76880200  0.14652900  0.27307600  1
  Cu  Cu52  1  0.26880200  0.14652900  0.22692400  1
  Cu  Cu53  1  0.76880200  0.35347100  0.77307600  1
  Cu  Cu54  1  0.73119800  0.64652900  0.27307600  1
  Cu  Cu55  1  0.23119800  0.85347100  0.72692400  1
  Cu  Cu56  1  0.56481600  0.48289000  0.40291900  1
  Cu  Cu57  1  0.06481600  0.01711000  0.59708100  1
  Cu  Cu58  1  0.43518400  0.98289000  0.09708100  1
  Cu  Cu59  1  0.93518400  0.51711000  0.90291900  1
  Cu  Cu60  1  0.43518400  0.51711000  0.59708100  1
  Cu  Cu61  1  0.93518400  0.98289000  0.40291900  1
  Cu  Cu62  1  0.56481600  0.01711000  0.90291900  1
  Cu  Cu63  1  0.06481600  0.48289000  0.09708100  1
