# generated using pymatgen
data_Cu(NiC7)3
_symmetry_space_group_name_H-M   'P 1'
_cell_length_a   7.30992712
_cell_length_b   8.69480112
_cell_length_c   28.94476737
_cell_angle_alpha   90.00000000
_cell_angle_beta   90.00000000
_cell_angle_gamma   105.02866872
_symmetry_Int_Tables_number   1
_chemical_formula_structural   Cu(NiC7)3
_chemical_formula_sum   'Cu4 Ni12 C84'
_cell_volume   1776.75790631
_cell_formula_units_Z   4
loop_
 _symmetry_equiv_pos_site_id
 _symmetry_equiv_pos_as_xyz
  1  'x, y, z'
loop_
 _atom_site_type_symbol
 _atom_site_label
 _atom_site_symmetry_multiplicity
 _atom_site_fract_x
 _atom_site_fract_y
 _atom_site_fract_z
 _atom_site_occupancy
  Ni  Ni0  1  0.00296442  0.45985314  0.86320510  1
  Ni  Ni1  1  0.50296442  0.95985314  0.63679490  1
  Ni  Ni2  1  0.99703558  0.54014686  0.13679490  1
  Ni  Ni3  1  0.49703558  0.04014686  0.36320510  1
  Ni  Ni4  1  0.21508964  0.18554030  0.74419794  1
  Ni  Ni5  1  0.71508964  0.68554030  0.75580206  1
  Ni  Ni6  1  0.78491036  0.81445970  0.25580206  1
  Ni  Ni7  1  0.28491036  0.31445970  0.24419794  1
  Ni  Ni8  1  0.20454784  0.28150651  0.99887149  1
  Ni  Ni9  1  0.70454784  0.78150651  0.50112851  1
  Ni  Ni10  1  0.79545216  0.71849349  0.00112851  1
  Ni  Ni11  1  0.29545216  0.21849349  0.49887149  1
  Cu  Cu12  1  0.99223524  0.96060118  0.87626622  1
  Cu  Cu13  1  0.49223524  0.46060118  0.62373378  1
  Cu  Cu14  1  0.00776476  0.03939882  0.12373378  1
  Cu  Cu15  1  0.50776476  0.53939882  0.37626622  1
  C  C16  1  0.83280367  0.31290570  0.54885487  1
  C  C17  1  0.33280367  0.81290570  0.95114513  1
  C  C18  1  0.16719633  0.68709430  0.45114513  1
  C  C19  1  0.66719633  0.18709430  0.04885487  1
  C  C20  1  0.81025895  0.31377808  0.70195290  1
  C  C21  1  0.31025895  0.81377808  0.79804710  1
  C  C22  1  0.18974105  0.68622192  0.29804710  1
  C  C23  1  0.68974105  0.18622192  0.20195290  1
  C  C24  1  0.67107163  0.14001838  0.94280517  1
  C  C25  1  0.17107163  0.64001838  0.55719483  1
  C  C26  1  0.32892837  0.85998162  0.05719483  1
  C  C27  1  0.82892837  0.35998162  0.44280517  1
  C  C28  1  0.02097631  0.15673327  0.62188233  1
  C  C29  1  0.52097631  0.65673327  0.87811767  1
  C  C30  1  0.97902369  0.84326673  0.37811767  1
  C  C31  1  0.47902369  0.34326673  0.12188233  1
  C  C32  1  0.66123093  0.10858093  0.79175113  1
  C  C33  1  0.16123093  0.60858093  0.70824887  1
  C  C34  1  0.33876907  0.89141907  0.20824887  1
  C  C35  1  0.83876907  0.39141907  0.29175113  1
  C  C36  1  0.46746102  0.28085443  0.86331255  1
  C  C37  1  0.96746102  0.78085443  0.63668745  1
  C  C38  1  0.53253898  0.71914557  0.13668745  1
  C  C39  1  0.03253898  0.21914557  0.36331255  1
  C  C40  1  0.63236669  0.32773148  0.56739713  1
  C  C41  1  0.13236669  0.82773148  0.93260287  1
  C  C42  1  0.36763331  0.67226852  0.43260287  1
  C  C43  1  0.86763331  0.17226852  0.06739713  1
  C  C44  1  0.50412470  0.97396266  0.94311971  1
  C  C45  1  0.00412470  0.47396266  0.55688029  1
  C  C46  1  0.49587530  0.02603734  0.05688029  1
  C  C47  1  0.99587530  0.52603734  0.44311971  1
  C  C48  1  0.76486399  0.17667955  0.74266306  1
  C  C49  1  0.26486399  0.67667955  0.75733694  1
  C  C50  1  0.23513601  0.82332045  0.25733694  1
  C  C51  1  0.73513601  0.32332045  0.24266306  1
  C  C52  1  0.57859720  0.25221918  0.81489750  1
  C  C53  1  0.07859720  0.75221918  0.68510250  1
  C  C54  1  0.42140280  0.74778082  0.18510250  1
  C  C55  1  0.92140280  0.24778082  0.31489750  1
  C  C56  1  0.46829494  0.46972088  0.86143101  1
  C  C57  1  0.96829494  0.96972088  0.63856899  1
  C  C58  1  0.53170506  0.53027912  0.13856899  1
  C  C59  1  0.03170506  0.03027912  0.36143101  1
  C  C60  1  0.81083848  0.05223995  0.82267431  1
  C  C61  1  0.31083848  0.55223995  0.67732569  1
  C  C62  1  0.18916152  0.94776005  0.17732569  1
  C  C63  1  0.68916152  0.44776005  0.32267431  1
  C  C64  1  0.47242359  0.96586244  0.77557035  1
  C  C65  1  0.97242359  0.46586244  0.72442965  1
  C  C66  1  0.52757641  0.03413756  0.22442965  1
  C  C67  1  0.02757641  0.53413756  0.27557035  1
  C  C68  1  0.90302400  0.16296821  0.57296764  1
  C  C69  1  0.40302400  0.66296821  0.92703236  1
  C  C70  1  0.09697600  0.83703179  0.42703236  1
  C  C71  1  0.59697600  0.33703179  0.07296764  1
  C  C72  1  0.91814843  0.24129160  0.66131932  1
  C  C73  1  0.41814843  0.74129160  0.83868068  1
  C  C74  1  0.08185157  0.75870840  0.33868068  1
  C  C75  1  0.58185157  0.25870840  0.16131932  1
  C  C76  1  0.60745768  0.26305351  0.90640944  1
  C  C77  1  0.10745768  0.76305351  0.59359056  1
  C  C78  1  0.39254232  0.73694649  0.09359056  1
  C  C79  1  0.89254232  0.23694649  0.40640944  1
  C  C80  1  0.25353438  0.17680315  0.86611051  1
  C  C81  1  0.75353438  0.67680315  0.63388949  1
  C  C82  1  0.74646562  0.82319685  0.13388949  1
  C  C83  1  0.24646562  0.32319685  0.36611051  1
  C  C84  1  0.24436721  0.22779752  0.61763468  1
  C  C85  1  0.74436721  0.72779752  0.88236532  1
  C  C86  1  0.75563279  0.77220248  0.38236532  1
  C  C87  1  0.25563279  0.27220248  0.11763468  1
  C  C88  1  0.87572426  0.11412036  0.93140013  1
  C  C89  1  0.37572426  0.61412036  0.56859987  1
  C  C90  1  0.12427574  0.88587964  0.06859987  1
  C  C91  1  0.62427574  0.38587964  0.43140013  1
  C  C92  1  0.67156454  0.23177320  0.99313222  1
  C  C93  1  0.17156454  0.73177320  0.50686778  1
  C  C94  1  0.32843546  0.76822680  0.00686778  1
  C  C95  1  0.82843546  0.26822680  0.49313222  1
  C  C96  1  0.61789924  0.35258128  0.68637256  1
  C  C97  1  0.11789924  0.85258128  0.81362744  1
  C  C98  1  0.38210076  0.64741872  0.31362744  1
  C  C99  1  0.88210076  0.14741872  0.18637256  1
