# generated using pymatgen
data_Cu3Ni3C
_symmetry_space_group_name_H-M   'P 1'
_cell_length_a   5.98007038
_cell_length_b   7.63011358
_cell_length_c   9.00511400
_cell_angle_alpha   90.00000000
_cell_angle_beta   90.00000000
_cell_angle_gamma   100.77946918
_symmetry_Int_Tables_number   1
_chemical_formula_structural   Cu3Ni3C
_chemical_formula_sum   'Cu12 Ni12 C4'
_cell_volume   403.64044652
_cell_formula_units_Z   4
loop_
 _symmetry_equiv_pos_site_id
 _symmetry_equiv_pos_as_xyz
  1  'x, y, z'
loop_
 _atom_site_type_symbol
 _atom_site_label
 _atom_site_symmetry_multiplicity
 _atom_site_fract_x
 _atom_site_fract_y
 _atom_site_fract_z
 _atom_site_occupancy
  C  C0  1  0.50000000  0.00000000  0.50000000  1
  C  C1  1  0.50000000  0.50000000  0.00000000  1
  C  C2  1  0.00000000  0.50000000  0.50000000  1
  C  C3  1  0.00000000  0.00000000  0.00000000  1
  Ni  Ni4  1  0.17602200  0.59093100  0.32023100  1
  Ni  Ni5  1  0.17602200  0.09093100  0.17976900  1
  Ni  Ni6  1  0.82397800  0.40906900  0.67976900  1
  Ni  Ni7  1  0.82397800  0.90906900  0.82023100  1
  Ni  Ni8  1  0.91332900  0.73524900  0.53875500  1
  Ni  Ni9  1  0.91332900  0.23524900  0.96124500  1
  Ni  Ni10  1  0.08667100  0.26475100  0.46124500  1
  Ni  Ni11  1  0.08667100  0.76475100  0.03875500  1
  Ni  Ni12  1  0.25953400  0.52937100  0.64073700  1
  Ni  Ni13  1  0.25953400  0.02937100  0.85926300  1
  Ni  Ni14  1  0.74046600  0.47062900  0.35926300  1
  Ni  Ni15  1  0.74046600  0.97062900  0.14073700  1
  Cu  Cu16  1  0.55026200  0.76967300  0.55014400  1
  Cu  Cu17  1  0.55026200  0.26967300  0.94985600  1
  Cu  Cu18  1  0.44973800  0.23032700  0.44985600  1
  Cu  Cu19  1  0.44973800  0.73032700  0.05014400  1
  Cu  Cu20  1  0.32437900  0.89733900  0.33662700  1
  Cu  Cu21  1  0.32437900  0.39733900  0.16337300  1
  Cu  Cu22  1  0.67562100  0.10266100  0.66337300  1
  Cu  Cu23  1  0.67562100  0.60266100  0.83662700  1
  Cu  Cu24  1  0.23162000  0.95927900  0.61706400  1
  Cu  Cu25  1  0.23162000  0.45927800  0.88293600  1
  Cu  Cu26  1  0.76838000  0.04072200  0.38293600  1
  Cu  Cu27  1  0.76838000  0.54072100  0.11706400  1
