# generated using pymatgen
data_Cu4NiC
_symmetry_space_group_name_H-M   'P 1'
_cell_length_a   7.70684000
_cell_length_b   7.70684000
_cell_length_c   6.13265500
_cell_angle_alpha   90.00000000
_cell_angle_beta   90.00000000
_cell_angle_gamma   90.00000000
_symmetry_Int_Tables_number   1
_chemical_formula_structural   Cu4NiC
_chemical_formula_sum   'Cu16 Ni4 C4'
_cell_volume   364.25139122
_cell_formula_units_Z   4
loop_
 _symmetry_equiv_pos_site_id
 _symmetry_equiv_pos_as_xyz
  1  'x, y, z'
loop_
 _atom_site_type_symbol
 _atom_site_label
 _atom_site_symmetry_multiplicity
 _atom_site_fract_x
 _atom_site_fract_y
 _atom_site_fract_z
 _atom_site_occupancy
  C  C0  1  0.00000000  0.50000000  0.75000000  1
  C  C1  1  0.50000000  0.00000000  0.25000000  1
  C  C2  1  0.00000000  0.50000000  0.25000000  1
  C  C3  1  0.50000000  0.00000000  0.75000000  1
  Ni  Ni4  1  0.22094300  0.27905700  0.75000000  1
  Ni  Ni5  1  0.77905700  0.72094300  0.75000000  1
  Ni  Ni6  1  0.72094300  0.22094300  0.25000000  1
  Ni  Ni7  1  0.27905700  0.77905700  0.25000000  1
  Cu  Cu8  1  0.18315000  0.41283300  0.92532900  1
  Cu  Cu9  1  0.81685000  0.58716700  0.92532900  1
  Cu  Cu10  1  0.68315000  0.08716700  0.42532900  1
  Cu  Cu11  1  0.31685000  0.91283300  0.42532900  1
  Cu  Cu12  1  0.58716700  0.18315000  0.07467100  1
  Cu  Cu13  1  0.41283300  0.81685000  0.07467100  1
  Cu  Cu14  1  0.08716700  0.31685000  0.57467100  1
  Cu  Cu15  1  0.91283300  0.68315000  0.57467100  1
  Cu  Cu16  1  0.20463400  0.10201300  0.84105000  1
  Cu  Cu17  1  0.79536600  0.89798700  0.84105000  1
  Cu  Cu18  1  0.70463400  0.39798700  0.34105000  1
  Cu  Cu19  1  0.29536600  0.60201300  0.34105000  1
  Cu  Cu20  1  0.10201300  0.79536600  0.15895000  1
  Cu  Cu21  1  0.89798700  0.20463400  0.15895000  1
  Cu  Cu22  1  0.60201300  0.70463400  0.65895000  1
  Cu  Cu23  1  0.39798700  0.29536600  0.65895000  1
