# generated using pymatgen
data_Cu12Ni4C5
_symmetry_space_group_name_H-M   'P 1'
_cell_length_a   7.53986517
_cell_length_b   7.53986517
_cell_length_c   24.04366069
_cell_angle_alpha   80.98301621
_cell_angle_beta   80.98301621
_cell_angle_gamma   66.42797543
_symmetry_Int_Tables_number   1
_chemical_formula_structural   Cu12Ni4C5
_chemical_formula_sum   'Cu24 Ni8 C10'
_cell_volume   1230.63839052
_cell_formula_units_Z   2
loop_
 _symmetry_equiv_pos_site_id
 _symmetry_equiv_pos_as_xyz
  1  'x, y, z'
loop_
 _atom_site_type_symbol
 _atom_site_label
 _atom_site_symmetry_multiplicity
 _atom_site_fract_x
 _atom_site_fract_y
 _atom_site_fract_z
 _atom_site_occupancy
  C  C0  1  0.83152200  0.79190100  0.54807000  1
  C  C1  1  0.20809900  0.16847800  0.95193000  1
  C  C2  1  0.16847800  0.20809900  0.45193000  1
  C  C3  1  0.79190100  0.83152200  0.04807000  1
  C  C4  1  0.66642700  0.52137800  0.81430700  1
  C  C5  1  0.47862200  0.33357300  0.68569300  1
  C  C6  1  0.33357300  0.47862200  0.18569300  1
  C  C7  1  0.52137800  0.66642700  0.31430700  1
  C  C8  1  0.02556100  0.97443900  0.75000000  1
  C  C9  1  0.97443900  0.02556100  0.25000000  1
  Ni  Ni10  1  0.10934200  0.70928700  0.87166400  1
  Ni  Ni11  1  0.29071300  0.89065800  0.62833600  1
  Ni  Ni12  1  0.89065800  0.29071300  0.12833600  1
  Ni  Ni13  1  0.70928700  0.10934200  0.37166400  1
  Ni  Ni14  1  0.08211100  0.20894700  0.61626400  1
  Ni  Ni15  1  0.79105300  0.91788900  0.88373600  1
  Ni  Ni16  1  0.91788900  0.79105300  0.38373600  1
  Ni  Ni17  1  0.20894700  0.08211100  0.11626400  1
  Cu  Cu18  1  0.21457900  0.64876100  0.94535700  1
  Cu  Cu19  1  0.35123900  0.78542100  0.55464300  1
  Cu  Cu20  1  0.78542100  0.35123900  0.05464300  1
  Cu  Cu21  1  0.64876100  0.21457900  0.44535700  1
  Cu  Cu22  1  0.14365600  0.49263000  0.82745800  1
  Cu  Cu23  1  0.50737000  0.85634400  0.67254200  1
  Cu  Cu24  1  0.85634400  0.50737000  0.17254200  1
  Cu  Cu25  1  0.49263000  0.14365600  0.32745800  1
  Cu  Cu26  1  0.09143700  0.77797800  0.68167200  1
  Cu  Cu27  1  0.22202200  0.90856300  0.81832800  1
  Cu  Cu28  1  0.90856300  0.22202200  0.31832800  1
  Cu  Cu29  1  0.77797800  0.09143700  0.18167200  1
  Cu  Cu30  1  0.23439000  0.36475300  0.57909100  1
  Cu  Cu31  1  0.63524700  0.76561000  0.92090900  1
  Cu  Cu32  1  0.76561000  0.63524700  0.42090900  1
  Cu  Cu33  1  0.36475300  0.23439000  0.07909100  1
  Cu  Cu34  1  0.84965800  0.23922300  0.58109600  1
  Cu  Cu35  1  0.76077700  0.15034200  0.91890400  1
  Cu  Cu36  1  0.15034200  0.76077700  0.41890400  1
  Cu  Cu37  1  0.23922300  0.84965800  0.08109600  1
  Cu  Cu38  1  0.00871300  0.26794000  0.70571900  1
  Cu  Cu39  1  0.73206000  0.99128700  0.79428100  1
  Cu  Cu40  1  0.99128700  0.73206000  0.29428100  1
  Cu  Cu41  1  0.26794000  0.00871300  0.20571900  1
