# generated using pymatgen
data_CuNi2C5
_symmetry_space_group_name_H-M   'P 1'
_cell_length_a   7.27323400
_cell_length_b   7.58495900
_cell_length_c   13.71678100
_cell_angle_alpha   90.00000000
_cell_angle_beta   90.00000000
_cell_angle_gamma   90.00000000
_symmetry_Int_Tables_number   1
_chemical_formula_structural   CuNi2C5
_chemical_formula_sum   'Cu8 Ni16 C40'
_cell_volume   756.71614959
_cell_formula_units_Z   8
loop_
 _symmetry_equiv_pos_site_id
 _symmetry_equiv_pos_as_xyz
  1  'x, y, z'
loop_
 _atom_site_type_symbol
 _atom_site_label
 _atom_site_symmetry_multiplicity
 _atom_site_fract_x
 _atom_site_fract_y
 _atom_site_fract_z
 _atom_site_occupancy
  C  C0  1  0.38875500  0.95085400  0.19686000  1
  C  C1  1  0.88875500  0.54914600  0.80314000  1
  C  C2  1  0.61124500  0.45085400  0.30314000  1
  C  C3  1  0.11124500  0.04914600  0.69686000  1
  C  C4  1  0.61124500  0.04914600  0.80314000  1
  C  C5  1  0.11124500  0.45085400  0.19686000  1
  C  C6  1  0.38875500  0.54914600  0.69686000  1
  C  C7  1  0.88875500  0.95085400  0.30314000  1
  C  C8  1  0.89697300  0.89992500  0.96167000  1
  C  C9  1  0.39697300  0.60007500  0.03833000  1
  C  C10  1  0.10302700  0.39992500  0.53833000  1
  C  C11  1  0.60302700  0.10007500  0.46167000  1
  C  C12  1  0.10302700  0.10007500  0.03833000  1
  C  C13  1  0.60302700  0.39992500  0.96167000  1
  C  C14  1  0.89697300  0.60007500  0.46167000  1
  C  C15  1  0.39697300  0.89992500  0.53833000  1
  C  C16  1  0.72800400  0.74543800  0.97841300  1
  C  C17  1  0.22800400  0.75456200  0.02158700  1
  C  C18  1  0.27199600  0.24543800  0.52158700  1
  C  C19  1  0.77199600  0.25456200  0.47841300  1
  C  C20  1  0.27199600  0.25456200  0.02158700  1
  C  C21  1  0.77199600  0.24543800  0.97841300  1
  C  C22  1  0.72800400  0.75456200  0.47841300  1
  C  C23  1  0.22800400  0.74543800  0.52158700  1
  C  C24  1  0.69296300  0.63372200  0.12470900  1
  C  C25  1  0.19296300  0.86627800  0.87529100  1
  C  C26  1  0.30703700  0.13372200  0.37529100  1
  C  C27  1  0.80703700  0.36627800  0.62470900  1
  C  C28  1  0.30703700  0.36627800  0.87529100  1
  C  C29  1  0.80703700  0.13372200  0.12470900  1
  C  C30  1  0.69296300  0.86627800  0.62470900  1
  C  C31  1  0.19296300  0.63372200  0.37529100  1
  C  C32  1  0.89924300  0.78415900  0.09714000  1
  C  C33  1  0.39924300  0.71584100  0.90286000  1
  C  C34  1  0.10075700  0.28415900  0.40286000  1
  C  C35  1  0.60075700  0.21584100  0.59714000  1
  C  C36  1  0.10075700  0.21584100  0.90286000  1
  C  C37  1  0.60075700  0.28415900  0.09714000  1
  C  C38  1  0.89924300  0.71584100  0.59714000  1
  C  C39  1  0.39924300  0.78415900  0.40286000  1
  Ni  Ni40  1  0.85634300  0.78806500  0.99769000  1
  Ni  Ni41  1  0.35634300  0.71193500  0.00231000  1
  Ni  Ni42  1  0.14365700  0.28806500  0.50231000  1
  Ni  Ni43  1  0.64365700  0.21193500  0.49769000  1
  Ni  Ni44  1  0.14365700  0.21193500  0.00231000  1
  Ni  Ni45  1  0.64365700  0.28806500  0.99769000  1
  Ni  Ni46  1  0.85634300  0.71193500  0.49769000  1
  Ni  Ni47  1  0.35634300  0.78806500  0.50231000  1
  Ni  Ni48  1  0.80224000  0.68934000  0.16034300  1
  Ni  Ni49  1  0.30224000  0.81066000  0.83965700  1
  Ni  Ni50  1  0.19776000  0.18934000  0.33965700  1
  Ni  Ni51  1  0.69776000  0.31066000  0.66034300  1
  Ni  Ni52  1  0.19776000  0.31066000  0.83965700  1
  Ni  Ni53  1  0.69776000  0.18934000  0.16034300  1
  Ni  Ni54  1  0.80224000  0.81066000  0.66034300  1
  Ni  Ni55  1  0.30224000  0.68934000  0.33965700  1
  Cu  Cu56  1  0.04400500  0.87373900  0.12276500  1
  Cu  Cu57  1  0.54400500  0.62626100  0.87723500  1
  Cu  Cu58  1  0.95599500  0.37373900  0.37723500  1
  Cu  Cu59  1  0.45599500  0.12626100  0.62276500  1
  Cu  Cu60  1  0.95599500  0.12626100  0.87723500  1
  Cu  Cu61  1  0.45599500  0.37373900  0.12276500  1
  Cu  Cu62  1  0.04400500  0.62626100  0.62276500  1
  Cu  Cu63  1  0.54400500  0.87373900  0.37723500  1
