# generated using pymatgen
data_Cu2NiC5
_symmetry_space_group_name_H-M   'P 1'
_cell_length_a   8.75605907
_cell_length_b   8.75605907
_cell_length_c   8.75605907
_cell_angle_alpha   127.69667315
_cell_angle_beta   127.69667315
_cell_angle_gamma   77.11692326
_symmetry_Int_Tables_number   1
_chemical_formula_structural   Cu2NiC5
_chemical_formula_sum   'Cu4 Ni2 C10'
_cell_volume   407.90564552
_cell_formula_units_Z   2
loop_
 _symmetry_equiv_pos_site_id
 _symmetry_equiv_pos_as_xyz
  1  'x, y, z'
loop_
 _atom_site_type_symbol
 _atom_site_label
 _atom_site_symmetry_multiplicity
 _atom_site_fract_x
 _atom_site_fract_y
 _atom_site_fract_z
 _atom_site_occupancy
  C  C0  1  0.00000000  0.00000000  0.00000000  1
  C  C1  1  0.50000000  0.50000000  0.00000000  1
  C  C2  1  0.79639200  0.29639200  0.81638100  1
  C  C3  1  0.20360800  0.70360800  0.18361900  1
  C  C4  1  0.48001000  0.98001000  0.18361900  1
  C  C5  1  0.29639200  0.48001000  0.50000000  1
  C  C6  1  0.01999000  0.20360800  0.50000000  1
  C  C7  1  0.51999000  0.01999000  0.81638100  1
  C  C8  1  0.70360800  0.51999000  0.50000000  1
  C  C9  1  0.98001000  0.79639200  0.50000000  1
  Ni  Ni10  1  0.25000000  0.25000000  0.00000000  1
  Ni  Ni11  1  0.75000000  0.75000000  0.00000000  1
  Cu  Cu12  1  0.13723900  0.63723900  0.77447900  1
  Cu  Cu13  1  0.86276100  0.36276100  0.22552100  1
  Cu  Cu14  1  0.63723900  0.86276100  0.50000000  1
  Cu  Cu15  1  0.36276100  0.13723900  0.50000000  1
