# generated using pymatgen
data_Cu10NiC2
_symmetry_space_group_name_H-M   'P 1'
_cell_length_a   5.03151300
_cell_length_b   6.30952000
_cell_length_c   11.08746300
_cell_angle_alpha   90.00000000
_cell_angle_beta   90.00000000
_cell_angle_gamma   90.00000000
_symmetry_Int_Tables_number   1
_chemical_formula_structural   Cu10NiC2
_chemical_formula_sum   'Cu20 Ni2 C4'
_cell_volume   351.98738911
_cell_formula_units_Z   2
loop_
 _symmetry_equiv_pos_site_id
 _symmetry_equiv_pos_as_xyz
  1  'x, y, z'
loop_
 _atom_site_type_symbol
 _atom_site_label
 _atom_site_symmetry_multiplicity
 _atom_site_fract_x
 _atom_site_fract_y
 _atom_site_fract_z
 _atom_site_occupancy
  C  C0  1  0.67658900  0.50000000  0.23039700  1
  C  C1  1  0.32341100  0.00000000  0.73039700  1
  C  C2  1  0.16206300  0.50000000  0.43051700  1
  C  C3  1  0.83793700  0.00000000  0.93051700  1
  Ni  Ni4  1  0.77597500  0.50000000  0.83552600  1
  Ni  Ni5  1  0.22402500  0.00000000  0.33552600  1
  Cu  Cu6  1  0.53827300  0.89756900  0.59462300  1
  Cu  Cu7  1  0.46172700  0.60243100  0.09462300  1
  Cu  Cu8  1  0.46172700  0.39756900  0.09462300  1
  Cu  Cu9  1  0.53827300  0.10243100  0.59462300  1
  Cu  Cu10  1  0.22395400  0.77029500  0.82582600  1
  Cu  Cu11  1  0.77604600  0.72970500  0.32582600  1
  Cu  Cu12  1  0.77604600  0.27029500  0.32582600  1
  Cu  Cu13  1  0.22395400  0.22970500  0.82582600  1
  Cu  Cu14  1  0.27740900  0.50000000  0.55243600  1
  Cu  Cu15  1  0.72259100  0.00000000  0.05243600  1
  Cu  Cu16  1  0.91540000  0.50000000  0.75630400  1
  Cu  Cu17  1  0.08460000  0.00000000  0.25630400  1
  Cu  Cu18  1  0.05397400  0.79712500  0.92774500  1
  Cu  Cu19  1  0.94602600  0.70287500  0.42774500  1
  Cu  Cu20  1  0.94602600  0.29712500  0.42774500  1
  Cu  Cu21  1  0.05397400  0.20287500  0.92774500  1
  Cu  Cu22  1  0.31700500  0.50000000  0.31422300  1
  Cu  Cu23  1  0.68299500  0.00000000  0.81422300  1
  Cu  Cu24  1  0.93628700  0.50000000  0.14460900  1
  Cu  Cu25  1  0.06371300  0.00000000  0.64460900  1
