# generated using pymatgen
data_Cu3Ni3C20
_symmetry_space_group_name_H-M   'P 1'
_cell_length_a   9.25697400
_cell_length_b   9.25697400
_cell_length_c   9.25697400
_cell_angle_alpha   90.00000000
_cell_angle_beta   90.00000000
_cell_angle_gamma   90.00000000
_symmetry_Int_Tables_number   1
_chemical_formula_structural   Cu3Ni3C20
_chemical_formula_sum   'Cu6 Ni6 C40'
_cell_volume   793.24461363
_cell_formula_units_Z   2
loop_
 _symmetry_equiv_pos_site_id
 _symmetry_equiv_pos_as_xyz
  1  'x, y, z'
loop_
 _atom_site_type_symbol
 _atom_site_label
 _atom_site_symmetry_multiplicity
 _atom_site_fract_x
 _atom_site_fract_y
 _atom_site_fract_z
 _atom_site_occupancy
  C  C0  1  0.82885400  0.82885400  0.17114600  1
  C  C1  1  0.17114600  0.82885400  0.82885400  1
  C  C2  1  0.17114600  0.17114600  0.17114600  1
  C  C3  1  0.82885400  0.17114600  0.82885400  1
  C  C4  1  0.32885400  0.67114600  0.32885400  1
  C  C5  1  0.67114600  0.32885400  0.32885400  1
  C  C6  1  0.67114600  0.67114600  0.67114600  1
  C  C7  1  0.32885400  0.32885400  0.67114600  1
  Ni  Ni8  1  0.50000000  0.00000000  0.25000000  1
  Ni  Ni9  1  0.00000000  0.75000000  0.50000000  1
  Ni  Ni10  1  0.25000000  0.50000000  0.00000000  1
  Ni  Ni11  1  0.00000000  0.25000000  0.50000000  1
  Ni  Ni12  1  0.75000000  0.50000000  0.00000000  1
  Ni  Ni13  1  0.50000000  0.00000000  0.75000000  1
  Cu  Cu14  1  0.25000000  0.00000000  0.50000000  1
  Cu  Cu15  1  0.00000000  0.50000000  0.25000000  1
  Cu  Cu16  1  0.50000000  0.75000000  0.00000000  1
  Cu  Cu17  1  0.75000000  0.00000000  0.50000000  1
  Cu  Cu18  1  0.50000000  0.25000000  0.00000000  1
  Cu  Cu19  1  0.00000000  0.50000000  0.75000000  1
  C  C20  1  0.07530900  0.92469100  0.07530900  1
  C  C21  1  0.92469100  0.07530900  0.07530900  1
  C  C22  1  0.07530900  0.07530900  0.92469100  1
  C  C23  1  0.92469100  0.92469100  0.92469100  1
  C  C24  1  0.57530900  0.57530900  0.42469100  1
  C  C25  1  0.42469100  0.57530900  0.57530900  1
  C  C26  1  0.57530900  0.42469100  0.57530900  1
  C  C27  1  0.42469100  0.42469100  0.42469100  1
  C  C28  1  0.14611700  0.86104700  0.58039300  1
  C  C29  1  0.13895300  0.41960700  0.14611700  1
  C  C30  1  0.58039300  0.85388300  0.13895300  1
  C  C31  1  0.85388300  0.13895300  0.58039300  1
  C  C32  1  0.86104700  0.58039300  0.14611700  1
  C  C33  1  0.41960700  0.14611700  0.13895300  1
  C  C34  1  0.14611700  0.13895300  0.41960700  1
  C  C35  1  0.13895300  0.58039300  0.85388300  1
  C  C36  1  0.58039300  0.14611700  0.86104700  1
  C  C37  1  0.85388300  0.86104700  0.41960700  1
  C  C38  1  0.86104700  0.41960700  0.85388300  1
  C  C39  1  0.41960700  0.85388300  0.86104700  1
  C  C40  1  0.64611700  0.08039300  0.36104700  1
  C  C41  1  0.63895300  0.64611700  0.91960700  1
  C  C42  1  0.08039300  0.63895300  0.35388300  1
  C  C43  1  0.35388300  0.08039300  0.63895300  1
  C  C44  1  0.36104700  0.64611700  0.08039300  1
  C  C45  1  0.91960700  0.63895300  0.64611700  1
  C  C46  1  0.64611700  0.91960700  0.63895300  1
  C  C47  1  0.63895300  0.35388300  0.08039300  1
  C  C48  1  0.08039300  0.36104700  0.64611700  1
  C  C49  1  0.35388300  0.91960700  0.36104700  1
  C  C50  1  0.36104700  0.35388300  0.91960700  1
  C  C51  1  0.91960700  0.36104700  0.35388300  1
