# generated using pymatgen
data_Cu(NiC)2
_symmetry_space_group_name_H-M   'P 1'
_cell_length_a   8.70498100
_cell_length_b   8.72064336
_cell_length_c   8.75062947
_cell_angle_alpha   109.60956695
_cell_angle_beta   109.34002743
_cell_angle_gamma   109.25589084
_symmetry_Int_Tables_number   1
_chemical_formula_structural   Cu(NiC)2
_chemical_formula_sum   'Cu8 Ni16 C16'
_cell_volume   512.67383104
_cell_formula_units_Z   8
loop_
 _symmetry_equiv_pos_site_id
 _symmetry_equiv_pos_as_xyz
  1  'x, y, z'
loop_
 _atom_site_type_symbol
 _atom_site_label
 _atom_site_symmetry_multiplicity
 _atom_site_fract_x
 _atom_site_fract_y
 _atom_site_fract_z
 _atom_site_occupancy
  C  C0  1  0.00110200  0.98985100  0.49923600  1
  C  C1  1  0.74912400  0.29289100  0.46349600  1
  C  C2  1  0.22233100  0.47150300  0.24928700  1
  C  C3  1  0.70449000  0.95405200  0.25838300  1
  C  C4  1  0.25892800  0.21493200  0.03532100  1
  C  C5  1  0.04213500  0.26580600  0.70626300  1
  C  C6  1  0.51296700  0.50940400  0.48721100  1
  C  C7  1  0.99646000  0.50927000  0.99417800  1
  C  C8  1  0.48998800  0.99834700  0.01187600  1
  C  C9  1  0.96698300  0.74071300  0.28545000  1
  C  C10  1  0.52818200  0.25017000  0.21585100  1
  C  C11  1  0.46599800  0.74871000  0.78527200  1
  C  C12  1  0.74196500  0.77826200  0.96596000  1
  C  C13  1  0.28608300  0.03133500  0.74954500  1
  C  C14  1  0.78589500  0.53727900  0.74909600  1
  C  C15  1  0.25093400  0.71469100  0.53671900  1
  Ni  Ni16  1  0.26682100  0.23890600  0.27180600  1
  Ni  Ni17  1  0.01110000  0.53670200  0.22980700  1
  Ni  Ni18  1  0.48796200  0.25559900  0.47025400  1
  Ni  Ni19  1  0.46022000  0.96792400  0.26825700  1
  Ni  Ni20  1  0.46503900  0.72740200  0.04357700  1
  Ni  Ni21  1  0.73218700  0.76806000  0.72437500  1
  Ni  Ni22  1  0.74150600  0.73236700  0.22587900  1
  Ni  Ni23  1  0.27012500  0.50612700  0.45714000  1
  Ni  Ni24  1  0.51412700  0.73936300  0.53433400  1
  Ni  Ni25  1  0.98754000  0.45014800  0.77807400  1
  Ni  Ni26  1  0.76019700  0.53323700  0.01577600  1
  Ni  Ni27  1  0.22495000  0.77368100  0.76681900  1
  Ni  Ni28  1  0.22754000  0.95853600  0.03167500  1
  Ni  Ni29  1  0.53238900  0.27325900  0.95175700  1
  Ni  Ni30  1  0.72653100  0.48469300  0.54686500  1
  Ni  Ni31  1  0.04935700  0.77750800  0.48450900  1
  Cu  Cu32  1  0.03823800  0.99677300  0.73380000  1
  Cu  Cu33  1  0.96090900  0.01454300  0.26740000  1
  Cu  Cu34  1  0.54910500  0.03431300  0.72585700  1
  Cu  Cu35  1  0.94202700  0.21831200  0.52558000  1
  Cu  Cu36  1  0.77863600  0.22470300  0.23611600  1
  Cu  Cu37  1  0.25104400  0.26991900  0.77885100  1
  Cu  Cu38  1  0.24406500  0.46619400  0.97789700  1
  Cu  Cu39  1  0.77482200  0.04451600  0.96045000  1
