# generated using pymatgen
data_CuNi7C68
_symmetry_space_group_name_H-M   'P 1'
_cell_length_a   8.91737185
_cell_length_b   9.06723502
_cell_length_c   12.60207632
_cell_angle_alpha   89.59035144
_cell_angle_beta   89.90976526
_cell_angle_gamma   89.87812338
_symmetry_Int_Tables_number   1
_chemical_formula_structural   CuNi7C68
_chemical_formula_sum   'Cu1 Ni7 C68'
_cell_volume   1018.92271473
_cell_formula_units_Z   1
loop_
 _symmetry_equiv_pos_site_id
 _symmetry_equiv_pos_as_xyz
  1  'x, y, z'
loop_
 _atom_site_type_symbol
 _atom_site_label
 _atom_site_symmetry_multiplicity
 _atom_site_fract_x
 _atom_site_fract_y
 _atom_site_fract_z
 _atom_site_occupancy
  C  C0  1  0.21598300  0.72266300  0.17938800  1
  C  C1  1  0.21466800  0.77642400  0.82035400  1
  C  C2  1  0.28501600  0.22185700  0.32196100  1
  C  C3  1  0.28525100  0.27937100  0.67674700  1
  C  C4  1  0.71756200  0.71693200  0.32435300  1
  C  C5  1  0.71676800  0.76666700  0.67782300  1
  C  C6  1  0.78159900  0.22278200  0.17966900  1
  C  C7  1  0.78037000  0.28186200  0.81260800  1
  Ni  Ni8  1  0.24761000  0.54001600  0.38966400  1
  Ni  Ni9  1  0.24739600  0.95767700  0.61193200  1
  Ni  Ni10  1  0.25205000  0.04315700  0.11251800  1
  Ni  Ni11  1  0.25175100  0.45761600  0.88615800  1
  Ni  Ni12  1  0.74785300  0.54254200  0.11258200  1
  Ni  Ni13  1  0.74791000  0.95683000  0.88488400  1
  Ni  Ni14  1  0.75358300  0.04435700  0.38979300  1
  Cu  Cu15  1  0.75216500  0.45904500  0.61280400  1
  C  C16  1  0.04180400  0.25389900  0.50283800  1
  C  C17  1  0.10477400  0.39658600  0.14966200  1
  C  C18  1  0.10416500  0.10376000  0.85030100  1
  C  C19  1  0.39866900  0.60472900  0.64915600  1
  C  C20  1  0.39688900  0.89462500  0.35125500  1
  C  C21  1  0.45358900  0.75024300  0.99962400  1
  C  C22  1  0.54722400  0.24954600  0.99944700  1
  C  C23  1  0.60565900  0.10659800  0.64976400  1
  C  C24  1  0.60488300  0.39609100  0.35423800  1
  C  C25  1  0.89512000  0.60215900  0.85080600  1
  C  C26  1  0.89385900  0.89632400  0.14935500  1
  C  C27  1  0.95310900  0.74934900  0.50084100  1
  C  C28  1  0.05267700  0.64537000  0.43376500  1
  C  C29  1  0.05410400  0.85969600  0.56080600  1
  C  C30  1  0.06716700  0.89227800  0.15857200  1
  C  C31  1  0.06961200  0.60872900  0.84395400  1
  C  C32  1  0.15120900  0.16442400  0.57656200  1
  C  C33  1  0.14921500  0.33295200  0.42140500  1
  C  C34  1  0.15173700  0.43404600  0.03504900  1
  C  C35  1  0.15063000  0.06508900  0.96482700  1
  C  C36  1  0.16811500  0.24261000  0.18309200  1
  C  C37  1  0.16807600  0.25741800  0.81749000  1
  C  C38  1  0.16937800  0.51706500  0.22413900  1
  C  C39  1  0.17034700  0.98339700  0.77587700  1
  C  C40  1  0.33025500  0.01644000  0.27793100  1
  C  C41  1  0.32888200  0.48354500  0.72263300  1
  C  C42  1  0.32958600  0.75790600  0.68114100  1
  C  C43  1  0.33521800  0.74086900  0.31809000  1
  C  C44  1  0.34635500  0.56967100  0.53422800  1
  C  C45  1  0.34995900  0.92892000  0.46633100  1
  C  C46  1  0.34922300  0.83241100  0.07860400  1
  C  C47  1  0.35034700  0.66742800  0.92097200  1
  C  C48  1  0.43061000  0.10309900  0.65536300  1
  C  C49  1  0.43007700  0.39305600  0.34083500  1
  C  C50  1  0.45168200  0.14085900  0.06480700  1
  C  C51  1  0.45004400  0.35844700  0.93574000  1
  C  C52  1  0.54922200  0.64128300  0.06419600  1
  C  C53  1  0.54899200  0.85966900  0.93547000  1
  C  C54  1  0.56824300  0.60988200  0.65796900  1
  C  C55  1  0.57024400  0.89325600  0.34266000  1
  C  C56  1  0.65131100  0.33202400  0.07785000  1
  C  C57  1  0.65052000  0.16658600  0.92067200  1
  C  C58  1  0.65304500  0.06964500  0.53340600  1
  C  C59  1  0.65043200  0.43224200  0.46559300  1
  C  C60  1  0.66516200  0.23991600  0.31810300  1
  C  C61  1  0.66361100  0.25658500  0.68386300  1
  C  C62  1  0.66873200  0.51395500  0.27432500  1
  C  C63  1  0.66886800  0.97938400  0.72146900  1
  C  C64  1  0.82882200  0.01683000  0.22432000  1
  C  C65  1  0.83003900  0.48296600  0.78014600  1
  C  C66  1  0.83147600  0.74251600  0.18320200  1
  C  C67  1  0.83471600  0.75894400  0.81922600  1
  C  C68  1  0.85071400  0.57159500  0.96830900  1
  C  C69  1  0.84716800  0.93420700  0.03487200  1
  C  C70  1  0.85171900  0.66997800  0.57878100  1
  C  C71  1  0.85277800  0.83693000  0.41954800  1
  C  C72  1  0.93153800  0.10774300  0.84076600  1
  C  C73  1  0.93177200  0.39117400  0.15863500  1
  C  C74  1  0.94822200  0.14430200  0.43581500  1
  C  C75  1  0.95086300  0.35895600  0.56806600  1
