# generated using pymatgen
data_Cu2NiC2
_symmetry_space_group_name_H-M   'P 1'
_cell_length_a   7.19212922
_cell_length_b   7.19212922
_cell_length_c   5.69237800
_cell_angle_alpha   90.00000000
_cell_angle_beta   90.00000000
_cell_angle_gamma   133.26339300
_symmetry_Int_Tables_number   1
_chemical_formula_structural   Cu2NiC2
_chemical_formula_sum   'Cu4 Ni2 C4'
_cell_volume   214.42025237
_cell_formula_units_Z   2
loop_
 _symmetry_equiv_pos_site_id
 _symmetry_equiv_pos_as_xyz
  1  'x, y, z'
loop_
 _atom_site_type_symbol
 _atom_site_label
 _atom_site_symmetry_multiplicity
 _atom_site_fract_x
 _atom_site_fract_y
 _atom_site_fract_z
 _atom_site_occupancy
  C  C0  1  0.81294400  0.18705600  0.00000000  1
  C  C1  1  0.14292800  0.85707200  0.00000000  1
  C  C2  1  0.64787400  0.35212600  0.50000000  1
  C  C3  1  0.35323600  0.64676400  0.50000000  1
  Ni  Ni4  1  0.49479500  0.50520500  0.00000000  1
  Ni  Ni5  1  0.00140800  0.99859200  0.50000000  1
  Cu  Cu6  1  0.98228800  0.47901600  0.76868300  1
  Cu  Cu7  1  0.52098400  0.01771200  0.23131700  1
  Cu  Cu8  1  0.52098400  0.01771200  0.76868300  1
  Cu  Cu9  1  0.98228800  0.47901600  0.23131700  1
