# generated using pymatgen
data_Cu2NiC10
_symmetry_space_group_name_H-M   'P 1'
_cell_length_a   8.87978472
_cell_length_b   8.87978472
_cell_length_c   16.54759920
_cell_angle_alpha   61.44010649
_cell_angle_beta   61.44010649
_cell_angle_gamma   33.57190671
_symmetry_Int_Tables_number   1
_chemical_formula_structural   Cu2NiC10
_chemical_formula_sum   'Cu8 Ni4 C40'
_cell_volume   625.12812379
_cell_formula_units_Z   4
loop_
 _symmetry_equiv_pos_site_id
 _symmetry_equiv_pos_as_xyz
  1  'x, y, z'
loop_
 _atom_site_type_symbol
 _atom_site_label
 _atom_site_symmetry_multiplicity
 _atom_site_fract_x
 _atom_site_fract_y
 _atom_site_fract_z
 _atom_site_occupancy
  Ni  Ni0  1  0.14161000  0.55917700  0.12359400  1
  Ni  Ni1  1  0.44082300  0.85839000  0.37640600  1
  Ni  Ni2  1  0.55917700  0.14161000  0.62359400  1
  Ni  Ni3  1  0.85839000  0.44082300  0.87640600  1
  Cu  Cu4  1  0.39418100  0.79620400  0.03398500  1
  Cu  Cu5  1  0.20379600  0.60581900  0.46601500  1
  Cu  Cu6  1  0.60581900  0.20379600  0.96601500  1
  Cu  Cu7  1  0.00000000  0.50000000  0.00000000  1
  Cu  Cu8  1  0.79620400  0.39418100  0.53398500  1
  Cu  Cu9  1  0.57480100  0.42519900  0.75000000  1
  Cu  Cu10  1  0.42519900  0.57480100  0.25000000  1
  Cu  Cu11  1  0.50000000  0.00000000  0.50000000  1
  C  C12  1  0.48740000  0.93646900  0.14416400  1
  C  C13  1  0.82011900  0.22186900  0.38879500  1
  C  C14  1  0.51260000  0.06353100  0.85583600  1
  C  C15  1  0.22186900  0.82011900  0.88879500  1
  C  C16  1  0.93646900  0.48740000  0.64416400  1
  C  C17  1  0.06353100  0.51260000  0.35583600  1
  C  C18  1  0.17988100  0.77813100  0.61120500  1
  C  C19  1  0.77813100  0.17988100  0.11120500  1
  C  C20  1  0.19975800  0.27490800  0.90052000  1
  C  C21  1  0.57336700  0.26071100  0.08055500  1
  C  C22  1  0.27490800  0.19975800  0.40052000  1
  C  C23  1  0.64662200  0.19102400  0.45889600  1
  C  C24  1  0.67465400  0.78494600  0.92751800  1
  C  C25  1  0.76268500  0.34195700  0.28980500  1
  C  C26  1  0.80897600  0.35337800  0.04110400  1
  C  C27  1  0.92951400  0.13207500  0.89534400  1
  C  C28  1  0.35337800  0.80897600  0.54110400  1
  C  C29  1  0.73928900  0.42663300  0.41944500  1
  C  C30  1  0.60454100  0.15716800  0.85590600  1
  C  C31  1  0.97116800  0.43168500  0.73881600  1
  C  C32  1  0.42663300  0.73928900  0.91944500  1
  C  C33  1  0.13207500  0.92951400  0.39534400  1
  C  C34  1  0.80024200  0.72509200  0.09948000  1
  C  C35  1  0.39545900  0.84283200  0.14409400  1
  C  C36  1  0.43168500  0.97116800  0.23881600  1
  C  C37  1  0.19102400  0.64662200  0.95889600  1
  C  C38  1  0.15716800  0.60454100  0.35590600  1
  C  C39  1  0.02883200  0.56831500  0.26118400  1
  C  C40  1  0.86792500  0.07048600  0.60465600  1
  C  C41  1  0.78494600  0.67465400  0.42751800  1
  C  C42  1  0.07048600  0.86792500  0.10465600  1
  C  C43  1  0.34195700  0.76268500  0.78980500  1
  C  C44  1  0.26071100  0.57336700  0.58055500  1
  C  C45  1  0.72509200  0.80024200  0.59948000  1
  C  C46  1  0.56831500  0.02883200  0.76118400  1
  C  C47  1  0.21505400  0.32534600  0.57248200  1
  C  C48  1  0.32534600  0.21505400  0.07248200  1
  C  C49  1  0.65804300  0.23731500  0.21019500  1
  C  C50  1  0.23731500  0.65804300  0.71019500  1
  C  C51  1  0.84283200  0.39545900  0.64409400  1
