# generated using pymatgen
data_Cu4(NiC4)3
_symmetry_space_group_name_H-M   'P 1'
_cell_length_a   6.30410549
_cell_length_b   6.30410549
_cell_length_c   6.30410549
_cell_angle_alpha   109.47122063
_cell_angle_beta   109.47122063
_cell_angle_gamma   109.47122063
_symmetry_Int_Tables_number   1
_chemical_formula_structural   Cu4(NiC4)3
_chemical_formula_sum   'Cu4 Ni3 C12'
_cell_volume   192.86282511
_cell_formula_units_Z   1
loop_
 _symmetry_equiv_pos_site_id
 _symmetry_equiv_pos_as_xyz
  1  'x, y, z'
loop_
 _atom_site_type_symbol
 _atom_site_label
 _atom_site_symmetry_multiplicity
 _atom_site_fract_x
 _atom_site_fract_y
 _atom_site_fract_z
 _atom_site_occupancy
  Ni  Ni0  1  0.50000000  0.00000000  0.50000000  1
  Ni  Ni1  1  0.50000000  0.50000000  0.00000000  1
  Ni  Ni2  1  0.00000000  0.50000000  0.50000000  1
  Cu  Cu3  1  0.00000000  0.50000000  0.00000000  1
  Cu  Cu4  1  0.50000000  0.00000000  0.00000000  1
  Cu  Cu5  1  0.50000000  0.50000000  0.50000000  1
  Cu  Cu6  1  0.00000000  0.00000000  0.50000000  1
  C  C7  1  0.31926400  0.14514900  0.82588500  1
  C  C8  1  0.68073600  0.85485100  0.17411500  1
  C  C9  1  0.68073600  0.50662100  0.82588500  1
  C  C10  1  0.49337900  0.17411500  0.31926400  1
  C  C11  1  0.17411500  0.31926400  0.49337900  1
  C  C12  1  0.82588500  0.31926400  0.14514900  1
  C  C13  1  0.85485100  0.17411500  0.68073600  1
  C  C14  1  0.82588500  0.68073600  0.50662100  1
  C  C15  1  0.31926400  0.49337900  0.17411500  1
  C  C16  1  0.50662100  0.82588500  0.68073600  1
  C  C17  1  0.17411500  0.68073600  0.85485100  1
  C  C18  1  0.14514900  0.82588500  0.31926400  1
