# generated using pymatgen
data_CuNi2C7
_symmetry_space_group_name_H-M   'P 1'
_cell_length_a   6.07637352
_cell_length_b   6.07637352
_cell_length_c   6.07637352
_cell_angle_alpha   120.21793988
_cell_angle_beta   120.21793988
_cell_angle_gamma   89.62292974
_symmetry_Int_Tables_number   1
_chemical_formula_structural   CuNi2C7
_chemical_formula_sum   'Cu1 Ni2 C7'
_cell_volume   158.11577511
_cell_formula_units_Z   1
loop_
 _symmetry_equiv_pos_site_id
 _symmetry_equiv_pos_as_xyz
  1  'x, y, z'
loop_
 _atom_site_type_symbol
 _atom_site_label
 _atom_site_symmetry_multiplicity
 _atom_site_fract_x
 _atom_site_fract_y
 _atom_site_fract_z
 _atom_site_occupancy
  Ni  Ni0  1  0.75000000  0.25000000  0.50000000  1
  Ni  Ni1  1  0.25000000  0.75000000  0.50000000  1
  Cu  Cu2  1  0.50000000  0.50000000  0.00000000  1
  C  C3  1  0.00000000  0.00000000  0.00000000  1
  C  C4  1  0.26383200  0.20300600  0.46683900  1
  C  C5  1  0.73616800  0.79699400  0.53316100  1
  C  C6  1  0.20300600  0.73616800  0.93917400  1
  C  C7  1  0.79699400  0.26383200  0.06082600  1
  C  C8  1  0.23427300  0.23427300  0.00000000  1
  C  C9  1  0.76572700  0.76572700  0.00000000  1
