# generated using pymatgen
data_Cu2(Ni3C)3
_symmetry_space_group_name_H-M   'P 1'
_cell_length_a   8.17666706
_cell_length_b   8.17666706
_cell_length_c   8.17666706
_cell_angle_alpha   149.49923982
_cell_angle_beta   109.12994550
_cell_angle_gamma   79.08607114
_symmetry_Int_Tables_number   1
_chemical_formula_structural   Cu2(Ni3C)3
_chemical_formula_sum   'Cu2 Ni9 C3'
_cell_volume   257.16183103
_cell_formula_units_Z   1
loop_
 _symmetry_equiv_pos_site_id
 _symmetry_equiv_pos_as_xyz
  1  'x, y, z'
loop_
 _atom_site_type_symbol
 _atom_site_label
 _atom_site_symmetry_multiplicity
 _atom_site_fract_x
 _atom_site_fract_y
 _atom_site_fract_z
 _atom_site_occupancy
  C  C0  1  0.50000000  0.50000000  0.00000000  1
  C  C1  1  0.20016700  0.20016700  0.00000000  1
  C  C2  1  0.79983300  0.79983300  0.00000000  1
  Ni  Ni3  1  0.64502100  0.36288500  0.28213600  1
  Ni  Ni4  1  0.35497900  0.63711500  0.71786400  1
  Ni  Ni5  1  0.08074900  0.36288500  0.71786400  1
  Ni  Ni6  1  0.91925100  0.63711500  0.28213600  1
  Ni  Ni7  1  0.52179600  0.15511000  0.36668600  1
  Ni  Ni8  1  0.47820400  0.84489000  0.63331400  1
  Ni  Ni9  1  0.78842400  0.15511000  0.63331400  1
  Ni  Ni10  1  0.21157600  0.84489000  0.36668600  1
  Ni  Ni11  1  0.00000000  0.50000000  0.50000000  1
  Cu  Cu12  1  0.18212000  0.00000000  0.18212000  1
  Cu  Cu13  1  0.81788000  0.00000000  0.81788000  1
