# generated using pymatgen
data_Cu4Ni3C2
_symmetry_space_group_name_H-M   'P 1'
_cell_length_a   8.10355226
_cell_length_b   8.10355226
_cell_length_c   7.93684600
_cell_angle_alpha   90.00000000
_cell_angle_beta   90.00000000
_cell_angle_gamma   136.33993640
_symmetry_Int_Tables_number   1
_chemical_formula_structural   Cu4Ni3C2
_chemical_formula_sum   'Cu8 Ni6 C4'
_cell_volume   359.82055792
_cell_formula_units_Z   2
loop_
 _symmetry_equiv_pos_site_id
 _symmetry_equiv_pos_as_xyz
  1  'x, y, z'
loop_
 _atom_site_type_symbol
 _atom_site_label
 _atom_site_symmetry_multiplicity
 _atom_site_fract_x
 _atom_site_fract_y
 _atom_site_fract_z
 _atom_site_occupancy
  C  C0  1  0.38624400  0.61375600  0.91834000  1
  C  C1  1  0.61375600  0.38624400  0.08166000  1
  C  C2  1  0.88624400  0.11375600  0.58166000  1
  C  C3  1  0.11375600  0.88624400  0.41834000  1
  Ni  Ni4  1  0.50000000  0.50000000  0.50000000  1
  Ni  Ni5  1  0.00000000  0.00000000  0.00000000  1
  Ni  Ni6  1  0.03486300  0.46513700  0.25000000  1
  Ni  Ni7  1  0.46513700  0.03486300  0.75000000  1
  Ni  Ni8  1  0.53486300  0.96513700  0.25000000  1
  Ni  Ni9  1  0.96513700  0.53486300  0.75000000  1
  Cu  Cu10  1  0.31580100  0.68419900  0.55071800  1
  Cu  Cu11  1  0.68419900  0.31580100  0.44928200  1
  Cu  Cu12  1  0.81580100  0.18419900  0.94928200  1
  Cu  Cu13  1  0.70354500  0.79645500  0.25000000  1
  Cu  Cu14  1  0.20354500  0.29645500  0.25000000  1
  Cu  Cu15  1  0.29645500  0.20354500  0.75000000  1
  Cu  Cu16  1  0.79645500  0.70354500  0.75000000  1
  Cu  Cu17  1  0.18419900  0.81580100  0.05071800  1
