# generated using pymatgen
data_Cu5Ni3C28
_symmetry_space_group_name_H-M   'P 1'
_cell_length_a   10.99155136
_cell_length_b   11.15685942
_cell_length_c   17.47781824
_cell_angle_alpha   108.56469500
_cell_angle_beta   108.32062850
_cell_angle_gamma   90.08701515
_symmetry_Int_Tables_number   1
_chemical_formula_structural   Cu5Ni3C28
_chemical_formula_sum   'Cu20 Ni12 C112'
_cell_volume   1916.47946001
_cell_formula_units_Z   4
loop_
 _symmetry_equiv_pos_site_id
 _symmetry_equiv_pos_as_xyz
  1  'x, y, z'
loop_
 _atom_site_type_symbol
 _atom_site_label
 _atom_site_symmetry_multiplicity
 _atom_site_fract_x
 _atom_site_fract_y
 _atom_site_fract_z
 _atom_site_occupancy
  Ni  Ni0  1  0.30933300  0.55960000  0.60956900  1
  Ni  Ni1  1  0.80614800  0.05765300  0.60789400  1
  Ni  Ni2  1  0.80852700  0.55884900  0.61021700  1
  Ni  Ni3  1  0.19663500  0.43858500  0.38697100  1
  Ni  Ni4  1  0.20053700  0.44216400  0.89250700  1
  Ni  Ni5  1  0.69582600  0.93696800  0.38616700  1
  Ni  Ni6  1  0.05946400  0.29919200  0.60890100  1
  Ni  Ni7  1  0.05885000  0.80130600  0.60973200  1
  Ni  Ni8  1  0.55908400  0.30037200  0.61051600  1
  Ni  Ni9  1  0.45014000  0.20051600  0.88999700  1
  Ni  Ni10  1  0.94644500  0.19751600  0.38630700  1
  Ni  Ni11  1  0.94907500  0.20030200  0.89128700  1
  Cu  Cu12  1  0.30631700  0.06458300  0.10841900  1
  Cu  Cu13  1  0.30672000  0.05968700  0.60361200  1
  Cu  Cu14  1  0.30506500  0.56721800  0.10891400  1
  Cu  Cu15  1  0.80330600  0.06222000  0.10491500  1
  Cu  Cu16  1  0.80744300  0.56268500  0.10839900  1
  Cu  Cu17  1  0.20191000  0.93593600  0.39187200  1
  Cu  Cu18  1  0.20051400  0.93932800  0.89687400  1
  Cu  Cu19  1  0.70008300  0.43721600  0.39211000  1
  Cu  Cu20  1  0.70100700  0.43809700  0.89666900  1
  Cu  Cu21  1  0.69997300  0.93744700  0.89428300  1
  Cu  Cu22  1  0.05579700  0.29197800  0.10707600  1
  Cu  Cu23  1  0.05545700  0.79320200  0.10705800  1
  Cu  Cu24  1  0.55612600  0.29403400  0.10804400  1
  Cu  Cu25  1  0.55553900  0.79216900  0.10590400  1
  Cu  Cu26  1  0.55853200  0.79445900  0.60516300  1
  Cu  Cu27  1  0.45129500  0.20581900  0.39222000  1
  Cu  Cu28  1  0.44799500  0.70606900  0.39285300  1
  Cu  Cu29  1  0.45132700  0.70926100  0.89608400  1
  Cu  Cu30  1  0.95037100  0.70477100  0.39219900  1
  Cu  Cu31  1  0.94993000  0.70969500  0.89752700  1
  C  C32  1  0.00496700  0.99830900  0.49786900  1
  C  C33  1  0.00257000  0.49990000  0.49727800  1
  C  C34  1  0.50317300  0.99869400  0.49831900  1
  C  C35  1  0.50765800  0.50155300  0.00279900  1
  C  C36  1  0.50299300  0.49883600  0.49629900  1
  C  C37  1  0.25827900  0.25217700  0.00350100  1
  C  C38  1  0.25410500  0.24683100  0.49685900  1
  C  C39  1  0.25769700  0.75320800  0.00243700  1
  C  C40  1  0.25512000  0.75112700  0.49820200  1
  C  C41  1  0.75698000  0.25188700  0.00296000  1
  C  C42  1  0.75216800  0.24900400  0.49700900  1
  C  C43  1  0.75189300  0.74626100  0.49587300  1
  C  C44  1  0.11057900  0.09038900  0.24618600  1
  C  C45  1  0.11650000  0.09106500  0.75249000  1
  C  C46  1  0.11049700  0.59953000  0.24824200  1
  C  C47  1  0.11424400  0.60361600  0.75472700  1
  C  C48  1  0.60410500  0.09670900  0.24593000  1
  C  C49  1  0.60797300  0.09226600  0.74932700  1
  C  C50  1  0.60589000  0.59157400  0.24815800  1
  C  C51  1  0.61343400  0.60542700  0.75497100  1
  C  C52  1  0.35911800  0.40427900  0.24708600  1
  C  C53  1  0.36791300  0.40608500  0.75286900  1
  C  C54  1  0.35506700  0.90209900  0.24865200  1
  C  C55  1  0.36499300  0.90135500  0.75061700  1
  C  C56  1  0.85321300  0.40746400  0.24774600  1
  C  C57  1  0.86023500  0.41140000  0.75636400  1
  C  C58  1  0.86038000  0.89789000  0.24450700  1
  C  C59  1  0.85704900  0.89904400  0.75149100  1
  C  C60  1  0.00723900  0.00040100  0.00264100  1
  C  C61  1  0.00745200  0.50281400  0.00389600  1
  C  C62  1  0.50647100  0.00151300  0.00215200  1
  C  C63  1  0.75621900  0.74962500  0.00119500  1
  C  C64  1  0.12833300  0.11815500  0.49180600  1
  C  C65  1  0.13037600  0.12310600  0.99475100  1
  C  C66  1  0.12195000  0.62483700  0.48976500  1
  C  C67  1  0.12629500  0.62835100  0.99156800  1
  C  C68  1  0.61984600  0.12151100  0.48856000  1
  C  C69  1  0.63052800  0.12297000  0.99401000  1
  C  C70  1  0.62175100  0.61872100  0.48741300  1
  C  C71  1  0.62399500  0.61897000  0.99098000  1
  C  C72  1  0.13990400  0.38033000  0.01626100  1
  C  C73  1  0.13077300  0.37617300  0.50385300  1
  C  C74  1  0.13712600  0.87980900  0.01128800  1
  C  C75  1  0.13409400  0.87809200  0.50277900  1
  C  C76  1  0.64043600  0.38018600  0.01515300  1
  C  C77  1  0.62894900  0.37544800  0.50058900  1
  C  C78  1  0.63430300  0.87864000  0.01309200  1
  C  C79  1  0.62661200  0.87147100  0.50374000  1
  C  C80  1  0.37173200  0.11599400  0.48804600  1
  C  C81  1  0.37315600  0.12010100  0.99171200  1
  C  C82  1  0.37862300  0.62542300  0.49231000  1
  C  C83  1  0.37812600  0.62787100  0.99453400  1
  C  C84  1  0.87533600  0.12091300  0.49408000  1
  C  C85  1  0.87474800  0.11904600  0.99415100  1
  C  C86  1  0.87175200  0.61778400  0.48743400  1
  C  C87  1  0.87219100  0.61574300  0.98725500  1
  C  C88  1  0.38806200  0.38621500  0.01624100  1
  C  C89  1  0.38172000  0.37554400  0.50215500  1
  C  C90  1  0.38406500  0.88343000  0.01259900  1
  C  C91  1  0.38418200  0.88164700  0.51075000  1
  C  C92  1  0.88549800  0.38130000  0.01448200  1
  C  C93  1  0.87776200  0.37828900  0.50167000  1
  C  C94  1  0.88787800  0.88271000  0.01415200  1
  C  C95  1  0.88086200  0.87349400  0.50134800  1
  C  C96  1  0.08831000  0.09304100  0.13468800  1
  C  C97  1  0.08169800  0.07638300  0.63601700  1
  C  C98  1  0.08066300  0.59894300  0.13077300  1
  C  C99  1  0.07061200  0.58395600  0.63655300  1
  C  C100  1  0.57600300  0.09567900  0.13250200  1
  C  C101  1  0.57564800  0.08180800  0.63136700  1
  C  C102  1  0.58126300  0.59405400  0.13566400  1
  C  C103  1  0.57482900  0.58705200  0.63718200  1
  C  C104  1  0.43724700  0.40952400  0.36079200  1
  C  C105  1  0.44702100  0.41427400  0.86959000  1
  C  C106  1  0.43523100  0.90701400  0.36444100  1
  C  C107  1  0.45375100  0.91241600  0.86756000  1
  C  C108  1  0.93592100  0.41448700  0.36035400  1
  C  C109  1  0.94645100  0.41188300  0.86915900  1
  C  C110  1  0.93970800  0.91212100  0.36050000  1
  C  C111  1  0.94567700  0.91075400  0.86833000  1
  C  C112  1  0.33687100  0.29049100  0.13604200  1
  C  C113  1  0.32827100  0.29797700  0.63555000  1
  C  C114  1  0.32909300  0.79261600  0.13267000  1
  C  C115  1  0.32277100  0.79825000  0.63332700  1
  C  C116  1  0.82907500  0.29265500  0.13546600  1
  C  C117  1  0.82259000  0.31059700  0.63946600  1
  C  C118  1  0.83144300  0.78381800  0.13246600  1
  C  C119  1  0.81787600  0.80084600  0.63417200  1
  C  C120  1  0.18845200  0.19437600  0.36106600  1
  C  C121  1  0.19205400  0.20468300  0.86708200  1
  C  C122  1  0.19902700  0.70702700  0.36889800  1
  C  C123  1  0.20363000  0.71253400  0.87110100  1
  C  C124  1  0.68592400  0.19864400  0.36118200  1
  C  C125  1  0.69044200  0.20920400  0.86827500  1
  C  C126  1  0.69002700  0.69597600  0.36157200  1
  C  C127  1  0.69892200  0.71550600  0.86898200  1
  C  C128  1  0.42621100  0.07148000  0.24935300  1
  C  C129  1  0.42294900  0.06574300  0.74283100  1
  C  C130  1  0.42658200  0.57649600  0.24914800  1
  C  C131  1  0.43889200  0.57999700  0.75914500  1
  C  C132  1  0.92864100  0.06299400  0.23878600  1
  C  C133  1  0.93686600  0.05916700  0.74987700  1
  C  C134  1  0.92323400  0.57091700  0.24942200  1
  C  C135  1  0.93743300  0.57864800  0.76138800  1
  C  C136  1  0.17927500  0.42424200  0.24032200  1
  C  C137  1  0.18953500  0.44009200  0.75131700  1
  C  C138  1  0.17311900  0.92062900  0.24758500  1
  C  C139  1  0.18889500  0.92776600  0.76014400  1
  C  C140  1  0.67027900  0.42089400  0.24823100  1
  C  C141  1  0.68434800  0.43768100  0.76029500  1
  C  C142  1  0.68005200  0.92963200  0.24002700  1
  C  C143  1  0.67727700  0.92152600  0.75189500  1
