# generated using pymatgen
data_CuNiC9
_symmetry_space_group_name_H-M   'P 1'
_cell_length_a   6.86368458
_cell_length_b   6.86368458
_cell_length_c   6.86368468
_cell_angle_alpha   90.04731417
_cell_angle_beta   90.04731417
_cell_angle_gamma   90.04730420
_symmetry_Int_Tables_number   1
_chemical_formula_structural   CuNiC9
_chemical_formula_sum   'Cu2 Ni2 C18'
_cell_volume   323.34899447
_cell_formula_units_Z   2
loop_
 _symmetry_equiv_pos_site_id
 _symmetry_equiv_pos_as_xyz
  1  'x, y, z'
loop_
 _atom_site_type_symbol
 _atom_site_label
 _atom_site_symmetry_multiplicity
 _atom_site_fract_x
 _atom_site_fract_y
 _atom_site_fract_z
 _atom_site_occupancy
  C  C0  1  0.75000000  0.38818900  0.11181100  1
  C  C1  1  0.11181100  0.75000000  0.38818900  1
  C  C2  1  0.25000000  0.61181100  0.88818900  1
  C  C3  1  0.38818900  0.11181100  0.75000000  1
  C  C4  1  0.61181100  0.88818900  0.25000000  1
  C  C5  1  0.88818900  0.25000000  0.61181100  1
  Ni  Ni6  1  0.25000000  0.25000000  0.25000000  1
  Ni  Ni7  1  0.75000000  0.75000000  0.75000000  1
  Cu  Cu8  1  0.50000000  0.50000000  0.50000000  1
  Cu  Cu9  1  0.00000000  0.00000000  0.00000000  1
  C  C10  1  0.08360800  0.28251700  0.94824200  1
  C  C11  1  0.94824200  0.08360800  0.28251700  1
  C  C12  1  0.28251700  0.94824200  0.08360800  1
  C  C13  1  0.41639200  0.55175800  0.21748300  1
  C  C14  1  0.21748300  0.41639200  0.55175800  1
  C  C15  1  0.55175800  0.21748300  0.41639200  1
  C  C16  1  0.91639200  0.71748300  0.05175800  1
  C  C17  1  0.05175800  0.91639200  0.71748300  1
  C  C18  1  0.71748300  0.05175800  0.91639200  1
  C  C19  1  0.58360800  0.44824200  0.78251700  1
  C  C20  1  0.44824200  0.78251700  0.58360800  1
  C  C21  1  0.78251700  0.58360800  0.44824200  1
