# generated using pymatgen
data_CuNiC42
_symmetry_space_group_name_H-M   'P 1'
_cell_length_a   6.50448330
_cell_length_b   14.76259023
_cell_length_c   19.47266482
_cell_angle_alpha   90.00000000
_cell_angle_beta   90.00000000
_cell_angle_gamma   90.00000000
_symmetry_Int_Tables_number   1
_chemical_formula_structural   CuNiC42
_chemical_formula_sum   'Cu4 Ni4 C168'
_cell_volume   1869.82411493
_cell_formula_units_Z   4
loop_
 _symmetry_equiv_pos_site_id
 _symmetry_equiv_pos_as_xyz
  1  'x, y, z'
loop_
 _atom_site_type_symbol
 _atom_site_label
 _atom_site_symmetry_multiplicity
 _atom_site_fract_x
 _atom_site_fract_y
 _atom_site_fract_z
 _atom_site_occupancy
  Ni  Ni0  1  0.16303517  0.25000000  0.15911814  1
  Ni  Ni1  1  0.83696483  0.75000000  0.84088186  1
  Ni  Ni2  1  0.33696483  0.75000000  0.65911814  1
  Ni  Ni3  1  0.66303517  0.25000000  0.34088186  1
  Cu  Cu4  1  0.20373725  0.25000000  0.75307621  1
  Cu  Cu5  1  0.79626275  0.75000000  0.24692379  1
  Cu  Cu6  1  0.29626275  0.75000000  0.25307621  1
  Cu  Cu7  1  0.70373725  0.25000000  0.74692379  1
  C  C8  1  0.00619145  0.25000000  0.47418372  1
  C  C9  1  0.99380855  0.75000000  0.52581628  1
  C  C10  1  0.49380855  0.75000000  0.97418372  1
  C  C11  1  0.50619145  0.25000000  0.02581628  1
  C  C12  1  0.22665432  0.08084591  0.53819418  1
  C  C13  1  0.77334568  0.91915409  0.46180582  1
  C  C14  1  0.27334568  0.91915409  0.03819418  1
  C  C15  1  0.77334568  0.58084591  0.46180582  1
  C  C16  1  0.72665432  0.08084591  0.96180582  1
  C  C17  1  0.22665432  0.41915409  0.53819418  1
  C  C18  1  0.72665432  0.41915409  0.96180582  1
  C  C19  1  0.27334568  0.58084591  0.03819418  1
  C  C20  1  0.05122222  0.06004347  0.39569784  1
  C  C21  1  0.94877778  0.93995653  0.60430216  1
  C  C22  1  0.44877778  0.93995653  0.89569784  1
  C  C23  1  0.94877778  0.56004347  0.60430216  1
  C  C24  1  0.55122222  0.06004347  0.10430216  1
  C  C25  1  0.05122222  0.43995653  0.39569784  1
  C  C26  1  0.55122222  0.43995653  0.10430216  1
  C  C27  1  0.44877778  0.56004347  0.89569784  1
  C  C28  1  0.04828241  0.69727204  0.12538309  1
  C  C29  1  0.95171759  0.30272796  0.87461691  1
  C  C30  1  0.45171759  0.30272796  0.62538309  1
  C  C31  1  0.95171759  0.19727204  0.87461691  1
  C  C32  1  0.54828241  0.69727204  0.37461691  1
  C  C33  1  0.04828241  0.80272796  0.12538309  1
  C  C34  1  0.54828241  0.80272796  0.37461691  1
  C  C35  1  0.45171759  0.19727204  0.62538309  1
  C  C36  1  0.41521192  0.05598783  0.31489834  1
  C  C37  1  0.58478808  0.94401217  0.68510166  1
  C  C38  1  0.08478808  0.94401217  0.81489834  1
  C  C39  1  0.58478808  0.55598783  0.68510166  1
  C  C40  1  0.91521192  0.05598783  0.18510166  1
  C  C41  1  0.41521192  0.44401217  0.31489834  1
  C  C42  1  0.91521192  0.44401217  0.18510166  1
  C  C43  1  0.08478808  0.55598783  0.81489834  1
  C  C44  1  0.08347505  0.19690569  0.99548975  1
  C  C45  1  0.91652495  0.80309431  0.00451025  1
  C  C46  1  0.41652495  0.80309431  0.49548975  1
  C  C47  1  0.91652495  0.69690569  0.00451025  1
  C  C48  1  0.58347505  0.19690569  0.50451025  1
  C  C49  1  0.08347505  0.30309431  0.99548975  1
  C  C50  1  0.58347505  0.30309431  0.50451025  1
  C  C51  1  0.41652495  0.69690569  0.49548975  1
  C  C52  1  0.19714808  0.19856672  0.31584871  1
  C  C53  1  0.80285192  0.80143328  0.68415129  1
  C  C54  1  0.30285192  0.80143328  0.81584871  1
  C  C55  1  0.80285192  0.69856672  0.68415129  1
  C  C56  1  0.69714808  0.19856672  0.18415129  1
  C  C57  1  0.19714808  0.30143328  0.31584871  1
  C  C58  1  0.69714808  0.30143328  0.18415129  1
  C  C59  1  0.30285192  0.69856672  0.81584871  1
  C  C60  1  0.07713087  0.58672052  0.30873296  1
  C  C61  1  0.92286913  0.41327948  0.69126704  1
  C  C62  1  0.42286913  0.41327948  0.80873296  1
  C  C63  1  0.92286913  0.08672052  0.69126704  1
  C  C64  1  0.57713087  0.58672052  0.19126704  1
  C  C65  1  0.07713087  0.91327948  0.30873296  1
  C  C66  1  0.57713087  0.91327948  0.19126704  1
  C  C67  1  0.42286913  0.08672052  0.80873296  1
  C  C68  1  0.02166839  0.66491375  0.35765597  1
  C  C69  1  0.97833161  0.33508625  0.64234403  1
  C  C70  1  0.47833161  0.33508625  0.85765597  1
  C  C71  1  0.97833161  0.16491375  0.64234403  1
  C  C72  1  0.52166839  0.66491375  0.14234403  1
  C  C73  1  0.02166839  0.83508625  0.35765597  1
  C  C74  1  0.52166839  0.83508625  0.14234403  1
  C  C75  1  0.47833161  0.16491375  0.85765597  1
  C  C76  1  0.31711543  0.51646160  0.44947759  1
  C  C77  1  0.68288457  0.48353840  0.55052241  1
  C  C78  1  0.18288457  0.48353840  0.94947759  1
  C  C79  1  0.68288457  0.01646160  0.55052241  1
  C  C80  1  0.81711543  0.51646160  0.05052241  1
  C  C81  1  0.31711543  0.98353840  0.44947759  1
  C  C82  1  0.81711543  0.98353840  0.05052241  1
  C  C83  1  0.18288457  0.01646160  0.94947759  1
  C  C84  1  0.08522766  0.05840452  0.24261812  1
  C  C85  1  0.91477234  0.94159548  0.75738188  1
  C  C86  1  0.41477234  0.94159548  0.74261812  1
  C  C87  1  0.91477234  0.55840452  0.75738188  1
  C  C88  1  0.58522766  0.05840452  0.25738188  1
  C  C89  1  0.08522766  0.44159548  0.24261812  1
  C  C90  1  0.58522766  0.44159548  0.25738188  1
  C  C91  1  0.41477234  0.55840452  0.74261812  1
  C  C92  1  0.21963414  0.01837798  0.12971338  1
  C  C93  1  0.78036586  0.98162202  0.87028662  1
  C  C94  1  0.28036586  0.98162202  0.62971338  1
  C  C95  1  0.78036586  0.51837798  0.87028662  1
  C  C96  1  0.71963414  0.01837798  0.37028662  1
  C  C97  1  0.21963414  0.48162202  0.12971338  1
  C  C98  1  0.71963414  0.48162202  0.37028662  1
  C  C99  1  0.28036586  0.51837798  0.62971338  1
  C  C100  1  0.21246207  0.03476558  0.45899929  1
  C  C101  1  0.78753793  0.96523442  0.54100071  1
  C  C102  1  0.28753793  0.96523442  0.95899929  1
  C  C103  1  0.78753793  0.53476558  0.54100071  1
  C  C104  1  0.71246207  0.03476558  0.04100071  1
  C  C105  1  0.21246207  0.46523442  0.45899929  1
  C  C106  1  0.71246207  0.46523442  0.04100071  1
  C  C107  1  0.28753793  0.53476558  0.95899929  1
  C  C108  1  0.33285711  0.00105786  0.09372093  1
  C  C109  1  0.66714289  0.99894214  0.90627907  1
  C  C110  1  0.16714289  0.99894214  0.59372093  1
  C  C111  1  0.66714289  0.50105786  0.90627907  1
  C  C112  1  0.83285711  0.00105786  0.40627907  1
  C  C113  1  0.33285711  0.49894214  0.09372093  1
  C  C114  1  0.83285711  0.49894214  0.40627907  1
  C  C115  1  0.16714289  0.50105786  0.59372093  1
  C  C116  1  0.06221110  0.07001434  0.19311350  1
  C  C117  1  0.93778890  0.92998566  0.80688650  1
  C  C118  1  0.43778890  0.92998566  0.69311350  1
  C  C119  1  0.93778890  0.57001434  0.80688650  1
  C  C120  1  0.56221110  0.07001434  0.30688650  1
  C  C121  1  0.06221110  0.42998566  0.19311350  1
  C  C122  1  0.56221110  0.42998566  0.30688650  1
  C  C123  1  0.43778890  0.57001434  0.69311350  1
  C  C124  1  0.26815007  0.25000000  0.29469824  1
  C  C125  1  0.73184993  0.75000000  0.70530176  1
  C  C126  1  0.23184993  0.75000000  0.79469824  1
  C  C127  1  0.76815007  0.25000000  0.20530176  1
  C  C128  1  0.15035545  0.03261061  0.32798490  1
  C  C129  1  0.84964455  0.96738939  0.67201510  1
  C  C130  1  0.34964455  0.96738939  0.82798490  1
  C  C131  1  0.84964455  0.53261061  0.67201510  1
  C  C132  1  0.65035545  0.03261061  0.17201510  1
  C  C133  1  0.15035545  0.46738939  0.32798490  1
  C  C134  1  0.65035545  0.46738939  0.17201510  1
  C  C135  1  0.34964455  0.53261061  0.82798490  1
  C  C136  1  0.05445076  0.60950016  0.05314409  1
  C  C137  1  0.94554924  0.39049984  0.94685591  1
  C  C138  1  0.44554924  0.39049984  0.55314409  1
  C  C139  1  0.94554924  0.10950016  0.94685591  1
  C  C140  1  0.55445076  0.60950016  0.44685591  1
  C  C141  1  0.05445076  0.89049984  0.05314409  1
  C  C142  1  0.55445076  0.89049984  0.44685591  1
  C  C143  1  0.44554924  0.10950016  0.55314409  1
  C  C144  1  0.05829021  0.15372318  0.54211946  1
  C  C145  1  0.94170979  0.84627682  0.45788054  1
  C  C146  1  0.44170979  0.84627682  0.04211946  1
  C  C147  1  0.94170979  0.65372318  0.45788054  1
  C  C148  1  0.55829021  0.15372318  0.95788054  1
  C  C149  1  0.05829021  0.34627682  0.54211946  1
  C  C150  1  0.55829021  0.34627682  0.95788054  1
  C  C151  1  0.44170979  0.65372318  0.04211946  1
  C  C152  1  0.45279233  0.25000000  0.65664290  1
  C  C153  1  0.54720767  0.75000000  0.34335710  1
  C  C154  1  0.04720767  0.75000000  0.15664290  1
  C  C155  1  0.95279233  0.25000000  0.84335710  1
  C  C156  1  0.50014647  0.16119747  0.10232304  1
  C  C157  1  0.49985353  0.83880253  0.89767696  1
  C  C158  1  -0.00014647  0.83880253  0.60232304  1
  C  C159  1  0.49985353  0.66119747  0.89767696  1
  C  C160  1  0.00014647  0.16119747  0.39767696  1
  C  C161  1  0.50014647  0.33880253  0.10232304  1
  C  C162  1  0.00014647  0.33880253  0.39767696  1
  C  C163  1  -0.00014647  0.66119747  0.60232304  1
  C  C164  1  0.14602851  0.25000000  0.01850226  1
  C  C165  1  0.85397149  0.75000000  0.98149774  1
  C  C166  1  0.35397149  0.75000000  0.51850226  1
  C  C167  1  0.64602851  0.25000000  0.48149774  1
  C  C168  1  0.04541993  0.65225920  0.30876816  1
  C  C169  1  0.95458007  0.34774080  0.69123184  1
  C  C170  1  0.45458007  0.34774080  0.80876816  1
  C  C171  1  0.95458007  0.15225920  0.69123184  1
  C  C172  1  0.54541993  0.65225920  0.19123184  1
  C  C173  1  0.04541993  0.84774080  0.30876816  1
  C  C174  1  0.54541993  0.84774080  0.19123184  1
  C  C175  1  0.45458007  0.15225920  0.80876816  1
