# generated using pymatgen
data_CuNiC32
_symmetry_space_group_name_H-M   'P 1'
_cell_length_a   9.23549597
_cell_length_b   9.14901633
_cell_length_c   9.23549597
_cell_angle_alpha   112.10534379
_cell_angle_beta   104.34249721
_cell_angle_gamma   112.52474947
_symmetry_Int_Tables_number   1
_chemical_formula_structural   CuNiC32
_chemical_formula_sum   'Cu1 Ni1 C32'
_cell_volume   593.71635951
_cell_formula_units_Z   1
loop_
 _symmetry_equiv_pos_site_id
 _symmetry_equiv_pos_as_xyz
  1  'x, y, z'
loop_
 _atom_site_type_symbol
 _atom_site_label
 _atom_site_symmetry_multiplicity
 _atom_site_fract_x
 _atom_site_fract_y
 _atom_site_fract_z
 _atom_site_occupancy
  Ni  Ni0  1  0.83409396  0.00000000  0.83409396  1
  Cu  Cu1  1  0.06015934  0.00000000  0.06015934  1
  C  C2  1  0.81089225  0.68175484  0.49082533  1
  C  C3  1  0.18922827  0.69163888  0.86348774  1
  C  C4  1  0.80907049  0.31824516  0.12913741  1
  C  C5  1  0.65321987  0.55316510  0.79376045  1
  C  C6  1  0.17184886  0.30836112  0.49758939  1
  C  C7  1  0.72470504  0.87015339  0.20761714  1
  C  C8  1  0.33746375  0.12984661  0.85455165  1
  C  C9  1  0.24059536  0.44683490  0.10005478  1
  C  C10  1  0.42601823  0.79452791  0.60049541  1
  C  C11  1  0.12841313  0.82699614  0.30812369  1
  C  C12  1  0.48112755  0.17300386  0.30141699  1
  C  C13  1  0.80596750  0.20547209  0.63149033  1
  C  C14  1  0.24994626  0.20661322  0.24874154  1
  C  C15  1  0.86207092  0.99644913  0.05247152  1
  C  C16  1  0.04212831  0.79338678  0.04333303  1
  C  C17  1  0.05602240  0.00355087  0.86562179  1
  C  C18  1  0.68850001  0.81656566  0.41893756  1
  C  C19  1  0.32665014  0.70121939  0.09354847  1
  C  C20  1  0.60237190  0.18343434  0.87193435  1
  C  C21  1  0.75975239  0.42702416  0.63836068  1
  C  C22  1  0.39232808  0.29878061  0.62542974  1
  C  C23  1  0.75437341  0.13480962  0.35663135  1
  C  C24  1  0.22182174  0.86519038  0.61956479  1
  C  C25  1  0.21133752  0.57297584  0.33272823  1
  C  C26  1  0.36523570  0.64698911  0.73173082  1
  C  C27  1  0.87135645  0.60471880  0.21646822  1
  C  C28  1  0.61174942  0.39528120  0.26663865  1
  C  C29  1  0.08474171  0.35301089  0.71824559  1
  C  C30  1  0.66459915  0.70708124  0.65867748  1
  C  C31  1  0.38956981  0.00707667  0.01383553  1
  C  C32  1  0.95159624  0.29291876  0.95751791  1
  C  C33  1  0.00675886  0.99292333  0.38249314  1
