# generated using pymatgen
data_CuNi14C
_symmetry_space_group_name_H-M   'P 1'
_cell_length_a   6.28631649
_cell_length_b   6.52853077
_cell_length_c   10.19207321
_cell_angle_alpha   90.00000000
_cell_angle_beta   90.00000000
_cell_angle_gamma   121.28298076
_symmetry_Int_Tables_number   1
_chemical_formula_structural   CuNi14C
_chemical_formula_sum   'Cu1 Ni14 C1'
_cell_volume   357.47344276
_cell_formula_units_Z   1
loop_
 _symmetry_equiv_pos_site_id
 _symmetry_equiv_pos_as_xyz
  1  'x, y, z'
loop_
 _atom_site_type_symbol
 _atom_site_label
 _atom_site_symmetry_multiplicity
 _atom_site_fract_x
 _atom_site_fract_y
 _atom_site_fract_z
 _atom_site_occupancy
  Ni  Ni0  1  0.17034178  0.33517039  0.62500000  1
  Ni  Ni1  1  0.17101536  0.83550718  0.62500000  1
  Ni  Ni2  1  0.67002339  0.33491549  0.12500000  1
  Ni  Ni3  1  0.66783277  0.33339949  0.62500000  1
  Ni  Ni4  1  0.67002339  0.83510690  0.12500000  1
  Ni  Ni5  1  0.66783277  0.83443228  0.62500000  1
  Ni  Ni6  1  0.33014009  0.16995692  0.37128024  1
  Ni  Ni7  1  0.33014009  0.16995692  0.87871976  1
  Ni  Ni8  1  0.33014009  0.66018417  0.37128024  1
  Ni  Ni9  1  0.33014009  0.66018417  0.87871976  1
  Ni  Ni10  1  0.83751486  0.16875793  0.37079713  1
  Ni  Ni11  1  0.83751486  0.16875793  0.87920287  1
  Ni  Ni12  1  0.83173511  0.66586806  0.37713431  1
  Ni  Ni13  1  0.83173511  0.66586806  0.87286569  1
  Cu  Cu14  1  0.16131277  0.33065589  0.12500000  1
  C  C15  1  0.16255746  0.83127823  0.12500000  1
