# generated using pymatgen
data_Cu9Ni3C
_symmetry_space_group_name_H-M   'P 1'
_cell_length_a   10.80463929
_cell_length_b   10.80463929
_cell_length_c   12.91758652
_cell_angle_alpha   80.72725410
_cell_angle_beta   80.72725410
_cell_angle_gamma   103.11417097
_symmetry_Int_Tables_number   1
_chemical_formula_structural   Cu9Ni3C
_chemical_formula_sum   'Cu72 Ni24 C8'
_cell_volume   1418.49147687
_cell_formula_units_Z   8
loop_
 _symmetry_equiv_pos_site_id
 _symmetry_equiv_pos_as_xyz
  1  'x, y, z'
loop_
 _atom_site_type_symbol
 _atom_site_label
 _atom_site_symmetry_multiplicity
 _atom_site_fract_x
 _atom_site_fract_y
 _atom_site_fract_z
 _atom_site_occupancy
  C  C0  1  0.00000000  0.50000000  0.50000000  1
  C  C1  1  0.50000000  0.00000000  0.00000000  1
  C  C2  1  0.72010300  0.27989700  0.25000000  1
  C  C3  1  0.27989700  0.72010300  0.75000000  1
  C  C4  1  0.76314800  0.78010600  0.25771500  1
  C  C5  1  0.21989400  0.23685200  0.24228500  1
  C  C6  1  0.23685200  0.21989400  0.74228500  1
  C  C7  1  0.78010600  0.76314800  0.75771500  1
  Ni  Ni8  1  0.63866800  0.49157300  0.36009500  1
  Ni  Ni9  1  0.50842700  0.36133200  0.13990500  1
  Ni  Ni10  1  0.36133200  0.50842700  0.63990500  1
  Ni  Ni11  1  0.49157300  0.63866800  0.86009500  1
  Ni  Ni12  1  0.74513000  0.17879200  0.04203300  1
  Ni  Ni13  1  0.82120800  0.25487000  0.45796700  1
  Ni  Ni14  1  0.25487000  0.82120800  0.95796700  1
  Ni  Ni15  1  0.17879200  0.74513000  0.54203300  1
  Ni  Ni16  1  0.75573500  0.54228000  0.63143300  1
  Ni  Ni17  1  0.45772000  0.24426500  0.86856700  1
  Ni  Ni18  1  0.24426500  0.45772000  0.36856700  1
  Ni  Ni19  1  0.54228000  0.75573500  0.13143300  1
  Ni  Ni20  1  0.00309400  0.68161500  0.29180300  1
  Ni  Ni21  1  0.31838500  0.99690600  0.20819700  1
  Ni  Ni22  1  0.99690600  0.31838500  0.70819700  1
  Ni  Ni23  1  0.68161500  0.00309400  0.79180300  1
  Ni  Ni24  1  0.83062700  0.86282500  0.52127100  1
  Ni  Ni25  1  0.13717500  0.16937300  0.97872900  1
  Ni  Ni26  1  0.16937300  0.13717500  0.47872900  1
  Ni  Ni27  1  0.86282500  0.83062700  0.02127100  1
  Ni  Ni28  1  0.61454500  0.97532100  0.32315100  1
  Ni  Ni29  1  0.02467900  0.38545500  0.17684900  1
  Ni  Ni30  1  0.38545500  0.02467900  0.67684900  1
  Ni  Ni31  1  0.97532100  0.61454500  0.82315100  1
  Cu  Cu32  1  0.72326500  0.52242200  0.26981600  1
  Cu  Cu33  1  0.47757800  0.27673500  0.23018400  1
  Cu  Cu34  1  0.27673500  0.47757800  0.73018400  1
  Cu  Cu35  1  0.52242200  0.72326500  0.76981600  1
  Cu  Cu36  1  0.58656300  0.37386400  0.39871700  1
  Cu  Cu37  1  0.62613600  0.41343700  0.10128300  1
  Cu  Cu38  1  0.41343700  0.62613600  0.60128300  1
  Cu  Cu39  1  0.37386400  0.58656300  0.89871700  1
  Cu  Cu40  1  0.61507600  0.58224000  0.40282700  1
  Cu  Cu41  1  0.41776000  0.38492400  0.09717300  1
  Cu  Cu42  1  0.38492400  0.41776000  0.59717300  1
  Cu  Cu43  1  0.58224000  0.61507600  0.90282700  1
  Cu  Cu44  1  0.63316800  0.14960700  0.10842500  1
  Cu  Cu45  1  0.85039300  0.36683200  0.39157500  1
  Cu  Cu46  1  0.36683200  0.85039300  0.89157500  1
  Cu  Cu47  1  0.14960700  0.63316800  0.60842500  1
  Cu  Cu48  1  0.75184000  0.12917700  0.96145800  1
  Cu  Cu49  1  0.87082300  0.24816000  0.53854200  1
  Cu  Cu50  1  0.24816000  0.87082300  0.03854200  1
  Cu  Cu51  1  0.12917700  0.75184000  0.46145800  1
  Cu  Cu52  1  0.83877500  0.25447000  0.06402300  1
  Cu  Cu53  1  0.74553000  0.16122500  0.43597700  1
  Cu  Cu54  1  0.16122500  0.74553000  0.93597700  1
  Cu  Cu55  1  0.25447000  0.83877500  0.56402300  1
  Cu  Cu56  1  0.74521200  0.45912200  0.57435800  1
  Cu  Cu57  1  0.54087800  0.25478800  0.92564200  1
  Cu  Cu58  1  0.25478800  0.54087800  0.42564200  1
  Cu  Cu59  1  0.45912200  0.74521200  0.07435800  1
  Cu  Cu60  1  0.86941000  0.62211000  0.62090500  1
  Cu  Cu61  1  0.37789000  0.13059000  0.87909500  1
  Cu  Cu62  1  0.13059000  0.37789000  0.37909500  1
  Cu  Cu63  1  0.62211000  0.86941000  0.12090500  1
  Cu  Cu64  1  0.66400900  0.55383400  0.69842000  1
  Cu  Cu65  1  0.44616600  0.33599100  0.80158000  1
  Cu  Cu66  1  0.33599100  0.44616600  0.30158000  1
  Cu  Cu67  1  0.55383400  0.66400900  0.19842000  1
  Cu  Cu68  1  0.08972200  0.62302700  0.29741900  1
  Cu  Cu69  1  0.37697300  0.91027800  0.20258100  1
  Cu  Cu70  1  0.91027800  0.37697300  0.70258100  1
  Cu  Cu71  1  0.62302700  0.08972200  0.79741900  1
  Cu  Cu72  1  0.00307700  0.76408800  0.21155000  1
  Cu  Cu73  1  0.23591200  0.99692300  0.28845000  1
  Cu  Cu74  1  0.99692300  0.23591200  0.78845000  1
  Cu  Cu75  1  0.76408800  0.00307700  0.71155000  1
  Cu  Cu76  1  0.90672200  0.65499500  0.37342100  1
  Cu  Cu77  1  0.34500500  0.09327800  0.12657900  1
  Cu  Cu78  1  0.09327800  0.34500500  0.62657900  1
  Cu  Cu79  1  0.65499500  0.90672200  0.87342100  1
  Cu  Cu80  1  0.71579100  0.80761500  0.57607300  1
  Cu  Cu81  1  0.19238500  0.28420900  0.92392700  1
  Cu  Cu82  1  0.28420900  0.19238500  0.42392700  1
  Cu  Cu83  1  0.80761500  0.71579100  0.07607300  1
  Cu  Cu84  1  0.85295000  0.88722600  0.42071600  1
  Cu  Cu85  1  0.11277400  0.14705000  0.07928400  1
  Cu  Cu86  1  0.14705000  0.11277400  0.57928400  1
  Cu  Cu87  1  0.88722600  0.85295000  0.92071600  1
  Cu  Cu88  1  0.92049200  0.88934000  0.57303200  1
  Cu  Cu89  1  0.11066000  0.07950800  0.92696800  1
  Cu  Cu90  1  0.07950800  0.11066000  0.42696800  1
  Cu  Cu91  1  0.88934000  0.92049200  0.07303200  1
  Cu  Cu92  1  0.57151500  0.85425100  0.35444900  1
  Cu  Cu93  1  0.14574900  0.42848500  0.14555100  1
  Cu  Cu94  1  0.42848500  0.14574900  0.64555100  1
  Cu  Cu95  1  0.85425100  0.57151500  0.85444900  1
  Cu  Cu96  1  0.54802100  0.05340200  0.34145200  1
  Cu  Cu97  1  0.94659800  0.45197900  0.15854800  1
  Cu  Cu98  1  0.45197900  0.94659800  0.65854800  1
  Cu  Cu99  1  0.05340200  0.54802100  0.84145200  1
  Cu  Cu100  1  0.73262100  0.02085900  0.26825400  1
  Cu  Cu101  1  0.97914100  0.26737900  0.23174600  1
  Cu  Cu102  1  0.26737900  0.97914100  0.73174600  1
  Cu  Cu103  1  0.02085900  0.73262100  0.76825400  1
