# generated using pymatgen
data_CuNiC8
_symmetry_space_group_name_H-M   'P 1'
_cell_length_a   5.67189100
_cell_length_b   5.36070900
_cell_length_c   9.41232826
_cell_angle_alpha   55.22685677
_cell_angle_beta   90.00000000
_cell_angle_gamma   90.00000000
_symmetry_Int_Tables_number   1
_chemical_formula_structural   CuNiC8
_chemical_formula_sum   'Cu2 Ni2 C16'
_cell_volume   235.07728555
_cell_formula_units_Z   2
loop_
 _symmetry_equiv_pos_site_id
 _symmetry_equiv_pos_as_xyz
  1  'x, y, z'
loop_
 _atom_site_type_symbol
 _atom_site_label
 _atom_site_symmetry_multiplicity
 _atom_site_fract_x
 _atom_site_fract_y
 _atom_site_fract_z
 _atom_site_occupancy
  C  C0  1  0.56957500  0.72989100  0.75033400  1
  C  C1  1  0.06957500  0.27010900  0.74966600  1
  C  C2  1  0.43042500  0.27010900  0.24966600  1
  C  C3  1  0.93042500  0.72989100  0.25033400  1
  Ni  Ni4  1  0.00000000  0.00000000  0.50000000  1
  Ni  Ni5  1  0.50000000  0.00000000  0.00000000  1
  Cu  Cu6  1  0.00000000  0.50000000  0.00000000  1
  Cu  Cu7  1  0.50000000  0.50000000  0.50000000  1
  C  C8  1  0.95969200  0.86256200  0.75121200  1
  C  C9  1  0.45969200  0.13743800  0.74878800  1
  C  C10  1  0.04030800  0.13743800  0.24878800  1
  C  C11  1  0.54030800  0.86256200  0.25121200  1
  C  C12  1  0.80355100  0.24788300  0.94289400  1
  C  C13  1  0.30355100  0.75211700  0.55710600  1
  C  C14  1  0.19736700  0.37005200  0.44200200  1
  C  C15  1  0.69736700  0.62994800  0.05799800  1
  C  C16  1  0.19644900  0.75211700  0.05710600  1
  C  C17  1  0.69644900  0.24788300  0.44289400  1
  C  C18  1  0.80263300  0.62994800  0.55799800  1
  C  C19  1  0.30263300  0.37005200  0.94200200  1
