# generated using pymatgen
data_Cu3Ni9C4
_symmetry_space_group_name_H-M   'P 1'
_cell_length_a   7.35115973
_cell_length_b   7.35115973
_cell_length_c   22.86464300
_cell_angle_alpha   90.00000000
_cell_angle_beta   90.00000000
_cell_angle_gamma   119.99999760
_symmetry_Int_Tables_number   1
_chemical_formula_structural   Cu3Ni9C4
_chemical_formula_sum   'Cu6 Ni18 C8'
_cell_volume   1070.05668952
_cell_formula_units_Z   2
loop_
 _symmetry_equiv_pos_site_id
 _symmetry_equiv_pos_as_xyz
  1  'x, y, z'
loop_
 _atom_site_type_symbol
 _atom_site_label
 _atom_site_symmetry_multiplicity
 _atom_site_fract_x
 _atom_site_fract_y
 _atom_site_fract_z
 _atom_site_occupancy
  C  C0  1  0.33333300  0.66666700  0.13417500  1
  C  C1  1  0.66666700  0.33333300  0.86582500  1
  C  C2  1  0.66666700  0.33333300  0.63417500  1
  C  C3  1  0.33333300  0.66666700  0.36582500  1
  C  C4  1  0.00000000  0.00000000  0.00000000  1
  C  C5  1  0.00000000  0.00000000  0.50000000  1
  C  C6  1  0.00000000  0.00000000  0.25000000  1
  C  C7  1  0.00000000  0.00000000  0.75000000  1
  Ni  Ni8  1  0.19273100  0.38546300  0.62489800  1
  Ni  Ni9  1  0.80726900  0.61453700  0.37510200  1
  Ni  Ni10  1  0.61453700  0.80726900  0.62489800  1
  Ni  Ni11  1  0.80726900  0.61453700  0.12489800  1
  Ni  Ni12  1  0.38546300  0.19273100  0.37510200  1
  Ni  Ni13  1  0.19273100  0.38546300  0.87510200  1
  Ni  Ni14  1  0.19273100  0.80726900  0.62489800  1
  Ni  Ni15  1  0.38546300  0.19273100  0.12489800  1
  Ni  Ni16  1  0.80726900  0.19273100  0.37510200  1
  Ni  Ni17  1  0.61453700  0.80726900  0.87510200  1
  Ni  Ni18  1  0.80726900  0.19273100  0.12489800  1
  Ni  Ni19  1  0.19273100  0.80726900  0.87510200  1
  Ni  Ni20  1  0.52844900  0.05689900  0.25000000  1
  Ni  Ni21  1  0.47155100  0.94310100  0.75000000  1
  Ni  Ni22  1  0.94310100  0.47155100  0.25000000  1
  Ni  Ni23  1  0.05689900  0.52844900  0.75000000  1
  Ni  Ni24  1  0.52844900  0.47155100  0.25000000  1
  Ni  Ni25  1  0.47155100  0.52844900  0.75000000  1
  Cu  Cu26  1  0.50000000  0.00000000  0.00000000  1
  Cu  Cu27  1  0.00000000  0.50000000  0.00000000  1
  Cu  Cu28  1  0.50000000  0.00000000  0.50000000  1
  Cu  Cu29  1  0.50000000  0.50000000  0.00000000  1
  Cu  Cu30  1  0.00000000  0.50000000  0.50000000  1
  Cu  Cu31  1  0.50000000  0.50000000  0.50000000  1
