# generated using pymatgen
data_CuNiC3
_symmetry_space_group_name_H-M   'P 1'
_cell_length_a   8.89642100
_cell_length_b   5.22871000
_cell_length_c   9.40671259
_cell_angle_alpha   86.05147106
_cell_angle_beta   90.00000000
_cell_angle_gamma   90.00000000
_symmetry_Int_Tables_number   1
_chemical_formula_structural   CuNiC3
_chemical_formula_sum   'Cu8 Ni8 C24'
_cell_volume   436.53156477
_cell_formula_units_Z   8
loop_
 _symmetry_equiv_pos_site_id
 _symmetry_equiv_pos_as_xyz
  1  'x, y, z'
loop_
 _atom_site_type_symbol
 _atom_site_label
 _atom_site_symmetry_multiplicity
 _atom_site_fract_x
 _atom_site_fract_y
 _atom_site_fract_z
 _atom_site_occupancy
  Ni  Ni0  1  0.59895800  0.25000000  0.00000000  1
  Ni  Ni1  1  0.40104200  0.75000000  0.00000000  1
  Ni  Ni2  1  0.23778500  0.25000000  0.00000000  1
  Ni  Ni3  1  0.76221500  0.75000000  0.00000000  1
  Ni  Ni4  1  0.09902900  0.25000000  0.50000000  1
  Ni  Ni5  1  0.90097100  0.75000000  0.50000000  1
  Ni  Ni6  1  0.73470600  0.25000000  0.50000000  1
  Ni  Ni7  1  0.26529400  0.75000000  0.50000000  1
  Cu  Cu8  1  0.58992300  0.63588300  0.70535800  1
  Cu  Cu9  1  0.58992300  0.86411700  0.29464200  1
  Cu  Cu10  1  0.41007700  0.36411700  0.29464200  1
  Cu  Cu11  1  0.41007700  0.13588300  0.70535800  1
  Cu  Cu12  1  0.91034000  0.06044000  0.79110800  1
  Cu  Cu13  1  0.91034000  0.43956000  0.20889200  1
  Cu  Cu14  1  0.08966000  0.93956000  0.20889200  1
  Cu  Cu15  1  0.08966000  0.56044000  0.79110800  1
  C  C16  1  0.59196600  0.60340100  0.87973900  1
  C  C17  1  0.59196600  0.89659900  0.12026100  1
  C  C18  1  0.40803400  0.39659900  0.12026100  1
  C  C19  1  0.40803400  0.10340100  0.87973900  1
  C  C20  1  0.73926800  0.55278500  0.62222300  1
  C  C21  1  0.73926800  0.94721500  0.37777700  1
  C  C22  1  0.26073200  0.44721500  0.37777700  1
  C  C23  1  0.26073200  0.05278500  0.62222300  1
  C  C24  1  0.45289400  0.44081300  0.65082700  1
  C  C25  1  0.45289400  0.05918700  0.34917300  1
  C  C26  1  0.54710600  0.55918700  0.34917300  1
  C  C27  1  0.54710600  0.94081300  0.65082700  1
  C  C28  1  0.09206600  0.57549000  0.61692600  1
  C  C29  1  0.09206600  0.92451000  0.38307400  1
  C  C30  1  0.90793400  0.42451000  0.38307400  1
  C  C31  1  0.90793400  0.07549000  0.61692600  1
  C  C32  1  0.24155900  0.58858900  0.87947100  1
  C  C33  1  0.24155900  0.91141100  0.12052900  1
  C  C34  1  0.75844100  0.41141100  0.12052900  1
  C  C35  1  0.75844100  0.08858900  0.87947100  1
  C  C36  1  0.95858700  0.75850300  0.84614500  1
  C  C37  1  0.95858700  0.74149700  0.15385500  1
  C  C38  1  0.04141300  0.24149700  0.15385500  1
  C  C39  1  0.04141300  0.25850300  0.84614500  1
