# generated using pymatgen
data_Cu4NiC
_symmetry_space_group_name_H-M   'P 1'
_cell_length_a   7.95485300
_cell_length_b   10.01544500
_cell_length_c   12.39476299
_cell_angle_alpha   87.96098426
_cell_angle_beta   90.00000000
_cell_angle_gamma   90.00000000
_symmetry_Int_Tables_number   1
_chemical_formula_structural   Cu4NiC
_chemical_formula_sum   'Cu32 Ni8 C8'
_cell_volume   986.88276936
_cell_formula_units_Z   8
loop_
 _symmetry_equiv_pos_site_id
 _symmetry_equiv_pos_as_xyz
  1  'x, y, z'
loop_
 _atom_site_type_symbol
 _atom_site_label
 _atom_site_symmetry_multiplicity
 _atom_site_fract_x
 _atom_site_fract_y
 _atom_site_fract_z
 _atom_site_occupancy
  C  C0  1  0.68409400  0.07518000  0.17732300  1
  C  C1  1  0.18409400  0.42482000  0.82267700  1
  C  C2  1  0.31590600  0.92482000  0.82267700  1
  C  C3  1  0.81590600  0.57518100  0.17732300  1
  C  C4  1  0.18264700  0.92865200  0.32330600  1
  C  C5  1  0.68264700  0.57134800  0.67669400  1
  C  C6  1  0.81735300  0.07134800  0.67669400  1
  C  C7  1  0.31735300  0.42865200  0.32330600  1
  Ni  Ni8  1  0.16648400  0.15901300  0.06550000  1
  Ni  Ni9  1  0.66648400  0.34098700  0.93450000  1
  Ni  Ni10  1  0.83351600  0.84098700  0.93450000  1
  Ni  Ni11  1  0.33351600  0.65901300  0.06550000  1
  Ni  Ni12  1  0.68467400  0.84119400  0.45518600  1
  Ni  Ni13  1  0.18467400  0.65880600  0.54481400  1
  Ni  Ni14  1  0.31532600  0.15880600  0.54481400  1
  Ni  Ni15  1  0.81532600  0.34119400  0.45518600  1
  Cu  Cu16  1  0.51852100  0.18657900  0.16716600  1
  Cu  Cu17  1  0.01852100  0.31342100  0.83283400  1
  Cu  Cu18  1  0.48147900  0.81342100  0.83283400  1
  Cu  Cu19  1  0.98147900  0.68657900  0.16716600  1
  Cu  Cu20  1  0.78101900  0.09932100  0.30034300  1
  Cu  Cu21  1  0.28101900  0.40067900  0.69965700  1
  Cu  Cu22  1  0.21898100  0.90067900  0.69965700  1
  Cu  Cu23  1  0.71898100  0.59932100  0.30034300  1
  Cu  Cu24  1  0.60279800  0.91438900  0.18386800  1
  Cu  Cu25  1  0.10279800  0.58561100  0.81613200  1
  Cu  Cu26  1  0.39720200  0.08561100  0.81613200  1
  Cu  Cu27  1  0.89720200  0.41438900  0.18386800  1
  Cu  Cu28  1  0.81252900  0.09219300  0.06714000  1
  Cu  Cu29  1  0.31252900  0.40780700  0.93286000  1
  Cu  Cu30  1  0.18747100  0.90780700  0.93286000  1
  Cu  Cu31  1  0.68747100  0.59219300  0.06714000  1
  Cu  Cu32  1  0.04508200  0.83090800  0.34063300  1
  Cu  Cu33  1  0.54508200  0.66909200  0.65936700  1
  Cu  Cu34  1  0.95491800  0.16909200  0.65936700  1
  Cu  Cu35  1  0.45491800  0.33090800  0.34063300  1
  Cu  Cu36  1  0.26589400  0.90696700  0.21766000  1
  Cu  Cu37  1  0.76589400  0.59303300  0.78234000  1
  Cu  Cu38  1  0.73410600  0.09303300  0.78234000  1
  Cu  Cu39  1  0.23410600  0.40696700  0.21766000  1
  Cu  Cu40  1  0.11453800  0.06819200  0.31812100  1
  Cu  Cu41  1  0.61453800  0.43180800  0.68187900  1
  Cu  Cu42  1  0.88546200  0.93180800  0.68187900  1
  Cu  Cu43  1  0.38546200  0.56819200  0.31812100  1
  Cu  Cu44  1  0.30520500  0.91375600  0.41220000  1
  Cu  Cu45  1  0.80520500  0.58624400  0.58780000  1
  Cu  Cu46  1  0.69479500  0.08624400  0.58780000  1
  Cu  Cu47  1  0.19479500  0.41375600  0.41220000  1
