# generated using pymatgen
data_Cu2NiC7
_symmetry_space_group_name_H-M   'P 1'
_cell_length_a   6.49814455
_cell_length_b   6.46553491
_cell_length_c   6.42784386
_cell_angle_alpha   60.52792831
_cell_angle_beta   60.02307602
_cell_angle_gamma   59.44899567
_symmetry_Int_Tables_number   1
_chemical_formula_structural   Cu2NiC7
_chemical_formula_sum   'Cu2 Ni1 C7'
_cell_volume   190.92688412
_cell_formula_units_Z   1
loop_
 _symmetry_equiv_pos_site_id
 _symmetry_equiv_pos_as_xyz
  1  'x, y, z'
loop_
 _atom_site_type_symbol
 _atom_site_label
 _atom_site_symmetry_multiplicity
 _atom_site_fract_x
 _atom_site_fract_y
 _atom_site_fract_z
 _atom_site_occupancy
  Ni  Ni0  1  0.50224900  0.50224900  0.49775100  1
  Cu  Cu1  1  0.75859800  0.75859800  0.74140200  1
  Cu  Cu2  1  0.25859800  0.25859800  0.24140200  1
  C  C3  1  0.01675200  0.01675200  0.98324800  1
  C  C4  1  0.18656700  0.78021600  0.81343300  1
  C  C5  1  0.21308800  0.21308800  0.78691200  1
  C  C6  1  0.78021600  0.18656700  0.21978400  1
  C  C7  1  0.22116200  0.78128000  0.21872000  1
  C  C8  1  0.78149100  0.78149100  0.21850900  1
  C  C9  1  0.78128000  0.22116200  0.77883800  1
