# generated using pymatgen
data_CuNiC7
_symmetry_space_group_name_H-M   'P 1'
_cell_length_a   8.76178491
_cell_length_b   8.76178491
_cell_length_c   4.62577300
_cell_angle_alpha   90.00000000
_cell_angle_beta   90.00000000
_cell_angle_gamma   119.99999177
_symmetry_Int_Tables_number   1
_chemical_formula_structural   CuNiC7
_chemical_formula_sum   'Cu3 Ni3 C21'
_cell_volume   307.53897308
_cell_formula_units_Z   3
loop_
 _symmetry_equiv_pos_site_id
 _symmetry_equiv_pos_as_xyz
  1  'x, y, z'
loop_
 _atom_site_type_symbol
 _atom_site_label
 _atom_site_symmetry_multiplicity
 _atom_site_fract_x
 _atom_site_fract_y
 _atom_site_fract_z
 _atom_site_occupancy
  C  C0  1  0.68982400  0.00000000  0.50000000  1
  C  C1  1  0.00000000  0.68982400  0.50000000  1
  C  C2  1  0.31017600  0.31017600  0.50000000  1
  Ni  Ni3  1  0.35061100  0.00000000  0.00000000  1
  Ni  Ni4  1  0.00000000  0.35061100  0.00000000  1
  Ni  Ni5  1  0.64938900  0.64938900  0.00000000  1
  Cu  Cu6  1  0.00000000  0.00000000  0.00000000  1
  Cu  Cu7  1  0.33333300  0.66666700  0.49081100  1
  Cu  Cu8  1  0.66666700  0.33333300  0.50918900  1
  C  C9  1  0.10992400  0.56671700  0.25655800  1
  C  C10  1  0.43328300  0.54320700  0.25655800  1
  C  C11  1  0.56671700  0.10992400  0.74344200  1
  C  C12  1  0.45679300  0.89007600  0.25655800  1
  C  C13  1  0.54320700  0.43328300  0.74344200  1
  C  C14  1  0.89007600  0.45679300  0.74344200  1
  C  C15  1  0.10427200  0.22704200  0.22893200  1
  C  C16  1  0.77295800  0.87723000  0.22893200  1
  C  C17  1  0.22704200  0.10427200  0.77106800  1
  C  C18  1  0.12277000  0.89572800  0.22893200  1
  C  C19  1  0.87723000  0.77295800  0.77106800  1
  C  C20  1  0.89572800  0.12277000  0.77106800  1
  C  C21  1  0.44577800  0.20455300  0.25989500  1
  C  C22  1  0.79544700  0.24122500  0.25989500  1
  C  C23  1  0.20455300  0.44577800  0.74010500  1
  C  C24  1  0.75877500  0.55422200  0.25989500  1
  C  C25  1  0.24122500  0.79544700  0.74010500  1
  C  C26  1  0.55422200  0.75877500  0.74010500  1
