# generated using pymatgen
data_Cu10Ni3C
_symmetry_space_group_name_H-M   'P 1'
_cell_length_a   14.25354120
_cell_length_b   14.25354120
_cell_length_c   11.98945697
_cell_angle_alpha   80.76300522
_cell_angle_beta   80.76300522
_cell_angle_gamma   23.04182609
_symmetry_Int_Tables_number   1
_chemical_formula_structural   Cu10Ni3C
_chemical_formula_sum   'Cu40 Ni12 C4'
_cell_volume   940.50707218
_cell_formula_units_Z   4
loop_
 _symmetry_equiv_pos_site_id
 _symmetry_equiv_pos_as_xyz
  1  'x, y, z'
loop_
 _atom_site_type_symbol
 _atom_site_label
 _atom_site_symmetry_multiplicity
 _atom_site_fract_x
 _atom_site_fract_y
 _atom_site_fract_z
 _atom_site_occupancy
  C  C0  1  0.12006900  0.70751100  0.42904300  1
  C  C1  1  0.29248900  0.87993100  0.07095700  1
  C  C2  1  0.87993100  0.29248900  0.57095700  1
  C  C3  1  0.70751100  0.12006900  0.92904300  1
  Ni  Ni4  1  0.97845100  0.59316100  0.34717700  1
  Ni  Ni5  1  0.40683900  0.02154900  0.15282300  1
  Ni  Ni6  1  0.02154900  0.40683900  0.65282300  1
  Ni  Ni7  1  0.59316100  0.97845100  0.84717700  1
  Ni  Ni8  1  0.57299300  0.09358500  0.55852300  1
  Ni  Ni9  1  0.90641500  0.42700700  0.94147700  1
  Ni  Ni10  1  0.42700700  0.90641500  0.44147700  1
  Ni  Ni11  1  0.09358500  0.57299300  0.05852300  1
  Ni  Ni12  1  0.60950500  0.20803100  0.23529500  1
  Ni  Ni13  1  0.79196900  0.39049500  0.26470500  1
  Ni  Ni14  1  0.39049500  0.79196900  0.76470500  1
  Ni  Ni15  1  0.20803100  0.60950500  0.73529500  1
  Cu  Cu16  1  0.90709200  0.77967100  0.37867700  1
  Cu  Cu17  1  0.22032900  0.09290800  0.12132300  1
  Cu  Cu18  1  0.09290800  0.22032900  0.62132300  1
  Cu  Cu19  1  0.77967100  0.90709200  0.87867700  1
  Cu  Cu20  1  0.80096300  0.76332900  0.21906800  1
  Cu  Cu21  1  0.23667100  0.19903700  0.28093200  1
  Cu  Cu22  1  0.19903700  0.23667100  0.78093200  1
  Cu  Cu23  1  0.76332900  0.80096300  0.71906800  1
  Cu  Cu24  1  0.76123000  0.72725200  0.44883600  1
  Cu  Cu25  1  0.27274800  0.23877000  0.05116400  1
  Cu  Cu26  1  0.23877000  0.27274800  0.55116400  1
  Cu  Cu27  1  0.72725200  0.76123000  0.94883600  1
  Cu  Cu28  1  0.39054700  0.33755400  0.45305300  1
  Cu  Cu29  1  0.66244600  0.60945300  0.04694700  1
  Cu  Cu30  1  0.60945300  0.66244600  0.54694700  1
  Cu  Cu31  1  0.33755400  0.39054700  0.95305300  1
  Cu  Cu32  1  0.82578700  0.94386900  0.56250200  1
  Cu  Cu33  1  0.05613100  0.17421300  0.93749800  1
  Cu  Cu34  1  0.17421300  0.05613100  0.43749800  1
  Cu  Cu35  1  0.94386900  0.82578700  0.06250200  1
  Cu  Cu36  1  0.40876700  0.27042400  0.68598900  1
  Cu  Cu37  1  0.72957600  0.59123300  0.81401100  1
  Cu  Cu38  1  0.59123300  0.72957600  0.31401100  1
  Cu  Cu39  1  0.27042400  0.40876700  0.18598900  1
  Cu  Cu40  1  0.62465000  0.25690200  0.08801000  1
  Cu  Cu41  1  0.74309800  0.37535000  0.41199000  1
  Cu  Cu42  1  0.37535000  0.74309800  0.91199000  1
  Cu  Cu43  1  0.25690200  0.62465000  0.58801000  1
  Cu  Cu44  1  0.87025100  0.01382700  0.30098300  1
  Cu  Cu45  1  0.98617300  0.12974900  0.19901700  1
  Cu  Cu46  1  0.12974900  0.98617300  0.69901700  1
  Cu  Cu47  1  0.01382700  0.87025100  0.80098300  1
  Cu  Cu48  1  0.37810900  0.49746200  0.28258900  1
  Cu  Cu49  1  0.50253800  0.62189100  0.21741100  1
  Cu  Cu50  1  0.62189100  0.50253800  0.71741100  1
  Cu  Cu51  1  0.49746200  0.37810900  0.78258900  1
  Cu  Cu52  1  0.19496900  0.80436600  0.40707200  1
  Cu  Cu53  1  0.19563400  0.80503100  0.09292800  1
  Cu  Cu54  1  0.80503100  0.19563400  0.59292800  1
  Cu  Cu55  1  0.80436600  0.19496900  0.90707200  1
