# generated using pymatgen
data_Cu3(NiC)2
_symmetry_space_group_name_H-M   'P 1'
_cell_length_a   6.64163700
_cell_length_b   7.61738500
_cell_length_c   14.63843900
_cell_angle_alpha   90.00000000
_cell_angle_beta   90.00000000
_cell_angle_gamma   90.00000000
_symmetry_Int_Tables_number   1
_chemical_formula_structural   Cu3(NiC)2
_chemical_formula_sum   'Cu24 Ni16 C16'
_cell_volume   740.58653074
_cell_formula_units_Z   8
loop_
 _symmetry_equiv_pos_site_id
 _symmetry_equiv_pos_as_xyz
  1  'x, y, z'
loop_
 _atom_site_type_symbol
 _atom_site_label
 _atom_site_symmetry_multiplicity
 _atom_site_fract_x
 _atom_site_fract_y
 _atom_site_fract_z
 _atom_site_occupancy
  C  C0  1  0.00452500  0.25000000  0.53774500  1
  C  C1  1  0.99547500  0.75000000  0.46225500  1
  C  C2  1  0.49547500  0.75000000  0.03774500  1
  C  C3  1  0.50452500  0.25000000  0.96225500  1
  C  C4  1  0.19823500  0.13558900  0.58596600  1
  C  C5  1  0.80176500  0.86441100  0.41403400  1
  C  C6  1  0.30176500  0.86441100  0.08596600  1
  C  C7  1  0.80176500  0.63558900  0.41403400  1
  C  C8  1  0.69823500  0.13558900  0.91403400  1
  C  C9  1  0.19823500  0.36441100  0.58596600  1
  C  C10  1  0.69823500  0.36441100  0.91403400  1
  C  C11  1  0.30176500  0.63558900  0.08596600  1
  C  C12  1  0.03392100  0.25000000  0.65100200  1
  C  C13  1  0.96607900  0.75000000  0.34899800  1
  C  C14  1  0.46607900  0.75000000  0.15100200  1
  C  C15  1  0.53392100  0.25000000  0.84899800  1
  Ni  Ni16  1  0.01153600  0.15785000  0.12105600  1
  Ni  Ni17  1  0.98846400  0.84215000  0.87894400  1
  Ni  Ni18  1  0.48846400  0.84215000  0.62105600  1
  Ni  Ni19  1  0.98846400  0.65785000  0.87894400  1
  Ni  Ni20  1  0.51153600  0.15785000  0.37894400  1
  Ni  Ni21  1  0.01153600  0.34215000  0.12105600  1
  Ni  Ni22  1  0.51153600  0.34215000  0.37894400  1
  Ni  Ni23  1  0.48846400  0.65785000  0.62105600  1
  Ni  Ni24  1  0.36185600  0.04567300  0.34369500  1
  Ni  Ni25  1  0.63814400  0.95432700  0.65630500  1
  Ni  Ni26  1  0.13814400  0.95432700  0.84369500  1
  Ni  Ni27  1  0.63814400  0.54567300  0.65630500  1
  Ni  Ni28  1  0.86185600  0.04567300  0.15630500  1
  Ni  Ni29  1  0.36185600  0.45432700  0.34369500  1
  Ni  Ni30  1  0.86185600  0.45432700  0.15630500  1
  Ni  Ni31  1  0.13814400  0.54567300  0.84369500  1
  Cu  Cu32  1  0.11177900  0.25000000  0.59015200  1
  Cu  Cu33  1  0.88822100  0.75000000  0.40984800  1
  Cu  Cu34  1  0.38822100  0.75000000  0.09015200  1
  Cu  Cu35  1  0.61177900  0.25000000  0.90984800  1
  Cu  Cu36  1  0.18362900  0.10463800  0.07924200  1
  Cu  Cu37  1  0.81637100  0.89536200  0.92075800  1
  Cu  Cu38  1  0.31637100  0.89536200  0.57924200  1
  Cu  Cu39  1  0.81637100  0.60463800  0.92075800  1
  Cu  Cu40  1  0.68362900  0.10463800  0.42075800  1
  Cu  Cu41  1  0.18362900  0.39536200  0.07924200  1
  Cu  Cu42  1  0.68362900  0.39536200  0.42075800  1
  Cu  Cu43  1  0.31637100  0.60463800  0.57924200  1
  Cu  Cu44  1  0.28289000  0.25000000  0.05496100  1
  Cu  Cu45  1  0.71711000  0.75000000  0.94503900  1
  Cu  Cu46  1  0.21711000  0.75000000  0.55496100  1
  Cu  Cu47  1  0.78289000  0.25000000  0.44503900  1
  Cu  Cu48  1  0.23155400  0.54032900  0.31442100  1
  Cu  Cu49  1  0.76844600  0.45967100  0.68557900  1
  Cu  Cu50  1  0.26844600  0.45967100  0.81442100  1
  Cu  Cu51  1  0.76844600  0.04032900  0.68557900  1
  Cu  Cu52  1  0.73155400  0.54032900  0.18557900  1
  Cu  Cu53  1  0.23155400  0.95967100  0.31442100  1
  Cu  Cu54  1  0.73155400  0.95967100  0.18557900  1
  Cu  Cu55  1  0.26844600  0.04032900  0.81442100  1
