# generated using pymatgen
data_CuNiC
_symmetry_space_group_name_H-M   'P 1'
_cell_length_a   4.30803100
_cell_length_b   6.97485400
_cell_length_c   7.41837400
_cell_angle_alpha   90.00000000
_cell_angle_beta   90.00000000
_cell_angle_gamma   90.00000000
_symmetry_Int_Tables_number   1
_chemical_formula_structural   CuNiC
_chemical_formula_sum   'Cu4 Ni4 C4'
_cell_volume   222.90646555
_cell_formula_units_Z   4
loop_
 _symmetry_equiv_pos_site_id
 _symmetry_equiv_pos_as_xyz
  1  'x, y, z'
loop_
 _atom_site_type_symbol
 _atom_site_label
 _atom_site_symmetry_multiplicity
 _atom_site_fract_x
 _atom_site_fract_y
 _atom_site_fract_z
 _atom_site_occupancy
  C  C0  1  0.25000000  0.49519200  0.70212100  1
  C  C1  1  0.25000000  0.99519200  0.79787900  1
  C  C2  1  0.75000000  0.50480800  0.29787900  1
  C  C3  1  0.75000000  0.00480800  0.20212100  1
  Ni  Ni4  1  0.25000000  0.81185600  0.41012000  1
  Ni  Ni5  1  0.25000000  0.31185600  0.08988000  1
  Ni  Ni6  1  0.75000000  0.18814400  0.58988000  1
  Ni  Ni7  1  0.75000000  0.68814400  0.91012000  1
  Cu  Cu8  1  0.25000000  0.19809600  0.41756300  1
  Cu  Cu9  1  0.25000000  0.69809600  0.08243700  1
  Cu  Cu10  1  0.75000000  0.80190400  0.58243700  1
  Cu  Cu11  1  0.75000000  0.30190400  0.91756300  1
