# generated using pymatgen
data_CuNiC8
_symmetry_space_group_name_H-M   'P 1'
_cell_length_a   5.58595076
_cell_length_b   9.56993677
_cell_length_c   9.56253330
_cell_angle_alpha   108.70706985
_cell_angle_beta   90.55206441
_cell_angle_gamma   90.71530619
_symmetry_Int_Tables_number   1
_chemical_formula_structural   CuNiC8
_chemical_formula_sum   'Cu4 Ni4 C32'
_cell_volume   484.09266958
_cell_formula_units_Z   4
loop_
 _symmetry_equiv_pos_site_id
 _symmetry_equiv_pos_as_xyz
  1  'x, y, z'
loop_
 _atom_site_type_symbol
 _atom_site_label
 _atom_site_symmetry_multiplicity
 _atom_site_fract_x
 _atom_site_fract_y
 _atom_site_fract_z
 _atom_site_occupancy
  C  C0  1  0.00088900  0.37480100  0.12527300  1
  C  C1  1  0.50049500  0.87450100  0.12519700  1
  C  C2  1  0.00098300  0.62348100  0.86989100  1
  C  C3  1  0.50087200  0.12344800  0.86985100  1
  C  C4  1  0.50063600  0.62470600  0.37737100  1
  C  C5  1  0.00068200  0.12470900  0.37737400  1
  C  C6  1  0.49908600  0.37360900  0.62060200  1
  C  C7  1  0.99981100  0.87333800  0.62057100  1
  Ni  Ni8  1  0.49923100  0.49927000  0.99635100  1
  Ni  Ni9  1  0.99915700  0.99918000  0.99630200  1
  Ni  Ni10  1  0.50096800  0.24808500  0.24729700  1
  Ni  Ni11  1  0.00096800  0.74805500  0.24735300  1
  Cu  Cu12  1  0.50281000  0.99800900  0.50029200  1
  Cu  Cu13  1  0.00069300  0.25032600  0.74928100  1
  Cu  Cu14  1  0.00283100  0.49811100  0.50022900  1
  Cu  Cu15  1  0.50035700  0.75020100  0.74933300  1
  C  C16  1  0.25241000  0.62122300  0.62340900  1
  C  C17  1  0.75259400  0.12114900  0.62336800  1
  C  C18  1  0.00565000  0.37253500  0.62320900  1
  C  C19  1  0.50467300  0.87251200  0.62326800  1
  C  C20  1  0.76317200  0.61893900  0.62196900  1
  C  C21  1  0.26335300  0.11904100  0.62195100  1
  C  C22  1  0.24665000  0.12755600  0.12781500  1
  C  C23  1  0.74653100  0.62756400  0.12787500  1
  C  C24  1  0.49682400  0.37799100  0.12802000  1
  C  C25  1  0.99675300  0.87789400  0.12787600  1
  C  C26  1  0.74402800  0.12804500  0.12626900  1
  C  C27  1  0.24387200  0.62797500  0.12634700  1
  C  C28  1  0.74537500  0.87861600  0.87282100  1
  C  C29  1  0.24539900  0.37864100  0.87289200  1
  C  C30  1  0.75306400  0.37400600  0.38159000  1
  C  C31  1  0.25303300  0.87402700  0.38157300  1
  C  C32  1  0.00476800  0.62415800  0.38050700  1
  C  C33  1  0.50479500  0.12414400  0.38048900  1
  C  C34  1  0.49337700  0.62957300  0.87395600  1
  C  C35  1  0.99366400  0.12941900  0.87375400  1
  C  C36  1  0.26206900  0.37304800  0.38348600  1
  C  C37  1  0.76187200  0.87290000  0.38358100  1
  C  C38  1  0.22773700  0.88254700  0.87074800  1
  C  C39  1  0.72786900  0.38266600  0.87066100  1
