# generated using pymatgen
data_Cu3Ni3C2
_symmetry_space_group_name_H-M   'P 1'
_cell_length_a   7.93138500
_cell_length_b   7.44117000
_cell_length_c   13.08186341
_cell_angle_alpha   55.95298531
_cell_angle_beta   90.00000000
_cell_angle_gamma   90.00000000
_symmetry_Int_Tables_number   1
_chemical_formula_structural   Cu3Ni3C2
_chemical_formula_sum   'Cu12 Ni12 C8'
_cell_volume   639.72525766
_cell_formula_units_Z   4
loop_
 _symmetry_equiv_pos_site_id
 _symmetry_equiv_pos_as_xyz
  1  'x, y, z'
loop_
 _atom_site_type_symbol
 _atom_site_label
 _atom_site_symmetry_multiplicity
 _atom_site_fract_x
 _atom_site_fract_y
 _atom_site_fract_z
 _atom_site_occupancy
  C  C0  1  0.57220100  0.72480500  0.25163000  1
  C  C1  1  0.07220100  0.27519500  0.24837000  1
  C  C2  1  0.42779900  0.27519500  0.74837000  1
  C  C3  1  0.92779900  0.72480500  0.75163000  1
  C  C4  1  0.00000000  0.50000000  0.50000000  1
  C  C5  1  0.50000000  0.50000000  0.00000000  1
  C  C6  1  0.00000000  0.00000000  0.00000000  1
  C  C7  1  0.50000000  0.00000000  0.50000000  1
  Ni  Ni8  1  0.14061900  0.25864200  0.96483600  1
  Ni  Ni9  1  0.35938100  0.25864200  0.46483600  1
  Ni  Ni10  1  0.85938100  0.74135800  0.03516400  1
  Ni  Ni11  1  0.64061900  0.74135800  0.53516400  1
  Ni  Ni12  1  0.28549200  0.81861300  0.54367400  1
  Ni  Ni13  1  0.78549200  0.18138700  0.95632600  1
  Ni  Ni14  1  0.71450800  0.18138700  0.45632600  1
  Ni  Ni15  1  0.21450800  0.81861300  0.04367400  1
  Ni  Ni16  1  0.02247300  0.10218800  0.81982900  1
  Ni  Ni17  1  0.52247300  0.89781200  0.68017100  1
  Ni  Ni18  1  0.97752700  0.89781200  0.18017100  1
  Ni  Ni19  1  0.47752700  0.10218800  0.31982900  1
  Cu  Cu20  1  0.03722700  0.16384800  0.71556500  1
  Cu  Cu21  1  0.53722700  0.83615200  0.78443500  1
  Cu  Cu22  1  0.96277300  0.83615200  0.28443500  1
  Cu  Cu23  1  0.46277300  0.16384800  0.21556500  1
  Cu  Cu24  1  0.16379800  0.71081800  0.56999400  1
  Cu  Cu25  1  0.33620200  0.71081800  0.06999400  1
  Cu  Cu26  1  0.83620200  0.28918200  0.43000600  1
  Cu  Cu27  1  0.66379800  0.28918200  0.93000600  1
  Cu  Cu28  1  0.22264900  0.40755400  0.94368100  1
  Cu  Cu29  1  0.72264900  0.59244600  0.55631900  1
  Cu  Cu30  1  0.77735100  0.59244600  0.05631900  1
  Cu  Cu31  1  0.27735100  0.40755400  0.44368100  1
