# generated using pymatgen
data_Cu(NiC9)3
_symmetry_space_group_name_H-M   'P 1'
_cell_length_a   7.27179011
_cell_length_b   7.27179011
_cell_length_c   17.47789500
_cell_angle_alpha   90.00000000
_cell_angle_beta   90.00000000
_cell_angle_gamma   120.00000102
_symmetry_Int_Tables_number   1
_chemical_formula_structural   Cu(NiC9)3
_chemical_formula_sum   'Cu2 Ni6 C54'
_cell_volume   800.39141842
_cell_formula_units_Z   2
loop_
 _symmetry_equiv_pos_site_id
 _symmetry_equiv_pos_as_xyz
  1  'x, y, z'
loop_
 _atom_site_type_symbol
 _atom_site_label
 _atom_site_symmetry_multiplicity
 _atom_site_fract_x
 _atom_site_fract_y
 _atom_site_fract_z
 _atom_site_occupancy
  Ni  Ni0  1  0.66666700  0.33333300  0.86777600  1
  Ni  Ni1  1  0.33333300  0.66666700  0.13222400  1
  Ni  Ni2  1  0.33333300  0.66666700  0.36777600  1
  Ni  Ni3  1  0.66666700  0.33333300  0.63222400  1
  Ni  Ni4  1  0.00000000  0.00000000  0.75000000  1
  Ni  Ni5  1  0.00000000  0.00000000  0.25000000  1
  Cu  Cu6  1  0.00000000  0.00000000  0.00000000  1
  Cu  Cu7  1  0.00000000  0.00000000  0.50000000  1
  C  C8  1  0.55038000  0.83484000  0.91834100  1
  C  C9  1  0.44962000  0.16516000  0.08165900  1
  C  C10  1  0.28446000  0.44962000  0.91834100  1
  C  C11  1  0.44962000  0.16516000  0.41834100  1
  C  C12  1  0.71554000  0.55038000  0.08165900  1
  C  C13  1  0.55038000  0.83484000  0.58165900  1
  C  C14  1  0.16516000  0.71554000  0.91834100  1
  C  C15  1  0.71554000  0.55038000  0.41834100  1
  C  C16  1  0.83484000  0.28446000  0.08165900  1
  C  C17  1  0.28446000  0.44962000  0.58165900  1
  C  C18  1  0.83484000  0.28446000  0.41834100  1
  C  C19  1  0.16516000  0.71554000  0.58165900  1
  C  C20  1  0.50480000  0.62220100  0.75000000  1
  C  C21  1  0.49520000  0.37779900  0.25000000  1
  C  C22  1  0.11740000  0.49520000  0.75000000  1
  C  C23  1  0.88260000  0.50480000  0.25000000  1
  C  C24  1  0.37779900  0.88260000  0.75000000  1
  C  C25  1  0.62220100  0.11740000  0.25000000  1
  C  C26  1  0.54198900  0.83302800  0.75000000  1
  C  C27  1  0.45801100  0.16697200  0.25000000  1
  C  C28  1  0.29103900  0.45801100  0.75000000  1
  C  C29  1  0.70896100  0.54198900  0.25000000  1
  C  C30  1  0.16697200  0.70896100  0.75000000  1
  C  C31  1  0.83302800  0.29103900  0.25000000  1
  C  C32  1  0.92004900  0.33292000  0.75000000  1
  C  C33  1  0.07995100  0.66708000  0.25000000  1
  C  C34  1  0.41287100  0.07995100  0.75000000  1
  C  C35  1  0.58712900  0.92004900  0.25000000  1
  C  C36  1  0.66708000  0.58712900  0.75000000  1
  C  C37  1  0.33292000  0.41287100  0.25000000  1
  C  C38  1  0.75021400  0.99464400  0.91943000  1
  C  C39  1  0.24978600  0.00535600  0.08057000  1
  C  C40  1  0.24443000  0.24978600  0.91943000  1
  C  C41  1  0.24978600  0.00535600  0.41943000  1
  C  C42  1  0.75557000  0.75021400  0.08057000  1
  C  C43  1  0.75021400  0.99464400  0.58057000  1
  C  C44  1  0.00535600  0.75557000  0.91943000  1
  C  C45  1  0.75557000  0.75021400  0.41943000  1
  C  C46  1  0.99464400  0.24443000  0.08057000  1
  C  C47  1  0.24443000  0.24978600  0.58057000  1
  C  C48  1  0.99464400  0.24443000  0.41943000  1
  C  C49  1  0.00535600  0.75557000  0.58057000  1
  C  C50  1  0.49647700  0.61955700  0.91803500  1
  C  C51  1  0.50352300  0.38044300  0.08196500  1
  C  C52  1  0.12307900  0.50352300  0.91803500  1
  C  C53  1  0.50352300  0.38044300  0.41803500  1
  C  C54  1  0.87692100  0.49647700  0.08196500  1
  C  C55  1  0.49647700  0.61955700  0.58196500  1
  C  C56  1  0.38044300  0.87692100  0.91803500  1
  C  C57  1  0.87692100  0.49647700  0.41803500  1
  C  C58  1  0.61955700  0.12307900  0.08196500  1
  C  C59  1  0.12307900  0.50352300  0.58196500  1
  C  C60  1  0.61955700  0.12307900  0.41803500  1
  C  C61  1  0.38044300  0.87692100  0.58196500  1
