# generated using pymatgen
data_Cu6Ni7C17
_symmetry_space_group_name_H-M   'P 1'
_cell_length_a   6.16484410
_cell_length_b   6.16484410
_cell_length_c   10.45860087
_cell_angle_alpha   107.03492893
_cell_angle_beta   72.96507107
_cell_angle_gamma   119.86817915
_symmetry_Int_Tables_number   1
_chemical_formula_structural   Cu6Ni7C17
_chemical_formula_sum   'Cu6 Ni7 C17'
_cell_volume   324.33804305
_cell_formula_units_Z   1
loop_
 _symmetry_equiv_pos_site_id
 _symmetry_equiv_pos_as_xyz
  1  'x, y, z'
loop_
 _atom_site_type_symbol
 _atom_site_label
 _atom_site_symmetry_multiplicity
 _atom_site_fract_x
 _atom_site_fract_y
 _atom_site_fract_z
 _atom_site_occupancy
  C  C0  1  0.37616624  0.62383376  0.86079630  1
  Ni  Ni1  1  0.30150838  0.69849162  0.10331763  1
  Ni  Ni2  1  0.99835571  0.00164429  0.00057917  1
  Ni  Ni3  1  0.57428728  0.94381633  0.31696408  1
  Ni  Ni4  1  0.05618367  0.42571272  0.31696408  1
  Ni  Ni5  1  0.62048509  0.37951491  0.14252971  1
  Ni  Ni6  1  0.59647550  0.00185365  0.79747364  1
  Ni  Ni7  1  0.99814635  0.40352450  0.79747364  1
  Cu  Cu8  1  0.05454805  0.94545195  0.31791089  1
  Cu  Cu9  1  0.31668499  0.68331501  0.55414986  1
  Cu  Cu10  1  0.81621278  0.68531455  0.55567942  1
  Cu  Cu11  1  0.31468545  0.18378722  0.55567942  1
  Cu  Cu12  1  0.81576061  0.18423939  0.55196344  1
  Cu  Cu13  1  0.59442802  0.40557198  0.80108581  1
  C  C14  1  0.42475679  0.57524321  0.20249918  1
  C  C15  1  0.19067410  0.80932590  0.43519131  1
  C  C16  1  0.69111845  0.82928895  0.43693690  1
  C  C17  1  0.17071105  0.30888155  0.43693690  1
  C  C18  1  0.95101618  0.56713573  0.19937983  1
  C  C19  1  0.43286427  0.04898382  0.19937983  1
  C  C20  1  0.70109532  0.29890468  0.43099640  1
  C  C21  1  0.93226686  0.06773314  0.19780658  1
  C  C22  1  0.19030988  0.80969012  0.94590037  1
  C  C23  1  0.44827608  0.55172392  0.66841085  1
  C  C24  1  0.66774387  0.80214705  0.94272257  1
  C  C25  1  0.19785295  0.33225613  0.94272257  1
  C  C26  1  0.93144356  0.54732356  0.67438295  1
  C  C27  1  0.45267644  0.06855644  0.67438295  1
  C  C28  1  0.93843765  0.06156235  0.67456752  1
  C  C29  1  0.68232842  0.31767158  0.94646621  1
