# generated using pymatgen
data_CuNi10C11
_symmetry_space_group_name_H-M   'P 1'
_cell_length_a   5.22315692
_cell_length_b   25.25472081
_cell_length_c   6.75583438
_cell_angle_alpha   96.13037985
_cell_angle_beta   104.95754138
_cell_angle_gamma   90.19455884
_symmetry_Int_Tables_number   1
_chemical_formula_structural   CuNi10C11
_chemical_formula_sum   'Cu4 Ni40 C44'
_cell_volume   855.59491908
_cell_formula_units_Z   4
loop_
 _symmetry_equiv_pos_site_id
 _symmetry_equiv_pos_as_xyz
  1  'x, y, z'
loop_
 _atom_site_type_symbol
 _atom_site_label
 _atom_site_symmetry_multiplicity
 _atom_site_fract_x
 _atom_site_fract_y
 _atom_site_fract_z
 _atom_site_occupancy
  Ni  Ni0  1  0.86217400  0.04559500  0.58884100  1
  Ni  Ni1  1  0.61540700  0.29544700  0.34140200  1
  Ni  Ni2  1  0.36118800  0.54506000  0.09078200  1
  Ni  Ni3  1  0.11207500  0.79554600  0.83889700  1
  Ni  Ni4  1  0.74816900  0.24991400  0.74952500  1
  Ni  Ni5  1  0.50238500  0.50026800  0.50008700  1
  Ni  Ni6  1  0.25157900  0.74997300  0.25199600  1
  Ni  Ni7  1  0.00146900  0.99998800  0.00212300  1
  Ni  Ni8  1  0.29519600  0.06826600  0.38865500  1
  Ni  Ni9  1  0.04432000  0.31850300  0.13621500  1
  Ni  Ni10  1  0.79522400  0.56814400  0.88694100  1
  Ni  Ni11  1  0.54535600  0.81828500  0.63854600  1
  Ni  Ni12  1  0.31906700  0.22686800  0.95477900  1
  Ni  Ni13  1  0.06850700  0.47726500  0.70374700  1
  Ni  Ni14  1  0.81850600  0.72726100  0.45239900  1
  Ni  Ni15  1  0.56837200  0.97728100  0.20245600  1
  Ni  Ni16  1  0.72704800  0.09109600  0.18378000  1
  Ni  Ni17  1  0.47862100  0.34097200  0.93206100  1
  Ni  Ni18  1  0.22712800  0.59068000  0.68183100  1
  Ni  Ni19  1  0.97704200  0.84116000  0.43372500  1
  Ni  Ni20  1  0.88519700  0.20436500  0.15843800  1
  Ni  Ni21  1  0.63644500  0.45472000  0.90892600  1
  Ni  Ni22  1  0.38650900  0.70440300  0.65761500  1
  Ni  Ni23  1  0.13657400  0.95440500  0.40721000  1
  Ni  Ni24  1  0.59143900  0.13631000  0.77286700  1
  Ni  Ni25  1  0.34201400  0.38593700  0.52307800  1
  Ni  Ni26  1  0.09432100  0.63609300  0.27347900  1
  Ni  Ni27  1  0.84152100  0.88629100  0.02283200  1
  Ni  Ni28  1  0.02124000  0.15967600  0.56778100  1
  Ni  Ni29  1  0.76945900  0.40924400  0.31741000  1
  Ni  Ni30  1  0.52255200  0.65900800  0.06816200  1
  Ni  Ni31  1  0.27211900  0.90928000  0.81813000  1
  Ni  Ni32  1  0.16117500  0.11363500  0.97704500  1
  Ni  Ni33  1  0.91084900  0.36406900  0.72652400  1
  Ni  Ni34  1  0.66182400  0.61404800  0.47927800  1
  Ni  Ni35  1  0.41167800  0.86368800  0.22746400  1
  Ni  Ni36  1  0.45204500  0.18133200  0.36394900  1
  Ni  Ni37  1  0.20235300  0.43131600  0.11203100  1
  Ni  Ni38  1  0.95261800  0.68177000  0.86380900  1
  Ni  Ni39  1  0.70192100  0.93185100  0.61344200  1
  Cu  Cu40  1  0.93199100  0.52268500  0.29549500  1
  Cu  Cu41  1  0.68186900  0.77271500  0.04553700  1
  Cu  Cu42  1  0.43189900  0.02279400  0.79542100  1
  Cu  Cu43  1  0.18194800  0.27277600  0.54548300  1
  C  C44  1  0.93185600  0.02280200  0.29540400  1
  C  C45  1  0.68173800  0.27271300  0.04551000  1
  C  C46  1  0.43180300  0.52266000  0.79542600  1
  C  C47  1  0.18188800  0.77275500  0.54541300  1
  C  C48  1  0.24886600  0.25011200  0.24797300  1
  C  C49  1  0.00068100  0.49915600  0.99309700  1
  C  C50  1  0.75178900  0.74929500  0.74344200  1
  C  C51  1  0.50201600  0.99927900  0.49313600  1
  C  C52  1  0.36158300  0.04625300  0.09778200  1
  C  C53  1  0.11470000  0.29523800  0.84292500  1
  C  C54  1  0.86294600  0.54619800  0.59769100  1
  C  C55  1  0.61185600  0.79626400  0.34758900  1
  C  C56  1  0.79702700  0.06821900  0.88706000  1
  C  C57  1  0.55628900  0.31917900  0.63874900  1
  C  C58  1  0.30574700  0.56928500  0.38870500  1
  C  C59  1  0.04697900  0.81812900  0.13688900  1
  C  C60  1  0.80739200  0.22617900  0.45206800  1
  C  C61  1  0.55801300  0.47601900  0.20192000  1
  C  C62  1  0.31664500  0.72740900  0.95411700  1
  C  C63  1  0.06646300  0.97740300  0.70414000  1
  C  C64  1  0.65810300  0.11344300  0.47820400  1
  C  C65  1  0.40748800  0.36322000  0.22675600  1
  C  C66  1  0.16044800  0.61350600  0.97810600  1
  C  C67  1  0.90858800  0.86368500  0.72800100  1
  C  C68  1  0.95484100  0.18199900  0.86440100  1
  C  C69  1  0.70361600  0.43205400  0.61241200  1
  C  C70  1  0.45637000  0.68199800  0.36273200  1
  C  C71  1  0.20505600  0.93187900  0.11301000  1
  C  C72  1  0.22078800  0.09247200  0.67875200  1
  C  C73  1  0.97350600  0.34242700  0.42785000  1
  C  C74  1  0.72794500  0.59083800  0.18174500  1
  C  C75  1  0.47128300  0.84235200  0.92909300  1
  C  C76  1  0.39015200  0.20321100  0.66288000  1
  C  C77  1  0.13599200  0.45445600  0.40925200  1
  C  C78  1  0.89233700  0.70291700  0.16210300  1
  C  C79  1  0.64240300  0.95318800  0.91192900  1
  C  C80  1  0.52269400  0.15879800  0.06818300  1
  C  C81  1  0.27269800  0.40844800  0.81606100  1
  C  C82  1  0.02419900  0.65880500  0.56857000  1
  C  C83  1  0.77413700  0.90882000  0.31838300  1
  C  C84  1  0.08966500  0.13684200  0.27248300  1
  C  C85  1  0.84081000  0.38652700  0.02251600  1
  C  C86  1  0.59069700  0.63680800  0.77477200  1
  C  C87  1  0.33950700  0.88678300  0.52257200  1
