# generated using pymatgen
data_CuNiC5
_symmetry_space_group_name_H-M   'P 1'
_cell_length_a   7.00175800
_cell_length_b   7.14889300
_cell_length_c   15.79085900
_cell_angle_alpha   90.00000000
_cell_angle_beta   90.00000000
_cell_angle_gamma   90.00000000
_symmetry_Int_Tables_number   1
_chemical_formula_structural   CuNiC5
_chemical_formula_sum   'Cu8 Ni8 C40'
_cell_volume   790.40858521
_cell_formula_units_Z   8
loop_
 _symmetry_equiv_pos_site_id
 _symmetry_equiv_pos_as_xyz
  1  'x, y, z'
loop_
 _atom_site_type_symbol
 _atom_site_label
 _atom_site_symmetry_multiplicity
 _atom_site_fract_x
 _atom_site_fract_y
 _atom_site_fract_z
 _atom_site_occupancy
  C  C0  1  0.75000000  0.90177900  0.77866200  1
  C  C1  1  0.75000000  0.59822100  0.27866200  1
  C  C2  1  0.25000000  0.40177900  0.72133800  1
  C  C3  1  0.25000000  0.09822100  0.22133800  1
  Ni  Ni4  1  0.75000000  0.39289800  0.88310100  1
  Ni  Ni5  1  0.25000000  0.60710200  0.11689900  1
  Ni  Ni6  1  0.25000000  0.89289800  0.61689900  1
  Ni  Ni7  1  0.75000000  0.10710200  0.38310100  1
  Ni  Ni8  1  0.50000000  0.00000000  0.00000000  1
  Ni  Ni9  1  0.50000000  0.50000000  0.50000000  1
  Ni  Ni10  1  0.00000000  0.50000000  0.50000000  1
  Ni  Ni11  1  0.00000000  0.00000000  0.00000000  1
  Cu  Cu12  1  0.25000000  0.39265400  0.92040300  1
  Cu  Cu13  1  0.75000000  0.60734600  0.07959700  1
  Cu  Cu14  1  0.75000000  0.89265400  0.57959700  1
  Cu  Cu15  1  0.25000000  0.10734600  0.42040300  1
  Cu  Cu16  1  0.75000000  0.40157600  0.69187000  1
  Cu  Cu17  1  0.75000000  0.09842400  0.19187000  1
  Cu  Cu18  1  0.25000000  0.90157600  0.80813000  1
  Cu  Cu19  1  0.25000000  0.59842400  0.30813000  1
  C  C20  1  0.06347900  0.61184100  0.36248500  1
  C  C21  1  0.56347900  0.38815900  0.63751500  1
  C  C22  1  0.93652100  0.11184100  0.13751500  1
  C  C23  1  0.43652100  0.88815900  0.86248500  1
  C  C24  1  0.93652100  0.38815900  0.63751500  1
  C  C25  1  0.43652100  0.61184100  0.36248500  1
  C  C26  1  0.06347900  0.88815900  0.86248500  1
  C  C27  1  0.56347900  0.11184100  0.13751500  1
  C  C28  1  0.25000000  0.28151200  0.48398500  1
  C  C29  1  0.75000000  0.71848800  0.51601500  1
  C  C30  1  0.75000000  0.78151200  0.01601500  1
  C  C31  1  0.25000000  0.21848800  0.98398500  1
  C  C32  1  0.75000000  0.11952600  0.92406800  1
  C  C33  1  0.25000000  0.88047400  0.07593200  1
  C  C34  1  0.25000000  0.61952600  0.57593200  1
  C  C35  1  0.75000000  0.38047400  0.42406800  1
  C  C36  1  0.75000000  0.23629400  0.75821400  1
  C  C37  1  0.25000000  0.76370600  0.24178600  1
  C  C38  1  0.25000000  0.73629400  0.74178600  1
  C  C39  1  0.75000000  0.26370600  0.25821400  1
  C  C40  1  0.42589300  0.12442400  0.36121900  1
  C  C41  1  0.92589300  0.87557600  0.63878100  1
  C  C42  1  0.57410700  0.62442400  0.13878100  1
  C  C43  1  0.07410700  0.37557600  0.86121900  1
  C  C44  1  0.57410700  0.87557600  0.63878100  1
  C  C45  1  0.07410700  0.12442400  0.36121900  1
  C  C46  1  0.42589300  0.37557600  0.86121900  1
  C  C47  1  0.92589300  0.62442400  0.13878100  1
  C  C48  1  0.75000000  0.42645900  0.02812700  1
  C  C49  1  0.25000000  0.08131100  0.75404900  1
  C  C50  1  0.25000000  0.41868900  0.25404900  1
  C  C51  1  0.75000000  0.58131100  0.74595100  1
  C  C52  1  0.75000000  0.07354100  0.52812700  1
  C  C53  1  0.25000000  0.92645900  0.47187300  1
  C  C54  1  0.25000000  0.57354100  0.97187300  1
  C  C55  1  0.75000000  0.91868900  0.24595100  1
