# generated using pymatgen
data_Cu40Ni3C32
_symmetry_space_group_name_H-M   'P 1'
_cell_length_a   14.01908083
_cell_length_b   14.01908083
_cell_length_c   14.01908083
_cell_angle_alpha   109.47122063
_cell_angle_beta   109.47122063
_cell_angle_gamma   109.47122063
_symmetry_Int_Tables_number   1
_chemical_formula_structural   Cu40Ni3C32
_chemical_formula_sum   'Cu80 Ni6 C64'
_cell_volume   2120.98075739
_cell_formula_units_Z   2
loop_
 _symmetry_equiv_pos_site_id
 _symmetry_equiv_pos_as_xyz
  1  'x, y, z'
loop_
 _atom_site_type_symbol
 _atom_site_label
 _atom_site_symmetry_multiplicity
 _atom_site_fract_x
 _atom_site_fract_y
 _atom_site_fract_z
 _atom_site_occupancy
  C  C0  1  0.79438611  0.54438611  0.75000000  1
  C  C1  1  0.70561389  0.95561389  0.25000000  1
  C  C2  1  0.54438611  0.75000000  0.79438611  1
  C  C3  1  0.29438611  0.25000000  0.04438611  1
  C  C4  1  0.95561389  0.25000000  0.70561389  1
  C  C5  1  0.20561389  0.75000000  0.45561389  1
  C  C6  1  0.75000000  0.79438611  0.54438611  1
  C  C7  1  0.04438611  0.29438611  0.25000000  1
  C  C8  1  0.25000000  0.70561389  0.95561389  1
  C  C9  1  0.45561389  0.20561389  0.75000000  1
  C  C10  1  0.25000000  0.04438611  0.29438611  1
  C  C11  1  0.75000000  0.45561389  0.20561389  1
  C  C12  1  0.74169772  0.47129415  0.46532326  1
  C  C13  1  0.75830228  0.72362553  0.22959643  1
  C  C14  1  0.49402910  0.02870585  0.27040357  1
  C  C15  1  0.47129415  0.46532326  0.74169772  1
  C  C16  1  0.24169772  0.96532326  0.97129415  1
  C  C17  1  0.00597090  0.77637447  0.03467674  1
  C  C18  1  0.72362553  0.22959643  0.75830228  1
  C  C19  1  0.25830228  0.72959643  0.22362553  1
  C  C20  1  0.02870585  0.27040357  0.49402910  1
  C  C21  1  0.99402910  0.77040357  0.52870585  1
  C  C22  1  0.77637447  0.03467674  0.00597090  1
  C  C23  1  0.50597090  0.53467674  0.27637447  1
  C  C24  1  0.46532326  0.74169772  0.47129415  1
  C  C25  1  0.97129415  0.24169772  0.96532326  1
  C  C26  1  0.27040357  0.49402910  0.02870585  1
  C  C27  1  0.52870585  0.99402910  0.77040357  1
  C  C28  1  0.03467674  0.00597090  0.77637447  1
  C  C29  1  0.27637447  0.50597090  0.53467674  1
  C  C30  1  0.22959643  0.75830228  0.72362553  1
  C  C31  1  0.22362553  0.25830228  0.72959643  1
  C  C32  1  0.96532326  0.97129415  0.24169772  1
  C  C33  1  0.72959643  0.22362553  0.25830228  1
  C  C34  1  0.53467674  0.27637447  0.50597090  1
  C  C35  1  0.77040357  0.52870585  0.99402910  1
  C  C36  1  0.84865443  0.84865443  0.84865443  1
  C  C37  1  0.65134557  -0.00000000  0.50000000  1
  C  C38  1  0.50000000  0.65134557  0.00000000  1
  C  C39  1  0.34865443  0.34865443  0.34865443  1
  C  C40  1  0.00000000  0.50000000  0.65134557  1
  C  C41  1  0.15134557  -0.00000000  0.50000000  1
  C  C42  1  -0.00000000  0.50000000  0.15134557  1
  C  C43  1  0.50000000  0.15134557  0.00000000  1
  C  C44  1  0.98076497  0.73076497  0.75000000  1
  C  C45  1  0.51923503  0.76923503  0.25000000  1
  C  C46  1  0.73076497  0.75000000  0.98076497  1
  C  C47  1  0.48076497  0.25000000  0.23076497  1
  C  C48  1  0.76923503  0.25000000  0.51923503  1
  C  C49  1  0.01923503  0.75000000  0.26923503  1
  C  C50  1  0.75000000  0.98076497  0.73076497  1
  C  C51  1  0.23076497  0.48076497  0.25000000  1
  C  C52  1  0.25000000  0.51923503  0.76923503  1
  C  C53  1  0.26923503  0.01923503  0.75000000  1
  C  C54  1  0.25000000  0.23076497  0.48076497  1
  C  C55  1  0.75000000  0.26923503  0.01923503  1
  C  C56  1  0.57925204  0.57925204  0.57925204  1
  C  C57  1  0.92074796  -0.00000000  0.50000000  1
  C  C58  1  0.50000000  0.92074796  0.00000000  1
  C  C59  1  0.07925204  0.07925204  0.07925204  1
  C  C60  1  -0.00000000  0.50000000  0.92074796  1
  C  C61  1  0.42074796  -0.00000000  0.50000000  1
  C  C62  1  -0.00000000  0.50000000  0.42074796  1
  C  C63  1  0.50000000  0.42074796  0.00000000  1
  Ni  Ni64  1  0.62500000  0.37500000  0.75000000  1
  Ni  Ni65  1  0.87500000  0.12500000  0.25000000  1
  Ni  Ni66  1  0.37500000  0.75000000  0.62500000  1
  Ni  Ni67  1  0.12500000  0.25000000  0.87500000  1
  Ni  Ni68  1  0.75000000  0.62500000  0.37500000  1
  Ni  Ni69  1  0.25000000  0.87500000  0.12500000  1
  Cu  Cu70  1  0.68487600  0.68487600  0.68487600  1
  Cu  Cu71  1  0.81512400  0.00000000  0.50000000  1
  Cu  Cu72  1  0.50000000  0.81512400  0.00000000  1
  Cu  Cu73  1  0.18487600  0.18487600  0.18487600  1
  Cu  Cu74  1  -0.00000000  0.50000000  0.81512400  1
  Cu  Cu75  1  0.31512400  0.00000000  0.50000000  1
  Cu  Cu76  1  -0.00000000  0.50000000  0.31512400  1
  Cu  Cu77  1  0.50000000  0.31512400  0.00000000  1
  Cu  Cu78  1  0.54362639  0.60624658  0.48260144  1
  Cu  Cu79  1  0.95637361  0.93897504  0.56262019  1
  Cu  Cu80  1  0.37635485  0.89375342  0.93737981  1
  Cu  Cu81  1  0.60624658  0.48260144  0.54362639  1
  Cu  Cu82  1  0.04362639  0.98260144  0.10624658  1
  Cu  Cu83  1  0.12364515  0.56102496  0.01739856  1
  Cu  Cu84  1  0.93897504  0.56262019  0.95637361  1
  Cu  Cu85  1  0.45637361  0.06262019  0.43897504  1
  Cu  Cu86  1  0.89375342  0.93737981  0.37635485  1
  Cu  Cu87  1  0.87635485  0.43737981  0.39375342  1
  Cu  Cu88  1  0.56102496  0.01739856  0.12364515  1
  Cu  Cu89  1  0.62364515  0.51739856  0.06102496  1
  Cu  Cu90  1  0.48260144  0.54362639  0.60624658  1
  Cu  Cu91  1  0.10624658  0.04362639  0.98260144  1
  Cu  Cu92  1  0.93737981  0.37635485  0.89375342  1
  Cu  Cu93  1  0.39375342  0.87635485  0.43737981  1
  Cu  Cu94  1  0.01739856  0.12364515  0.56102496  1
  Cu  Cu95  1  0.06102496  0.62364515  0.51739856  1
  Cu  Cu96  1  0.56262019  0.95637361  0.93897504  1
  Cu  Cu97  1  0.43897504  0.45637361  0.06262019  1
  Cu  Cu98  1  0.98260144  0.10624658  0.04362639  1
  Cu  Cu99  1  0.06262019  0.43897504  0.45637361  1
  Cu  Cu100  1  0.51739856  0.06102496  0.62364515  1
  Cu  Cu101  1  0.43737981  0.39375342  0.87635485  1
  Cu  Cu102  1  0.65804777  0.90599793  0.60447540  1
  Cu  Cu103  1  0.84195223  0.94642763  0.74795016  1
  Cu  Cu104  1  0.19847747  0.59400207  0.75204984  1
  Cu  Cu105  1  0.90599793  0.60447540  0.65804777  1
  Cu  Cu106  1  0.15804777  0.10447540  0.40599793  1
  Cu  Cu107  1  0.30152253  0.55357237  0.89552460  1
  Cu  Cu108  1  0.94642763  0.74795016  0.84195223  1
  Cu  Cu109  1  0.34195223  0.24795016  0.44642763  1
  Cu  Cu110  1  0.59400207  0.75204984  0.19847747  1
  Cu  Cu111  1  0.69847747  0.25204984  0.09400207  1
  Cu  Cu112  1  0.55357237  0.89552460  0.30152253  1
  Cu  Cu113  1  0.80152253  0.39552460  0.05357237  1
  Cu  Cu114  1  0.60447540  0.65804777  0.90599793  1
  Cu  Cu115  1  0.40599793  0.15804777  0.10447540  1
  Cu  Cu116  1  0.75204984  0.19847747  0.59400207  1
  Cu  Cu117  1  0.09400207  0.69847747  0.25204984  1
  Cu  Cu118  1  0.89552460  0.30152253  0.55357237  1
  Cu  Cu119  1  0.05357237  0.80152253  0.39552460  1
  Cu  Cu120  1  0.74795016  0.84195223  0.94642763  1
  Cu  Cu121  1  0.44642763  0.34195223  0.24795016  1
  Cu  Cu122  1  0.10447540  0.40599793  0.15804777  1
  Cu  Cu123  1  0.24795016  0.44642763  0.34195223  1
  Cu  Cu124  1  0.39552460  0.05357237  0.80152253  1
  Cu  Cu125  1  0.25204984  0.09400207  0.69847747  1
  Cu  Cu126  1  0.54002374  0.73574962  0.34215566  1
  Cu  Cu127  1  0.95997626  0.80213192  0.69572589  1
  Cu  Cu128  1  0.10640603  0.76425038  0.80427411  1
  Cu  Cu129  1  0.73574962  0.34215566  0.54002374  1
  Cu  Cu130  1  0.04002374  0.84215566  0.23574962  1
  Cu  Cu131  1  0.39359397  0.69786808  0.15784434  1
  Cu  Cu132  1  0.80213192  0.69572589  0.95997626  1
  Cu  Cu133  1  0.45997626  0.19572589  0.30213192  1
  Cu  Cu134  1  0.76425038  0.80427411  0.10640603  1
  Cu  Cu135  1  0.60640603  0.30427411  0.26425038  1
  Cu  Cu136  1  0.69786808  0.15784434  0.39359397  1
  Cu  Cu137  1  0.89359397  0.65784434  0.19786808  1
  Cu  Cu138  1  0.34215566  0.54002374  0.73574962  1
  Cu  Cu139  1  0.23574962  0.04002374  0.84215566  1
  Cu  Cu140  1  0.80427411  0.10640603  0.76425038  1
  Cu  Cu141  1  0.26425038  0.60640603  0.30427411  1
  Cu  Cu142  1  0.15784434  0.39359397  0.69786808  1
  Cu  Cu143  1  0.19786808  0.89359397  0.65784434  1
  Cu  Cu144  1  0.69572589  0.95997626  0.80213192  1
  Cu  Cu145  1  0.30213192  0.45997626  0.19572589  1
  Cu  Cu146  1  0.84215566  0.23574962  0.04002374  1
  Cu  Cu147  1  0.19572589  0.30213192  0.45997626  1
  Cu  Cu148  1  0.65784434  0.19786808  0.89359397  1
  Cu  Cu149  1  0.30427411  0.26425038  0.60640603  1
