# generated using pymatgen
data_Cu3NiC32
_symmetry_space_group_name_H-M   'P 1'
_cell_length_a   8.90745875
_cell_length_b   8.90745875
_cell_length_c   8.90745834
_cell_angle_alpha   58.60483532
_cell_angle_beta   58.60483532
_cell_angle_gamma   58.60483864
_symmetry_Int_Tables_number   1
_chemical_formula_structural   Cu3NiC32
_chemical_formula_sum   'Cu3 Ni1 C32'
_cell_volume   483.80253110
_cell_formula_units_Z   1
loop_
 _symmetry_equiv_pos_site_id
 _symmetry_equiv_pos_as_xyz
  1  'x, y, z'
loop_
 _atom_site_type_symbol
 _atom_site_label
 _atom_site_symmetry_multiplicity
 _atom_site_fract_x
 _atom_site_fract_y
 _atom_site_fract_z
 _atom_site_occupancy
  Ni  Ni0  1  0.14865700  0.14865700  0.14865700  1
  Cu  Cu1  1  0.64524400  0.64524400  0.64524400  1
  Cu  Cu2  1  0.85284600  0.85284600  0.85284600  1
  Cu  Cu3  1  0.35346100  0.35346100  0.35346100  1
  C  C4  1  0.99647200  0.99647200  0.99647200  1
  C  C5  1  0.49420700  0.49420700  0.49420700  1
  C  C6  1  0.54062600  0.95968300  0.25173200  1
  C  C7  1  0.25173200  0.54062600  0.95968300  1
  C  C8  1  0.95968300  0.25173200  0.54062600  1
  C  C9  1  0.03953900  0.75326000  0.45867500  1
  C  C10  1  0.75326000  0.45867500  0.03953900  1
  C  C11  1  0.45867500  0.03953900  0.75326000  1
  C  C12  1  0.30158600  0.50815700  0.11450400  1
  C  C13  1  0.11450400  0.30158600  0.50815700  1
  C  C14  1  0.50815700  0.11450400  0.30158600  1
  C  C15  1  0.73227600  0.93774700  0.08405800  1
  C  C16  1  0.37912600  0.00323700  0.19502000  1
  C  C17  1  0.55670700  0.76855700  0.41374700  1
  C  C18  1  0.08405800  0.73227600  0.93774700  1
  C  C19  1  0.41374700  0.55670700  0.76855700  1
  C  C20  1  0.00923300  0.80476000  0.61279400  1
  C  C21  1  0.76855700  0.41374700  0.55670700  1
  C  C22  1  0.06517900  0.92047000  0.26491800  1
  C  C23  1  0.80476000  0.61279400  0.00923300  1
  C  C24  1  0.19502000  0.37912600  0.00323700  1
  C  C25  1  0.93774700  0.08405800  0.73227600  1
  C  C26  1  0.23467600  0.58762800  0.43499500  1
  C  C27  1  0.00323700  0.19502000  0.37912600  1
  C  C28  1  0.58762800  0.43499500  0.23467600  1
  C  C29  1  0.92047000  0.26491800  0.06517900  1
  C  C30  1  0.43499500  0.23467600  0.58762800  1
  C  C31  1  0.61279400  0.00923300  0.80476000  1
  C  C32  1  0.26491800  0.06517900  0.92047000  1
  C  C33  1  0.48792100  0.88643800  0.70186200  1
  C  C34  1  0.88643800  0.70186200  0.48792100  1
  C  C35  1  0.70186200  0.48792100  0.88643800  1
