# generated using pymatgen
data_CuNi3C16
_symmetry_space_group_name_H-M   'P 1'
_cell_length_a   7.91368500
_cell_length_b   5.55545300
_cell_length_c   5.66910472
_cell_angle_alpha   89.85675799
_cell_angle_beta   90.00000000
_cell_angle_gamma   90.00000000
_symmetry_Int_Tables_number   1
_chemical_formula_structural   CuNi3C16
_chemical_formula_sum   'Cu1 Ni3 C16'
_cell_volume   249.23633654
_cell_formula_units_Z   1
loop_
 _symmetry_equiv_pos_site_id
 _symmetry_equiv_pos_as_xyz
  1  'x, y, z'
loop_
 _atom_site_type_symbol
 _atom_site_label
 _atom_site_symmetry_multiplicity
 _atom_site_fract_x
 _atom_site_fract_y
 _atom_site_fract_z
 _atom_site_occupancy
  Ni  Ni0  1  0.00000000  0.00812300  0.95557100  1
  Ni  Ni1  1  0.50000000  0.50817800  0.54180000  1
  Ni  Ni2  1  0.50000000  0.99079500  0.04364000  1
  Cu  Cu3  1  0.00000000  0.49041100  0.44641200  1
  C  C4  1  0.24845100  0.50046000  0.99860600  1
  C  C5  1  0.75236500  0.99971000  0.50070700  1
  C  C6  1  0.75154900  0.50046000  0.99860600  1
  C  C7  1  0.24763500  0.99971000  0.50070700  1
  C  C8  1  0.20427300  0.20736900  0.20702900  1
  C  C9  1  0.79931200  0.30014800  0.69933800  1
  C  C10  1  0.70712900  0.79802900  0.79828700  1
  C  C11  1  0.29111500  0.70371600  0.29692300  1
  C  C12  1  0.29287100  0.79802900  0.79828700  1
  C  C13  1  0.70888500  0.70371600  0.29692300  1
  C  C14  1  0.79572700  0.20736900  0.20702900  1
  C  C15  1  0.20068800  0.30014800  0.69933800  1
  C  C16  1  0.00000000  0.58154500  0.03138400  1
  C  C17  1  0.00000000  0.90378300  0.52213000  1
  C  C18  1  0.50000000  0.41793300  0.97771500  1
  C  C19  1  0.50000000  0.08037000  0.47956600  1
