# generated using pymatgen
data_CuNiC7
_symmetry_space_group_name_H-M   'P 1'
_cell_length_a   5.70886500
_cell_length_b   10.04387500
_cell_length_c   19.60391500
_cell_angle_alpha   90.00000000
_cell_angle_beta   90.00000000
_cell_angle_gamma   90.00000000
_symmetry_Int_Tables_number   1
_chemical_formula_structural   CuNiC7
_chemical_formula_sum   'Cu8 Ni8 C56'
_cell_volume   1124.07136114
_cell_formula_units_Z   8
loop_
 _symmetry_equiv_pos_site_id
 _symmetry_equiv_pos_as_xyz
  1  'x, y, z'
loop_
 _atom_site_type_symbol
 _atom_site_label
 _atom_site_symmetry_multiplicity
 _atom_site_fract_x
 _atom_site_fract_y
 _atom_site_fract_z
 _atom_site_occupancy
  Ni  Ni0  1  0.75732800  0.36611200  0.11297800  1
  Ni  Ni1  1  0.24267200  0.86611200  0.88702200  1
  Ni  Ni2  1  0.74267200  0.36611200  0.61297800  1
  Ni  Ni3  1  0.25732800  0.86611200  0.38702200  1
  Ni  Ni4  1  0.25750800  0.00327700  0.13631500  1
  Ni  Ni5  1  0.74249200  0.50327700  0.86368500  1
  Ni  Ni6  1  0.24249200  0.00327700  0.63631500  1
  Ni  Ni7  1  0.75750800  0.50327700  0.36368500  1
  Cu  Cu8  1  0.25857100  0.63709500  0.06408200  1
  Cu  Cu9  1  0.74142900  0.13709500  0.93591800  1
  Cu  Cu10  1  0.24142900  0.63709500  0.56408200  1
  Cu  Cu11  1  0.75857100  0.13709500  0.43591800  1
  Cu  Cu12  1  0.25961200  0.22966100  0.31306100  1
  Cu  Cu13  1  0.74038800  0.72966100  0.68693900  1
  Cu  Cu14  1  0.24038800  0.22966100  0.81306100  1
  Cu  Cu15  1  0.75961200  0.72966100  0.18693900  1
  C  C16  1  0.26305900  0.26293200  0.49386800  1
  C  C17  1  0.73694100  0.76293200  0.50613200  1
  C  C18  1  0.23694100  0.26293200  0.99386800  1
  C  C19  1  0.76305900  0.76293200  0.00613200  1
  C  C20  1  0.25292000  0.60406300  0.24529200  1
  C  C21  1  0.74708000  0.10406300  0.75470800  1
  C  C22  1  0.24708000  0.60406300  0.74529200  1
  C  C23  1  0.75292000  0.10406300  0.25470800  1
  C  C24  1  0.02224900  0.17372200  0.05910100  1
  C  C25  1  0.97775100  0.67372200  0.94089900  1
  C  C26  1  0.47775100  0.17372200  0.55910100  1
  C  C27  1  0.52224900  0.67372200  0.44089900  1
  C  C28  1  0.33267600  0.11688000  0.42913700  1
  C  C29  1  0.66732400  0.61688000  0.57086300  1
  C  C30  1  0.16732400  0.11688000  0.92913700  1
  C  C31  1  0.83267600  0.61688000  0.07086300  1
  C  C32  1  0.49981200  0.16198500  0.03583100  1
  C  C33  1  0.50018800  0.66198500  0.96416900  1
  C  C34  1  0.00018800  0.16198500  0.53583100  1
  C  C35  1  0.99981200  0.66198500  0.46416900  1
  C  C36  1  0.48227600  0.53915300  0.17883400  1
  C  C37  1  0.51772400  0.03915300  0.82116600  1
  C  C38  1  0.01772400  0.53915300  0.67883400  1
  C  C39  1  0.98227600  0.03915300  0.32116600  1
  C  C40  1  0.52870800  0.19325100  0.19158300  1
  C  C41  1  0.47129200  0.69325100  0.80841700  1
  C  C42  1  0.97129200  0.19325100  0.69158300  1
  C  C43  1  0.02870800  0.69325100  0.30841700  1
  C  C44  1  0.30246100  0.46003300  0.31169500  1
  C  C45  1  0.69753900  0.96003300  0.68830500  1
  C  C46  1  0.19753900  0.46003300  0.81169500  1
  C  C47  1  0.80246100  0.96003300  0.18830500  1
  C  C48  1  0.04294100  0.32787300  0.42450300  1
  C  C49  1  0.95705900  0.82787300  0.57549700  1
  C  C50  1  0.45705900  0.32787300  0.92450300  1
  C  C51  1  0.54294100  0.82787300  0.07549700  1
  C  C52  1  0.01225600  0.20392600  0.21108300  1
  C  C53  1  0.98774400  0.70392600  0.78891700  1
  C  C54  1  0.48774400  0.20392600  0.71108300  1
  C  C55  1  0.51225600  0.70392600  0.28891700  1
  C  C56  1  0.54774800  0.35456700  0.46119400  1
  C  C57  1  0.45225200  0.85456700  0.53880600  1
  C  C58  1  0.95225200  0.35456700  0.96119400  1
  C  C59  1  0.04774800  0.85456700  0.03880600  1
  C  C60  1  0.19571900  0.75083900  0.18051100  1
  C  C61  1  0.80428100  0.25083900  0.81948900  1
  C  C62  1  0.30428100  0.75083900  0.68051100  1
  C  C63  1  0.69571900  0.25083900  0.31948900  1
  C  C64  1  0.29625600  0.40612400  0.05989600  1
  C  C65  1  0.70374400  0.90612400  0.94010400  1
  C  C66  1  0.20374400  0.40612400  0.55989600  1
  C  C67  1  0.79625600  0.90612400  0.44010400  1
  C  C68  1  0.47532400  0.01410700  0.29246100  1
  C  C69  1  0.52467600  0.51410700  0.70753900  1
  C  C70  1  0.02467600  0.01410700  0.79246100  1
  C  C71  1  0.97532400  0.51410700  0.20753900  1
