# generated using pymatgen
data_Cu5NiC36
_symmetry_space_group_name_H-M   'P 1'
_cell_length_a   7.55421202
_cell_length_b   7.75545805
_cell_length_c   10.45028342
_cell_angle_alpha   107.96179750
_cell_angle_beta   85.50688758
_cell_angle_gamma   95.19531031
_symmetry_Int_Tables_number   1
_chemical_formula_structural   Cu5NiC36
_chemical_formula_sum   'Cu5 Ni1 C36'
_cell_volume   579.19036417
_cell_formula_units_Z   1
loop_
 _symmetry_equiv_pos_site_id
 _symmetry_equiv_pos_as_xyz
  1  'x, y, z'
loop_
 _atom_site_type_symbol
 _atom_site_label
 _atom_site_symmetry_multiplicity
 _atom_site_fract_x
 _atom_site_fract_y
 _atom_site_fract_z
 _atom_site_occupancy
  Ni  Ni0  1  0.52437961  0.09280675  0.15806617  1
  Cu  Cu1  1  0.27352005  0.84825774  0.59726733  1
  Cu  Cu2  1  0.22542891  0.81368454  0.07444759  1
  Cu  Cu3  1  0.49075091  0.49387826  0.99802026  1
  Cu  Cu4  1  0.77056007  0.16962990  0.91264007  1
  Cu  Cu5  1  0.75719268  0.15342403  0.41137171  1
  C  C6  1  0.17452155  0.18847144  0.02873176  1
  C  C7  1  0.16183455  0.20324879  0.31198363  1
  C  C8  1  0.27930427  0.54942250  0.75911819  1
  C  C9  1  0.48981289  0.76985604  0.30118022  1
  C  C10  1  0.51133469  0.23983006  0.69340758  1
  C  C11  1  0.71969795  0.44653264  0.23488529  1
  C  C12  1  0.84601887  0.80489552  0.68853214  1
  C  C13  1  0.81682078  0.80335003  0.97640267  1
  C  C14  1  0.97305735  0.83377139  0.06404035  1
  C  C15  1  0.99193190  0.13076123  0.38183090  1
  C  C16  1  0.10031873  0.45378260  0.73934849  1
  C  C17  1  0.08233933  0.22293544  0.17709227  1
  C  C18  1  0.28329546  0.36473474  0.02734045  1
  C  C19  1  0.24244469  0.37745627  0.39830147  1
  C  C20  1  0.31902491  0.70961671  0.69928785  1
  C  C21  1  0.35548500  0.81610131  0.42050759  1
  C  C22  1  0.33615539  0.62605041  0.90864082  1
  C  C23  1  0.36152255  0.09173425  0.67681423  1
  C  C24  1  0.30529127  0.03765181  0.00517675  1
  C  C25  1  0.40086184  0.70524368  0.16384641  1
  C  C26  1  0.28777590  0.04706683  0.25630333  1
  C  C27  1  0.43652624  0.41913588  0.68369043  1
  C  C28  1  0.58230284  0.60010292  0.31315094  1
  C  C29  1  0.75115143  0.98268726  0.73769496  1
  C  C30  1  0.58872528  0.29106340  0.83508282  1
  C  C31  1  0.70197636  0.97073111  0.01083105  1
  C  C32  1  0.62270925  0.93261147  0.29684995  1
  C  C33  1  0.63340581  0.34496784  0.09325422  1
  C  C34  1  0.65942578  0.19945811  0.58188970  1
  C  C35  1  0.67213347  0.28959279  0.30229236  1
  C  C36  1  0.73697760  0.64819790  0.60066349  1
  C  C37  1  0.69825737  0.63549028  0.98374892  1
  C  C38  1  0.89508550  0.76429759  0.82494839  1
  C  C39  1  0.90185345  0.52899788  0.23246101  1
  C  C40  1  0.02533082  0.83874828  0.61623612  1
  C  C41  1  0.02238469  0.15138941  0.93512011  1
