# generated using pymatgen
data_CuNi4C3
_symmetry_space_group_name_H-M   'P 1'
_cell_length_a   5.38851500
_cell_length_b   5.38853339
_cell_length_c   14.00041600
_cell_angle_alpha   90.00041038
_cell_angle_beta   89.99993916
_cell_angle_gamma   90.00097742
_symmetry_Int_Tables_number   1
_chemical_formula_structural   CuNi4C3
_chemical_formula_sum   'Cu4 Ni16 C12'
_cell_volume   406.51878126
_cell_formula_units_Z   4
loop_
 _symmetry_equiv_pos_site_id
 _symmetry_equiv_pos_as_xyz
  1  'x, y, z'
loop_
 _atom_site_type_symbol
 _atom_site_label
 _atom_site_symmetry_multiplicity
 _atom_site_fract_x
 _atom_site_fract_y
 _atom_site_fract_z
 _atom_site_occupancy
  C  C0  1  0.75003400  0.99999200  0.90427800  1
  C  C1  1  0.24998300  0.49998500  0.90428100  1
  C  C2  1  0.24999100  0.00000100  0.09571900  1
  C  C3  1  0.74999700  0.49997900  0.09572100  1
  C  C4  1  0.74999500  0.99999400  0.62255300  1
  C  C5  1  0.25002200  0.50003200  0.62255500  1
  C  C6  1  0.24997900  0.00002700  0.37745500  1
  C  C7  1  0.74999900  0.49998400  0.37743900  1
  C  C8  1  0.74999900  0.50000500  0.77618700  1
  C  C9  1  0.24998300  0.50000700  0.22382100  1
  C  C10  1  0.24999700  0.00001500  0.77617500  1
  C  C11  1  0.74998900  0.99998200  0.22379200  1
  Ni  Ni12  1  0.25002700  0.00001000  0.91693600  1
  Ni  Ni13  1  0.74999300  0.50000100  0.91693600  1
  Ni  Ni14  1  0.74999300  0.99999600  0.08307500  1
  Ni  Ni15  1  0.24999700  0.49998800  0.08306800  1
  Ni  Ni16  1  0.24999900  0.99998200  0.64183600  1
  Ni  Ni17  1  0.75001400  0.49999100  0.64183400  1
  Ni  Ni18  1  0.75000000  0.00000100  0.35817300  1
  Ni  Ni19  1  0.25000500  0.50000700  0.35816700  1
  Ni  Ni20  1  0.50001500  0.75001800  0.76951100  1
  Ni  Ni21  1  0.99998700  0.24998600  0.76950400  1
  Ni  Ni22  1  0.49999000  0.25001100  0.76950300  1
  Ni  Ni23  1  0.00002400  0.74998000  0.76951300  1
  Ni  Ni24  1  0.50000100  0.24999600  0.23049700  1
  Ni  Ni25  1  0.00000900  0.75000800  0.23049500  1
  Ni  Ni26  1  0.50000800  0.75000200  0.23049800  1
  Ni  Ni27  1  0.99999400  0.25000200  0.23048700  1
  Cu  Cu28  1  0.50000800  0.74999000  0.50000200  1
  Cu  Cu29  1  0.99999300  0.25001300  0.49999700  1
  Cu  Cu30  1  0.50000300  0.25001200  0.49999700  1
  Cu  Cu31  1  0.99997300  0.75000000  0.49999900  1
