# generated using pymatgen
data_Cu2NiC11
_symmetry_space_group_name_H-M   'P 1'
_cell_length_a   10.29266534
_cell_length_b   10.29266534
_cell_length_c   5.17984885
_cell_angle_alpha   84.59615746
_cell_angle_beta   84.59615746
_cell_angle_gamma   150.88941270
_symmetry_Int_Tables_number   1
_chemical_formula_structural   Cu2NiC11
_chemical_formula_sum   'Cu4 Ni2 C22'
_cell_volume   247.51141090
_cell_formula_units_Z   2
loop_
 _symmetry_equiv_pos_site_id
 _symmetry_equiv_pos_as_xyz
  1  'x, y, z'
loop_
 _atom_site_type_symbol
 _atom_site_label
 _atom_site_symmetry_multiplicity
 _atom_site_fract_x
 _atom_site_fract_y
 _atom_site_fract_z
 _atom_site_occupancy
  C  C0  1  0.92615500  0.07384500  0.50000000  1
  C  C1  1  0.35547800  0.64452200  0.50000000  1
  C  C2  1  0.78437200  0.21562800  0.50000000  1
  C  C3  1  0.21814300  0.78185700  0.50000000  1
  C  C4  1  0.64412100  0.35587900  0.50000000  1
  C  C5  1  0.07088000  0.92912000  0.50000000  1
  C  C6  1  0.49988100  0.50011900  0.50000000  1
  C  C7  1  0.28541900  0.71458100  0.00000000  1
  Ni  Ni8  1  0.99872500  0.00127500  0.00000000  1
  Ni  Ni9  1  0.14551700  0.85448300  0.00000000  1
  Cu  Cu10  1  0.42746500  0.57253500  0.00000000  1
  Cu  Cu11  1  0.85738800  0.14261200  0.00000000  1
  Cu  Cu12  1  0.71734400  0.28265600  0.00000000  1
  Cu  Cu13  1  0.57096800  0.42903200  0.00000000  1
  C  C14  1  0.69904700  0.84574000  0.23598200  1
  C  C15  1  0.10339600  0.38205400  0.20659300  1
  C  C16  1  0.57148100  0.99665100  0.22892600  1
  C  C17  1  0.97447100  0.55607800  0.23941100  1
  C  C18  1  0.39725300  0.11017400  0.20731800  1
  C  C19  1  0.84328400  0.70095800  0.23501000  1
  C  C20  1  0.27860400  0.27773600  0.22755100  1
  C  C21  1  0.15426000  0.30095300  0.76401800  1
  C  C22  1  0.61794600  0.89660400  0.79340700  1
  C  C23  1  0.00334900  0.42851900  0.77107400  1
  C  C24  1  0.44392200  0.02552900  0.76058900  1
  C  C25  1  0.88982600  0.60274700  0.79268200  1
  C  C26  1  0.29904200  0.15671600  0.76499000  1
  C  C27  1  0.72226400  0.72139600  0.77244900  1
