# generated using pymatgen
data_Cu5Ni2C25
_symmetry_space_group_name_H-M   'P 1'
_cell_length_a   5.94620900
_cell_length_b   6.45121939
_cell_length_c   7.73523406
_cell_angle_alpha   89.44850019
_cell_angle_beta   98.79143853
_cell_angle_gamma   103.51257515
_symmetry_Int_Tables_number   1
_chemical_formula_structural   Cu5Ni2C25
_chemical_formula_sum   'Cu5 Ni2 C25'
_cell_volume   285.01736626
_cell_formula_units_Z   1
loop_
 _symmetry_equiv_pos_site_id
 _symmetry_equiv_pos_as_xyz
  1  'x, y, z'
loop_
 _atom_site_type_symbol
 _atom_site_label
 _atom_site_symmetry_multiplicity
 _atom_site_fract_x
 _atom_site_fract_y
 _atom_site_fract_z
 _atom_site_occupancy
  C  C0  1  0.37674900  0.36862900  0.12207200  1
  C  C1  1  0.12493300  0.12359400  0.37566300  1
  C  C2  1  0.73855700  0.75715900  0.24787600  1
  C  C3  1  0.50000000  0.50000000  0.50000000  1
  C  C4  1  0.87506700  0.87640600  0.62433700  1
  C  C5  1  0.26144300  0.24284100  0.75212400  1
  C  C6  1  0.00000000  0.00000000  0.00000000  1
  C  C7  1  0.62325100  0.63137100  0.87792800  1
  C  C8  1  0.50000000  0.00000000  0.00000000  1
  Ni  Ni9  1  0.86670300  0.37321600  0.12089500  1
  Ni  Ni10  1  0.13329700  0.62678400  0.87910500  1
  Cu  Cu11  1  0.61004300  0.11931400  0.36678000  1
  Cu  Cu12  1  0.38995700  0.88068600  0.63322000  1
  Cu  Cu13  1  0.00000000  0.50000000  0.50000000  1
  Cu  Cu14  1  0.74649900  0.24922500  0.74963200  1
  Cu  Cu15  1  0.25350100  0.75077500  0.25036800  1
  C  C16  1  0.06135000  0.32698400  0.95043800  1
  C  C17  1  0.81817300  0.08527500  0.19028000  1
  C  C18  1  0.40047800  0.68636500  0.05913400  1
  C  C19  1  0.15364600  0.45154500  0.30166800  1
  C  C20  1  0.56748200  0.81671500  0.44217500  1
  C  C21  1  0.90927100  0.20814500  0.55445000  1
  C  C22  1  0.67586900  0.95560500  0.79570100  1
  C  C23  1  0.30898500  0.56521400  0.70548700  1
  C  C24  1  0.69101500  0.43478600  0.29451300  1
  C  C25  1  0.43251800  0.18328500  0.55782500  1
  C  C26  1  0.09072900  0.79185500  0.44555000  1
  C  C27  1  0.84635400  0.54845500  0.69833200  1
  C  C28  1  0.18182700  0.91472500  0.80972000  1
  C  C29  1  0.59952200  0.31363500  0.94086600  1
  C  C30  1  0.32413100  0.04439500  0.20429900  1
  C  C31  1  0.93865000  0.67301600  0.04956200  1
