# generated using pymatgen
data_Cu12Ni4C21
_symmetry_space_group_name_H-M   'P 1'
_cell_length_a   8.78816000
_cell_length_b   11.43605299
_cell_length_c   11.72286257
_cell_angle_alpha   118.30269362
_cell_angle_beta   100.81715954
_cell_angle_gamma   97.35501128
_symmetry_Int_Tables_number   1
_chemical_formula_structural   Cu12Ni4C21
_chemical_formula_sum   'Cu24 Ni8 C42'
_cell_volume   986.29621874
_cell_formula_units_Z   2
loop_
 _symmetry_equiv_pos_site_id
 _symmetry_equiv_pos_as_xyz
  1  'x, y, z'
loop_
 _atom_site_type_symbol
 _atom_site_label
 _atom_site_symmetry_multiplicity
 _atom_site_fract_x
 _atom_site_fract_y
 _atom_site_fract_z
 _atom_site_occupancy
  C  C0  1  0.97511200  0.68296700  0.98584600  1
  C  C1  1  0.02488800  0.31703300  0.01415400  1
  C  C2  1  0.20768100  0.88442200  0.64734600  1
  C  C3  1  0.79231900  0.11557800  0.35265400  1
  C  C4  1  0.40561500  0.58121900  0.38887700  1
  C  C5  1  0.59438500  0.41878100  0.61112300  1
  C  C6  1  0.06670300  0.23424500  0.44501200  1
  C  C7  1  0.93329700  0.76575500  0.55498800  1
  C  C8  1  0.51047700  0.33480100  0.72447200  1
  C  C9  1  0.48952300  0.66519900  0.27552800  1
  C  C10  1  0.14866100  0.48748600  0.52956500  1
  C  C11  1  0.85133900  0.51251400  0.47043500  1
  C  C12  1  0.33583100  0.31893600  0.94612400  1
  C  C13  1  0.66416900  0.68106400  0.05387600  1
  C  C14  1  0.52660300  0.16623900  0.94796400  1
  C  C15  1  0.47339700  0.83376100  0.05203600  1
  C  C16  1  0.36049900  0.08382900  0.08224900  1
  C  C17  1  0.63950100  0.91617100  0.91775100  1
  C  C18  1  0.57288800  0.05883500  0.42466100  1
  C  C19  1  0.42711200  0.94116500  0.57533900  1
  C  C20  1  0.87218800  0.00463200  0.09727800  1
  C  C21  1  0.12781200  0.99536800  0.90272200  1
  C  C22  1  0.07396900  0.82358700  0.46200900  1
  C  C23  1  0.92603100  0.17641300  0.53799100  1
  C  C24  1  0.89122200  0.14608800  0.25244200  1
  C  C25  1  0.10877800  0.85391200  0.74755800  1
  C  C26  1  0.41961600  0.93776200  0.35317400  1
  C  C27  1  0.58038400  0.06223800  0.64682600  1
  C  C28  1  0.36092300  0.59855600  0.91042300  1
  C  C29  1  0.63907700  0.40144400  0.08957700  1
  C  C30  1  0.44059800  0.16936500  0.15128500  1
  C  C31  1  0.55940200  0.83063500  0.84871500  1
  C  C32  1  0.33728900  0.39277400  0.29952700  1
  C  C33  1  0.66271100  0.60722600  0.70047300  1
  C  C34  1  0.18074700  0.37577600  0.19234000  1
  C  C35  1  0.81925300  0.62422400  0.80766000  1
  C  C36  1  0.22161200  0.53645000  0.84346300  1
  C  C37  1  0.77838800  0.46355000  0.15653700  1
  C  C38  1  0.41900000  0.12407700  0.62154800  1
  C  C39  1  0.58100000  0.87592300  0.37845200  1
  C  C40  1  0.16400900  0.78296500  0.09493400  1
  C  C41  1  0.83599100  0.21703500  0.90506600  1
  Ni  Ni42  1  0.28518100  0.63628400  0.49129800  1
  Ni  Ni43  1  0.71481900  0.36371600  0.50870200  1
  Ni  Ni44  1  0.04452900  0.17145700  0.53916000  1
  Ni  Ni45  1  0.95547100  0.82854300  0.46084000  1
  Ni  Ni46  1  0.85624800  0.90742800  0.36035700  1
  Ni  Ni47  1  0.14375200  0.09257200  0.63964300  1
  Ni  Ni48  1  0.22393200  0.35260500  0.29316200  1
  Ni  Ni49  1  0.77606800  0.64739500  0.70683800  1
  Cu  Cu50  1  0.35450600  0.40961100  0.87110700  1
  Cu  Cu51  1  0.64549400  0.59038900  0.12889300  1
  Cu  Cu52  1  0.15365900  0.56802500  0.54011600  1
  Cu  Cu53  1  0.84634100  0.43197500  0.45988400  1
  Cu  Cu54  1  0.11939400  0.46521000  0.95954900  1
  Cu  Cu55  1  0.88060600  0.53479000  0.04045100  1
  Cu  Cu56  1  0.13640100  0.81738000  0.69712800  1
  Cu  Cu57  1  0.86359900  0.18262000  0.30287200  1
  Cu  Cu58  1  0.68354300  0.26836800  0.49034900  1
  Cu  Cu59  1  0.31645700  0.73163200  0.50965100  1
  Cu  Cu60  1  0.45694100  0.08959100  0.78177300  1
  Cu  Cu61  1  0.54305900  0.91040900  0.21822700  1
  Cu  Cu62  1  0.33472300  0.98990000  0.56329400  1
  Cu  Cu63  1  0.66527700  0.01010000  0.43670600  1
  Cu  Cu64  1  0.65618200  0.83430500  0.91439200  1
  Cu  Cu65  1  0.34381800  0.16569500  0.08560800  1
  Cu  Cu66  1  0.47273800  0.57329000  0.34078300  1
  Cu  Cu67  1  0.52726200  0.42671000  0.65921700  1
  Cu  Cu68  1  0.18946300  0.96197000  0.99790500  1
  Cu  Cu69  1  0.81053700  0.03803000  0.00209500  1
  Cu  Cu70  1  0.05469600  0.76965700  0.19105300  1
  Cu  Cu71  1  0.94530400  0.23034300  0.80894700  1
  Cu  Cu72  1  0.03200100  0.77109100  0.94995200  1
  Cu  Cu73  1  0.96799900  0.22890900  0.05004800  1
