# generated using pymatgen
data_Cu(NiC)2
_symmetry_space_group_name_H-M   'P 1'
_cell_length_a   8.85519100
_cell_length_b   8.87788563
_cell_length_c   8.87822387
_cell_angle_alpha   109.59402381
_cell_angle_beta   109.27203738
_cell_angle_gamma   109.42277575
_symmetry_Int_Tables_number   1
_chemical_formula_structural   Cu(NiC)2
_chemical_formula_sum   'Cu8 Ni16 C16'
_cell_volume   538.11653600
_cell_formula_units_Z   8
loop_
 _symmetry_equiv_pos_site_id
 _symmetry_equiv_pos_as_xyz
  1  'x, y, z'
loop_
 _atom_site_type_symbol
 _atom_site_label
 _atom_site_symmetry_multiplicity
 _atom_site_fract_x
 _atom_site_fract_y
 _atom_site_fract_z
 _atom_site_occupancy
  C  C0  1  0.21785900  0.97042800  0.24059900  1
  C  C1  1  0.98843400  0.48157700  0.51011300  1
  C  C2  1  0.03140800  0.25210100  0.22077900  1
  C  C3  1  0.24371300  0.78028000  0.95974700  1
  C  C4  1  0.46572100  0.75716800  0.28375000  1
  C  C5  1  0.25216400  0.29244200  0.46725400  1
  C  C6  1  0.50821500  0.51047900  0.98140400  1
  C  C7  1  0.99779200  0.99016200  0.01280900  1
  C  C8  1  0.28301200  0.53515700  0.75107400  1
  C  C9  1  0.71675800  0.45948800  0.25164300  1
  C  C10  1  0.49642000  0.01060500  0.49390700  1
  C  C11  1  0.75553800  0.71633300  0.53217700  1
  C  C12  1  0.74281600  0.21058700  0.03831700  1
  C  C13  1  0.53652200  0.25843700  0.71267800  1
  C  C14  1  0.95947400  0.74005800  0.79584500  1
  C  C15  1  0.78505600  0.03296400  0.75359500  1
  Ni  Ni16  1  0.25767000  0.53129600  0.01863800  1
  Ni  Ni17  1  0.23002100  0.76203000  0.72494200  1
  Ni  Ni18  1  0.23149400  0.48956500  0.54333600  1
  Ni  Ni19  1  0.72688700  0.95014300  0.03548000  1
  Ni  Ni20  1  0.46351600  0.00803700  0.26467600  1
  Ni  Ni21  1  0.45187200  0.22478300  0.51245300  1
  Ni  Ni22  1  0.27379300  0.04283500  0.96944200  1
  Ni  Ni23  1  0.48707700  0.45710700  0.77169000  1
  Ni  Ni24  1  0.95500900  0.96861500  0.27213100  1
  Ni  Ni25  1  0.72922300  0.77399700  0.75921800  1
  Ni  Ni26  1  0.96732900  0.73091100  0.04195200  1
  Ni  Ni27  1  0.77809300  0.51616500  0.45139900  1
  Ni  Ni28  1  0.77322300  0.23796100  0.27222200  1
  Ni  Ni29  1  0.73859000  0.46739200  0.98795800  1
  Ni  Ni30  1  0.76103500  0.27293900  0.77129800  1
  Ni  Ni31  1  0.99082000  0.25869500  0.46829000  1
  Cu  Cu32  1  0.01425700  0.74016200  0.53102600  1
  Cu  Cu33  1  0.24132800  0.73010700  0.22874100  1
  Cu  Cu34  1  0.03502100  0.27381600  0.95061900  1
  Cu  Cu35  1  0.04655100  0.03749800  0.72656800  1
  Cu  Cu36  1  0.27625600  0.22587700  0.24006100  1
  Cu  Cu37  1  0.50675900  0.54183500  0.22843800  1
  Cu  Cu38  1  0.54728200  0.77229000  0.48649200  1
  Cu  Cu39  1  0.53599200  0.98767700  0.73724100  1
