# generated using pymatgen
data_Cu9Ni6C
_symmetry_space_group_name_H-M   'P 1'
_cell_length_a   7.20648331
_cell_length_b   12.48288311
_cell_length_c   11.97549200
_cell_angle_alpha   90.00000000
_cell_angle_beta   90.00000000
_cell_angle_gamma   29.99293384
_symmetry_Int_Tables_number   1
_chemical_formula_structural   Cu9Ni6C
_chemical_formula_sum   'Cu18 Ni12 C2'
_cell_volume   538.52872715
_cell_formula_units_Z   2
loop_
 _symmetry_equiv_pos_site_id
 _symmetry_equiv_pos_as_xyz
  1  'x, y, z'
loop_
 _atom_site_type_symbol
 _atom_site_label
 _atom_site_symmetry_multiplicity
 _atom_site_fract_x
 _atom_site_fract_y
 _atom_site_fract_z
 _atom_site_occupancy
  C  C0  1  0.00000000  0.30753700  0.25000000  1
  C  C1  1  0.00000000  0.69246300  0.75000000  1
  Ni  Ni2  1  0.67963600  0.80908300  0.25000000  1
  Ni  Ni3  1  0.67963600  0.51128000  0.75000000  1
  Ni  Ni4  1  0.32036400  0.19091700  0.75000000  1
  Ni  Ni5  1  0.32036400  0.48872000  0.25000000  1
  Ni  Ni6  1  0.68178000  0.29748100  0.89876600  1
  Ni  Ni7  1  0.68178000  0.02073800  0.10123400  1
  Ni  Ni8  1  0.68178000  0.29748100  0.60123400  1
  Ni  Ni9  1  0.68178000  0.02073800  0.39876600  1
  Ni  Ni10  1  0.31822000  0.70251900  0.10123400  1
  Ni  Ni11  1  0.31822000  0.97926200  0.89876600  1
  Ni  Ni12  1  0.31822000  0.70251900  0.39876600  1
  Ni  Ni13  1  0.31822000  0.97926200  0.60123400  1
  Cu  Cu14  1  0.00000000  0.60404700  0.25000000  1
  Cu  Cu15  1  0.00000000  0.39595300  0.75000000  1
  Cu  Cu16  1  0.37277600  0.99601900  0.25000000  1
  Cu  Cu17  1  0.37277600  0.63120600  0.75000000  1
  Cu  Cu18  1  0.62722400  0.00398100  0.75000000  1
  Cu  Cu19  1  0.62722400  0.36879400  0.25000000  1
  Cu  Cu20  1  0.00000000  0.15502700  0.94483000  1
  Cu  Cu21  1  0.00000000  0.84497300  0.05517000  1
  Cu  Cu22  1  0.00000000  0.15502700  0.55517000  1
  Cu  Cu23  1  0.00000000  0.84497300  0.44483000  1
  Cu  Cu24  1  0.37795500  0.43730700  0.86380300  1
  Cu  Cu25  1  0.37795500  0.18473800  0.13619700  1
  Cu  Cu26  1  0.37795500  0.43730700  0.63619700  1
  Cu  Cu27  1  0.37795500  0.18473800  0.36380300  1
  Cu  Cu28  1  0.62204500  0.56269300  0.13619700  1
  Cu  Cu29  1  0.62204500  0.81526200  0.86380300  1
  Cu  Cu30  1  0.62204500  0.56269300  0.36380300  1
  Cu  Cu31  1  0.62204500  0.81526200  0.63619700  1
