# generated using pymatgen
data_Cu5Ni3C4
_symmetry_space_group_name_H-M   'P 1'
_cell_length_a   4.73827700
_cell_length_b   5.64804600
_cell_length_c   10.67704673
_cell_angle_alpha   82.98774141
_cell_angle_beta   90.00000000
_cell_angle_gamma   90.00000000
_symmetry_Int_Tables_number   1
_chemical_formula_structural   Cu5Ni3C4
_chemical_formula_sum   'Cu10 Ni6 C8'
_cell_volume   283.60187987
_cell_formula_units_Z   2
loop_
 _symmetry_equiv_pos_site_id
 _symmetry_equiv_pos_as_xyz
  1  'x, y, z'
loop_
 _atom_site_type_symbol
 _atom_site_label
 _atom_site_symmetry_multiplicity
 _atom_site_fract_x
 _atom_site_fract_y
 _atom_site_fract_z
 _atom_site_occupancy
  C  C0  1  0.73090200  0.24389600  0.73473800  1
  C  C1  1  0.80004200  0.75807400  0.26508200  1
  C  C2  1  0.73605600  0.49621200  0.99792400  1
  C  C3  1  0.76764700  0.99628600  0.51191000  1
  C  C4  1  0.26909800  0.24389600  0.23473800  1
  C  C5  1  0.26394400  0.49621200  0.49792400  1
  C  C6  1  0.19995800  0.75807400  0.76508200  1
  C  C7  1  0.23235300  0.99628600  0.01191000  1
  Ni  Ni8  1  0.04317800  0.72765300  0.93242300  1
  Ni  Ni9  1  0.04384500  0.97007900  0.17039000  1
  Ni  Ni10  1  0.95682200  0.72765300  0.43242300  1
  Ni  Ni11  1  0.95615500  0.97007900  0.67039000  1
  Ni  Ni12  1  0.54186800  0.26893300  0.55829600  1
  Ni  Ni13  1  0.45813200  0.26893300  0.05829600  1
  Cu  Cu14  1  0.04995900  0.23847200  0.41752200  1
  Cu  Cu15  1  0.06767100  0.47524000  0.67710300  1
  Cu  Cu16  1  0.93232900  0.47524000  0.17710300  1
  Cu  Cu17  1  0.95004100  0.23847200  0.91752200  1
  Cu  Cu18  1  0.55137300  0.76440400  0.08185500  1
  Cu  Cu19  1  0.56070000  0.01686500  0.33156000  1
  Cu  Cu20  1  0.54862900  0.54388500  0.82119600  1
  Cu  Cu21  1  0.43930000  0.01686500  0.83156000  1
  Cu  Cu22  1  0.45137100  0.54388500  0.32119600  1
  Cu  Cu23  1  0.44862700  0.76440400  0.58185500  1
