# generated using pymatgen
data_CuNi15C47
_symmetry_space_group_name_H-M   'P 1'
_cell_length_a   6.68666200
_cell_length_b   10.63040419
_cell_length_c   10.67797151
_cell_angle_alpha   90.45933706
_cell_angle_beta   90.07889327
_cell_angle_gamma   90.11705581
_symmetry_Int_Tables_number   1
_chemical_formula_structural   CuNi15C47
_chemical_formula_sum   'Cu1 Ni15 C47'
_cell_volume   758.98400140
_cell_formula_units_Z   1
loop_
 _symmetry_equiv_pos_site_id
 _symmetry_equiv_pos_as_xyz
  1  'x, y, z'
loop_
 _atom_site_type_symbol
 _atom_site_label
 _atom_site_symmetry_multiplicity
 _atom_site_fract_x
 _atom_site_fract_y
 _atom_site_fract_z
 _atom_site_occupancy
  C  C0  1  0.75475900  0.90464100  0.89945100  1
  C  C1  1  0.49552600  0.90527700  0.65028700  1
  C  C2  1  0.51432000  0.83827900  0.16738300  1
  C  C3  1  0.24973100  0.66085900  0.65807200  1
  C  C4  1  0.25332900  0.59968200  0.16675800  1
  C  C5  1  0.99814700  0.59336000  0.41063300  1
  C  C6  1  0.00252100  0.66219500  0.89460400  1
  C  C7  1  0.50140900  0.33957200  0.09518200  1
  C  C8  1  0.49953400  0.40341000  0.59413200  1
  C  C9  1  0.75088500  0.40331300  0.84118500  1
  C  C10  1  0.75005400  0.34180000  0.34177200  1
  C  C11  1  0.00087100  0.15889500  0.83902400  1
  C  C12  1  0.99654300  0.09376200  0.33921500  1
  C  C13  1  0.24847600  0.09351900  0.09600400  1
  C  C14  1  0.24913000  0.15928500  0.59467700  1
  Ni  Ni15  1  0.24634900  0.91002800  0.90949300  1
  Ni  Ni16  1  0.99648500  0.90462900  0.65933900  1
  Ni  Ni17  1  0.24481400  0.83349500  0.39888900  1
  Ni  Ni18  1  0.74699800  0.65759100  0.66354300  1
  Ni  Ni19  1  0.50099300  0.66156700  0.91032900  1
  Ni  Ni20  1  0.75195200  0.59597300  0.16523500  1
  Ni  Ni21  1  0.50092300  0.58655100  0.41512500  1
  Ni  Ni22  1  0.00073600  0.40893700  0.59073900  1
  Ni  Ni23  1  0.25267800  0.40455900  0.83801300  1
  Ni  Ni24  1  0.00388900  0.33822500  0.09214600  1
  Ni  Ni25  1  0.24864500  0.33837600  0.33957000  1
  Ni  Ni26  1  0.50109700  0.15763900  0.84065200  1
  Ni  Ni27  1  0.74930600  0.16075000  0.59358200  1
  Ni  Ni28  1  0.49930200  0.09171600  0.33845400  1
  Ni  Ni29  1  0.75540800  0.08937200  0.08996500  1
  Cu  Cu30  1  0.00013200  0.84575700  0.15530800  1
  C  C31  1  0.46881400  0.91634100  0.33270100  1
  C  C32  1  0.79139100  0.90825000  0.09863000  1
  C  C33  1  0.20779400  0.89929700  0.08750800  1
  C  C34  1  0.01914700  0.89043900  0.30259600  1
  C  C35  1  0.01618400  0.84286200  0.83116700  1
  C  C36  1  0.23250100  0.84528600  0.57757600  1
  C  C37  1  0.75255000  0.82937700  0.61704100  1
  C  C38  1  0.48648900  0.83394900  0.85409700  1
  C  C39  1  0.26309900  0.65946900  0.34902500  1
  C  C40  1  0.98937600  0.69297500  0.11617900  1
  C  C41  1  0.51403100  0.66095700  0.08970000  1
  C  C42  1  0.73966600  0.63470900  0.33607800  1
  C  C43  1  0.73939300  0.59751900  0.83676700  1
  C  C44  1  0.50595900  0.59366700  0.59364200  1
  C  C45  1  0.99070800  0.58741300  0.60272100  1
  C  C46  1  0.26135600  0.58408700  0.85007300  1
  C  C47  1  0.76487300  0.41748000  0.14851300  1
  C  C48  1  0.48930700  0.40640100  0.40407200  1
  C  C49  1  0.00960800  0.40000300  0.41261900  1
  C  C50  1  0.24019600  0.40333100  0.16839700  1
  C  C51  1  0.23832500  0.34405000  0.66718700  1
  C  C52  1  0.01342800  0.34237000  0.91369900  1
  C  C53  1  0.49047400  0.32911500  0.90213900  1
  C  C54  1  0.76262600  0.33274000  0.65524700  1
  C  C55  1  0.98943300  0.16782000  0.15556700  1
  C  C56  1  0.25831800  0.16668700  0.39999200  1
  C  C57  1  0.73864400  0.15453400  0.41512400  1
  C  C58  1  0.51595200  0.14964100  0.16452400  1
  C  C59  1  0.50970000  0.09799900  0.66934800  1
  C  C60  1  0.74207200  0.09441400  0.91272400  1
  C  C61  1  0.25980400  0.08813800  0.90544200  1
  C  C62  1  0.98804000  0.08486200  0.65594300  1
