# generated using pymatgen
data_Cu2Ni6C17
_symmetry_space_group_name_H-M   'P 1'
_cell_length_a   13.37900100
_cell_length_b   10.05013100
_cell_length_c   12.03573434
_cell_angle_alpha   64.17272844
_cell_angle_beta   90.00000000
_cell_angle_gamma   90.00000000
_symmetry_Int_Tables_number   1
_chemical_formula_structural   Cu2Ni6C17
_chemical_formula_sum   'Cu4 Ni12 C34'
_cell_volume   1456.68053441
_cell_formula_units_Z   2
loop_
 _symmetry_equiv_pos_site_id
 _symmetry_equiv_pos_as_xyz
  1  'x, y, z'
loop_
 _atom_site_type_symbol
 _atom_site_label
 _atom_site_symmetry_multiplicity
 _atom_site_fract_x
 _atom_site_fract_y
 _atom_site_fract_z
 _atom_site_occupancy
  C  C0  1  0.72707200  0.96460500  0.08949800  1
  C  C1  1  0.77292800  0.96460500  0.58949800  1
  C  C2  1  0.27292800  0.03539500  0.91050200  1
  C  C3  1  0.22707200  0.03539500  0.41050200  1
  C  C4  1  0.50000000  0.50000000  0.50000000  1
  C  C5  1  0.00000000  0.50000000  0.00000000  1
  C  C6  1  0.62427400  0.60390700  0.96039700  1
  C  C7  1  0.87572600  0.60390700  0.46039700  1
  C  C8  1  0.37572600  0.39609300  0.03960300  1
  C  C9  1  0.12427400  0.39609300  0.53960300  1
  C  C10  1  0.55878500  0.34888700  0.13664100  1
  C  C11  1  0.94121500  0.34888700  0.63664100  1
  C  C12  1  0.44121500  0.65111300  0.86335900  1
  C  C13  1  0.05878500  0.65111300  0.36335900  1
  C  C14  1  0.53508000  0.40271000  0.90590900  1
  C  C15  1  0.96492000  0.40271000  0.40590900  1
  C  C16  1  0.46492000  0.59729000  0.09409100  1
  C  C17  1  0.03508000  0.59729000  0.59409100  1
  C  C18  1  0.71073600  0.36554700  0.99975800  1
  C  C19  1  0.78926400  0.36554700  0.49975800  1
  C  C20  1  0.28926400  0.63445300  0.00024200  1
  C  C21  1  0.21073600  0.63445300  0.50024200  1
  C  C22  1  0.53081200  0.83786100  0.91927300  1
  C  C23  1  0.96918800  0.83786100  0.41927300  1
  C  C24  1  0.46918800  0.16213900  0.08072700  1
  C  C25  1  0.03081200  0.16213900  0.58072700  1
  C  C26  1  0.64142200  0.54391400  0.18713300  1
  C  C27  1  0.85857800  0.54391400  0.68713300  1
  C  C28  1  0.35857800  0.45608600  0.81286700  1
  C  C29  1  0.14142200  0.45608600  0.31286700  1
  C  C30  1  0.59364500  0.65008900  0.73800300  1
  C  C31  1  0.90635500  0.65008900  0.23800300  1
  C  C32  1  0.40635500  0.34991100  0.26199700  1
  C  C33  1  0.09364500  0.34991100  0.76199700  1
  Ni  Ni34  1  0.78313600  0.73918900  0.91247900  1
  Ni  Ni35  1  0.71686400  0.73918900  0.41247900  1
  Ni  Ni36  1  0.21686400  0.26081100  0.08752100  1
  Ni  Ni37  1  0.28313600  0.26081100  0.58752100  1
  Ni  Ni38  1  0.63228900  0.14436300  0.31236000  1
  Ni  Ni39  1  0.86771100  0.14436300  0.81236000  1
  Ni  Ni40  1  0.36771100  0.85563700  0.68764000  1
  Ni  Ni41  1  0.13228900  0.85563700  0.18764000  1
  Ni  Ni42  1  0.58178500  0.26220700  0.79245400  1
  Ni  Ni43  1  0.91821500  0.26220700  0.29245400  1
  Ni  Ni44  1  0.41821500  0.73779300  0.20754600  1
  Ni  Ni45  1  0.08178500  0.73779300  0.70754600  1
  Cu  Cu46  1  0.93600800  0.12547500  0.06636500  1
  Cu  Cu47  1  0.56399200  0.12547500  0.56636500  1
  Cu  Cu48  1  0.06399200  0.87452500  0.93363500  1
  Cu  Cu49  1  0.43600800  0.87452500  0.43363500  1
