# generated using pymatgen
data_Cu5Ni4C21
_symmetry_space_group_name_H-M   'P 1'
_cell_length_a   8.75280513
_cell_length_b   8.75280513
_cell_length_c   10.66941005
_cell_angle_alpha   85.77169731
_cell_angle_beta   85.77169731
_cell_angle_gamma   63.79132181
_symmetry_Int_Tables_number   1
_chemical_formula_structural   Cu5Ni4C21
_chemical_formula_sum   'Cu10 Ni8 C42'
_cell_volume   730.59416106
_cell_formula_units_Z   2
loop_
 _symmetry_equiv_pos_site_id
 _symmetry_equiv_pos_as_xyz
  1  'x, y, z'
loop_
 _atom_site_type_symbol
 _atom_site_label
 _atom_site_symmetry_multiplicity
 _atom_site_fract_x
 _atom_site_fract_y
 _atom_site_fract_z
 _atom_site_occupancy
  Ni  Ni0  1  0.35092700  0.06518600  0.07345000  1
  Ni  Ni1  1  0.36623400  0.68268200  0.97366900  1
  Ni  Ni2  1  0.93481400  0.64907300  0.42655000  1
  Ni  Ni3  1  0.31731800  0.63376600  0.52633100  1
  Ni  Ni4  1  0.68268200  0.36623400  0.47366900  1
  Ni  Ni5  1  0.06518600  0.35092700  0.57345000  1
  Ni  Ni6  1  0.64907300  0.93481400  0.92655000  1
  Ni  Ni7  1  0.63376600  0.31731800  0.02633100  1
  Cu  Cu8  1  0.30426500  0.99098200  0.73178100  1
  Cu  Cu9  1  0.99098200  0.30426500  0.23178100  1
  Cu  Cu10  1  0.14406100  0.52653800  0.04995800  1
  Cu  Cu11  1  0.52653800  0.14406100  0.54995800  1
  Cu  Cu12  1  0.47346200  0.85593900  0.45004200  1
  Cu  Cu13  1  0.83201100  0.16798900  0.75000000  1
  Cu  Cu14  1  0.16798900  0.83201100  0.25000000  1
  Cu  Cu15  1  0.85593900  0.47346200  0.95004200  1
  Cu  Cu16  1  0.69573500  0.00901800  0.26821900  1
  Cu  Cu17  1  0.00901800  0.69573500  0.76821900  1
  C  C18  1  0.65873400  0.65400900  0.69777800  1
  C  C19  1  0.00000000  0.00000000  0.00000000  1
  C  C20  1  0.00000000  0.00000000  0.50000000  1
  C  C21  1  0.65400900  0.65873400  0.19777800  1
  C  C22  1  0.34126600  0.34599100  0.30222200  1
  C  C23  1  0.34599100  0.34126600  0.80222200  1
  C  C24  1  0.91180300  0.59934200  0.61266800  1
  C  C25  1  0.25199900  0.91173100  0.56854100  1
  C  C26  1  0.38135000  0.77125700  0.33151900  1
  C  C27  1  0.93116600  0.92545700  0.17973500  1
  C  C28  1  0.08826900  0.74800100  0.93145900  1
  C  C29  1  0.07454300  0.06883400  0.32026500  1
  C  C30  1  0.61188100  0.56070200  0.03903800  1
  C  C31  1  0.90553100  0.24400000  0.57541800  1
  C  C32  1  0.09446900  0.75600000  0.42458200  1
  C  C33  1  0.21334700  0.28791600  0.14899800  1
  C  C34  1  0.43092900  0.76999400  0.81167400  1
  C  C35  1  0.78665300  0.71208400  0.85100200  1
  C  C36  1  0.74800100  0.08826900  0.43145900  1
  C  C37  1  0.55179300  0.90134900  0.61952700  1
  C  C38  1  0.23000600  0.56907100  0.68832600  1
  C  C39  1  0.38811900  0.43929800  0.96096200  1
  C  C40  1  0.56907100  0.23000600  0.18832600  1
  C  C41  1  0.09865100  0.44820700  0.88047300  1
  C  C42  1  0.22874300  0.61865000  0.16848100  1
  C  C43  1  0.76999400  0.43092900  0.31167400  1
  C  C44  1  0.59934200  0.91180300  0.11266800  1
  C  C45  1  0.44820700  0.09865100  0.38047300  1
  C  C46  1  0.75600000  0.09446900  0.92458200  1
  C  C47  1  0.56070200  0.61188100  0.53903800  1
  C  C48  1  0.61865000  0.22874300  0.66848100  1
  C  C49  1  0.92545700  0.93116600  0.67973500  1
  C  C50  1  0.28791600  0.21334700  0.64899800  1
  C  C51  1  0.43929800  0.38811900  0.46096200  1
  C  C52  1  0.91173100  0.25199900  0.06854100  1
  C  C53  1  0.90134900  0.55179300  0.11952700  1
  C  C54  1  0.08819700  0.40065800  0.38733200  1
  C  C55  1  0.06883400  0.07454300  0.82026500  1
  C  C56  1  0.24400000  0.90553100  0.07541800  1
  C  C57  1  0.71208400  0.78665300  0.35100200  1
  C  C58  1  0.77125700  0.38135000  0.83151900  1
  C  C59  1  0.40065800  0.08819700  0.88733200  1
