# generated using pymatgen
data_Cu9(Ni3C10)2
_symmetry_space_group_name_H-M   'P 1'
_cell_length_a   6.57922500
_cell_length_b   6.67640025
_cell_length_c   27.23032047
_cell_angle_alpha   96.33467012
_cell_angle_beta   90.20745797
_cell_angle_gamma   119.36699707
_symmetry_Int_Tables_number   1
_chemical_formula_structural   Cu9(Ni3C10)2
_chemical_formula_sum   'Cu18 Ni12 C40'
_cell_volume   1033.73439618
_cell_formula_units_Z   2
loop_
 _symmetry_equiv_pos_site_id
 _symmetry_equiv_pos_as_xyz
  1  'x, y, z'
loop_
 _atom_site_type_symbol
 _atom_site_label
 _atom_site_symmetry_multiplicity
 _atom_site_fract_x
 _atom_site_fract_y
 _atom_site_fract_z
 _atom_site_occupancy
  Ni  Ni0  1  0.35068400  0.42686100  0.22702500  1
  Ni  Ni1  1  0.59069300  0.29984500  0.10040500  1
  Ni  Ni2  1  0.11010700  0.29972300  0.10009500  1
  Ni  Ni3  1  0.79876300  0.89878200  0.30038200  1
  Ni  Ni4  1  0.89393600  0.68711300  0.40442100  1
  Ni  Ni5  1  0.99591900  0.50046400  0.49943800  1
  Ni  Ni6  1  0.50466200  0.50015000  0.49965500  1
  Ni  Ni7  1  0.10526200  0.30984700  0.59660500  1
  Ni  Ni8  1  0.20146000  0.10003200  0.69978600  1
  Ni  Ni9  1  0.29359000  0.88886800  0.80393700  1
  Ni  Ni10  1  0.38404100  0.70391000  0.89687100  1
  Ni  Ni11  1  0.91983600  0.70415600  0.89740300  1
  Cu  Cu12  1  0.15013200  0.82623200  0.02508800  1
  Cu  Cu13  1  0.69881600  0.09833300  0.20054900  1
  Cu  Cu14  1  0.54814400  0.02189300  0.42411200  1
  Cu  Cu15  1  0.60194100  0.80296000  0.10085600  1
  Cu  Cu16  1  0.04862500  0.76859900  0.17516400  1
  Cu  Cu17  1  0.29722100  0.89717800  0.30045400  1
  Cu  Cu18  1  0.75240500  0.63175600  0.62580300  1
  Cu  Cu19  1  0.80051400  0.40080600  0.30063500  1
  Cu  Cu20  1  0.24761000  0.36736800  0.37467100  1
  Cu  Cu21  1  0.94571000  0.21941100  0.82321200  1
  Cu  Cu22  1  0.00132500  0.00209300  0.50024500  1
  Cu  Cu23  1  0.45075900  0.97375200  0.57560600  1
  Cu  Cu24  1  0.69971500  0.10005000  0.69973700  1
  Cu  Cu25  1  0.19976400  0.59932900  0.69983800  1
  Cu  Cu26  1  0.64848700  0.56981600  0.77391100  1
  Cu  Cu27  1  0.50131600  0.50254500  0.99901000  1
  Cu  Cu28  1  0.40378200  0.21021300  0.89984300  1
  Cu  Cu29  1  0.84635400  0.16825300  0.97489500  1
  C  C30  1  0.30914700  0.63660500  0.05253600  1
  C  C31  1  0.40117600  0.44966000  0.14859900  1
  C  C32  1  0.77515600  0.63647700  0.05245300  1
  C  C33  1  0.30988500  0.17053700  0.05121600  1
  C  C34  1  0.89055000  0.42662700  0.14744100  1
  C  C35  1  0.50523800  0.24341400  0.25151800  1
  C  C36  1  0.42147200  0.96504200  0.14804500  1
  C  C37  1  0.80077800  0.15665700  0.05573800  1
  C  C38  1  0.60446700  0.04862800  0.34431700  1
  C  C39  1  0.98591600  0.23685300  0.25246600  1
  C  C40  1  0.89681500  0.96555400  0.14835100  1
  C  C41  1  0.51020300  0.76172000  0.25224600  1
  C  C42  1  0.07938600  0.01824400  0.35004700  1
  C  C43  1  0.70835700  0.83747200  0.45183400  1
  C  C44  1  0.62607000  0.56652000  0.34986700  1
  C  C45  1  0.99354800  0.74822200  0.25558800  1
  C  C46  1  0.17813600  0.83851400  0.45201900  1
  C  C47  1  0.80305000  0.65099200  0.54553900  1
  C  C48  1  0.08664000  0.55919700  0.35059800  1
  C  C49  1  0.70171800  0.35662300  0.45205800  1
  C  C50  1  0.29567400  0.63753200  0.54705900  1
  C  C51  1  0.91243400  0.43915600  0.65021500  1
  C  C52  1  0.82222400  0.16406300  0.54813800  1
  C  C53  1  0.19925300  0.35370500  0.45497400  1
  C  C54  1  0.00524000  0.24785000  0.74390200  1
  C  C55  1  0.37502900  0.43330600  0.65064700  1
  C  C56  1  0.29451300  0.16423100  0.54850300  1
  C  C57  1  0.91908400  0.97959800  0.65030400  1
  C  C58  1  0.11203700  0.04223500  0.85120600  1
  C  C59  1  0.48204200  0.22209000  0.74936200  1
  C  C60  1  0.02561300  0.76657900  0.74894400  1
  C  C61  1  0.20563100  0.85799600  0.94488300  1
  C  C62  1  0.39435900  0.94946800  0.65512400  1
  C  C63  1  0.57682000  0.04321500  0.85151000  1
  C  C64  1  0.10004800  0.55416400  0.84956900  1
  C  C65  1  0.48748000  0.76079000  0.74941700  1
  C  C66  1  0.69036900  0.82827000  0.94491800  1
  C  C67  1  0.22097200  0.37007800  0.94732200  1
  C  C68  1  0.60225700  0.56205200  0.85454600  1
  C  C69  1  0.69964300  0.36972200  0.94732700  1
