# generated using pymatgen
data_Cu5Ni12C5
_symmetry_space_group_name_H-M   'P 1'
_cell_length_a   9.67211500
_cell_length_b   9.67211500
_cell_length_c   10.59737700
_cell_angle_alpha   90.00000000
_cell_angle_beta   90.00000000
_cell_angle_gamma   90.00000000
_symmetry_Int_Tables_number   1
_chemical_formula_structural   Cu5Ni12C5
_chemical_formula_sum   'Cu20 Ni48 C20'
_cell_volume   991.38258973
_cell_formula_units_Z   4
loop_
 _symmetry_equiv_pos_site_id
 _symmetry_equiv_pos_as_xyz
  1  'x, y, z'
loop_
 _atom_site_type_symbol
 _atom_site_label
 _atom_site_symmetry_multiplicity
 _atom_site_fract_x
 _atom_site_fract_y
 _atom_site_fract_z
 _atom_site_occupancy
  C  C0  1  0.00000000  0.00000000  0.25000000  1
  C  C1  1  0.00000000  0.00000000  0.75000000  1
  C  C2  1  0.50000000  0.50000000  0.75000000  1
  C  C3  1  0.50000000  0.50000000  0.25000000  1
  Ni  Ni4  1  0.75740900  0.08227500  0.66594400  1
  Ni  Ni5  1  0.24259100  0.08227500  0.16594400  1
  Ni  Ni6  1  0.75740900  0.91772500  0.16594400  1
  Ni  Ni7  1  0.24259100  0.91772500  0.66594400  1
  Ni  Ni8  1  0.58227500  0.25740900  0.16594400  1
  Ni  Ni9  1  0.41772500  0.25740900  0.66594400  1
  Ni  Ni10  1  0.58227500  0.74259100  0.66594400  1
  Ni  Ni11  1  0.41772500  0.74259100  0.16594400  1
  Ni  Ni12  1  0.74259100  0.41772500  0.33405600  1
  Ni  Ni13  1  0.25740900  0.41772500  0.83405600  1
  Ni  Ni14  1  0.74259100  0.58227500  0.83405600  1
  Ni  Ni15  1  0.25740900  0.58227500  0.33405600  1
  Ni  Ni16  1  0.91772500  0.24259100  0.83405600  1
  Ni  Ni17  1  0.08227500  0.24259100  0.33405600  1
  Ni  Ni18  1  0.91772500  0.75740900  0.33405600  1
  Ni  Ni19  1  0.08227500  0.75740900  0.83405600  1
  Ni  Ni20  1  0.74950500  0.75631500  0.35729000  1
  Ni  Ni21  1  0.25049500  0.75631500  0.85729000  1
  Ni  Ni22  1  0.74950500  0.24368500  0.85729000  1
  Ni  Ni23  1  0.25049500  0.24368500  0.35729000  1
  Ni  Ni24  1  0.25631500  0.24950500  0.85729000  1
  Ni  Ni25  1  0.74368500  0.24950500  0.35729000  1
  Ni  Ni26  1  0.25631500  0.75049500  0.35729000  1
  Ni  Ni27  1  0.74368500  0.75049500  0.85729000  1
  Ni  Ni28  1  0.75049500  0.74368500  0.64271000  1
  Ni  Ni29  1  0.24950500  0.74368500  0.14271000  1
  Ni  Ni30  1  0.75049500  0.25631500  0.14271000  1
  Ni  Ni31  1  0.24950500  0.25631500  0.64271000  1
  Ni  Ni32  1  0.24368500  0.25049500  0.14271000  1
  Ni  Ni33  1  0.75631500  0.25049500  0.64271000  1
  Ni  Ni34  1  0.24368500  0.74950500  0.64271000  1
  Ni  Ni35  1  0.75631500  0.74950500  0.14271000  1
  Ni  Ni36  1  0.60591400  0.98697600  0.30483100  1
  Ni  Ni37  1  0.39408600  0.98697600  0.80483100  1
  Ni  Ni38  1  0.60591400  0.01302400  0.80483100  1
  Ni  Ni39  1  0.39408600  0.01302400  0.30483100  1
  Ni  Ni40  1  0.48697600  0.10591400  0.80483100  1
  Ni  Ni41  1  0.51302400  0.10591400  0.30483100  1
  Ni  Ni42  1  0.48697600  0.89408600  0.30483100  1
  Ni  Ni43  1  0.51302400  0.89408600  0.80483100  1
  Ni  Ni44  1  0.89408600  0.51302400  0.69516900  1
  Ni  Ni45  1  0.10591400  0.51302400  0.19516900  1
  Ni  Ni46  1  0.89408600  0.48697600  0.19516900  1
  Ni  Ni47  1  0.10591400  0.48697600  0.69516900  1
  Ni  Ni48  1  0.01302400  0.39408600  0.19516900  1
  Ni  Ni49  1  0.98697600  0.39408600  0.69516900  1
  Ni  Ni50  1  0.01302400  0.60591400  0.69516900  1
  Ni  Ni51  1  0.98697600  0.60591400  0.19516900  1
  Cu  Cu52  1  0.81333800  0.82921000  0.18254500  1
  Cu  Cu53  1  0.18666200  0.82921000  0.68254500  1
  Cu  Cu54  1  0.81333800  0.17079000  0.68254500  1
  Cu  Cu55  1  0.18666200  0.17079000  0.18254500  1
  Cu  Cu56  1  0.32921000  0.31333800  0.68254500  1
  Cu  Cu57  1  0.67079000  0.31333800  0.18254500  1
  Cu  Cu58  1  0.32921000  0.68666200  0.18254500  1
  Cu  Cu59  1  0.67079000  0.68666200  0.68254500  1
  Cu  Cu60  1  0.68666200  0.67079000  0.81745500  1
  Cu  Cu61  1  0.31333800  0.67079000  0.31745500  1
  Cu  Cu62  1  0.68666200  0.32921000  0.31745500  1
  Cu  Cu63  1  0.31333800  0.32921000  0.81745500  1
  Cu  Cu64  1  0.17079000  0.18666200  0.31745500  1
  Cu  Cu65  1  0.82921000  0.18666200  0.81745500  1
  Cu  Cu66  1  0.17079000  0.81333800  0.81745500  1
  Cu  Cu67  1  0.82921000  0.81333800  0.31745500  1
  Cu  Cu68  1  0.00000000  0.50000000  0.22923800  1
  Cu  Cu69  1  0.00000000  0.50000000  0.72923800  1
  Cu  Cu70  1  0.50000000  0.00000000  0.77076200  1
  Cu  Cu71  1  0.50000000  0.00000000  0.27076200  1
  C  C72  1  0.87206900  0.13113500  0.37939400  1
  C  C73  1  0.12793100  0.13113500  0.87939400  1
  C  C74  1  0.87206900  0.86886500  0.87939400  1
  C  C75  1  0.12793100  0.86886500  0.37939400  1
  C  C76  1  0.63113500  0.37206900  0.87939400  1
  C  C77  1  0.36886500  0.37206900  0.37939400  1
  C  C78  1  0.63113500  0.62793100  0.37939400  1
  C  C79  1  0.36886500  0.62793100  0.87939400  1
  C  C80  1  0.62793100  0.36886500  0.62060600  1
  C  C81  1  0.37206900  0.36886500  0.12060600  1
  C  C82  1  0.62793100  0.63113500  0.12060600  1
  C  C83  1  0.37206900  0.63113500  0.62060600  1
  C  C84  1  0.86886500  0.12793100  0.12060600  1
  C  C85  1  0.13113500  0.12793100  0.62060600  1
  C  C86  1  0.86886500  0.87206900  0.62060600  1
  C  C87  1  0.13113500  0.87206900  0.12060600  1
