# generated using pymatgen
data_Cu7(Ni4C)2
_symmetry_space_group_name_H-M   'P 1'
_cell_length_a   7.68632000
_cell_length_b   9.16944800
_cell_length_c   21.11076400
_cell_angle_alpha   90.00000000
_cell_angle_beta   90.00000000
_cell_angle_gamma   90.00000000
_symmetry_Int_Tables_number   1
_chemical_formula_structural   Cu7(Ni4C)2
_chemical_formula_sum   'Cu28 Ni32 C8'
_cell_volume   1487.87211304
_cell_formula_units_Z   4
loop_
 _symmetry_equiv_pos_site_id
 _symmetry_equiv_pos_as_xyz
  1  'x, y, z'
loop_
 _atom_site_type_symbol
 _atom_site_label
 _atom_site_symmetry_multiplicity
 _atom_site_fract_x
 _atom_site_fract_y
 _atom_site_fract_z
 _atom_site_occupancy
  C  C0  1  0.11243500  0.89664600  0.64182200  1
  C  C1  1  0.38756500  0.60335400  0.14182200  1
  C  C2  1  0.61243500  0.60335400  0.35817800  1
  C  C3  1  0.88756500  0.89664600  0.85817800  1
  C  C4  1  0.88756500  0.10335400  0.35817800  1
  C  C5  1  0.61243500  0.39664600  0.85817800  1
  C  C6  1  0.38756500  0.39664600  0.64182200  1
  C  C7  1  0.11243500  0.10335400  0.14182200  1
  Ni  Ni8  1  0.28222000  0.51251200  0.93312200  1
  Ni  Ni9  1  0.21778000  0.98748800  0.43312200  1
  Ni  Ni10  1  0.78222000  0.98748800  0.06687800  1
  Ni  Ni11  1  0.71778000  0.51251200  0.56687800  1
  Ni  Ni12  1  0.71778000  0.48748800  0.06687800  1
  Ni  Ni13  1  0.78222000  0.01251200  0.56687800  1
  Ni  Ni14  1  0.21778000  0.01251200  0.93312200  1
  Ni  Ni15  1  0.28222000  0.48748800  0.43312200  1
  Ni  Ni16  1  0.96230100  0.70049900  0.67960200  1
  Ni  Ni17  1  0.53769900  0.79950100  0.17960200  1
  Ni  Ni18  1  0.46230100  0.79950100  0.32039800  1
  Ni  Ni19  1  0.03769900  0.70049900  0.82039800  1
  Ni  Ni20  1  0.03769900  0.29950100  0.32039800  1
  Ni  Ni21  1  0.46230100  0.20049900  0.82039800  1
  Ni  Ni22  1  0.53769900  0.20049900  0.67960200  1
  Ni  Ni23  1  0.96230100  0.29950100  0.17960200  1
  Ni  Ni24  1  0.30328900  0.71773000  0.58002200  1
  Ni  Ni25  1  0.19671100  0.78227000  0.08002200  1
  Ni  Ni26  1  0.80328900  0.78227000  0.41997800  1
  Ni  Ni27  1  0.69671100  0.71773000  0.91997800  1
  Ni  Ni28  1  0.69671100  0.28227000  0.41997800  1
  Ni  Ni29  1  0.80328900  0.21773000  0.91997800  1
  Ni  Ni30  1  0.19671100  0.21773000  0.58002200  1
  Ni  Ni31  1  0.30328900  0.28227000  0.08002200  1
  Ni  Ni32  1  0.32290700  0.89246500  0.71734700  1
  Ni  Ni33  1  0.17709300  0.60753500  0.21734700  1
  Ni  Ni34  1  0.82290700  0.60753500  0.28265300  1
  Ni  Ni35  1  0.67709300  0.89246500  0.78265300  1
  Ni  Ni36  1  0.67709300  0.10753500  0.28265300  1
  Ni  Ni37  1  0.82290700  0.39246500  0.78265300  1
  Ni  Ni38  1  0.17709300  0.39246500  0.71734700  1
  Ni  Ni39  1  0.32290700  0.10753500  0.21734700  1
  Cu  Cu40  1  0.50000000  0.60061500  0.75000000  1
  Cu  Cu41  1  0.00000000  0.89938500  0.25000000  1
  Cu  Cu42  1  0.50000000  0.39938500  0.25000000  1
  Cu  Cu43  1  0.00000000  0.10061500  0.75000000  1
  Cu  Cu44  1  0.94709000  0.02408000  0.69673200  1
  Cu  Cu45  1  0.55291000  0.47592000  0.19673200  1
  Cu  Cu46  1  0.44709000  0.47592000  0.30326800  1
  Cu  Cu47  1  0.05291000  0.02408000  0.80326800  1
  Cu  Cu48  1  0.05291000  0.97592000  0.30326800  1
  Cu  Cu49  1  0.44709000  0.52408000  0.80326800  1
  Cu  Cu50  1  0.55291000  0.52408000  0.69673200  1
  Cu  Cu51  1  0.94709000  0.97592000  0.19673200  1
  Cu  Cu52  1  0.94350400  0.89453300  0.56751600  1
  Cu  Cu53  1  0.55649600  0.60546700  0.06751600  1
  Cu  Cu54  1  0.44350400  0.60546700  0.43248400  1
  Cu  Cu55  1  0.05649600  0.89453300  0.93248400  1
  Cu  Cu56  1  0.05649600  0.10546700  0.43248400  1
  Cu  Cu57  1  0.44350400  0.39453300  0.93248400  1
  Cu  Cu58  1  0.55649600  0.39453300  0.56751600  1
  Cu  Cu59  1  0.94350400  0.10546700  0.06751600  1
  Cu  Cu60  1  0.25691800  0.04813500  0.59221500  1
  Cu  Cu61  1  0.24308200  0.45186500  0.09221500  1
  Cu  Cu62  1  0.75691800  0.45186500  0.40778500  1
  Cu  Cu63  1  0.74308200  0.04813500  0.90778500  1
  Cu  Cu64  1  0.74308200  0.95186500  0.40778500  1
  Cu  Cu65  1  0.75691800  0.54813500  0.90778500  1
  Cu  Cu66  1  0.24308200  0.54813500  0.59221500  1
  Cu  Cu67  1  0.25691800  0.95186500  0.09221500  1
