# generated using pymatgen
data_CuNiC8
_symmetry_space_group_name_H-M   'P 1'
_cell_length_a   5.37277100
_cell_length_b   5.55389100
_cell_length_c   7.58551600
_cell_angle_alpha   90.00000000
_cell_angle_beta   90.00000000
_cell_angle_gamma   90.00000000
_symmetry_Int_Tables_number   1
_chemical_formula_structural   CuNiC8
_chemical_formula_sum   'Cu2 Ni2 C16'
_cell_volume   226.35016278
_cell_formula_units_Z   2
loop_
 _symmetry_equiv_pos_site_id
 _symmetry_equiv_pos_as_xyz
  1  'x, y, z'
loop_
 _atom_site_type_symbol
 _atom_site_label
 _atom_site_symmetry_multiplicity
 _atom_site_fract_x
 _atom_site_fract_y
 _atom_site_fract_z
 _atom_site_occupancy
  Ni  Ni0  1  0.48979100  0.19916500  0.50000000  1
  Ni  Ni1  1  0.98979100  0.80083500  0.00000000  1
  Cu  Cu2  1  0.01555800  0.68932700  0.50000000  1
  Cu  Cu3  1  0.51555800  0.31067300  0.00000000  1
  C  C4  1  0.00043400  0.24632600  0.75002400  1
  C  C5  1  0.50043400  0.75367400  0.25002400  1
  C  C6  1  0.00043400  0.24632600  0.24997600  1
  C  C7  1  0.50043400  0.75367400  0.74997600  1
  C  C8  1  0.19880300  0.94946000  0.70156000  1
  C  C9  1  0.29148000  0.45950300  0.29620400  1
  C  C10  1  0.79148000  0.54049700  0.20379600  1
  C  C11  1  0.69880300  0.05054000  0.79844000  1
  C  C12  1  0.79148000  0.54049700  0.79620400  1
  C  C13  1  0.69880300  0.05054000  0.20156000  1
  C  C14  1  0.19880300  0.94946000  0.29844000  1
  C  C15  1  0.29148000  0.45950300  0.70379600  1
  C  C16  1  0.59782700  0.77467200  0.50000000  1
  C  C17  1  0.91539100  0.28004700  0.50000000  1
  C  C18  1  0.41539100  0.71995300  0.00000000  1
  C  C19  1  0.09782700  0.22532800  0.00000000  1
