# generated using pymatgen
data_Cu3Ni3C14
_symmetry_space_group_name_H-M   'P 1'
_cell_length_a   7.78422100
_cell_length_b   8.16688100
_cell_length_c   16.27923844
_cell_angle_alpha   59.94867505
_cell_angle_beta   90.00000000
_cell_angle_gamma   90.00000000
_symmetry_Int_Tables_number   1
_chemical_formula_structural   Cu3Ni3C14
_chemical_formula_sum   'Cu12 Ni12 C56'
_cell_volume   895.80041250
_cell_formula_units_Z   4
loop_
 _symmetry_equiv_pos_site_id
 _symmetry_equiv_pos_as_xyz
  1  'x, y, z'
loop_
 _atom_site_type_symbol
 _atom_site_label
 _atom_site_symmetry_multiplicity
 _atom_site_fract_x
 _atom_site_fract_y
 _atom_site_fract_z
 _atom_site_occupancy
  Ni  Ni0  1  0.85407500  0.80696000  0.76190800  1
  Ni  Ni1  1  0.65013700  0.17826500  0.40117600  1
  Ni  Ni2  1  0.15013700  0.82173500  0.09882400  1
  Ni  Ni3  1  0.34986300  0.82173500  0.59882400  1
  Ni  Ni4  1  0.84986300  0.17826500  0.90117600  1
  Ni  Ni5  1  0.14664100  0.47567900  0.41278700  1
  Ni  Ni6  1  0.64664100  0.52432100  0.08721300  1
  Ni  Ni7  1  0.85335900  0.52432100  0.58721300  1
  Ni  Ni8  1  0.35335900  0.47567900  0.91278700  1
  Ni  Ni9  1  0.64592500  0.80696000  0.26190800  1
  Ni  Ni10  1  0.14592500  0.19304000  0.23809200  1
  Ni  Ni11  1  0.35407500  0.19304000  0.73809200  1
  Cu  Cu12  1  0.23338300  0.80384100  0.76491200  1
  Cu  Cu13  1  0.73338300  0.19615900  0.73508800  1
  Cu  Cu14  1  0.76661700  0.19615900  0.23508800  1
  Cu  Cu15  1  0.26661700  0.80384100  0.26491200  1
  Cu  Cu16  1  0.72946200  0.47175100  0.91680900  1
  Cu  Cu17  1  0.22946200  0.52824900  0.58319100  1
  Cu  Cu18  1  0.27053800  0.52824900  0.08319100  1
  Cu  Cu19  1  0.77053800  0.47175100  0.41680900  1
  Cu  Cu20  1  0.23270100  0.16435100  0.90210100  1
  Cu  Cu21  1  0.73270100  0.83564900  0.59789900  1
  Cu  Cu22  1  0.76729900  0.83564900  0.09789900  1
  Cu  Cu23  1  0.26729900  0.16435100  0.40210100  1
  C  C24  1  0.45307200  0.16315700  0.08899900  1
  C  C25  1  0.04692800  0.16315700  0.58899900  1
  C  C26  1  0.54692800  0.83684300  0.91100100  1
  C  C27  1  0.95307200  0.83684300  0.41100100  1
  C  C28  1  0.55493500  0.82791000  0.42372500  1
  C  C29  1  0.05493500  0.17209000  0.07627500  1
  C  C30  1  0.44506500  0.17209000  0.57627500  1
  C  C31  1  0.94506500  0.82791000  0.92372500  1
  C  C32  1  0.13200700  0.70671300  0.03987000  1
  C  C33  1  0.04335400  0.78162600  0.81414200  1
  C  C34  1  0.54335400  0.21837400  0.68585800  1
  C  C35  1  0.95664600  0.21837400  0.18585800  1
  C  C36  1  0.45664600  0.78162600  0.31414200  1
  C  C37  1  0.54002300  0.36970800  0.95223200  1
  C  C38  1  0.04002300  0.63029200  0.54776800  1
  C  C39  1  0.45997700  0.63029200  0.04776800  1
  C  C40  1  0.95997700  0.36970800  0.45223200  1
  C  C41  1  0.03809100  0.09811800  0.88985300  1
  C  C42  1  0.53809100  0.90188200  0.61014700  1
  C  C43  1  0.96190900  0.90188200  0.11014700  1
  C  C44  1  0.13282200  0.07503900  0.35513400  1
  C  C45  1  0.63282200  0.92496100  0.14486600  1
  C  C46  1  0.86717800  0.92496100  0.64486600  1
  C  C47  1  0.36717800  0.07503900  0.85513400  1
  C  C48  1  0.63200700  0.29328700  0.46013000  1
  C  C49  1  0.46190900  0.09811800  0.38985300  1
  C  C50  1  0.36799300  0.70671300  0.53987000  1
  C  C51  1  0.86799300  0.29328700  0.96013000  1
  C  C52  1  0.75694900  0.94736400  0.47727900  1
  C  C53  1  0.62807900  0.29169100  0.14545700  1
  C  C54  1  0.87192100  0.29169100  0.64545700  1
  C  C55  1  0.37192100  0.70830900  0.85454300  1
  C  C56  1  0.73990100  0.26374600  0.81114300  1
  C  C57  1  0.23990100  0.73625400  0.68885700  1
  C  C58  1  0.26009900  0.73625400  0.18885700  1
  C  C59  1  0.76009900  0.26374600  0.31114300  1
  C  C60  1  0.74471100  0.62615400  0.80764500  1
  C  C61  1  0.24471100  0.37384600  0.69235500  1
  C  C62  1  0.25528900  0.37384600  0.19235500  1
  C  C63  1  0.75528900  0.62615400  0.30764500  1
  C  C64  1  0.24519500  0.38325900  0.86848400  1
  C  C65  1  0.74519500  0.61674100  0.63151600  1
  C  C66  1  0.75480500  0.61674100  0.13151600  1
  C  C67  1  0.25480500  0.38325900  0.36848400  1
  C  C68  1  0.76175400  0.95639900  0.80086400  1
  C  C69  1  0.26175400  0.04360100  0.69913600  1
  C  C70  1  0.23824600  0.04360100  0.19913600  1
  C  C71  1  0.73824600  0.95639900  0.30086400  1
  C  C72  1  0.74615500  0.60032800  0.97320500  1
  C  C73  1  0.24615500  0.39967200  0.52679500  1
  C  C74  1  0.25384500  0.39967200  0.02679500  1
  C  C75  1  0.75384500  0.60032800  0.47320500  1
  C  C76  1  0.74305100  0.94736400  0.97727900  1
  C  C77  1  0.24305100  0.05263600  0.52272100  1
  C  C78  1  0.25694900  0.05263600  0.02272100  1
  C  C79  1  0.12807900  0.70830900  0.35454300  1
