# generated using pymatgen
data_CuNiC7
_symmetry_space_group_name_H-M   'P 1'
_cell_length_a   9.24225200
_cell_length_b   9.24225200
_cell_length_c   9.24225200
_cell_angle_alpha   90.00000000
_cell_angle_beta   90.00000000
_cell_angle_gamma   90.00000000
_symmetry_Int_Tables_number   1
_chemical_formula_structural   CuNiC7
_chemical_formula_sum   'Cu6 Ni6 C42'
_cell_volume   789.46597566
_cell_formula_units_Z   6
loop_
 _symmetry_equiv_pos_site_id
 _symmetry_equiv_pos_as_xyz
  1  'x, y, z'
loop_
 _atom_site_type_symbol
 _atom_site_label
 _atom_site_symmetry_multiplicity
 _atom_site_fract_x
 _atom_site_fract_y
 _atom_site_fract_z
 _atom_site_occupancy
  C  C0  1  0.32939500  0.67060500  0.32939500  1
  C  C1  1  0.67060500  0.32939500  0.32939500  1
  C  C2  1  0.32939500  0.32939500  0.67060500  1
  C  C3  1  0.67060500  0.67060500  0.67060500  1
  C  C4  1  0.82939500  0.82939500  0.17060500  1
  C  C5  1  0.17060500  0.82939500  0.82939500  1
  C  C6  1  0.82939500  0.17060500  0.82939500  1
  C  C7  1  0.17060500  0.17060500  0.17060500  1
  Ni  Ni8  1  0.00000000  0.50000000  0.25000000  1
  Ni  Ni9  1  0.50000000  0.75000000  0.00000000  1
  Ni  Ni10  1  0.25000000  0.00000000  0.50000000  1
  Ni  Ni11  1  0.50000000  0.25000000  0.00000000  1
  Ni  Ni12  1  0.75000000  0.00000000  0.50000000  1
  Ni  Ni13  1  0.00000000  0.50000000  0.75000000  1
  Cu  Cu14  1  0.50000000  0.00000000  0.25000000  1
  Cu  Cu15  1  0.00000000  0.75000000  0.50000000  1
  Cu  Cu16  1  0.25000000  0.50000000  0.00000000  1
  Cu  Cu17  1  0.00000000  0.25000000  0.50000000  1
  Cu  Cu18  1  0.75000000  0.50000000  0.00000000  1
  Cu  Cu19  1  0.50000000  0.00000000  0.75000000  1
  C  C20  1  0.50000000  0.50000000  0.50000000  1
  C  C21  1  0.00000000  0.00000000  0.00000000  1
  C  C22  1  0.07685200  0.92314800  0.07685200  1
  C  C23  1  0.92314800  0.07685200  0.07685200  1
  C  C24  1  0.07685200  0.07685200  0.92314800  1
  C  C25  1  0.92314800  0.92314800  0.92314800  1
  C  C26  1  0.57685200  0.57685200  0.42314800  1
  C  C27  1  0.42314800  0.57685200  0.57685200  1
  C  C28  1  0.57685200  0.42314800  0.57685200  1
  C  C29  1  0.42314800  0.42314800  0.42314800  1
  C  C30  1  0.08103500  0.64651300  0.36084700  1
  C  C31  1  0.35348700  0.63915300  0.08103500  1
  C  C32  1  0.36084700  0.91896500  0.35348700  1
  C  C33  1  0.91896500  0.35348700  0.36084700  1
  C  C34  1  0.64651300  0.36084700  0.08103500  1
  C  C35  1  0.63915300  0.08103500  0.35348700  1
  C  C36  1  0.08103500  0.35348700  0.63915300  1
  C  C37  1  0.35348700  0.36084700  0.91896500  1
  C  C38  1  0.36084700  0.08103500  0.64651300  1
  C  C39  1  0.91896500  0.64651300  0.63915300  1
  C  C40  1  0.64651300  0.63915300  0.91896500  1
  C  C41  1  0.63915300  0.91896500  0.64651300  1
  C  C42  1  0.58103500  0.86084700  0.14651300  1
  C  C43  1  0.85348700  0.58103500  0.13915300  1
  C  C44  1  0.86084700  0.85348700  0.41896500  1
  C  C45  1  0.41896500  0.86084700  0.85348700  1
  C  C46  1  0.14651300  0.58103500  0.86084700  1
  C  C47  1  0.13915300  0.85348700  0.58103500  1
  C  C48  1  0.58103500  0.13915300  0.85348700  1
  C  C49  1  0.85348700  0.41896500  0.86084700  1
  C  C50  1  0.86084700  0.14651300  0.58103500  1
  C  C51  1  0.41896500  0.13915300  0.14651300  1
  C  C52  1  0.14651300  0.41896500  0.13915300  1
  C  C53  1  0.13915300  0.14651300  0.41896500  1
