# generated using pymatgen
data_CuNiC7
_symmetry_space_group_name_H-M   'P 1'
_cell_length_a   7.34583872
_cell_length_b   7.34583872
_cell_length_c   11.40656656
_cell_angle_alpha   84.90494959
_cell_angle_beta   84.90494959
_cell_angle_gamma   66.01654552
_symmetry_Int_Tables_number   1
_chemical_formula_structural   CuNiC7
_chemical_formula_sum   'Cu4 Ni4 C28'
_cell_volume   559.20957124
_cell_formula_units_Z   4
loop_
 _symmetry_equiv_pos_site_id
 _symmetry_equiv_pos_as_xyz
  1  'x, y, z'
loop_
 _atom_site_type_symbol
 _atom_site_label
 _atom_site_symmetry_multiplicity
 _atom_site_fract_x
 _atom_site_fract_y
 _atom_site_fract_z
 _atom_site_occupancy
  C  C0  1  0.66606600  0.48780800  0.83639500  1
  C  C1  1  0.51219200  0.33393400  0.66360500  1
  C  C2  1  0.33393400  0.51219200  0.16360500  1
  C  C3  1  0.48780800  0.66606600  0.33639500  1
  C  C4  1  0.55286900  0.67775100  0.93883600  1
  C  C5  1  0.32224900  0.44713100  0.56116400  1
  C  C6  1  0.44713100  0.32224900  0.06116400  1
  C  C7  1  0.67775100  0.55286900  0.43883600  1
  C  C8  1  0.56286400  0.74432500  0.78402400  1
  C  C9  1  0.25567500  0.43713600  0.71597600  1
  C  C10  1  0.43713600  0.25567500  0.21597600  1
  C  C11  1  0.74432500  0.56286400  0.28402400  1
  Ni  Ni12  1  0.64292300  0.63961300  0.85544900  1
  Ni  Ni13  1  0.36038700  0.35707700  0.64455100  1
  Ni  Ni14  1  0.35707700  0.36038700  0.14455100  1
  Ni  Ni15  1  0.63961300  0.64292300  0.35544900  1
  Cu  Cu16  1  0.88481600  0.79529300  0.91198100  1
  Cu  Cu17  1  0.20470700  0.11518400  0.58801900  1
  Cu  Cu18  1  0.11518400  0.20470700  0.08801900  1
  Cu  Cu19  1  0.79529300  0.88481600  0.41198100  1
  C  C20  1  0.84121400  0.63962500  0.86281600  1
  C  C21  1  0.36037500  0.15878600  0.63718400  1
  C  C22  1  0.15878600  0.36037500  0.13718400  1
  C  C23  1  0.63962500  0.84121400  0.36281600  1
  C  C24  1  0.08485000  0.77646900  0.91633000  1
  C  C25  1  0.22353100  0.91515000  0.58367000  1
  C  C26  1  0.91515000  0.22353100  0.08367000  1
  C  C27  1  0.77646900  0.08485000  0.41633000  1
  C  C28  1  0.77702800  0.85266500  0.04057800  1
  C  C29  1  0.14733500  0.22297200  0.45942200  1
  C  C30  1  0.22297200  0.14733500  0.95942200  1
  C  C31  1  0.85266500  0.77702800  0.54057800  1
  C  C32  1  0.75878500  0.01581900  0.85510300  1
  C  C33  1  0.98418100  0.24121500  0.64489700  1
  C  C34  1  0.24121500  0.98418100  0.14489700  1
  C  C35  1  0.01581900  0.75878500  0.35510300  1
