# generated using pymatgen
data_Cu2Ni14C23
_symmetry_space_group_name_H-M   'P 1'
_cell_length_a   22.32938800
_cell_length_b   5.61174500
_cell_length_c   6.19965822
_cell_angle_alpha   88.06828093
_cell_angle_beta   90.00000000
_cell_angle_gamma   90.00000000
_symmetry_Int_Tables_number   1
_chemical_formula_structural   Cu2Ni14C23
_chemical_formula_sum   'Cu4 Ni28 C46'
_cell_volume   776.41804416
_cell_formula_units_Z   2
loop_
 _symmetry_equiv_pos_site_id
 _symmetry_equiv_pos_as_xyz
  1  'x, y, z'
loop_
 _atom_site_type_symbol
 _atom_site_label
 _atom_site_symmetry_multiplicity
 _atom_site_fract_x
 _atom_site_fract_y
 _atom_site_fract_z
 _atom_site_occupancy
  C  C0  1  0.25000000  0.38490100  0.48238700  1
  C  C1  1  0.75000000  0.61509900  0.51761300  1
  C  C2  1  0.00082000  0.00037000  0.25119600  1
  C  C3  1  0.50082000  0.99963000  0.74880400  1
  C  C4  1  0.99918000  0.99963000  0.74880400  1
  C  C5  1  0.49918000  0.00037000  0.25119600  1
  C  C6  1  0.00000000  0.50000000  0.50000000  1
  C  C7  1  0.50000000  0.50000000  0.50000000  1
  C  C8  1  0.00000000  0.50000000  0.00000000  1
  C  C9  1  0.50000000  0.50000000  0.00000000  1
  Ni  Ni10  1  0.91757200  0.82385700  0.48141300  1
  Ni  Ni11  1  0.41757200  0.17614300  0.51858700  1
  Ni  Ni12  1  0.08242800  0.17614300  0.51858700  1
  Ni  Ni13  1  0.58242800  0.82385700  0.48141300  1
  Ni  Ni14  1  0.08032900  0.17940200  0.00568500  1
  Ni  Ni15  1  0.58032900  0.82059800  0.99431500  1
  Ni  Ni16  1  0.91967100  0.82059800  0.99431500  1
  Ni  Ni17  1  0.41967100  0.17940200  0.00568500  1
  Ni  Ni18  1  0.91410300  0.43540800  0.23842900  1
  Ni  Ni19  1  0.41410300  0.56459200  0.76157100  1
  Ni  Ni20  1  0.08589700  0.56459200  0.76157100  1
  Ni  Ni21  1  0.58589700  0.43540800  0.23842900  1
  Ni  Ni22  1  0.28599400  0.08403300  0.15018700  1
  Ni  Ni23  1  0.78599400  0.91596700  0.84981300  1
  Ni  Ni24  1  0.71400600  0.91596700  0.84981300  1
  Ni  Ni25  1  0.21400600  0.08403300  0.15018700  1
  Ni  Ni26  1  0.28603200  0.53209900  0.88690100  1
  Ni  Ni27  1  0.78603200  0.46790100  0.11309900  1
  Ni  Ni28  1  0.71396800  0.46790100  0.11309900  1
  Ni  Ni29  1  0.21396800  0.53209900  0.88690100  1
  Ni  Ni30  1  0.32570100  0.94211800  0.53341800  1
  Ni  Ni31  1  0.82570100  0.05788200  0.46658200  1
  Ni  Ni32  1  0.67429900  0.05788200  0.46658200  1
  Ni  Ni33  1  0.17429900  0.94211800  0.53341800  1
  Ni  Ni34  1  0.33076300  0.04364000  0.76393100  1
  Ni  Ni35  1  0.83076300  0.95636000  0.23606900  1
  Ni  Ni36  1  0.66923700  0.95636000  0.23606900  1
  Ni  Ni37  1  0.16923700  0.04364000  0.76393100  1
  Cu  Cu38  1  0.13769500  0.69391600  0.17764200  1
  Cu  Cu39  1  0.63769500  0.30608400  0.82235800  1
  Cu  Cu40  1  0.86230500  0.30608400  0.82235800  1
  Cu  Cu41  1  0.36230500  0.69391600  0.17764200  1
  C  C42  1  0.14957900  0.50020100  0.02583200  1
  C  C43  1  0.64957900  0.49979900  0.97416800  1
  C  C44  1  0.85042100  0.49979900  0.97416800  1
  C  C45  1  0.35042100  0.50020100  0.02583200  1
  C  C46  1  0.15249900  0.93150000  0.07395000  1
  C  C47  1  0.65249900  0.06850000  0.92605000  1
  C  C48  1  0.84750100  0.06850000  0.92605000  1
  C  C49  1  0.34750100  0.93150000  0.07395000  1
  C  C50  1  0.07306200  0.68874800  0.24068200  1
  C  C51  1  0.57306200  0.31125200  0.75931800  1
  C  C52  1  0.92693800  0.31125200  0.75931800  1
  C  C53  1  0.42693800  0.68874800  0.24068200  1
  C  C54  1  0.17474700  0.66100000  0.37976200  1
  C  C55  1  0.67474700  0.33900000  0.62023800  1
  C  C56  1  0.82525300  0.33900000  0.62023800  1
  C  C57  1  0.32525300  0.66100000  0.37976200  1
  C  C58  1  0.96179300  0.82584100  0.49511200  1
  C  C59  1  0.46179300  0.17415900  0.50488800  1
  C  C60  1  0.03820700  0.17415900  0.50488800  1
  C  C61  1  0.53820700  0.82584100  0.49511200  1
  C  C62  1  0.03606500  0.17595200  0.99855400  1
  C  C63  1  0.53606500  0.82404800  0.00144600  1
  C  C64  1  0.96393500  0.82404800  0.00144600  1
  C  C65  1  0.46393500  0.17595200  0.99855400  1
  C  C66  1  0.95666100  0.39351200  0.25294200  1
  C  C67  1  0.45666100  0.60648800  0.74705800  1
  C  C68  1  0.04333900  0.60648800  0.74705800  1
  C  C69  1  0.54333900  0.39351200  0.25294200  1
  C  C70  1  0.25000000  0.18209500  0.18187200  1
  C  C71  1  0.75000000  0.81790500  0.81812800  1
  C  C72  1  0.25000000  0.56545600  0.79449000  1
  C  C73  1  0.75000000  0.43454400  0.20551000  1
  C  C74  1  0.33119400  0.09351700  0.60982700  1
  C  C75  1  0.83119400  0.90648300  0.39017300  1
  C  C76  1  0.66880600  0.90648300  0.39017300  1
  C  C77  1  0.16880600  0.09351700  0.60982700  1
