# generated using pymatgen
data_Cu(Ni7C5)2
_symmetry_space_group_name_H-M   'P 1'
_cell_length_a   13.31106157
_cell_length_b   13.31106157
_cell_length_c   10.23740789
_cell_angle_alpha   70.12870202
_cell_angle_beta   70.12870202
_cell_angle_gamma   77.00075177
_symmetry_Int_Tables_number   1
_chemical_formula_structural   Cu(Ni7C5)2
_chemical_formula_sum   'Cu2 Ni28 C20'
_cell_volume   1592.01347896
_cell_formula_units_Z   2
loop_
 _symmetry_equiv_pos_site_id
 _symmetry_equiv_pos_as_xyz
  1  'x, y, z'
loop_
 _atom_site_type_symbol
 _atom_site_label
 _atom_site_symmetry_multiplicity
 _atom_site_fract_x
 _atom_site_fract_y
 _atom_site_fract_z
 _atom_site_occupancy
  C  C0  1  0.55240800  0.44645200  0.75231700  1
  C  C1  1  0.44645200  0.55240800  0.25231700  1
  C  C2  1  0.04361600  0.95745400  0.02601300  1
  C  C3  1  0.95745400  0.04361600  0.52601300  1
  C  C4  1  0.52532300  0.08348400  0.65719100  1
  C  C5  1  0.08348400  0.52532300  0.15719100  1
  C  C6  1  0.47217300  0.83026300  0.70007100  1
  C  C7  1  0.83026300  0.47217300  0.20007100  1
  C  C8  1  0.53166000  0.16292800  0.29555400  1
  C  C9  1  0.16292800  0.53166000  0.79555400  1
  C  C10  1  0.31115200  0.05882200  0.56506700  1
  C  C11  1  0.05882200  0.31115200  0.06506700  1
  C  C12  1  0.68911100  0.93554600  0.43409700  1
  C  C13  1  0.93554600  0.68911100  0.93409700  1
  C  C14  1  0.47546600  0.91180400  0.34096200  1
  C  C15  1  0.91180400  0.47546600  0.84096200  1
  C  C16  1  0.17386100  0.74560200  0.24523400  1
  C  C17  1  0.74560200  0.17386100  0.74523400  1
  C  C18  1  0.25041700  0.83227600  0.20005100  1
  C  C19  1  0.83227600  0.25041700  0.70005100  1
  Ni  Ni20  1  0.46468700  0.65899900  0.89304800  1
  Ni  Ni21  1  0.65899900  0.46468700  0.39304800  1
  Ni  Ni22  1  0.37053000  0.21704100  0.59145900  1
  Ni  Ni23  1  0.21704100  0.37053000  0.09145900  1
  Ni  Ni24  1  0.29320200  0.88723400  0.52495800  1
  Ni  Ni25  1  0.88723400  0.29320200  0.02495800  1
  Ni  Ni26  1  0.88535600  0.89815700  0.36512400  1
  Ni  Ni27  1  0.89815700  0.88535600  0.86512400  1
  Ni  Ni28  1  0.65345400  0.18297300  0.42698700  1
  Ni  Ni29  1  0.18297300  0.65345400  0.92698700  1
  Ni  Ni30  1  0.44749900  0.82132800  0.19014300  1
  Ni  Ni31  1  0.82132800  0.44749900  0.69014300  1
  Ni  Ni32  1  0.40061000  0.09876800  0.22100900  1
  Ni  Ni33  1  0.09876800  0.40061000  0.72100900  1
  Ni  Ni34  1  0.55509000  0.17162100  0.81007200  1
  Ni  Ni35  1  0.17162100  0.55509000  0.31007200  1
  Ni  Ni36  1  0.55760300  0.74340200  0.49555700  1
  Ni  Ni37  1  0.74340200  0.55760300  0.99555700  1
  Ni  Ni38  1  0.67420900  0.93129300  0.69022900  1
  Ni  Ni39  1  0.93129300  0.67420900  0.19022900  1
  Ni  Ni40  1  0.54259300  0.33997500  0.11357800  1
  Ni  Ni41  1  0.33997500  0.54259300  0.61357800  1
  Ni  Ni42  1  0.39220400  0.96252500  0.85003100  1
  Ni  Ni43  1  0.96252500  0.39220400  0.35003100  1
  Ni  Ni44  1  0.66275400  0.95575500  0.19183400  1
  Ni  Ni45  1  0.95575500  0.66275400  0.69183400  1
  Ni  Ni46  1  0.11805000  0.10529300  0.66813000  1
  Ni  Ni47  1  0.10529300  0.11805000  0.16813000  1
  Cu  Cu48  1  0.18077700  0.82220300  0.19748500  1
  Cu  Cu49  1  0.82220300  0.18077700  0.69748500  1
