# generated using pymatgen
data_CuNi7C23
_symmetry_space_group_name_H-M   'P 1'
_cell_length_a   8.42465300
_cell_length_b   11.10107800
_cell_length_c   19.51436600
_cell_angle_alpha   90.00000000
_cell_angle_beta   90.00000000
_cell_angle_gamma   90.00000000
_symmetry_Int_Tables_number   1
_chemical_formula_structural   CuNi7C23
_chemical_formula_sum   'Cu4 Ni28 C92'
_cell_volume   1825.03678402
_cell_formula_units_Z   4
loop_
 _symmetry_equiv_pos_site_id
 _symmetry_equiv_pos_as_xyz
  1  'x, y, z'
loop_
 _atom_site_type_symbol
 _atom_site_label
 _atom_site_symmetry_multiplicity
 _atom_site_fract_x
 _atom_site_fract_y
 _atom_site_fract_z
 _atom_site_occupancy
  C  C0  1  0.11440900  0.52104300  0.88822100  1
  C  C1  1  0.38559100  0.97895700  0.38822100  1
  C  C2  1  0.88559100  0.02104300  0.11177900  1
  C  C3  1  0.61440900  0.47895700  0.61177900  1
  C  C4  1  0.88559100  0.47895700  0.11177900  1
  C  C5  1  0.61440900  0.02104300  0.61177900  1
  C  C6  1  0.11440900  0.97895700  0.88822100  1
  C  C7  1  0.38559100  0.52104300  0.38822100  1
  C  C8  1  0.21989700  0.75000000  0.58466900  1
  C  C9  1  0.28010300  0.75000000  0.08466900  1
  C  C10  1  0.78010300  0.25000000  0.41533100  1
  C  C11  1  0.71989700  0.25000000  0.91533100  1
  Ni  Ni12  1  0.93906000  0.40440000  0.73920900  1
  Ni  Ni13  1  0.56094000  0.09560000  0.23920900  1
  Ni  Ni14  1  0.06094000  0.90440000  0.26079100  1
  Ni  Ni15  1  0.43906000  0.59560000  0.76079100  1
  Ni  Ni16  1  0.06094000  0.59560000  0.26079100  1
  Ni  Ni17  1  0.43906000  0.90440000  0.76079100  1
  Ni  Ni18  1  0.93906000  0.09560000  0.73920900  1
  Ni  Ni19  1  0.56094000  0.40440000  0.23920900  1
  Ni  Ni20  1  0.20038400  0.41885800  0.55287200  1
  Ni  Ni21  1  0.29961600  0.08114200  0.05287200  1
  Ni  Ni22  1  0.79961600  0.91885800  0.44712800  1
  Ni  Ni23  1  0.70038400  0.58114200  0.94712800  1
  Ni  Ni24  1  0.79961600  0.58114200  0.44712800  1
  Ni  Ni25  1  0.70038400  0.91885800  0.94712800  1
  Ni  Ni26  1  0.20038400  0.08114200  0.55287200  1
  Ni  Ni27  1  0.29961600  0.41885800  0.05287200  1
  Ni  Ni28  1  0.16271800  0.25000000  0.74469900  1
  Ni  Ni29  1  0.33728200  0.25000000  0.24469900  1
  Ni  Ni30  1  0.83728200  0.75000000  0.25530100  1
  Ni  Ni31  1  0.66271800  0.75000000  0.75530100  1
  Ni  Ni32  1  0.45752000  0.25000000  0.73632300  1
  Ni  Ni33  1  0.04248000  0.25000000  0.23632300  1
  Ni  Ni34  1  0.54248000  0.75000000  0.26367700  1
  Ni  Ni35  1  0.95752000  0.75000000  0.76367700  1
  Ni  Ni36  1  0.32643600  0.25000000  0.62284700  1
  Ni  Ni37  1  0.17356400  0.25000000  0.12284700  1
  Ni  Ni38  1  0.67356400  0.75000000  0.37715300  1
  Ni  Ni39  1  0.82643600  0.75000000  0.87715300  1
  Cu  Cu40  1  0.96144400  0.25000000  0.61415300  1
  Cu  Cu41  1  0.53855600  0.25000000  0.11415300  1
  Cu  Cu42  1  0.03855600  0.75000000  0.38584700  1
  Cu  Cu43  1  0.46144400  0.75000000  0.88584700  1
  C  C44  1  0.87531800  0.37998200  0.67573200  1
  C  C45  1  0.62468200  0.12001800  0.17573200  1
  C  C46  1  0.12468200  0.87998200  0.32426800  1
  C  C47  1  0.37531800  0.62001800  0.82426800  1
  C  C48  1  0.12468200  0.62001800  0.32426800  1
  C  C49  1  0.37531800  0.87998200  0.82426800  1
  C  C50  1  0.87531800  0.12001800  0.67573200  1
  C  C51  1  0.62468200  0.37998200  0.17573200  1
  C  C52  1  0.04610000  0.37685100  0.55100000  1
  C  C53  1  0.45390000  0.12314900  0.05100000  1
  C  C54  1  0.95390000  0.87685100  0.44900000  1
  C  C55  1  0.54610000  0.62314900  0.94900000  1
  C  C56  1  0.95390000  0.62314900  0.44900000  1
  C  C57  1  0.54610000  0.87685100  0.94900000  1
  C  C58  1  0.04610000  0.12314900  0.55100000  1
  C  C59  1  0.45390000  0.37685100  0.05100000  1
  C  C60  1  0.17187800  0.25000000  0.66567000  1
  C  C61  1  0.32812200  0.25000000  0.16567000  1
  C  C62  1  0.82812200  0.75000000  0.33433000  1
  C  C63  1  0.67187800  0.75000000  0.83433000  1
  C  C64  1  0.07741000  0.35934700  0.76624700  1
  C  C65  1  0.42259000  0.14065300  0.26624700  1
  C  C66  1  0.92259000  0.85934700  0.23375300  1
  C  C67  1  0.57741000  0.64065300  0.73375300  1
  C  C68  1  0.92259000  0.64065300  0.23375300  1
  C  C69  1  0.57741000  0.85934700  0.73375300  1
  C  C70  1  0.07741000  0.14065300  0.76624700  1
  C  C71  1  0.42259000  0.35934700  0.26624700  1
  C  C72  1  0.32805000  0.35614400  0.57853500  1
  C  C73  1  0.17195000  0.14385600  0.07853500  1
  C  C74  1  0.67195000  0.85614400  0.42146500  1
  C  C75  1  0.82805000  0.64385600  0.92146500  1
  C  C76  1  0.67195000  0.64385600  0.42146500  1
  C  C77  1  0.82805000  0.85614400  0.92146500  1
  C  C78  1  0.32805000  0.14385600  0.57853500  1
  C  C79  1  0.17195000  0.35614400  0.07853500  1
  C  C80  1  0.31901900  0.25000000  0.77242200  1
  C  C81  1  0.18098100  0.25000000  0.27242200  1
  C  C82  1  0.68098100  0.75000000  0.22757800  1
  C  C83  1  0.81901900  0.75000000  0.72757800  1
  C  C84  1  0.46561600  0.25000000  0.66619400  1
  C  C85  1  0.03438400  0.25000000  0.16619400  1
  C  C86  1  0.53438400  0.75000000  0.33380600  1
  C  C87  1  0.96561600  0.75000000  0.83380600  1
  C  C88  1  0.85981000  0.48121600  0.78223000  1
  C  C89  1  0.64019000  0.01878400  0.28223000  1
  C  C90  1  0.14019000  0.98121600  0.21777000  1
  C  C91  1  0.35981000  0.51878400  0.71777000  1
  C  C92  1  0.14019000  0.51878400  0.21777000  1
  C  C93  1  0.35981000  0.98121600  0.71777000  1
  C  C94  1  0.85981000  0.01878400  0.78223000  1
  C  C95  1  0.64019000  0.48121600  0.28223000  1
  C  C96  1  0.59492000  0.25000000  0.77477800  1
  C  C97  1  0.90508000  0.25000000  0.27477800  1
  C  C98  1  0.40508000  0.75000000  0.22522200  1
  C  C99  1  0.09492000  0.75000000  0.72522200  1
  C  C100  1  0.23377300  0.52948400  0.52629200  1
  C  C101  1  0.26622700  0.97051600  0.02629200  1
  C  C102  1  0.76622700  0.02948400  0.47370800  1
  C  C103  1  0.73377300  0.47051600  0.97370800  1
  C  C104  1  0.76622700  0.47051600  0.47370800  1
  C  C105  1  0.73377300  0.02948400  0.97370800  1
  C  C106  1  0.23377300  0.97051600  0.52629200  1
  C  C107  1  0.26622700  0.52948400  0.02629200  1
  C  C108  1  0.77103700  0.25000000  0.56673900  1
  C  C109  1  0.72896300  0.25000000  0.06673900  1
  C  C110  1  0.22896300  0.75000000  0.43326100  1
  C  C111  1  0.27103700  0.75000000  0.93326100  1
  C  C112  1  0.37382500  0.30575400  0.90818000  1
  C  C113  1  0.12617500  0.19424600  0.40818000  1
  C  C114  1  0.62617500  0.80575400  0.09182000  1
  C  C115  1  0.87382500  0.69424600  0.59182000  1
  C  C116  1  0.62617500  0.69424600  0.09182000  1
  C  C117  1  0.87382500  0.80575400  0.59182000  1
  C  C118  1  0.37382500  0.19424600  0.90818000  1
  C  C119  1  0.12617500  0.30575400  0.40818000  1
  C  C120  1  0.05831200  0.25000000  0.92046200  1
  C  C121  1  0.44168800  0.25000000  0.42046200  1
  C  C122  1  0.94168800  0.75000000  0.07953800  1
  C  C123  1  0.55831200  0.75000000  0.57953800  1
