# generated using pymatgen
data_Cu13Ni5C3
_symmetry_space_group_name_H-M   'P 1'
_cell_length_a   7.08841263
_cell_length_b   15.00960870
_cell_length_c   39.07723535
_cell_angle_alpha   90.00000000
_cell_angle_beta   91.72235587
_cell_angle_gamma   90.00000000
_symmetry_Int_Tables_number   1
_chemical_formula_structural   Cu13Ni5C3
_chemical_formula_sum   'Cu65 Ni25 C15'
_cell_volume   4155.71672868
_cell_formula_units_Z   5
loop_
 _symmetry_equiv_pos_site_id
 _symmetry_equiv_pos_as_xyz
  1  'x, y, z'
loop_
 _atom_site_type_symbol
 _atom_site_label
 _atom_site_symmetry_multiplicity
 _atom_site_fract_x
 _atom_site_fract_y
 _atom_site_fract_z
 _atom_site_occupancy
  C  C0  1  0.49748610  0.00000000  0.82239436  1
  C  C1  1  0.50251390  0.00000000  0.17760564  1
  C  C2  1  0.52328502  0.66714838  0.82613533  1
  C  C3  1  0.52328502  0.33285162  0.82613533  1
  C  C4  1  0.47671498  0.33285162  0.17386467  1
  C  C5  1  0.47671498  0.66714838  0.17386467  1
  C  C6  1  0.07141809  0.00000000  0.90861964  1
  C  C7  1  0.92858191  0.00000000  0.09138036  1
  C  C8  1  0.03923371  0.65774616  0.92061481  1
  C  C9  1  0.03923371  0.34225384  0.92061481  1
  C  C10  1  0.96076629  0.34225384  0.07938519  1
  C  C11  1  0.96076629  0.65774616  0.07938519  1
  C  C12  1  0.50000000  0.00000000  0.00000000  1
  C  C13  1  0.50000000  0.65969686  0.00000000  1
  C  C14  1  0.50000000  0.34030314  0.00000000  1
  Ni  Ni15  1  0.65970879  0.86043949  0.73077157  1
  Ni  Ni16  1  0.65970879  0.13956051  0.73077157  1
  Ni  Ni17  1  0.34029121  0.13956051  0.26922843  1
  Ni  Ni18  1  0.34029121  0.86043949  0.26922843  1
  Ni  Ni19  1  0.15640673  0.75672735  0.72604358  1
  Ni  Ni20  1  0.15640673  0.24327265  0.72604358  1
  Ni  Ni21  1  0.84359327  0.24327265  0.27395642  1
  Ni  Ni22  1  0.84359327  0.75672735  0.27395642  1
  Ni  Ni23  1  0.03230264  0.50000000  0.74584020  1
  Ni  Ni24  1  0.96769736  0.50000000  0.25415980  1
  Ni  Ni25  1  0.99023723  0.83471625  0.82705518  1
  Ni  Ni26  1  0.99023723  0.16528375  0.82705518  1
  Ni  Ni27  1  0.00976277  0.16528375  0.17294482  1
  Ni  Ni28  1  0.00976277  0.83471625  0.17294482  1
  Ni  Ni29  1  0.96875584  0.50000000  0.83302560  1
  Ni  Ni30  1  0.03124416  0.50000000  0.16697440  1
  Ni  Ni31  1  0.51680219  0.83604867  0.91194935  1
  Ni  Ni32  1  0.51680219  0.16395133  0.91194935  1
  Ni  Ni33  1  0.48319781  0.16395133  0.08805065  1
  Ni  Ni34  1  0.48319781  0.83604867  0.08805065  1
  Ni  Ni35  1  0.49514340  0.50000000  0.91062059  1
  Ni  Ni36  1  0.50485660  0.50000000  0.08937941  1
  Ni  Ni37  1  -0.00000000  0.83671185  0.00000000  1
  Ni  Ni38  1  -0.00000000  0.16328815  0.00000000  1
  Ni  Ni39  1  -0.00000000  0.50000000  0.00000000  1
  Cu  Cu40  1  0.95401033  0.87432978  0.70145697  1
  Cu  Cu41  1  0.95401033  0.12567022  0.70145697  1
  Cu  Cu42  1  0.04598967  0.12567022  0.29854303  1
  Cu  Cu43  1  0.04598967  0.87432978  0.29854303  1
  Cu  Cu44  1  0.45203916  0.76695132  0.69538384  1
  Cu  Cu45  1  0.45203916  0.23304868  0.69538384  1
  Cu  Cu46  1  0.54796084  0.23304868  0.30461616  1
  Cu  Cu47  1  0.54796084  0.76695132  0.30461616  1
  Cu  Cu48  1  0.48668094  0.00000000  0.74061729  1
  Cu  Cu49  1  0.51331906  0.00000000  0.25938271  1
  Cu  Cu50  1  0.01731028  0.61957910  0.70387358  1
  Cu  Cu51  1  0.01731028  0.38042090  0.70387358  1
  Cu  Cu52  1  0.98268972  0.38042090  0.29612642  1
  Cu  Cu53  1  0.98268972  0.61957910  0.29612642  1
  Cu  Cu54  1  0.69071826  0.81097584  0.78965999  1
  Cu  Cu55  1  0.69071826  0.18902416  0.78965999  1
  Cu  Cu56  1  0.30928174  0.18902416  0.21034001  1
  Cu  Cu57  1  0.30928174  0.81097584  0.21034001  1
  Cu  Cu58  1  0.23854427  0.77344645  0.78546852  1
  Cu  Cu59  1  0.23854427  0.22655355  0.78546852  1
  Cu  Cu60  1  0.76145573  0.22655355  0.21453148  1
  Cu  Cu61  1  0.76145573  0.77344645  0.21453148  1
  Cu  Cu62  1  0.25921213  0.50000000  0.79450493  1
  Cu  Cu63  1  0.74078787  0.50000000  0.20549507  1
  Cu  Cu64  1  0.75102981  0.50000000  0.77958446  1
  Cu  Cu65  1  0.24897019  0.50000000  0.22041554  1
  Cu  Cu66  1  0.04589363  0.00000000  0.80296615  1
  Cu  Cu67  1  0.95410637  0.00000000  0.19703385  1
  Cu  Cu68  1  0.91307833  0.67440822  0.84930067  1
  Cu  Cu69  1  0.91307833  0.32559178  0.84930067  1
  Cu  Cu70  1  0.08692167  0.32559178  0.15069933  1
  Cu  Cu71  1  0.08692167  0.67440822  0.15069933  1
  Cu  Cu72  1  0.28458078  0.87781040  0.86187260  1
  Cu  Cu73  1  0.28458078  0.12218960  0.86187260  1
  Cu  Cu74  1  0.71541922  0.12218960  0.13812740  1
  Cu  Cu75  1  0.71541922  0.87781040  0.13812740  1
  Cu  Cu76  1  0.77023789  0.89354968  0.87288518  1
  Cu  Cu77  1  0.77023789  0.10645032  0.87288518  1
  Cu  Cu78  1  0.22976211  0.10645032  0.12711482  1
  Cu  Cu79  1  0.22976211  0.89354968  0.12711482  1
  Cu  Cu80  1  0.15154998  0.50000000  0.88872877  1
  Cu  Cu81  1  0.84845002  0.50000000  0.11127123  1
  Cu  Cu82  1  0.61974428  0.50000000  0.85209496  1
  Cu  Cu83  1  0.38025572  0.50000000  0.14790504  1
  Cu  Cu84  1  0.45682954  0.00000000  0.92988659  1
  Cu  Cu85  1  0.54317046  0.00000000  0.07011341  1
  Cu  Cu86  1  0.43031893  0.67360249  0.89859919  1
  Cu  Cu87  1  0.43031893  0.32639751  0.89859919  1
  Cu  Cu88  1  0.56968107  0.32639751  0.10140081  1
  Cu  Cu89  1  0.56968107  0.67360249  0.10140081  1
  Cu  Cu90  1  0.14717495  0.82710185  0.94288684  1
  Cu  Cu91  1  0.14717495  0.17289815  0.94288684  1
  Cu  Cu92  1  0.85282505  0.17289815  0.05711316  1
  Cu  Cu93  1  0.85282505  0.82710185  0.05711316  1
  Cu  Cu94  1  0.66033912  0.81536149  0.97096740  1
  Cu  Cu95  1  0.66033912  0.18463851  0.97096740  1
  Cu  Cu96  1  0.33966088  0.18463851  0.02903260  1
  Cu  Cu97  1  0.33966088  0.81536149  0.02903260  1
  Cu  Cu98  1  0.32968755  0.50000000  0.96841095  1
  Cu  Cu99  1  0.67031245  0.50000000  0.03158905  1
  Cu  Cu100  1  0.81075555  0.50000000  0.94051988  1
  Cu  Cu101  1  0.18924445  0.50000000  0.05948012  1
  Cu  Cu102  1  -0.00000000  0.00000000  0.00000000  1
  Cu  Cu103  1  -0.00000000  0.65928938  0.00000000  1
  Cu  Cu104  1  -0.00000000  0.34071062  0.00000000  1
