# generated using pymatgen
data_Cu4NiC9
_symmetry_space_group_name_H-M   'P 1'
_cell_length_a   6.14374573
_cell_length_b   6.64992500
_cell_length_c   17.34195543
_cell_angle_alpha   90.00000000
_cell_angle_beta   99.04706007
_cell_angle_gamma   90.00000000
_symmetry_Int_Tables_number   1
_chemical_formula_structural   Cu4NiC9
_chemical_formula_sum   'Cu16 Ni4 C36'
_cell_volume   699.69911702
_cell_formula_units_Z   4
loop_
 _symmetry_equiv_pos_site_id
 _symmetry_equiv_pos_as_xyz
  1  'x, y, z'
loop_
 _atom_site_type_symbol
 _atom_site_label
 _atom_site_symmetry_multiplicity
 _atom_site_fract_x
 _atom_site_fract_y
 _atom_site_fract_z
 _atom_site_occupancy
  C  C0  1  0.29128200  0.30249500  0.96397000  1
  C  C1  1  0.79128200  0.19750500  0.46397000  1
  C  C2  1  0.70871800  0.69750500  0.03603000  1
  C  C3  1  0.20871800  0.80249500  0.53603000  1
  C  C4  1  0.77407200  0.53645800  0.68955200  1
  C  C5  1  0.27407200  0.96354200  0.18955200  1
  C  C6  1  0.22592800  0.46354200  0.31044800  1
  C  C7  1  0.72592800  0.03645800  0.81044800  1
  Ni  Ni8  1  0.25142700  0.79166300  0.84555600  1
  Ni  Ni9  1  0.75142700  0.70833700  0.34555600  1
  Ni  Ni10  1  0.74857300  0.20833700  0.15444400  1
  Ni  Ni11  1  0.24857300  0.29166300  0.65444400  1
  Cu  Cu12  1  0.07787700  0.41071000  0.12419400  1
  Cu  Cu13  1  0.57787700  0.08929000  0.62419400  1
  Cu  Cu14  1  0.92212300  0.58929000  0.87580600  1
  Cu  Cu15  1  0.42212300  0.91071000  0.37580600  1
  Cu  Cu16  1  0.57376800  0.53109100  0.84391800  1
  Cu  Cu17  1  0.07376800  0.96890900  0.34391800  1
  Cu  Cu18  1  0.42623200  0.46890900  0.15608200  1
  Cu  Cu19  1  0.92623200  0.03109100  0.65608200  1
  Cu  Cu20  1  0.20061100  0.09336600  0.78264200  1
  Cu  Cu21  1  0.70061100  0.40663400  0.28264200  1
  Cu  Cu22  1  0.79938900  0.90663400  0.21735800  1
  Cu  Cu23  1  0.29938900  0.59336600  0.71735800  1
  Cu  Cu24  1  0.16022400  0.86473500  0.98788500  1
  Cu  Cu25  1  0.66022400  0.63526500  0.48788500  1
  Cu  Cu26  1  0.83977600  0.13526500  0.01211500  1
  Cu  Cu27  1  0.33977600  0.36473500  0.51211500  1
  C  C28  1  0.14373300  0.49852700  0.08485300  1
  C  C29  1  0.64373300  0.00147300  0.58485300  1
  C  C30  1  0.85626700  0.50147300  0.91514700  1
  C  C31  1  0.35626700  0.99852700  0.41514700  1
  C  C32  1  0.41991000  0.70089800  0.79693000  1
  C  C33  1  0.91991000  0.79910200  0.29693000  1
  C  C34  1  0.58009000  0.29910200  0.20307000  1
  C  C35  1  0.08009000  0.20089800  0.70307000  1
  C  C36  1  0.31868700  0.75422500  0.93357800  1
  C  C37  1  0.81868700  0.74577500  0.43357800  1
  C  C38  1  0.68131300  0.24577500  0.06642200  1
  C  C39  1  0.18131300  0.25422500  0.56642200  1
  C  C40  1  0.26184400  0.03500200  0.83627200  1
  C  C41  1  0.76184400  0.46499800  0.33627200  1
  C  C42  1  0.73815600  0.96499800  0.16372800  1
  C  C43  1  0.23815600  0.53500200  0.66372800  1
  C  C44  1  0.01612100  0.72094800  0.81451600  1
  C  C45  1  0.51612100  0.77905200  0.31451600  1
  C  C46  1  0.98387900  0.27905200  0.18548400  1
  C  C47  1  0.48387900  0.22094800  0.68548400  1
  C  C48  1  0.66659500  0.40999500  0.86499000  1
  C  C49  1  0.16659500  0.09000500  0.36499000  1
  C  C50  1  0.33340500  0.59000500  0.13501000  1
  C  C51  1  0.83340500  0.90999500  0.63501000  1
  C  C52  1  0.08596200  0.94557700  0.02673300  1
  C  C53  1  0.58596200  0.55442300  0.52673300  1
  C  C54  1  0.91403800  0.05442300  0.97326700  1
  C  C55  1  0.41403800  0.44557700  0.47326700  1
