# generated using pymatgen
data_Cu3Ni18C19
_symmetry_space_group_name_H-M   'P 1'
_cell_length_a   11.95660330
_cell_length_b   11.95660330
_cell_length_c   6.80943200
_cell_angle_alpha   90.00000000
_cell_angle_beta   90.00000000
_cell_angle_gamma   119.99999613
_symmetry_Int_Tables_number   1
_chemical_formula_structural   Cu3Ni18C19
_chemical_formula_sum   'Cu6 Ni36 C38'
_cell_volume   843.05746184
_cell_formula_units_Z   2
loop_
 _symmetry_equiv_pos_site_id
 _symmetry_equiv_pos_as_xyz
  1  'x, y, z'
loop_
 _atom_site_type_symbol
 _atom_site_label
 _atom_site_symmetry_multiplicity
 _atom_site_fract_x
 _atom_site_fract_y
 _atom_site_fract_z
 _atom_site_occupancy
  C  C0  1  0.66666700  0.33333300  0.75002100  1
  C  C1  1  0.33333300  0.66666700  0.25002100  1
  Ni  Ni2  1  0.74864100  0.11644100  0.75199600  1
  Ni  Ni3  1  0.36779900  0.25135900  0.75199600  1
  Ni  Ni4  1  0.88355900  0.63220100  0.75199600  1
  Ni  Ni5  1  0.36779900  0.11644100  0.75199600  1
  Ni  Ni6  1  0.88355900  0.25135900  0.75199600  1
  Ni  Ni7  1  0.74864100  0.63220100  0.75199600  1
  Ni  Ni8  1  0.25135900  0.88355900  0.25199600  1
  Ni  Ni9  1  0.63220100  0.74864100  0.25199600  1
  Ni  Ni10  1  0.11644100  0.36779900  0.25199600  1
  Ni  Ni11  1  0.63220100  0.88355900  0.25199600  1
  Ni  Ni12  1  0.11644100  0.74864100  0.25199600  1
  Ni  Ni13  1  0.25135900  0.36779900  0.25199600  1
  Ni  Ni14  1  0.63038800  0.50201000  0.06662100  1
  Ni  Ni15  1  0.87162200  0.36961200  0.06662100  1
  Ni  Ni16  1  0.49799000  0.12837800  0.06662100  1
  Ni  Ni17  1  0.87162200  0.50201000  0.06662100  1
  Ni  Ni18  1  0.49799000  0.36961200  0.06662100  1
  Ni  Ni19  1  0.63038800  0.12837800  0.06662100  1
  Ni  Ni20  1  0.36983000  0.49807800  0.93336200  1
  Ni  Ni21  1  0.12824800  0.63017000  0.93336200  1
  Ni  Ni22  1  0.50192200  0.87175200  0.93336200  1
  Ni  Ni23  1  0.12824800  0.49807800  0.93336200  1
  Ni  Ni24  1  0.50192200  0.63017000  0.93336200  1
  Ni  Ni25  1  0.36983000  0.87175200  0.93336200  1
  Ni  Ni26  1  0.36961200  0.49799000  0.56662100  1
  Ni  Ni27  1  0.12837800  0.63038800  0.56662100  1
  Ni  Ni28  1  0.50201000  0.87162200  0.56662100  1
  Ni  Ni29  1  0.12837800  0.49799000  0.56662100  1
  Ni  Ni30  1  0.50201000  0.63038800  0.56662100  1
  Ni  Ni31  1  0.36961200  0.87162200  0.56662100  1
  Ni  Ni32  1  0.63017000  0.50192200  0.43336200  1
  Ni  Ni33  1  0.87175200  0.36983000  0.43336200  1
  Ni  Ni34  1  0.49807800  0.12824800  0.43336200  1
  Ni  Ni35  1  0.87175200  0.50192200  0.43336200  1
  Ni  Ni36  1  0.49807800  0.36983000  0.43336200  1
  Ni  Ni37  1  0.63017000  0.12824800  0.43336200  1
  Cu  Cu38  1  0.86898500  0.73797000  0.25782400  1
  Cu  Cu39  1  0.86898500  0.13101500  0.25782400  1
  Cu  Cu40  1  0.26203000  0.13101500  0.25782400  1
  Cu  Cu41  1  0.13101500  0.26203000  0.75782400  1
  Cu  Cu42  1  0.13101500  0.86898500  0.75782400  1
  Cu  Cu43  1  0.73797000  0.86898500  0.75782400  1
  C  C44  1  0.57922800  0.15845700  0.99350800  1
  C  C45  1  0.57922800  0.42077200  0.99350800  1
  C  C46  1  0.84154300  0.42077200  0.99350800  1
  C  C47  1  0.42076100  0.84152200  0.00632500  1
  C  C48  1  0.42076100  0.57923900  0.00632500  1
  C  C49  1  0.15847800  0.57923900  0.00632500  1
  C  C50  1  0.42077200  0.84154300  0.49350800  1
  C  C51  1  0.42077200  0.57922800  0.49350800  1
  C  C52  1  0.15845700  0.57922800  0.49350800  1
  C  C53  1  0.57923900  0.15847800  0.50632500  1
  C  C54  1  0.57923900  0.42076100  0.50632500  1
  C  C55  1  0.84152200  0.42076100  0.50632500  1
  C  C56  1  0.78873000  0.57746000  0.74602100  1
  C  C57  1  0.78873000  0.21127000  0.74602100  1
  C  C58  1  0.42254000  0.21127000  0.74602100  1
  C  C59  1  0.21127000  0.42254000  0.24602100  1
  C  C60  1  0.21127000  0.78873000  0.24602100  1
  C  C61  1  0.57746000  0.78873000  0.24602100  1
  C  C62  1  0.93193800  0.63675400  0.24986400  1
  C  C63  1  0.70481500  0.06806200  0.24986400  1
  C  C64  1  0.36324600  0.29518500  0.24986400  1
  C  C65  1  0.70481500  0.63675400  0.24986400  1
  C  C66  1  0.36324600  0.06806200  0.24986400  1
  C  C67  1  0.93193800  0.29518500  0.24986400  1
  C  C68  1  0.06806200  0.36324600  0.74986400  1
  C  C69  1  0.29518500  0.93193800  0.74986400  1
  C  C70  1  0.63675400  0.70481500  0.74986400  1
  C  C71  1  0.29518500  0.36324600  0.74986400  1
  C  C72  1  0.63675400  0.93193800  0.74986400  1
  C  C73  1  0.06806200  0.70481500  0.74986400  1
  C  C74  1  0.90707000  0.81414000  0.04412900  1
  C  C75  1  0.90707000  0.09293000  0.04412900  1
  C  C76  1  0.18586000  0.09293000  0.04412900  1
  C  C77  1  0.09293000  0.18586000  0.54412900  1
  C  C78  1  0.09293000  0.90707000  0.54412900  1
  C  C79  1  0.81414000  0.90707000  0.54412900  1
