# generated using pymatgen
data_CuNiC7
_symmetry_space_group_name_H-M   'P 1'
_cell_length_a   11.06062819
_cell_length_b   11.32639555
_cell_length_c   17.42469355
_cell_angle_alpha   109.03710079
_cell_angle_beta   108.65060827
_cell_angle_gamma   89.81061575
_symmetry_Int_Tables_number   1
_chemical_formula_structural   CuNiC7
_chemical_formula_sum   'Cu16 Ni16 C112'
_cell_volume   1942.68981894
_cell_formula_units_Z   16
loop_
 _symmetry_equiv_pos_site_id
 _symmetry_equiv_pos_as_xyz
  1  'x, y, z'
loop_
 _atom_site_type_symbol
 _atom_site_label
 _atom_site_symmetry_multiplicity
 _atom_site_fract_x
 _atom_site_fract_y
 _atom_site_fract_z
 _atom_site_occupancy
  Ni  Ni0  1  0.30739400  0.55999300  0.61004100  1
  Ni  Ni1  1  0.80641800  0.06030700  0.60875400  1
  Ni  Ni2  1  0.80927200  0.55965700  0.60996300  1
  Ni  Ni3  1  0.19322700  0.43276600  0.38563600  1
  Ni  Ni4  1  0.19961800  0.44150100  0.89343300  1
  Ni  Ni5  1  0.69349500  0.43331000  0.38555800  1
  Ni  Ni6  1  0.69570900  0.93441900  0.38617400  1
  Ni  Ni7  1  0.70133100  0.93790400  0.89486700  1
  Ni  Ni8  1  0.05924300  0.29784700  0.60929100  1
  Ni  Ni9  1  0.05827100  0.80055400  0.60912400  1
  Ni  Ni10  1  0.55902400  0.30016800  0.61066300  1
  Ni  Ni11  1  0.55683700  0.79609900  0.60787400  1
  Ni  Ni12  1  0.44294200  0.19880500  0.38509200  1
  Ni  Ni13  1  0.44906700  0.20190800  0.89093700  1
  Ni  Ni14  1  0.94474600  0.20158900  0.38593900  1
  Ni  Ni15  1  0.94836500  0.20313100  0.89251300  1
  Cu  Cu16  1  0.30271300  0.06628100  0.10764700  1
  Cu  Cu17  1  0.30422800  0.06010100  0.60353400  1
  Cu  Cu18  1  0.30060700  0.56864600  0.10699100  1
  Cu  Cu19  1  0.80186700  0.06871400  0.10699600  1
  Cu  Cu20  1  0.80243900  0.56760400  0.10771300  1
  Cu  Cu21  1  0.19793200  0.93098100  0.39106500  1
  Cu  Cu22  1  0.20319100  0.93879700  0.89888000  1
  Cu  Cu23  1  0.70284000  0.43927100  0.89747200  1
  Cu  Cu24  1  0.05307700  0.28785800  0.10742800  1
  Cu  Cu25  1  0.05382600  0.78955400  0.10710900  1
  Cu  Cu26  1  0.55009300  0.28851500  0.10558500  1
  Cu  Cu27  1  0.55282800  0.78959600  0.10429200  1
  Cu  Cu28  1  0.44303000  0.70981100  0.39200800  1
  Cu  Cu29  1  0.45047200  0.70835300  0.89718200  1
  Cu  Cu30  1  0.94479900  0.71005600  0.39081700  1
  Cu  Cu31  1  0.95187200  0.70885000  0.89860500  1
  C  C32  1  0.11817500  0.09442300  0.75344300  1
  C  C33  1  0.11434800  0.60387800  0.75380000  1
  C  C34  1  0.61305400  0.59858500  0.75535800  1
  C  C35  1  0.36663800  0.40523700  0.75351000  1
  C  C36  1  0.35246300  0.89666000  0.24676600  1
  C  C37  1  0.35985100  0.89842700  0.75209800  1
  C  C38  1  0.86200900  0.41030300  0.75600200  1
  C  C39  1  0.86524600  0.90091100  0.75201000  1
  C  C40  1  0.00796100  0.00130600  0.00460800  1
  C  C41  1  0.00472400  0.99886500  0.49789200  1
  C  C42  1  0.00658000  0.50264600  0.00509600  1
  C  C43  1  0.00135200  0.49987100  0.49681700  1
  C  C44  1  0.50687000  0.00158400  0.00412500  1
  C  C45  1  0.50207100  0.00051000  0.49837700  1
  C  C46  1  0.50706000  0.50230500  0.00415000  1
  C  C47  1  0.50090500  0.49806400  0.49622900  1
  C  C48  1  0.25690300  0.25275800  0.00501600  1
  C  C49  1  0.25274400  0.24764400  0.49822800  1
  C  C50  1  0.25584400  0.75321200  0.00280100  1
  C  C51  1  0.25175000  0.74861900  0.49697600  1
  C  C52  1  0.75854100  0.25589700  0.00746300  1
  C  C53  1  0.75256700  0.24970300  0.49833400  1
  C  C54  1  0.75770400  0.75064700  0.00378500  1
  C  C55  1  0.75114700  0.74676400  0.49528300  1
  C  C56  1  0.10364800  0.08006500  0.24581100  1
  C  C57  1  0.10293900  0.59410800  0.24688100  1
  C  C58  1  0.60442800  0.08408400  0.24353200  1
  C  C59  1  0.60690000  0.09137000  0.75012300  1
  C  C60  1  0.60114500  0.59002200  0.24540600  1
  C  C61  1  0.35172500  0.41313400  0.24558900  1
  C  C62  1  0.85216000  0.41293100  0.24592100  1
  C  C63  1  0.85611500  0.90231000  0.24402400  1
  C  C64  1  0.12520900  0.11616500  0.48795100  1
  C  C65  1  0.12870300  0.12129600  0.99430300  1
  C  C66  1  0.11808700  0.62226200  0.48467100  1
  C  C67  1  0.12332100  0.62540500  0.99186000  1
  C  C68  1  0.62310500  0.12175000  0.48984700  1
  C  C69  1  0.62753700  0.12582500  0.99452500  1
  C  C70  1  0.61876000  0.62165200  0.48649400  1
  C  C71  1  0.62559900  0.62199200  0.99079800  1
  C  C72  1  0.13890400  0.38383900  0.02061900  1
  C  C73  1  0.13036200  0.37604500  0.50497500  1
  C  C74  1  0.13659700  0.88131000  0.01393200  1
  C  C75  1  0.13301700  0.87731600  0.50232600  1
  C  C76  1  0.63924700  0.38438200  0.01803100  1
  C  C77  1  0.63001300  0.37678700  0.50372700  1
  C  C78  1  0.63701200  0.87972500  0.01686900  1
  C  C79  1  0.62692900  0.87342000  0.50102700  1
  C  C80  1  0.37030300  0.11583300  0.49073200  1
  C  C81  1  0.37451100  0.11768400  0.99297400  1
  C  C82  1  0.37311800  0.62083400  0.48688800  1
  C  C83  1  0.37895900  0.62436000  0.99448200  1
  C  C84  1  0.87480200  0.11897000  0.49143800  1
  C  C85  1  0.87769100  0.12210700  0.99538900  1
  C  C86  1  0.87261000  0.61993000  0.48719100  1
  C  C87  1  0.87519100  0.61829400  0.99050500  1
  C  C88  1  0.38839900  0.38774000  0.01937900  1
  C  C89  1  0.37948100  0.37812600  0.50415100  1
  C  C90  1  0.38765400  0.88560800  0.01600400  1
  C  C91  1  0.38119900  0.88274300  0.50856300  1
  C  C92  1  0.88677700  0.38794400  0.01856000  1
  C  C93  1  0.87978300  0.37843800  0.50372400  1
  C  C94  1  0.88963000  0.88409800  0.01771500  1
  C  C95  1  0.88171100  0.87638200  0.50232300  1
  C  C96  1  0.09543900  0.10350000  0.14226600  1
  C  C97  1  0.08462500  0.08030900  0.63488900  1
  C  C98  1  0.08915800  0.60906100  0.14057800  1
  C  C99  1  0.07096900  0.58636900  0.63465400  1
  C  C100  1  0.59246700  0.10731200  0.13993400  1
  C  C101  1  0.58631100  0.09413300  0.63870500  1
  C  C102  1  0.58828100  0.61036700  0.14080200  1
  C  C103  1  0.57361400  0.58267000  0.63666000  1
  C  C104  1  0.43562500  0.40325500  0.35540300  1
  C  C105  1  0.44591200  0.41121500  0.86933700  1
  C  C106  1  0.43444900  0.90995400  0.36238400  1
  C  C107  1  0.44752500  0.90743000  0.86780100  1
  C  C108  1  0.93609700  0.40363800  0.35561400  1
  C  C109  1  0.94532100  0.41045100  0.86909100  1
  C  C110  1  0.94170200  0.89851200  0.35579500  1
  C  C111  1  0.94545800  0.90643400  0.86799100  1
  C  C112  1  0.34358800  0.28501500  0.14269800  1
  C  C113  1  0.32651700  0.29488700  0.63570800  1
  C  C114  1  0.32583600  0.78731300  0.13533100  1
  C  C115  1  0.31844900  0.79516600  0.63450700  1
  C  C116  1  0.84403300  0.28661000  0.14211200  1
  C  C117  1  0.82609800  0.30708500  0.63779600  1
  C  C118  1  0.84131500  0.77945500  0.13830400  1
  C  C119  1  0.82226800  0.79955200  0.63359300  1
  C  C120  1  0.18756300  0.19905800  0.35603300  1
  C  C121  1  0.19400000  0.20931500  0.86920100  1
  C  C122  1  0.19840300  0.70942600  0.35675500  1
  C  C123  1  0.20166200  0.71299500  0.86867800  1
  C  C124  1  0.68831900  0.19760500  0.35591500  1
  C  C125  1  0.69038300  0.21549600  0.86049300  1
  C  C126  1  0.69536100  0.70086500  0.35617500  1
  C  C127  1  0.70075000  0.70738000  0.86853800  1
  C  C128  1  0.43130800  0.04783900  0.23959400  1
  C  C129  1  0.43166600  0.05899200  0.74320700  1
  C  C130  1  0.42459700  0.57201900  0.24764400  1
  C  C131  1  0.44059700  0.57619300  0.75985700  1
  C  C132  1  0.92479200  0.05608600  0.23881000  1
  C  C133  1  0.94174100  0.05720700  0.75111400  1
  C  C134  1  0.92709500  0.57044100  0.24829600  1
  C  C135  1  0.94131100  0.57458400  0.76134800  1
  C  C136  1  0.17355500  0.43447400  0.23964100  1
  C  C137  1  0.19242200  0.44384100  0.75195400  1
  C  C138  1  0.17122100  0.92254600  0.24775300  1
  C  C139  1  0.19063300  0.93087500  0.76092400  1
  C  C140  1  0.67252900  0.43119000  0.23808900  1
  C  C141  1  0.68854100  0.43841300  0.76011100  1
  C  C142  1  0.67857100  0.92749900  0.23868700  1
  C  C143  1  0.68336100  0.93791300  0.75262200  1
