# generated using pymatgen
data_Cu3NiC9
_symmetry_space_group_name_H-M   'P 1'
_cell_length_a   6.18512200
_cell_length_b   9.57446658
_cell_length_c   9.57533419
_cell_angle_alpha   60.05529172
_cell_angle_beta   89.84921097
_cell_angle_gamma   89.69847736
_symmetry_Int_Tables_number   1
_chemical_formula_structural   Cu3NiC9
_chemical_formula_sum   'Cu9 Ni3 C27'
_cell_volume   491.34112538
_cell_formula_units_Z   3
loop_
 _symmetry_equiv_pos_site_id
 _symmetry_equiv_pos_as_xyz
  1  'x, y, z'
loop_
 _atom_site_type_symbol
 _atom_site_label
 _atom_site_symmetry_multiplicity
 _atom_site_fract_x
 _atom_site_fract_y
 _atom_site_fract_z
 _atom_site_occupancy
  C  C0  1  0.00068100  0.99880500  0.00281900  1
  C  C1  1  0.49605200  0.33504300  0.33490100  1
  C  C2  1  0.50333300  0.66407000  0.66801100  1
  C  C3  1  0.50147300  0.24929700  0.75055400  1
  C  C4  1  0.49513900  0.75001900  0.00119800  1
  C  C5  1  0.50133300  0.00015400  0.24894300  1
  Ni  Ni6  1  0.25537100  0.00775800  0.60679100  1
  Ni  Ni7  1  0.25465700  0.60650400  0.38753800  1
  Ni  Ni8  1  0.74407300  0.39260900  0.99365300  1
  Cu  Cu9  1  0.99266200  0.28522600  0.53093200  1
  Cu  Cu10  1  0.99712300  0.53137600  0.18370700  1
  Cu  Cu11  1  0.98753600  0.18099200  0.28481500  1
  Cu  Cu12  1  0.00746600  0.81878300  0.46625300  1
  Cu  Cu13  1  0.00225500  0.46904500  0.71493500  1
  Cu  Cu14  1  0.01187100  0.71496900  0.81845000  1
  Cu  Cu15  1  0.24951200  0.39148900  0.00837000  1
  Cu  Cu16  1  0.74981900  0.60790900  0.39961000  1
  Cu  Cu17  1  0.74918000  0.99121200  0.60936700  1
  C  C18  1  0.51381100  0.00215400  0.50977300  1
  C  C19  1  0.51381400  0.50948200  0.48718400  1
  C  C20  1  0.48549600  0.49101900  0.99538100  1
  C  C21  1  0.24979600  0.21324900  0.57704200  1
  C  C22  1  0.25093500  0.57714200  0.21296000  1
  C  C23  1  0.24355200  0.22172600  0.19987600  1
  C  C24  1  0.75438000  0.77704700  0.42083200  1
  C  C25  1  0.74781000  0.42222000  0.78960000  1
  C  C26  1  0.75534700  0.79944300  0.77941300  1
  C  C27  1  0.99090300  0.47979500  0.52020900  1
  C  C28  1  0.00321900  0.51959500  0.00021400  1
  C  C29  1  0.99095100  0.99962900  0.48113200  1
  C  C30  1  0.79190300  0.15059900  0.64640100  1
  C  C31  1  0.79223000  0.64538900  0.20244900  1
  C  C32  1  0.79092900  0.18536300  0.16026800  1
  C  C33  1  0.20944400  0.81488700  0.34842300  1
  C  C34  1  0.20772400  0.35540400  0.84725600  1
  C  C35  1  0.20921700  0.83931600  0.81373900  1
  C  C36  1  0.92162000  0.33325500  0.33237200  1
  C  C37  1  0.07663600  0.66746500  0.66568100  1
  C  C38  1  0.50074800  0.00056100  0.99894700  1
