# generated using pymatgen
data_Cu(NiC7)3
_symmetry_space_group_name_H-M   'P 1'
_cell_length_a   11.66639194
_cell_length_b   11.66639194
_cell_length_c   10.62574300
_cell_angle_alpha   90.00000000
_cell_angle_beta   90.00000000
_cell_angle_gamma   100.63067035
_symmetry_Int_Tables_number   1
_chemical_formula_structural   Cu(NiC7)3
_chemical_formula_sum   'Cu4 Ni12 C84'
_cell_volume   1421.39183258
_cell_formula_units_Z   4
loop_
 _symmetry_equiv_pos_site_id
 _symmetry_equiv_pos_as_xyz
  1  'x, y, z'
loop_
 _atom_site_type_symbol
 _atom_site_label
 _atom_site_symmetry_multiplicity
 _atom_site_fract_x
 _atom_site_fract_y
 _atom_site_fract_z
 _atom_site_occupancy
  Ni  Ni0  1  0.97133300  0.52866700  0.75000000  1
  Ni  Ni1  1  0.52866700  0.97133300  0.25000000  1
  Ni  Ni2  1  0.02866700  0.47133300  0.25000000  1
  Ni  Ni3  1  0.47133300  0.02866700  0.75000000  1
  Ni  Ni4  1  0.23889500  0.23889500  0.00000000  1
  Ni  Ni5  1  0.26110500  0.26110500  0.50000000  1
  Ni  Ni6  1  0.76110500  0.76110500  0.00000000  1
  Ni  Ni7  1  0.73889500  0.73889500  0.50000000  1
  Ni  Ni8  1  0.92797700  0.07202300  0.75024000  1
  Ni  Ni9  1  0.57202300  0.42797700  0.25024000  1
  Ni  Ni10  1  0.07202300  0.92797700  0.24976000  1
  Ni  Ni11  1  0.42797700  0.57202300  0.74976000  1
  Cu  Cu12  1  0.84091100  0.65908900  0.25000000  1
  Cu  Cu13  1  0.65908900  0.84091100  0.75000000  1
  Cu  Cu14  1  0.15908900  0.34091100  0.75000000  1
  Cu  Cu15  1  0.34091100  0.15908900  0.25000000  1
  C  C16  1  0.47066400  0.73967200  0.01984900  1
  C  C17  1  0.02933600  0.76032800  0.51984900  1
  C  C18  1  0.73967200  0.47066400  0.98015100  1
  C  C19  1  0.76032800  0.02933600  0.48015100  1
  C  C20  1  0.52933600  0.26032800  0.98015100  1
  C  C21  1  0.97066400  0.23967200  0.48015100  1
  C  C22  1  0.26032800  0.52933600  0.01984900  1
  C  C23  1  0.23967200  0.97066400  0.51984900  1
  C  C24  1  0.41502200  0.79499700  0.53519900  1
  C  C25  1  0.08497800  0.70500300  0.03519900  1
  C  C26  1  0.79499700  0.41502200  0.46480100  1
  C  C27  1  0.70500300  0.08497800  0.96480100  1
  C  C28  1  0.58497800  0.20500300  0.46480100  1
  C  C29  1  0.91502200  0.29499700  0.96480100  1
  C  C30  1  0.20500300  0.58497800  0.53519900  1
  C  C31  1  0.29499700  0.91502200  0.03519900  1
  C  C32  1  0.52771100  0.69008500  0.30028600  1
  C  C33  1  0.97228900  0.80991500  0.80028600  1
  C  C34  1  0.69008500  0.52771100  0.69971400  1
  C  C35  1  0.80991500  0.97228900  0.19971400  1
  C  C36  1  0.47228900  0.30991500  0.69971400  1
  C  C37  1  0.02771100  0.19008500  0.19971400  1
  C  C38  1  0.30991500  0.47228900  0.30028600  1
  C  C39  1  0.19008500  0.02771100  0.80028600  1
  C  C40  1  0.34336600  0.98827600  0.15727500  1
  C  C41  1  0.15663400  0.51172400  0.65727500  1
  C  C42  1  0.98827600  0.34336600  0.84272500  1
  C  C43  1  0.51172400  0.15663400  0.34272500  1
  C  C44  1  0.65663400  0.01172400  0.84272500  1
  C  C45  1  0.84336600  0.48827600  0.34272500  1
  C  C46  1  0.01172400  0.65663400  0.15727500  1
  C  C47  1  0.48827600  0.84336600  0.65727500  1
  C  C48  1  0.51277400  0.76276000  0.16894200  1
  C  C49  1  0.98722600  0.73724000  0.66894200  1
  C  C50  1  0.76276000  0.51277400  0.83105800  1
  C  C51  1  0.73724000  0.98722600  0.33105800  1
  C  C52  1  0.48722600  0.23724000  0.83105800  1
  C  C53  1  0.01277400  0.26276000  0.33105800  1
  C  C54  1  0.23724000  0.48722600  0.16894200  1
  C  C55  1  0.26276000  0.01277400  0.66894200  1
  C  C56  1  0.33283200  0.88548900  0.48643400  1
  C  C57  1  0.16716800  0.61451100  0.98643400  1
  C  C58  1  0.88548900  0.33283200  0.51356600  1
  C  C59  1  0.61451100  0.16716800  0.01356600  1
  C  C60  1  0.66716800  0.11451100  0.51356600  1
  C  C61  1  0.83283200  0.38548900  0.01356600  1
  C  C62  1  0.11451100  0.66716800  0.48643400  1
  C  C63  1  0.38548900  0.83283200  0.98643400  1
  C  C64  1  0.66550600  0.33449400  0.43221900  1
  C  C65  1  0.25238600  0.07793200  0.42487800  1
  C  C66  1  0.07793200  0.25238600  0.57512200  1
  C  C67  1  0.42206800  0.24761400  0.07512200  1
  C  C68  1  0.74761400  0.92206800  0.57512200  1
  C  C69  1  0.75238600  0.57793200  0.07512200  1
  C  C70  1  0.92206800  0.74761400  0.42487800  1
  C  C71  1  0.57793200  0.75238600  0.92487800  1
  C  C72  1  0.34333600  0.34625500  0.31872800  1
  C  C73  1  0.15666400  0.15374500  0.81872800  1
  C  C74  1  0.34625500  0.34333600  0.68127200  1
  C  C75  1  0.15374500  0.15666400  0.18127200  1
  C  C76  1  0.65666400  0.65374500  0.68127200  1
  C  C77  1  0.84333600  0.84625500  0.18127200  1
  C  C78  1  0.65374500  0.65666400  0.31872800  1
  C  C79  1  0.84625500  0.84333600  0.81872800  1
  C  C80  1  0.06829300  0.93170700  0.79865400  1
  C  C81  1  0.43170700  0.56829300  0.29865400  1
  C  C82  1  0.93170700  0.06829300  0.20134600  1
  C  C83  1  0.56829300  0.43170700  0.70134600  1
  C  C84  1  0.10711900  0.89288100  0.50568600  1
  C  C85  1  0.39288100  0.60711900  0.00568600  1
  C  C86  1  0.89288100  0.10711900  0.49431400  1
  C  C87  1  0.60711900  0.39288100  0.99431400  1
  C  C88  1  0.50178000  0.22197900  0.58745600  1
  C  C89  1  0.99822000  0.27802100  0.08745600  1
  C  C90  1  0.22197900  0.50178000  0.41254400  1
  C  C91  1  0.27802100  0.99822000  0.91254400  1
  C  C92  1  0.49822000  0.77802100  0.41254400  1
  C  C93  1  0.00178000  0.72197900  0.91254400  1
  C  C94  1  0.77802100  0.49822000  0.58745600  1
  C  C95  1  0.72197900  0.00178000  0.08745600  1
  C  C96  1  0.16550600  0.83449400  0.06778100  1
  C  C97  1  0.33449400  0.66550600  0.56778100  1
  C  C98  1  0.83449400  0.16550600  0.93221900  1
  C  C99  1  0.24761400  0.42206800  0.92487800  1
