# generated using pymatgen
data_CuNiC29
_symmetry_space_group_name_H-M   'P 1'
_cell_length_a   10.34365612
_cell_length_b   10.34365612
_cell_length_c   10.49907100
_cell_angle_alpha   90.00000000
_cell_angle_beta   90.00000000
_cell_angle_gamma   120.00000075
_symmetry_Int_Tables_number   1
_chemical_formula_structural   CuNiC29
_chemical_formula_sum   'Cu2 Ni2 C58'
_cell_volume   972.81363354
_cell_formula_units_Z   2
loop_
 _symmetry_equiv_pos_site_id
 _symmetry_equiv_pos_as_xyz
  1  'x, y, z'
loop_
 _atom_site_type_symbol
 _atom_site_label
 _atom_site_symmetry_multiplicity
 _atom_site_fract_x
 _atom_site_fract_y
 _atom_site_fract_z
 _atom_site_occupancy
  C  C0  1  0.43671700  0.34259200  0.21427500  1
  C  C1  1  0.90587500  0.56328300  0.21427500  1
  C  C2  1  0.65740800  0.09412500  0.21427500  1
  C  C3  1  0.56328300  0.65740800  0.71427500  1
  C  C4  1  0.09412500  0.43671700  0.71427500  1
  C  C5  1  0.34259200  0.90587500  0.71427500  1
  C  C6  1  0.00000000  0.00000000  0.06536300  1
  C  C7  1  0.00000000  0.00000000  0.56536300  1
  Ni  Ni8  1  0.66666700  0.33333300  0.47541700  1
  Ni  Ni9  1  0.33333300  0.66666700  0.97541700  1
  Cu  Cu10  1  0.66666700  0.33333300  0.97782400  1
  Cu  Cu11  1  0.33333300  0.66666700  0.47782400  1
  C  C12  1  0.05443800  0.29695000  0.17582600  1
  C  C13  1  0.24251200  0.94556200  0.17582600  1
  C  C14  1  0.70305000  0.75748800  0.17582600  1
  C  C15  1  0.94556200  0.70305000  0.67582600  1
  C  C16  1  0.75748800  0.05443800  0.67582600  1
  C  C17  1  0.29695000  0.24251200  0.67582600  1
  C  C18  1  0.85925100  0.33066000  0.23922000  1
  C  C19  1  0.47140900  0.14074900  0.23922000  1
  C  C20  1  0.66934000  0.52859100  0.23922000  1
  C  C21  1  0.14074900  0.66934000  0.73922000  1
  C  C22  1  0.52859100  0.85925100  0.73922000  1
  C  C23  1  0.33066000  0.47140900  0.73922000  1
  C  C24  1  0.73899700  0.01851100  0.00613400  1
  C  C25  1  0.27951400  0.26100300  0.00613400  1
  C  C26  1  0.98148900  0.72048600  0.00613400  1
  C  C27  1  0.26100300  0.98148900  0.50613400  1
  C  C28  1  0.72048600  0.73899700  0.50613400  1
  C  C29  1  0.01851100  0.27951400  0.50613400  1
  C  C30  1  0.68817700  0.04749200  0.43334200  1
  C  C31  1  0.35931600  0.31182300  0.43334200  1
  C  C32  1  0.95250800  0.64068400  0.43334200  1
  C  C33  1  0.31182300  0.95250800  0.93334200  1
  C  C34  1  0.64068400  0.68817700  0.93334200  1
  C  C35  1  0.04749200  0.35931600  0.93334200  1
  C  C36  1  0.58073400  0.18953700  0.47576200  1
  C  C37  1  0.60880300  0.41926600  0.47576200  1
  C  C38  1  0.81046300  0.39119700  0.47576200  1
  C  C39  1  0.41926600  0.81046300  0.97576200  1
  C  C40  1  0.39119700  0.58073400  0.97576200  1
  C  C41  1  0.18953700  0.60880300  0.97576200  1
  C  C42  1  0.58117800  0.17607100  0.02956700  1
  C  C43  1  0.59489300  0.41882200  0.02956700  1
  C  C44  1  0.82392900  0.40510700  0.02956700  1
  C  C45  1  0.41882200  0.82392900  0.52956700  1
  C  C46  1  0.40510700  0.58117800  0.52956700  1
  C  C47  1  0.17607100  0.59489300  0.52956700  1
  C  C48  1  0.98817700  0.15566700  0.18948400  1
  C  C49  1  0.16748900  0.01182300  0.18948400  1
  C  C50  1  0.84433300  0.83251100  0.18948400  1
  C  C51  1  0.01182300  0.84433300  0.68948400  1
  C  C52  1  0.83251100  0.98817700  0.68948400  1
  C  C53  1  0.15566700  0.16748900  0.68948400  1
  C  C54  1  0.00879600  0.16511500  0.44905100  1
  C  C55  1  0.15632000  0.99120400  0.44905100  1
  C  C56  1  0.83488500  0.84368000  0.44905100  1
  C  C57  1  0.99120400  0.83488500  0.94905100  1
  C  C58  1  0.84368000  0.00879600  0.94905100  1
  C  C59  1  0.16511500  0.15632000  0.94905100  1
  C  C60  1  0.66666700  0.33333300  0.83950400  1
  C  C61  1  0.33333300  0.66666700  0.33950400  1
