# generated using pymatgen
data_Cu2NiC4
_symmetry_space_group_name_H-M   'P 1'
_cell_length_a   5.96475054
_cell_length_b   5.96475054
_cell_length_c   5.96475054
_cell_angle_alpha   120.41336497
_cell_angle_beta   118.65694655
_cell_angle_gamma   90.81367351
_symmetry_Int_Tables_number   1
_chemical_formula_structural   Cu2NiC4
_chemical_formula_sum   'Cu4 Ni2 C8'
_cell_volume   151.05316171
_cell_formula_units_Z   2
loop_
 _symmetry_equiv_pos_site_id
 _symmetry_equiv_pos_as_xyz
  1  'x, y, z'
loop_
 _atom_site_type_symbol
 _atom_site_label
 _atom_site_symmetry_multiplicity
 _atom_site_fract_x
 _atom_site_fract_y
 _atom_site_fract_z
 _atom_site_occupancy
  Ni  Ni0  1  0.50000000  0.50000000  0.50000000  1
  Ni  Ni1  1  0.50000000  0.00000000  0.00000000  1
  Cu  Cu2  1  0.00000000  0.00000000  0.00000000  1
  Cu  Cu3  1  0.00000000  0.50000000  0.00000000  1
  Cu  Cu4  1  0.50000000  0.00000000  0.50000000  1
  Cu  Cu5  1  0.00000000  0.00000000  0.50000000  1
  C  C6  1  0.75318200  0.77885400  0.52567200  1
  C  C7  1  0.24575600  0.24320700  0.00254900  1
  C  C8  1  0.75318200  0.22751100  0.97432800  1
  C  C9  1  0.25934200  0.75679300  0.50254900  1
  C  C10  1  0.24681800  0.77248900  0.02567200  1
  C  C11  1  0.75424400  0.75679300  0.99745100  1
  C  C12  1  0.74065800  0.24320700  0.49745100  1
  C  C13  1  0.24681800  0.22114600  0.47432800  1
