# generated using pymatgen
data_Cu3Ni2C21
_symmetry_space_group_name_H-M   'P 1'
_cell_length_a   11.42142800
_cell_length_b   11.47761500
_cell_length_c   18.59545400
_cell_angle_alpha   90.00000000
_cell_angle_beta   90.00000000
_cell_angle_gamma   90.00000000
_symmetry_Int_Tables_number   1
_chemical_formula_structural   Cu3Ni2C21
_chemical_formula_sum   'Cu12 Ni8 C84'
_cell_volume   2437.69207345
_cell_formula_units_Z   4
loop_
 _symmetry_equiv_pos_site_id
 _symmetry_equiv_pos_as_xyz
  1  'x, y, z'
loop_
 _atom_site_type_symbol
 _atom_site_label
 _atom_site_symmetry_multiplicity
 _atom_site_fract_x
 _atom_site_fract_y
 _atom_site_fract_z
 _atom_site_occupancy
  Ni  Ni0  1  0.25000000  0.65086800  0.93560200  1
  Ni  Ni1  1  0.75000000  0.34913200  0.06439800  1
  Ni  Ni2  1  0.75000000  0.51449400  0.75542800  1
  Ni  Ni3  1  0.25000000  0.15086800  0.56439800  1
  Ni  Ni4  1  0.75000000  0.84913200  0.43560200  1
  Ni  Ni5  1  0.25000000  0.98550600  0.25542800  1
  Ni  Ni6  1  0.75000000  0.01449400  0.74457200  1
  Ni  Ni7  1  0.25000000  0.48550600  0.24457200  1
  Cu  Cu8  1  0.25000000  0.52634900  0.53365200  1
  Cu  Cu9  1  0.75000000  0.47365100  0.46634800  1
  Cu  Cu10  1  0.40941700  0.75021200  0.68578200  1
  Cu  Cu11  1  0.59058300  0.24978800  0.31421800  1
  Cu  Cu12  1  0.90941700  0.24978800  0.31421800  1
  Cu  Cu13  1  0.75000000  0.97365100  0.03365200  1
  Cu  Cu14  1  0.40941700  0.25021200  0.81421800  1
  Cu  Cu15  1  0.90941700  0.74978800  0.18578200  1
  Cu  Cu16  1  0.59058300  0.74978800  0.18578200  1
  Cu  Cu17  1  0.09058300  0.75021200  0.68578200  1
  Cu  Cu18  1  0.09058300  0.25021200  0.81421800  1
  Cu  Cu19  1  0.25000000  0.02634900  0.96634800  1
  C  C20  1  0.75000000  0.13117900  0.45436100  1
  C  C21  1  0.75000000  0.63117900  0.04563900  1
  C  C22  1  0.25000000  0.36882100  0.95436100  1
  C  C23  1  0.25000000  0.86882100  0.54563900  1
  C  C24  1  0.43979400  0.86381500  0.54651700  1
  C  C25  1  0.75000000  0.30494300  0.50353900  1
  C  C26  1  0.25000000  0.70429300  0.42517500  1
  C  C27  1  0.56020600  0.63618500  0.04651700  1
  C  C28  1  0.06020600  0.36381500  0.95348300  1
  C  C29  1  0.75000000  0.80494300  0.99646100  1
  C  C30  1  0.43979400  0.36381500  0.95348300  1
  C  C31  1  0.93979400  0.13618500  0.45348300  1
  C  C32  1  0.75000000  0.79570700  0.92517500  1
  C  C33  1  0.25000000  0.19505700  0.00353900  1
  C  C34  1  0.25000000  0.69505700  0.49646100  1
  C  C35  1  0.75000000  0.29570700  0.57482500  1
  C  C36  1  0.56020600  0.13618500  0.45348300  1
  C  C37  1  0.06020600  0.86381500  0.54651700  1
  C  C38  1  0.93979400  0.63618500  0.04651700  1
  C  C39  1  0.25000000  0.20429300  0.07482500  1
  C  C40  1  0.75000000  0.66001400  0.16024200  1
  C  C41  1  0.25000000  0.83998600  0.66024200  1
  C  C42  1  0.03733700  0.63183100  0.02852400  1
  C  C43  1  0.96266300  0.36816900  0.97147600  1
  C  C44  1  0.25000000  0.71910500  0.36309500  1
  C  C45  1  0.03733700  0.13183100  0.47147600  1
  C  C46  1  0.25000000  0.33998600  0.83975800  1
  C  C47  1  0.75000000  0.16001400  0.33975800  1
  C  C48  1  0.75000000  0.28089500  0.63690500  1
  C  C49  1  0.53733700  0.36816900  0.97147600  1
  C  C50  1  0.53733700  0.86816900  0.52852400  1
  C  C51  1  0.75000000  0.78089500  0.86309500  1
  C  C52  1  0.46266300  0.63183100  0.02852400  1
  C  C53  1  0.46266300  0.13183100  0.47147600  1
  C  C54  1  0.96266300  0.86816900  0.52852400  1
  C  C55  1  0.25000000  0.21910500  0.13690500  1
  C  C56  1  0.12555500  0.87005600  0.25523200  1
  C  C57  1  0.25000000  0.44937200  0.05304500  1
  C  C58  1  0.37444500  0.87005600  0.25523200  1
  C  C59  1  0.87720600  0.51740000  0.52862800  1
  C  C60  1  0.51749200  0.37871800  0.78853800  1
  C  C61  1  0.25000000  0.94937200  0.44695500  1
  C  C62  1  0.37189000  0.23303000  0.61414600  1
  C  C63  1  0.87444500  0.12994400  0.74476800  1
  C  C64  1  0.48250800  0.12128200  0.28853800  1
  C  C65  1  0.12811000  0.73303000  0.88585400  1
  C  C66  1  0.62279400  0.51740000  0.52862800  1
  C  C67  1  0.37720600  0.48260000  0.47137200  1
  C  C68  1  0.75000000  0.23901000  0.98736700  1
  C  C69  1  0.75000000  0.73901000  0.51263300  1
  C  C70  1  0.98250800  0.87871800  0.71146200  1
  C  C71  1  0.75000000  0.01814100  0.84791300  1
  C  C72  1  0.75000000  0.05062800  0.55304500  1
  C  C73  1  0.12555500  0.37005600  0.24476800  1
  C  C74  1  0.51749200  0.87871800  0.71146200  1
  C  C75  1  0.37189000  0.73303000  0.88585400  1
  C  C76  1  0.62811000  0.76697000  0.38585400  1
  C  C77  1  0.37720600  0.98260000  0.02862800  1
  C  C78  1  0.12279400  0.48260000  0.47137200  1
  C  C79  1  0.25000000  0.48185900  0.34791300  1
  C  C80  1  0.01749200  0.62128200  0.21146200  1
  C  C81  1  0.62279400  0.01740000  0.97137200  1
  C  C82  1  0.48250800  0.62128200  0.21146200  1
  C  C83  1  0.75000000  0.88982200  0.14614300  1
  C  C84  1  0.62555500  0.62994400  0.75523200  1
  C  C85  1  0.87720600  0.01740000  0.97137200  1
  C  C86  1  0.12279400  0.98260000  0.02862800  1
  C  C87  1  0.75000000  0.38982200  0.35385700  1
  C  C88  1  0.75000000  0.55062800  0.94695500  1
  C  C89  1  0.25000000  0.98185900  0.15208700  1
  C  C90  1  0.62555500  0.12994400  0.74476800  1
  C  C91  1  0.25000000  0.11017800  0.85385700  1
  C  C92  1  0.87189000  0.26697000  0.11414600  1
  C  C93  1  0.87444500  0.62994400  0.75523200  1
  C  C94  1  0.25000000  0.61017800  0.64614300  1
  C  C95  1  0.98250800  0.37871800  0.78853800  1
  C  C96  1  0.87189000  0.76697000  0.38585400  1
  C  C97  1  0.75000000  0.51814100  0.65208700  1
  C  C98  1  0.62811000  0.26697000  0.11414600  1
  C  C99  1  0.37444500  0.37005600  0.24476800  1
  C  C100  1  0.12811000  0.23303000  0.61414600  1
  C  C101  1  0.25000000  0.26099000  0.48736700  1
  C  C102  1  0.01749200  0.12128200  0.28853800  1
  C  C103  1  0.25000000  0.76099000  0.01263300  1
