# generated using pymatgen
data_Cu15Ni3C8
_symmetry_space_group_name_H-M   'P 1'
_cell_length_a   6.41668100
_cell_length_b   11.36086500
_cell_length_c   16.54198367
_cell_angle_alpha   78.05296447
_cell_angle_beta   90.00000000
_cell_angle_gamma   90.00000000
_symmetry_Int_Tables_number   1
_chemical_formula_structural   Cu15Ni3C8
_chemical_formula_sum   'Cu60 Ni12 C32'
_cell_volume   1179.77440491
_cell_formula_units_Z   4
loop_
 _symmetry_equiv_pos_site_id
 _symmetry_equiv_pos_as_xyz
  1  'x, y, z'
loop_
 _atom_site_type_symbol
 _atom_site_label
 _atom_site_symmetry_multiplicity
 _atom_site_fract_x
 _atom_site_fract_y
 _atom_site_fract_z
 _atom_site_occupancy
  C  C0  1  0.25797900  0.98168500  0.11734500  1
  C  C1  1  0.75797900  0.01831500  0.38265500  1
  C  C2  1  0.74202100  0.01831500  0.88265500  1
  C  C3  1  0.24202100  0.98168500  0.61734500  1
  C  C4  1  0.77081800  0.63829500  0.09279400  1
  C  C5  1  0.27081800  0.36170500  0.40720600  1
  C  C6  1  0.22918200  0.36170500  0.90720600  1
  C  C7  1  0.72918200  0.63829500  0.59279400  1
  C  C8  1  0.22645100  0.80882400  0.25296400  1
  C  C9  1  0.72645100  0.19117600  0.24703600  1
  C  C10  1  0.77354900  0.19117600  0.74703600  1
  C  C11  1  0.27354900  0.80882400  0.75296400  1
  C  C12  1  0.17063200  0.93250700  0.28337800  1
  C  C13  1  0.67063200  0.06749300  0.21662200  1
  C  C14  1  0.82936800  0.06749300  0.71662200  1
  C  C15  1  0.32936800  0.93250700  0.78337800  1
  C  C16  1  0.66274000  0.40977000  0.08982900  1
  C  C17  1  0.16274000  0.59023000  0.41017100  1
  C  C18  1  0.33726000  0.59023000  0.91017100  1
  C  C19  1  0.83726000  0.40977000  0.58982900  1
  C  C20  1  0.91212600  0.41951700  0.09898000  1
  C  C21  1  0.41212600  0.58048300  0.40102000  1
  C  C22  1  0.08787400  0.58048300  0.90102000  1
  C  C23  1  0.58787400  0.41951700  0.59898000  1
  C  C24  1  0.76498200  0.48370400  0.24013100  1
  C  C25  1  0.26498200  0.51629600  0.25986900  1
  C  C26  1  0.23501800  0.51629600  0.75986900  1
  C  C27  1  0.73501800  0.48370400  0.74013100  1
  C  C28  1  0.71468700  0.61502500  0.25934300  1
  C  C29  1  0.21468700  0.38497500  0.24065700  1
  C  C30  1  0.28531300  0.38497500  0.74065700  1
  C  C31  1  0.78531300  0.61502500  0.75934300  1
  Ni  Ni32  1  0.75163100  0.92974300  0.09001200  1
  Ni  Ni33  1  0.25163100  0.07025700  0.40998800  1
  Ni  Ni34  1  0.24836900  0.07025700  0.90998800  1
  Ni  Ni35  1  0.74836900  0.92974300  0.59001200  1
  Ni  Ni36  1  0.27152600  0.68764100  0.12122000  1
  Ni  Ni37  1  0.77152600  0.31235900  0.37878000  1
  Ni  Ni38  1  0.72847400  0.31235900  0.87878000  1
  Ni  Ni39  1  0.22847400  0.68764100  0.62122000  1
  Ni  Ni40  1  0.72204000  0.73090700  0.88568900  1
  Ni  Ni41  1  0.22204000  0.26909300  0.61431100  1
  Ni  Ni42  1  0.27796000  0.26909300  0.11431100  1
  Ni  Ni43  1  0.77796000  0.73090700  0.38568900  1
  Cu  Cu44  1  0.77709300  0.80029500  0.12851100  1
  Cu  Cu45  1  0.27709300  0.19970500  0.37148900  1
  Cu  Cu46  1  0.22290700  0.19970500  0.87148900  1
  Cu  Cu47  1  0.72290700  0.80029500  0.62851100  1
  Cu  Cu48  1  0.69590000  0.94237000  0.00207300  1
  Cu  Cu49  1  0.19590000  0.05763000  0.49792700  1
  Cu  Cu50  1  0.30410000  0.05763000  0.99792700  1
  Cu  Cu51  1  0.80410000  0.94237000  0.50207300  1
  Cu  Cu52  1  0.58153500  0.98148600  0.13415200  1
  Cu  Cu53  1  0.08153500  0.01851400  0.36584800  1
  Cu  Cu54  1  0.41846500  0.01851400  0.86584800  1
  Cu  Cu55  1  0.91846500  0.98148600  0.63415200  1
  Cu  Cu56  1  0.94301500  0.99735800  0.10023300  1
  Cu  Cu57  1  0.44301500  0.00264200  0.39976700  1
  Cu  Cu58  1  0.05698500  0.00264200  0.89976700  1
  Cu  Cu59  1  0.55698500  0.99735800  0.60023300  1
  Cu  Cu60  1  0.26579700  0.82055500  0.08639000  1
  Cu  Cu61  1  0.76579700  0.17944500  0.41361000  1
  Cu  Cu62  1  0.73420300  0.17944500  0.91361000  1
  Cu  Cu63  1  0.23420300  0.82055500  0.58639000  1
  Cu  Cu64  1  0.08742900  0.63078400  0.09070000  1
  Cu  Cu65  1  0.58742900  0.36921600  0.40930000  1
  Cu  Cu66  1  0.91257100  0.36921600  0.90930000  1
  Cu  Cu67  1  0.41257100  0.63078400  0.59070000  1
  Cu  Cu68  1  0.45605200  0.63624000  0.08587600  1
  Cu  Cu69  1  0.95605200  0.36376000  0.41412400  1
  Cu  Cu70  1  0.54394800  0.36376000  0.91412400  1
  Cu  Cu71  1  0.04394800  0.63624000  0.58587600  1
  Cu  Cu72  1  0.27803500  0.66498300  0.21206100  1
  Cu  Cu73  1  0.77803500  0.33501700  0.28793900  1
  Cu  Cu74  1  0.72196500  0.33501700  0.78793900  1
  Cu  Cu75  1  0.22196500  0.66498300  0.71206100  1
  Cu  Cu76  1  0.74848700  0.86373200  0.84809000  1
  Cu  Cu77  1  0.24848700  0.13626800  0.65191000  1
  Cu  Cu78  1  0.25151300  0.13626800  0.15191000  1
  Cu  Cu79  1  0.75151300  0.86373200  0.34809000  1
  Cu  Cu80  1  0.78939400  0.71216800  0.97404500  1
  Cu  Cu81  1  0.28939400  0.28783200  0.52595500  1
  Cu  Cu82  1  0.21060600  0.28783200  0.02595500  1
  Cu  Cu83  1  0.71060600  0.71216800  0.47404500  1
  Cu  Cu84  1  0.86781800  0.66395600  0.84257200  1
  Cu  Cu85  1  0.36781800  0.33604400  0.65742800  1
  Cu  Cu86  1  0.13218200  0.33604400  0.15742800  1
  Cu  Cu87  1  0.63218200  0.66395600  0.34257200  1
  Cu  Cu88  1  0.50364800  0.69956200  0.87708400  1
  Cu  Cu89  1  0.00364800  0.30043800  0.62291600  1
  Cu  Cu90  1  0.49635200  0.30043800  0.12291600  1
  Cu  Cu91  1  0.99635200  0.69956200  0.37708400  1
  Cu  Cu92  1  0.22834400  0.89761900  0.23836700  1
  Cu  Cu93  1  0.72834400  0.10238100  0.26163300  1
  Cu  Cu94  1  0.77165600  0.10238100  0.76163300  1
  Cu  Cu95  1  0.27165600  0.89761900  0.73836700  1
  Cu  Cu96  1  0.78519200  0.46569300  0.07783100  1
  Cu  Cu97  1  0.28519200  0.53430700  0.42216900  1
  Cu  Cu98  1  0.21480800  0.53430700  0.92216900  1
  Cu  Cu99  1  0.71480800  0.46569300  0.57783100  1
  Cu  Cu100  1  0.76553100  0.57177300  0.21614700  1
  Cu  Cu101  1  0.26553100  0.42822700  0.28385300  1
  Cu  Cu102  1  0.23446900  0.42822700  0.78385300  1
  Cu  Cu103  1  0.73446900  0.57177300  0.71614700  1
