# generated using pymatgen
data_Cu2NiC10
_symmetry_space_group_name_H-M   'P 1'
_cell_length_a   5.53250200
_cell_length_b   7.04704913
_cell_length_c   9.54676628
_cell_angle_alpha   110.65075659
_cell_angle_beta   101.88396675
_cell_angle_gamma   97.94070345
_symmetry_Int_Tables_number   1
_chemical_formula_structural   Cu2NiC10
_chemical_formula_sum   'Cu4 Ni2 C20'
_cell_volume   331.67533492
_cell_formula_units_Z   2
loop_
 _symmetry_equiv_pos_site_id
 _symmetry_equiv_pos_as_xyz
  1  'x, y, z'
loop_
 _atom_site_type_symbol
 _atom_site_label
 _atom_site_symmetry_multiplicity
 _atom_site_fract_x
 _atom_site_fract_y
 _atom_site_fract_z
 _atom_site_occupancy
  C  C0  1  0.19826500  0.75210500  0.04707100  1
  C  C1  1  0.80173500  0.24789500  0.95292900  1
  C  C2  1  0.06879400  0.27858000  0.55831600  1
  C  C3  1  0.93120600  0.72142000  0.44168400  1
  Ni  Ni4  1  0.35101800  0.72980800  0.64552500  1
  Ni  Ni5  1  0.64898200  0.27019200  0.35447500  1
  Cu  Cu6  1  0.16153800  0.19337800  0.22619300  1
  Cu  Cu7  1  0.83846200  0.80662200  0.77380700  1
  Cu  Cu8  1  0.53933800  0.72049100  0.29902500  1
  Cu  Cu9  1  0.46066200  0.27950900  0.70097500  1
  C  C10  1  0.90357400  0.65200100  0.90244900  1
  C  C11  1  0.45017400  0.26124400  0.21366100  1
  C  C12  1  0.89359000  0.02624800  0.77555000  1
  C  C13  1  0.26105900  0.42002400  0.69783400  1
  C  C14  1  0.54982600  0.73875600  0.78633900  1
  C  C15  1  0.42906800  0.17441100  0.58060600  1
  C  C16  1  0.57093200  0.82558900  0.41939400  1
  C  C17  1  0.39440500  0.12854700  0.86635800  1
  C  C18  1  0.10641000  0.97375200  0.22445000  1
  C  C19  1  0.60559500  0.87145300  0.13364200  1
  C  C20  1  0.09642600  0.34799900  0.09755100  1
  C  C21  1  0.97160500  0.19091200  0.38551300  1
  C  C22  1  0.02839500  0.80908800  0.61448700  1
  C  C23  1  0.25611600  0.58675900  0.35959800  1
  C  C24  1  0.73894100  0.57997600  0.30216600  1
  C  C25  1  0.74388400  0.41324100  0.64040200  1
