# generated using pymatgen
data_CuNiC6
_symmetry_space_group_name_H-M   'P 1'
_cell_length_a   5.46289459
_cell_length_b   8.01594800
_cell_length_c   12.05445900
_cell_angle_alpha   90.00000000
_cell_angle_beta   90.00000000
_cell_angle_gamma   107.05774551
_symmetry_Int_Tables_number   1
_chemical_formula_structural   CuNiC6
_chemical_formula_sum   'Cu4 Ni4 C24'
_cell_volume   504.64699456
_cell_formula_units_Z   4
loop_
 _symmetry_equiv_pos_site_id
 _symmetry_equiv_pos_as_xyz
  1  'x, y, z'
loop_
 _atom_site_type_symbol
 _atom_site_label
 _atom_site_symmetry_multiplicity
 _atom_site_fract_x
 _atom_site_fract_y
 _atom_site_fract_z
 _atom_site_occupancy
  Ni  Ni0  1  0.62170700  0.17351200  0.92077000  1
  Ni  Ni1  1  0.37829300  0.82648800  0.07923000  1
  Ni  Ni2  1  0.87829300  0.32648800  0.42077000  1
  Ni  Ni3  1  0.12170700  0.67351200  0.57923000  1
  Cu  Cu4  1  0.10714600  0.16317100  0.09691300  1
  Cu  Cu5  1  0.89285400  0.83682900  0.90308700  1
  Cu  Cu6  1  0.60714600  0.66317100  0.40308700  1
  Cu  Cu7  1  0.39285400  0.33682900  0.59691300  1
  C  C8  1  0.78737000  0.96764700  0.64368900  1
  C  C9  1  0.21263000  0.03235300  0.35631100  1
  C  C10  1  0.71263000  0.53235300  0.14368900  1
  C  C11  1  0.28737000  0.46764700  0.85631100  1
  C  C12  1  0.55466800  0.32159900  0.06457200  1
  C  C13  1  0.01294900  0.31952200  0.94010200  1
  C  C14  1  0.47354300  0.65295400  0.18262100  1
  C  C15  1  0.75754500  0.51462200  0.52374100  1
  C  C16  1  0.79640200  0.48224600  0.29254000  1
  C  C17  1  0.29640200  0.98224600  0.20746000  1
  C  C18  1  0.51294900  0.81952200  0.55989800  1
  C  C19  1  0.48705100  0.18047800  0.44010200  1
  C  C20  1  0.24245500  0.48537800  0.47625900  1
  C  C21  1  0.94533200  0.17840100  0.56457200  1
  C  C22  1  0.20359800  0.51775400  0.70746000  1
  C  C23  1  0.44533200  0.67840100  0.93542800  1
  C  C24  1  0.05466800  0.82159900  0.43542800  1
  C  C25  1  0.70359800  0.01775400  0.79254000  1
  C  C26  1  0.74245500  0.98537800  0.02374100  1
  C  C27  1  0.25754500  0.01462200  0.97625900  1
  C  C28  1  0.52645700  0.34704600  0.81737900  1
  C  C29  1  0.98705100  0.68047800  0.05989800  1
  C  C30  1  0.02645700  0.84704600  0.68262100  1
  C  C31  1  0.97354300  0.15295400  0.31737900  1
