# generated using pymatgen
data_Cu(NiC4)2
_symmetry_space_group_name_H-M   'P 1'
_cell_length_a   5.47611000
_cell_length_b   14.50232300
_cell_length_c   16.01304400
_cell_angle_alpha   90.00000000
_cell_angle_beta   90.00000000
_cell_angle_gamma   90.00000000
_symmetry_Int_Tables_number   1
_chemical_formula_structural   Cu(NiC4)2
_chemical_formula_sum   'Cu8 Ni16 C64'
_cell_volume   1271.69696248
_cell_formula_units_Z   8
loop_
 _symmetry_equiv_pos_site_id
 _symmetry_equiv_pos_as_xyz
  1  'x, y, z'
loop_
 _atom_site_type_symbol
 _atom_site_label
 _atom_site_symmetry_multiplicity
 _atom_site_fract_x
 _atom_site_fract_y
 _atom_site_fract_z
 _atom_site_occupancy
  C  C0  1  0.72705600  0.01752200  0.32642900  1
  C  C1  1  0.22705600  0.48247800  0.67357100  1
  C  C2  1  0.27294400  0.51752200  0.17357100  1
  C  C3  1  0.77294400  0.98247800  0.82642900  1
  C  C4  1  0.27294400  0.98247800  0.67357100  1
  C  C5  1  0.77294400  0.51752200  0.32642900  1
  C  C6  1  0.72705600  0.48247800  0.82642900  1
  C  C7  1  0.22705600  0.01752200  0.17357100  1
  Ni  Ni8  1  0.72428100  0.88246200  0.15735000  1
  Ni  Ni9  1  0.22428100  0.61753800  0.84265000  1
  Ni  Ni10  1  0.27571900  0.38246200  0.34265000  1
  Ni  Ni11  1  0.77571900  0.11753800  0.65735000  1
  Ni  Ni12  1  0.27571900  0.11753800  0.84265000  1
  Ni  Ni13  1  0.77571900  0.38246200  0.15735000  1
  Ni  Ni14  1  0.72428100  0.61753800  0.65735000  1
  Ni  Ni15  1  0.22428100  0.88246200  0.34265000  1
  Ni  Ni16  1  0.75099900  0.08425800  0.01928300  1
  Ni  Ni17  1  0.25099900  0.41574200  0.98071700  1
  Ni  Ni18  1  0.24900100  0.58425800  0.48071700  1
  Ni  Ni19  1  0.74900100  0.91574200  0.51928300  1
  Ni  Ni20  1  0.24900100  0.91574200  0.98071700  1
  Ni  Ni21  1  0.74900100  0.58425800  0.01928300  1
  Ni  Ni22  1  0.75099900  0.41574200  0.51928300  1
  Ni  Ni23  1  0.25099900  0.08425800  0.48071700  1
  Cu  Cu24  1  0.79500900  0.20550500  0.38871600  1
  Cu  Cu25  1  0.29500900  0.29449500  0.61128400  1
  Cu  Cu26  1  0.20499100  0.70550500  0.11128400  1
  Cu  Cu27  1  0.70499100  0.79449500  0.88871600  1
  Cu  Cu28  1  0.20499100  0.79449500  0.61128400  1
  Cu  Cu29  1  0.70499100  0.70550500  0.38871600  1
  Cu  Cu30  1  0.79500900  0.29449500  0.88871600  1
  Cu  Cu31  1  0.29500900  0.20550500  0.11128400  1
  C  C32  1  0.48222900  0.98087300  0.08336700  1
  C  C33  1  0.98222900  0.51912700  0.91663300  1
  C  C34  1  0.51777100  0.48087300  0.41663300  1
  C  C35  1  0.01777100  0.01912700  0.58336700  1
  C  C36  1  0.51777100  0.01912700  0.91663300  1
  C  C37  1  0.01777100  0.48087300  0.08336700  1
  C  C38  1  0.48222900  0.51912700  0.58336700  1
  C  C39  1  0.98222900  0.98087300  0.41663300  1
  C  C40  1  0.97152700  0.97120400  0.07957000  1
  C  C41  1  0.47152700  0.52879600  0.92043000  1
  C  C42  1  0.02847300  0.47120400  0.42043000  1
  C  C43  1  0.52847300  0.02879600  0.57957000  1
  C  C44  1  0.02847300  0.02879600  0.92043000  1
  C  C45  1  0.52847300  0.47120400  0.07957000  1
  C  C46  1  0.97152700  0.52879600  0.57957000  1
  C  C47  1  0.47152700  0.97120400  0.42043000  1
  C  C48  1  0.97456800  0.95473600  0.24924600  1
  C  C49  1  0.47456800  0.54526400  0.75075400  1
  C  C50  1  0.02543200  0.45473600  0.25075400  1
  C  C51  1  0.52543200  0.04526400  0.74924600  1
  C  C52  1  0.02543200  0.04526400  0.75075400  1
  C  C53  1  0.52543200  0.45473600  0.24924600  1
  C  C54  1  0.97456800  0.54526400  0.74924600  1
  C  C55  1  0.47456800  0.95473600  0.25075400  1
  C  C56  1  0.74755900  0.30479000  0.36795000  1
  C  C57  1  0.24755900  0.19521000  0.63205000  1
  C  C58  1  0.25244100  0.80479000  0.13205000  1
  C  C59  1  0.75244100  0.69521000  0.86795000  1
  C  C60  1  0.25244100  0.69521000  0.63205000  1
  C  C61  1  0.75244100  0.80479000  0.36795000  1
  C  C62  1  0.74755900  0.19521000  0.86795000  1
  C  C63  1  0.24755900  0.30479000  0.13205000  1
  C  C64  1  0.80245400  0.19293100  0.48134300  1
  C  C65  1  0.30245400  0.30706900  0.51865700  1
  C  C66  1  0.19754600  0.69293100  0.01865700  1
  C  C67  1  0.69754600  0.80706900  0.98134300  1
  C  C68  1  0.19754600  0.80706900  0.51865700  1
  C  C69  1  0.69754600  0.69293100  0.48134300  1
  C  C70  1  0.80245400  0.30706900  0.98134300  1
  C  C71  1  0.30245400  0.19293100  0.01865700  1
  C  C72  1  0.58912600  0.14745800  0.35332100  1
  C  C73  1  0.08912600  0.35254200  0.64667900  1
  C  C74  1  0.41087400  0.64745800  0.14667900  1
  C  C75  1  0.91087400  0.85254200  0.85332100  1
  C  C76  1  0.41087400  0.85254200  0.64667900  1
  C  C77  1  0.91087400  0.64745800  0.35332100  1
  C  C78  1  0.58912600  0.35254200  0.85332100  1
  C  C79  1  0.08912600  0.14745800  0.14667900  1
  C  C80  1  0.02822300  0.17513200  0.35039700  1
  C  C81  1  0.52822300  0.32486800  0.64960300  1
  C  C82  1  0.97177700  0.67513200  0.14960300  1
  C  C83  1  0.47177700  0.82486800  0.85039700  1
  C  C84  1  0.97177700  0.82486800  0.64960300  1
  C  C85  1  0.47177700  0.67513200  0.35039700  1
  C  C86  1  0.02822300  0.32486800  0.85039700  1
  C  C87  1  0.52822300  0.17513200  0.14960300  1
