# generated using pymatgen
data_CuNiC10
_symmetry_space_group_name_H-M   'P 1'
_cell_length_a   4.89302400
_cell_length_b   5.12766438
_cell_length_c   8.24468513
_cell_angle_alpha   106.11162347
_cell_angle_beta   94.06807728
_cell_angle_gamma   104.69675885
_symmetry_Int_Tables_number   1
_chemical_formula_structural   CuNiC10
_chemical_formula_sum   'Cu1 Ni1 C10'
_cell_volume   189.99386424
_cell_formula_units_Z   1
loop_
 _symmetry_equiv_pos_site_id
 _symmetry_equiv_pos_as_xyz
  1  'x, y, z'
loop_
 _atom_site_type_symbol
 _atom_site_label
 _atom_site_symmetry_multiplicity
 _atom_site_fract_x
 _atom_site_fract_y
 _atom_site_fract_z
 _atom_site_occupancy
  Ni  Ni0  1  0.50000000  0.00000000  0.50000000  1
  Cu  Cu1  1  0.00000000  0.50000000  0.00000000  1
  C  C2  1  0.26060800  0.36226800  0.63640700  1
  C  C3  1  0.73939200  0.63773200  0.36359300  1
  C  C4  1  0.39894200  0.03805700  0.69444200  1
  C  C5  1  0.19202200  0.36273700  0.83744600  1
  C  C6  1  0.38532800  0.35733400  0.38721600  1
  C  C7  1  0.13208300  0.74775000  0.47123700  1
  C  C8  1  0.80797800  0.63726300  0.16255400  1
  C  C9  1  0.60105800  0.96194300  0.30555800  1
  C  C10  1  0.61467200  0.64266600  0.61278400  1
  C  C11  1  0.86791700  0.25225000  0.52876300  1
