# generated using pymatgen
data_CuNiC8
_symmetry_space_group_name_H-M   'P 1'
_cell_length_a   5.98830900
_cell_length_b   8.07350800
_cell_length_c   9.02410900
_cell_angle_alpha   90.00000000
_cell_angle_beta   90.00000000
_cell_angle_gamma   90.00000000
_symmetry_Int_Tables_number   1
_chemical_formula_structural   CuNiC8
_chemical_formula_sum   'Cu4 Ni4 C32'
_cell_volume   436.28553520
_cell_formula_units_Z   4
loop_
 _symmetry_equiv_pos_site_id
 _symmetry_equiv_pos_as_xyz
  1  'x, y, z'
loop_
 _atom_site_type_symbol
 _atom_site_label
 _atom_site_symmetry_multiplicity
 _atom_site_fract_x
 _atom_site_fract_y
 _atom_site_fract_z
 _atom_site_occupancy
  C  C0  1  0.75000000  0.20197300  0.25404000  1
  C  C1  1  0.25000000  0.79802700  0.74596000  1
  C  C2  1  0.25000000  0.20197300  0.24596000  1
  C  C3  1  0.75000000  0.79802700  0.75404000  1
  C  C4  1  0.89590500  0.33207600  0.44866600  1
  C  C5  1  0.39590500  0.66792400  0.55133400  1
  C  C6  1  0.10409500  0.33207600  0.05133400  1
  C  C7  1  0.60409500  0.66792400  0.94866600  1
  C  C8  1  0.10409500  0.66792400  0.55133400  1
  C  C9  1  0.60409500  0.33207600  0.44866600  1
  C  C10  1  0.89590500  0.66792400  0.94866600  1
  C  C11  1  0.39590500  0.33207600  0.05133400  1
  C  C12  1  0.75000000  0.27685600  0.69182200  1
  C  C13  1  0.25000000  0.72314400  0.30817800  1
  C  C14  1  0.25000000  0.27685600  0.80817800  1
  C  C15  1  0.75000000  0.72314400  0.19182200  1
  C  C16  1  0.59920000  0.10298100  0.61661900  1
  C  C17  1  0.09920000  0.89701900  0.38338100  1
  C  C18  1  0.40080000  0.10298100  0.88338100  1
  C  C19  1  0.90080000  0.89701900  0.11661900  1
  C  C20  1  0.40080000  0.89701900  0.38338100  1
  C  C21  1  0.90080000  0.10298100  0.61661900  1
  C  C22  1  0.59920000  0.89701900  0.11661900  1
  C  C23  1  0.09920000  0.10298100  0.88338100  1
  C  C24  1  0.75000000  0.17874200  0.60749700  1
  C  C25  1  0.25000000  0.82125800  0.39250300  1
  C  C26  1  0.25000000  0.17874200  0.89250300  1
  C  C27  1  0.75000000  0.82125800  0.10749700  1
  Ni  Ni28  1  0.75000000  0.26071500  0.46162700  1
  Ni  Ni29  1  0.25000000  0.73928500  0.53837300  1
  Ni  Ni30  1  0.25000000  0.26071500  0.03837300  1
  Ni  Ni31  1  0.75000000  0.73928500  0.96162700  1
  Cu  Cu32  1  0.75000000  0.35260900  0.07594000  1
  Cu  Cu33  1  0.25000000  0.64739100  0.92406000  1
  Cu  Cu34  1  0.25000000  0.35260900  0.42406000  1
  Cu  Cu35  1  0.75000000  0.64739100  0.57594000  1
  C  C36  1  0.75000000  0.13622800  0.34997400  1
  C  C37  1  0.25000000  0.86377200  0.65002600  1
  C  C38  1  0.25000000  0.13622800  0.15002600  1
  C  C39  1  0.75000000  0.86377200  0.84997400  1
