# generated using pymatgen
data_CuNi2C9
_symmetry_space_group_name_H-M   'P 1'
_cell_length_a   7.40368600
_cell_length_b   7.40368600
_cell_length_c   4.79803600
_cell_angle_alpha   90.00000000
_cell_angle_beta   90.00000000
_cell_angle_gamma   90.00000000
_symmetry_Int_Tables_number   1
_chemical_formula_structural   CuNi2C9
_chemical_formula_sum   'Cu2 Ni4 C18'
_cell_volume   263.00226285
_cell_formula_units_Z   2
loop_
 _symmetry_equiv_pos_site_id
 _symmetry_equiv_pos_as_xyz
  1  'x, y, z'
loop_
 _atom_site_type_symbol
 _atom_site_label
 _atom_site_symmetry_multiplicity
 _atom_site_fract_x
 _atom_site_fract_y
 _atom_site_fract_z
 _atom_site_occupancy
  C  C0  1  0.65774600  0.84225400  0.50656500  1
  C  C1  1  0.15774600  0.65774600  0.49343500  1
  C  C2  1  0.84225400  0.34225400  0.49343500  1
  C  C3  1  0.34225400  0.15774600  0.50656500  1
  Ni  Ni4  1  0.36472800  0.86472800  0.04904900  1
  Ni  Ni5  1  0.86472800  0.63527200  0.95095100  1
  Ni  Ni6  1  0.63527200  0.13527200  0.04904900  1
  Ni  Ni7  1  0.13527200  0.36472800  0.95095100  1
  Cu  Cu8  1  0.50000000  0.50000000  0.00000000  1
  Cu  Cu9  1  0.00000000  0.00000000  0.00000000  1
  C  C10  1  0.91736900  0.82887700  0.78060600  1
  C  C11  1  0.17112300  0.91736900  0.21939400  1
  C  C12  1  0.58263100  0.32887700  0.21939400  1
  C  C13  1  0.41736900  0.67112300  0.21939400  1
  C  C14  1  0.32887700  0.41736900  0.78060600  1
  C  C15  1  0.67112300  0.58263100  0.78060600  1
  C  C16  1  0.00000000  0.50000000  0.80991400  1
  C  C17  1  0.50000000  0.00000000  0.19008600  1
  C  C18  1  0.14198200  0.35801800  0.28222400  1
  C  C19  1  0.64198200  0.14198200  0.71777600  1
  C  C20  1  0.35801800  0.85801800  0.71777600  1
  C  C21  1  0.85801800  0.64198200  0.28222400  1
  C  C22  1  0.08263100  0.17112300  0.78060600  1
  C  C23  1  0.82887700  0.08263100  0.21939400  1
