# generated using pymatgen
data_Cu3(NiC7)2
_symmetry_space_group_name_H-M   'P 1'
_cell_length_a   12.92439321
_cell_length_b   9.89103534
_cell_length_c   9.58096515
_cell_angle_alpha   83.15546630
_cell_angle_beta   49.45059077
_cell_angle_gamma   47.39394294
_symmetry_Int_Tables_number   1
_chemical_formula_structural   Cu3(NiC7)2
_chemical_formula_sum   'Cu6 Ni4 C28'
_cell_volume   560.99094318
_cell_formula_units_Z   2
loop_
 _symmetry_equiv_pos_site_id
 _symmetry_equiv_pos_as_xyz
  1  'x, y, z'
loop_
 _atom_site_type_symbol
 _atom_site_label
 _atom_site_symmetry_multiplicity
 _atom_site_fract_x
 _atom_site_fract_y
 _atom_site_fract_z
 _atom_site_occupancy
  C  C0  1  0.63983800  0.42932400  0.80069700  1
  C  C1  1  0.13014100  0.80069700  0.42932400  1
  C  C2  1  0.82067600  0.61016200  0.11985900  1
  C  C3  1  0.44930300  0.11985900  0.61016200  1
  Ni  Ni4  1  0.50756700  0.68288900  0.55998400  1
  Ni  Ni5  1  0.24956000  0.55998400  0.68288900  1
  Ni  Ni6  1  0.56711100  0.74243300  0.00044000  1
  Ni  Ni7  1  0.69001600  0.00044000  0.74243300  1
  Cu  Cu8  1  0.74510400  0.68412500  0.55674700  1
  Cu  Cu9  1  0.01402400  0.55674700  0.68412500  1
  Cu  Cu10  1  0.56587500  0.50489600  0.23597600  1
  Cu  Cu11  1  0.69325300  0.23597600  0.50489600  1
  Cu  Cu12  1  0.00032900  0.99967100  0.99967100  1
  Cu  Cu13  1  0.25032900  0.24967100  0.24967100  1
  C  C14  1  0.14227800  0.21085700  0.99320500  1
  C  C15  1  0.65366000  0.99320500  0.21085700  1
  C  C16  1  0.03914300  0.10772200  0.59634000  1
  C  C17  1  0.25679500  0.59634000  0.10772200  1
  C  C18  1  0.63818500  0.66612200  0.76888700  1
  C  C19  1  0.92680700  0.76888700  0.66612200  1
  C  C20  1  0.58387800  0.61181500  0.32319300  1
  C  C21  1  0.48111300  0.32319300  0.61181500  1
  C  C22  1  0.63868300  0.73541000  0.48821000  1
  C  C23  1  0.13769800  0.48821000  0.73541000  1
  C  C24  1  0.51459000  0.61131700  0.11230200  1
  C  C25  1  0.76179000  0.11230200  0.61131700  1
  C  C26  1  0.62653500  0.44695800  0.57113100  1
  C  C27  1  0.35537600  0.57113100  0.44695800  1
  C  C28  1  0.80304200  0.62346500  0.89462400  1
  C  C29  1  0.67886900  0.89462400  0.62346500  1
  C  C30  1  0.01820600  0.44888800  0.33571100  1
  C  C31  1  0.19719500  0.33571100  0.44888800  1
  C  C32  1  0.80111200  0.23179400  0.05280500  1
  C  C33  1  0.91428900  0.05280500  0.23179400  1
  C  C34  1  0.32976600  0.02908000  0.20490500  1
  C  C35  1  0.43625000  0.20490500  0.02908000  1
  C  C36  1  0.22092000  0.92023400  0.81375000  1
  C  C37  1  0.04509500  0.81375000  0.92023400  1
