# generated using pymatgen
data_Cu13NiC6
_symmetry_space_group_name_H-M   'P 1'
_cell_length_a   8.09479000
_cell_length_b   8.09479000
_cell_length_c   13.12227260
_cell_angle_alpha   107.96506486
_cell_angle_beta   107.96506486
_cell_angle_gamma   90.00000000
_symmetry_Int_Tables_number   1
_chemical_formula_structural   Cu13NiC6
_chemical_formula_sum   'Cu26 Ni2 C12'
_cell_volume   773.73313426
_cell_formula_units_Z   2
loop_
 _symmetry_equiv_pos_site_id
 _symmetry_equiv_pos_as_xyz
  1  'x, y, z'
loop_
 _atom_site_type_symbol
 _atom_site_label
 _atom_site_symmetry_multiplicity
 _atom_site_fract_x
 _atom_site_fract_y
 _atom_site_fract_z
 _atom_site_occupancy
  C  C0  1  0.60432700  0.60432700  0.20865400  1
  C  C1  1  0.10432700  0.10432700  0.20865400  1
  C  C2  1  0.39567300  0.39567300  0.79134600  1
  C  C3  1  0.89567300  0.89567300  0.79134600  1
  C  C4  1  0.97891400  0.47891400  0.63097500  1
  C  C5  1  0.65206000  0.15206000  0.63097500  1
  C  C6  1  0.15206000  0.97891400  0.63097500  1
  C  C7  1  0.47891400  0.65206000  0.63097500  1
  C  C8  1  0.02108600  0.52108600  0.36902500  1
  C  C9  1  0.34794000  0.84794000  0.36902500  1
  C  C10  1  0.84794000  0.02108600  0.36902500  1
  C  C11  1  0.52108600  0.34794000  0.36902500  1
  Ni  Ni12  1  0.25000000  0.25000000  0.50000000  1
  Ni  Ni13  1  0.75000000  0.75000000  0.50000000  1
  Cu  Cu14  1  0.00000000  0.50000000  0.00000000  1
  Cu  Cu15  1  0.50000000  0.00000000  0.00000000  1
  Cu  Cu16  1  0.71003400  0.56650500  0.00000000  1
  Cu  Cu17  1  0.28996600  0.43349500  0.00000000  1
  Cu  Cu18  1  0.78996600  0.06650500  0.00000000  1
  Cu  Cu19  1  0.21003400  0.93349500  0.00000000  1
  Cu  Cu20  1  0.56650500  0.28996600  0.00000000  1
  Cu  Cu21  1  0.43349500  0.71003400  0.00000000  1
  Cu  Cu22  1  0.06650500  0.21003400  0.00000000  1
  Cu  Cu23  1  0.93349500  0.78996600  0.00000000  1
  Cu  Cu24  1  0.12067100  0.62067100  0.88318500  1
  Cu  Cu25  1  0.76251400  0.26251400  0.88318500  1
  Cu  Cu26  1  0.26251400  0.12067100  0.88318500  1
  Cu  Cu27  1  0.62067100  0.76251400  0.88318500  1
  Cu  Cu28  1  0.87932900  0.37932900  0.11681500  1
  Cu  Cu29  1  0.23748600  0.73748600  0.11681500  1
  Cu  Cu30  1  0.73748600  0.87932900  0.11681500  1
  Cu  Cu31  1  0.37932900  0.23748600  0.11681500  1
  Cu  Cu32  1  0.29371400  0.79371400  0.81303600  1
  Cu  Cu33  1  0.51932100  0.01932100  0.81303600  1
  Cu  Cu34  1  0.01932100  0.29371400  0.81303600  1
  Cu  Cu35  1  0.79371400  0.51932100  0.81303600  1
  Cu  Cu36  1  0.70628600  0.20628600  0.18696400  1
  Cu  Cu37  1  0.48067900  0.98067900  0.18696400  1
  Cu  Cu38  1  0.98067900  0.70628600  0.18696400  1
  Cu  Cu39  1  0.20628600  0.48067900  0.18696400  1
