# generated using pymatgen
data_Cu16NiC2
_symmetry_space_group_name_H-M   'P 1'
_cell_length_a   6.47215976
_cell_length_b   6.47215976
_cell_length_c   6.47215959
_cell_angle_alpha   82.75117038
_cell_angle_beta   82.75117038
_cell_angle_gamma   82.75117239
_symmetry_Int_Tables_number   1
_chemical_formula_structural   Cu16NiC2
_chemical_formula_sum   'Cu16 Ni1 C2'
_cell_volume   265.11508887
_cell_formula_units_Z   1
loop_
 _symmetry_equiv_pos_site_id
 _symmetry_equiv_pos_as_xyz
  1  'x, y, z'
loop_
 _atom_site_type_symbol
 _atom_site_label
 _atom_site_symmetry_multiplicity
 _atom_site_fract_x
 _atom_site_fract_y
 _atom_site_fract_z
 _atom_site_occupancy
  C  C0  1  0.65736900  0.65736900  0.65736900  1
  C  C1  1  0.34480300  0.34480300  0.34480300  1
  Ni  Ni2  1  0.09504700  0.09504700  0.09504700  1
  Cu  Cu3  1  0.71499300  0.28481800  0.00050600  1
  Cu  Cu4  1  0.00050600  0.71499300  0.28481800  1
  Cu  Cu5  1  0.28481800  0.00050600  0.71499300  1
  Cu  Cu6  1  0.00050600  0.28481800  0.71499300  1
  Cu  Cu7  1  0.71499300  0.00050600  0.28481800  1
  Cu  Cu8  1  0.28481800  0.71499300  0.00050600  1
  Cu  Cu9  1  0.99990600  0.99990600  0.50047600  1
  Cu  Cu10  1  0.50047600  0.99990600  0.99990600  1
  Cu  Cu11  1  0.99990600  0.50047600  0.99990600  1
  Cu  Cu12  1  0.34137100  0.34137100  0.84513500  1
  Cu  Cu13  1  0.84513500  0.34137100  0.34137100  1
  Cu  Cu14  1  0.34137100  0.84513500  0.34137100  1
  Cu  Cu15  1  0.65869000  0.65869000  0.15548400  1
  Cu  Cu16  1  0.15548400  0.65869000  0.65869000  1
  Cu  Cu17  1  0.65869000  0.15548400  0.65869000  1
  Cu  Cu18  1  0.90111900  0.90111900  0.90111900  1
