# generated using pymatgen
data_Cu4Ni3
_symmetry_space_group_name_H-M   'P 1'
_cell_length_a   7.13454233
_cell_length_b   7.13454233
_cell_length_c   7.03989000
_cell_angle_alpha   90.00000000
_cell_angle_beta   90.00000000
_cell_angle_gamma   120.00000308
_symmetry_Int_Tables_number   1
_chemical_formula_structural   Cu4Ni3
_chemical_formula_sum   'Cu16 Ni12'
_cell_volume   310.33355020
_cell_formula_units_Z   4
loop_
 _symmetry_equiv_pos_site_id
 _symmetry_equiv_pos_as_xyz
  1  'x, y, z'
loop_
 _atom_site_type_symbol
 _atom_site_label
 _atom_site_symmetry_multiplicity
 _atom_site_fract_x
 _atom_site_fract_y
 _atom_site_fract_z
 _atom_site_occupancy
  Ni  Ni0  1  0.09519200  0.54759600  0.00000000  1
  Ni  Ni1  1  0.45240400  0.90480800  0.00000000  1
  Ni  Ni2  1  0.45240400  0.54759600  0.00000000  1
  Ni  Ni3  1  0.77937500  0.55875000  0.00000000  1
  Ni  Ni4  1  0.77937500  0.22062500  0.00000000  1
  Ni  Ni5  1  0.44125000  0.22062500  0.00000000  1
  Ni  Ni6  1  0.11247400  0.22494900  0.50000000  1
  Ni  Ni7  1  0.11247400  0.88752600  0.50000000  1
  Ni  Ni8  1  0.77505100  0.88752600  0.50000000  1
  Ni  Ni9  1  0.78639900  0.21360100  0.50000000  1
  Ni  Ni10  1  0.42720200  0.21360100  0.50000000  1
  Ni  Ni11  1  0.78639900  0.57279800  0.50000000  1
  Cu  Cu12  1  0.33333300  0.66666700  0.00000000  1
  Cu  Cu13  1  0.66842900  0.00527300  0.00000000  1
  Cu  Cu14  1  0.33684400  0.33157100  0.00000000  1
  Cu  Cu15  1  0.99472700  0.66315600  0.00000000  1
  Cu  Cu16  1  0.66666700  0.33333300  0.00000000  1
  Cu  Cu17  1  0.00195300  0.32974500  0.50000000  1
  Cu  Cu18  1  0.32779200  0.99804700  0.50000000  1
  Cu  Cu19  1  0.67025500  0.67220800  0.50000000  1
  Cu  Cu20  1  0.00000000  0.00000000  0.50000000  1
  Cu  Cu21  1  0.66666700  0.33333300  0.50000000  1
  Cu  Cu22  1  0.99472700  0.33157100  0.00000000  1
  Cu  Cu23  1  0.33684400  0.00527300  0.00000000  1
  Cu  Cu24  1  0.66842900  0.66315600  0.00000000  1
  Cu  Cu25  1  0.67025500  0.99804700  0.50000000  1
  Cu  Cu26  1  0.32779200  0.32974500  0.50000000  1
  Cu  Cu27  1  0.00195300  0.67220800  0.50000000  1
