# generated using pymatgen
data_CuNi14C
_symmetry_space_group_name_H-M   'P 1'
_cell_length_a   6.28928488
_cell_length_b   6.28928439
_cell_length_c   10.36941187
_cell_angle_alpha   90.00000000
_cell_angle_beta   90.00000000
_cell_angle_gamma   120.00000259
_symmetry_Int_Tables_number   1
_chemical_formula_structural   CuNi14C
_chemical_formula_sum   'Cu1 Ni14 C1'
_cell_volume   355.21168622
_cell_formula_units_Z   1
loop_
 _symmetry_equiv_pos_site_id
 _symmetry_equiv_pos_as_xyz
  1  'x, y, z'
loop_
 _atom_site_type_symbol
 _atom_site_label
 _atom_site_symmetry_multiplicity
 _atom_site_fract_x
 _atom_site_fract_y
 _atom_site_fract_z
 _atom_site_occupancy
  Ni  Ni0  1  0.16516579  0.83258239  0.12500000  1
  Ni  Ni1  1  0.16556665  0.83278283  0.62500000  1
  Ni  Ni2  1  0.66741761  0.33483421  0.12500000  1
  Ni  Ni3  1  0.66721717  0.33443335  0.62500000  1
  Ni  Ni4  1  0.66741761  0.83258239  0.12500000  1
  Ni  Ni5  1  0.66721717  0.83278283  0.62500000  1
  Ni  Ni6  1  0.33211538  0.16788462  0.37356250  1
  Ni  Ni7  1  0.33211538  0.16788462  0.87643750  1
  Ni  Ni8  1  0.33211538  0.66423177  0.37356250  1
  Ni  Ni9  1  0.33211538  0.66423177  0.87643750  1
  Ni  Ni10  1  0.83576823  0.16788462  0.37356250  1
  Ni  Ni11  1  0.83576823  0.16788462  0.87643750  1
  Ni  Ni12  1  0.83333300  0.66666700  0.37468374  1
  Ni  Ni13  1  0.83333300  0.66666700  0.87531626  1
  C  C14  1  0.16666700  0.33333300  0.12500000  1
  Cu  Cu15  1  0.16666700  0.33333300  0.62500000  1
