# generated using pymatgen
data_CuNiC17
_symmetry_space_group_name_H-M   'P 1'
_cell_length_a   8.66099400
_cell_length_b   8.74193800
_cell_length_c   12.12023600
_cell_angle_alpha   90.00000000
_cell_angle_beta   90.00000000
_cell_angle_gamma   90.00000000
_symmetry_Int_Tables_number   1
_chemical_formula_structural   CuNiC17
_chemical_formula_sum   'Cu4 Ni4 C68'
_cell_volume   917.67000398
_cell_formula_units_Z   4
loop_
 _symmetry_equiv_pos_site_id
 _symmetry_equiv_pos_as_xyz
  1  'x, y, z'
loop_
 _atom_site_type_symbol
 _atom_site_label
 _atom_site_symmetry_multiplicity
 _atom_site_fract_x
 _atom_site_fract_y
 _atom_site_fract_z
 _atom_site_occupancy
  C  C0  1  0.46515900  0.78200700  0.68327600  1
  C  C1  1  0.53314600  0.27735400  0.81863200  1
  C  C2  1  0.53484100  0.21799300  0.18327600  1
  C  C3  1  0.46685400  0.72264600  0.31863200  1
  C  C4  1  0.03314600  0.22264600  0.31863200  1
  C  C5  1  0.96515900  0.71799300  0.18327600  1
  C  C6  1  0.96685400  0.77735400  0.81863200  1
  C  C7  1  0.03484100  0.28200700  0.68327600  1
  Ni  Ni8  1  0.50328600  0.46297700  0.61072400  1
  Ni  Ni9  1  0.49671400  0.53702300  0.11072400  1
  Ni  Ni10  1  0.00328600  0.03702300  0.11072400  1
  Ni  Ni11  1  0.99671400  0.96297700  0.61072400  1
  Cu  Cu12  1  0.49820800  0.96318200  0.88826100  1
  Cu  Cu13  1  0.50179200  0.03681800  0.38826100  1
  Cu  Cu14  1  0.99820800  0.53681800  0.38826100  1
  Cu  Cu15  1  0.00179200  0.46318200  0.88826100  1
  C  C16  1  0.71111500  0.74839800  0.49889500  1
  C  C17  1  0.28888500  0.25160200  0.99889500  1
  C  C18  1  0.78888500  0.24839800  0.49889500  1
  C  C19  1  0.21111500  0.75160200  0.99889500  1
  C  C20  1  0.64538100  0.60885900  0.85210600  1
  C  C21  1  0.35370100  0.10743100  0.64588900  1
  C  C22  1  0.35461900  0.39114100  0.35210600  1
  C  C23  1  0.64629900  0.89256900  0.14588900  1
  C  C24  1  0.85370100  0.39256900  0.14588900  1
  C  C25  1  0.14538100  0.89114100  0.35210600  1
  C  C26  1  0.14629900  0.60743100  0.64588900  1
  C  C27  1  0.85461900  0.10885900  0.85210600  1
  C  C28  1  0.42335600  0.99172600  0.72780700  1
  C  C29  1  0.57540400  0.48764500  0.77228300  1
  C  C30  1  0.57664400  0.00827400  0.22780700  1
  C  C31  1  0.42459600  0.51235500  0.27228300  1
  C  C32  1  0.07540400  0.01235500  0.27228300  1
  C  C33  1  0.92335600  0.50827400  0.22780700  1
  C  C34  1  0.92459600  0.98764500  0.77228300  1
  C  C35  1  0.07664400  0.49172600  0.72780700  1
  C  C36  1  0.58518700  0.76845000  0.82126000  1
  C  C37  1  0.41064300  0.27325700  0.67508000  1
  C  C38  1  0.41481300  0.23155000  0.32126000  1
  C  C39  1  0.58935700  0.72674300  0.17508000  1
  C  C40  1  0.91064300  0.22674300  0.17508000  1
  C  C41  1  0.08518700  0.73155000  0.32126000  1
  C  C42  1  0.08935700  0.77325700  0.67508000  1
  C  C43  1  0.91481300  0.26845000  0.82126000  1
  C  C44  1  0.58982500  0.56364800  0.97089900  1
  C  C45  1  0.40192300  0.06503000  0.52945000  1
  C  C46  1  0.41017500  0.43635200  0.47089900  1
  C  C47  1  0.59807700  0.93497000  0.02945000  1
  C  C48  1  0.90192300  0.43497000  0.02945000  1
  C  C49  1  0.08982500  0.93635200  0.47089900  1
  C  C50  1  0.09807700  0.56503000  0.52945000  1
  C  C51  1  0.91017500  0.06364800  0.97089900  1
  C  C52  1  0.60487900  0.66074600  0.58227700  1
  C  C53  1  0.39821000  0.16556400  0.92124500  1
  C  C54  1  0.39512100  0.33925400  0.08227700  1
  C  C55  1  0.60179000  0.83443600  0.42124500  1
  C  C56  1  0.89821000  0.33443600  0.42124500  1
  C  C57  1  0.10487900  0.83925400  0.08227700  1
  C  C58  1  0.10179000  0.66556400  0.92124500  1
  C  C59  1  0.89512100  0.16074600  0.58227700  1
  C  C60  1  0.32571500  0.60540000  0.65544000  1
  C  C61  1  0.67799300  0.10802100  0.84564300  1
  C  C62  1  0.67428500  0.39460000  0.15544000  1
  C  C63  1  0.32200700  0.89197900  0.34564300  1
  C  C64  1  0.17799300  0.39197900  0.34564300  1
  C  C65  1  0.82571500  0.89460000  0.15544000  1
  C  C66  1  0.82200700  0.60802100  0.84564300  1
  C  C67  1  0.17428500  0.10540000  0.65544000  1
  C  C68  1  0.30855900  0.86134200  0.93207400  1
  C  C69  1  0.68744600  0.35869800  0.56876000  1
  C  C70  1  0.69144100  0.13865800  0.43207400  1
  C  C71  1  0.31255400  0.64130200  0.06876000  1
  C  C72  1  0.18744600  0.14130200  0.06876000  1
  C  C73  1  0.80855900  0.63865800  0.43207400  1
  C  C74  1  0.81255400  0.85869800  0.56876000  1
  C  C75  1  0.19144100  0.36134200  0.93207400  1
