# generated using pymatgen
data_CuNi2C
_symmetry_space_group_name_H-M   'P 1'
_cell_length_a   5.84778900
_cell_length_b   5.90191700
_cell_length_c   20.83891200
_cell_angle_alpha   90.00000000
_cell_angle_beta   90.00000000
_cell_angle_gamma   90.00000000
_symmetry_Int_Tables_number   1
_chemical_formula_structural   CuNi2C
_chemical_formula_sum   'Cu8 Ni16 C8'
_cell_volume   719.21681477
_cell_formula_units_Z   8
loop_
 _symmetry_equiv_pos_site_id
 _symmetry_equiv_pos_as_xyz
  1  'x, y, z'
loop_
 _atom_site_type_symbol
 _atom_site_label
 _atom_site_symmetry_multiplicity
 _atom_site_fract_x
 _atom_site_fract_y
 _atom_site_fract_z
 _atom_site_occupancy
  C  C0  1  0.25000000  0.98447100  0.62044500  1
  C  C1  1  0.75000000  0.01552900  0.37955500  1
  C  C2  1  0.75000000  0.98447100  0.87955500  1
  C  C3  1  0.25000000  0.01552900  0.12044500  1
  C  C4  1  0.75000000  0.48569400  0.61644500  1
  C  C5  1  0.25000000  0.51430600  0.38355500  1
  C  C6  1  0.25000000  0.48569400  0.88355500  1
  C  C7  1  0.75000000  0.51430600  0.11644500  1
  Ni  Ni8  1  0.75000000  0.98554900  0.66040700  1
  Ni  Ni9  1  0.25000000  0.01445100  0.33959300  1
  Ni  Ni10  1  0.25000000  0.98554900  0.83959300  1
  Ni  Ni11  1  0.75000000  0.01445100  0.16040700  1
  Ni  Ni12  1  0.25000000  0.48512000  0.65910600  1
  Ni  Ni13  1  0.75000000  0.51488000  0.34089400  1
  Ni  Ni14  1  0.75000000  0.48512000  0.84089400  1
  Ni  Ni15  1  0.25000000  0.51488000  0.15910600  1
  Ni  Ni16  1  0.02861500  0.22278300  0.50081300  1
  Ni  Ni17  1  0.52861500  0.77721700  0.49918700  1
  Ni  Ni18  1  0.97138500  0.22278300  0.99918700  1
  Ni  Ni19  1  0.47138500  0.77721700  0.00081300  1
  Ni  Ni20  1  0.97138500  0.77721700  0.49918700  1
  Ni  Ni21  1  0.47138500  0.22278300  0.50081300  1
  Ni  Ni22  1  0.02861500  0.77721700  0.00081300  1
  Ni  Ni23  1  0.52861500  0.22278300  0.99918700  1
  Cu  Cu24  1  0.50000000  0.73130400  0.75000000  1
  Cu  Cu25  1  0.00000000  0.26869600  0.25000000  1
  Cu  Cu26  1  0.50000000  0.26869600  0.25000000  1
  Cu  Cu27  1  0.00000000  0.73130400  0.75000000  1
  Cu  Cu28  1  0.50000000  0.23430200  0.75000000  1
  Cu  Cu29  1  0.00000000  0.76569800  0.25000000  1
  Cu  Cu30  1  0.50000000  0.76569800  0.25000000  1
  Cu  Cu31  1  0.00000000  0.23430200  0.75000000  1
