# generated using pymatgen
data_Cu12Ni2C9
_symmetry_space_group_name_H-M   'P 1'
_cell_length_a   6.51130200
_cell_length_b   8.29334300
_cell_length_c   13.53076100
_cell_angle_alpha   90.00000000
_cell_angle_beta   90.00000000
_cell_angle_gamma   90.00000000
_symmetry_Int_Tables_number   1
_chemical_formula_structural   Cu12Ni2C9
_chemical_formula_sum   'Cu24 Ni4 C18'
_cell_volume   730.66732982
_cell_formula_units_Z   2
loop_
 _symmetry_equiv_pos_site_id
 _symmetry_equiv_pos_as_xyz
  1  'x, y, z'
loop_
 _atom_site_type_symbol
 _atom_site_label
 _atom_site_symmetry_multiplicity
 _atom_site_fract_x
 _atom_site_fract_y
 _atom_site_fract_z
 _atom_site_occupancy
  C  C0  1  0.32771100  0.50000000  0.86067200  1
  C  C1  1  0.67228900  0.50000000  0.13932800  1
  C  C2  1  0.82771100  0.00000000  0.63932800  1
  C  C3  1  0.17228900  0.00000000  0.36067200  1
  C  C4  1  0.50000000  0.50000000  0.50000000  1
  C  C5  1  0.00000000  0.00000000  0.00000000  1
  C  C6  1  0.16465700  0.50000000  0.30885300  1
  C  C7  1  0.83534300  0.50000000  0.69114700  1
  C  C8  1  0.66465700  0.00000000  0.19114700  1
  C  C9  1  0.33534300  0.00000000  0.80885300  1
  C  C10  1  0.02197000  0.40147700  0.39024200  1
  C  C11  1  0.97803000  0.40147700  0.60975800  1
  C  C12  1  0.52197000  0.09852300  0.10975800  1
  C  C13  1  0.47803000  0.09852300  0.89024200  1
  C  C14  1  0.97803000  0.59852300  0.60975800  1
  C  C15  1  0.02197000  0.59852300  0.39024200  1
  C  C16  1  0.47803000  0.90147700  0.89024200  1
  C  C17  1  0.52197000  0.90147700  0.10975800  1
  Ni  Ni18  1  0.11561600  0.50000000  0.38044400  1
  Ni  Ni19  1  0.88438400  0.50000000  0.61955600  1
  Ni  Ni20  1  0.61561600  0.00000000  0.11955600  1
  Ni  Ni21  1  0.38438400  0.00000000  0.88044400  1
  Cu  Cu22  1  0.32676600  0.18530600  0.64127000  1
  Cu  Cu23  1  0.67323400  0.18530600  0.35873000  1
  Cu  Cu24  1  0.82676600  0.31469400  0.85873000  1
  Cu  Cu25  1  0.17323400  0.31469400  0.14127000  1
  Cu  Cu26  1  0.67323400  0.81469400  0.35873000  1
  Cu  Cu27  1  0.32676600  0.81469400  0.64127000  1
  Cu  Cu28  1  0.17323400  0.68530600  0.14127000  1
  Cu  Cu29  1  0.82676600  0.68530600  0.85873000  1
  Cu  Cu30  1  0.47966900  0.28804200  0.67022000  1
  Cu  Cu31  1  0.52033100  0.28804200  0.32978000  1
  Cu  Cu32  1  0.97966900  0.21195800  0.82978000  1
  Cu  Cu33  1  0.02033100  0.21195800  0.17022000  1
  Cu  Cu34  1  0.52033100  0.71195800  0.32978000  1
  Cu  Cu35  1  0.47966900  0.71195800  0.67022000  1
  Cu  Cu36  1  0.02033100  0.78804200  0.17022000  1
  Cu  Cu37  1  0.97966900  0.78804200  0.82978000  1
  Cu  Cu38  1  0.22532000  0.23487600  0.55767200  1
  Cu  Cu39  1  0.77468000  0.23487600  0.44232800  1
  Cu  Cu40  1  0.72532000  0.26512400  0.94232800  1
  Cu  Cu41  1  0.27468000  0.26512400  0.05767200  1
  Cu  Cu42  1  0.77468000  0.76512400  0.44232800  1
  Cu  Cu43  1  0.22532000  0.76512400  0.55767200  1
  Cu  Cu44  1  0.27468000  0.73487600  0.05767200  1
  Cu  Cu45  1  0.72532000  0.73487600  0.94232800  1
