# generated using pymatgen
data_Cu7(Ni4C19)3
_symmetry_space_group_name_H-M   'P 1'
_cell_length_a   5.07085400
_cell_length_b   10.24664077
_cell_length_c   17.34732324
_cell_angle_alpha   89.81791277
_cell_angle_beta   89.80283538
_cell_angle_gamma   89.97784582
_symmetry_Int_Tables_number   1
_chemical_formula_structural   Cu7(Ni4C19)3
_chemical_formula_sum   'Cu7 Ni12 C57'
_cell_volume   901.34342065
_cell_formula_units_Z   1
loop_
 _symmetry_equiv_pos_site_id
 _symmetry_equiv_pos_as_xyz
  1  'x, y, z'
loop_
 _atom_site_type_symbol
 _atom_site_label
 _atom_site_symmetry_multiplicity
 _atom_site_fract_x
 _atom_site_fract_y
 _atom_site_fract_z
 _atom_site_occupancy
  C  C0  1  0.09459100  0.24959600  0.24858000  1
  C  C1  1  0.24545700  0.42109900  0.97200500  1
  C  C2  1  0.24938000  0.57878600  0.47493400  1
  C  C3  1  0.24938400  0.92132000  0.47521400  1
  C  C4  1  0.25456000  0.25109900  0.80264000  1
  C  C5  1  0.74812600  0.75101700  0.19367400  1
  C  C6  1  0.75386500  0.92171800  0.02796200  1
  C  C7  1  0.75978800  0.25092400  0.69814200  1
  C  C8  1  0.90517500  0.74985700  0.74817700  1
  Ni  Ni9  1  0.22663400  0.74918000  0.94373000  1
  Ni  Ni10  1  0.22676700  0.02896200  0.65443900  1
  Ni  Ni11  1  0.22645400  0.47099800  0.65415100  1
  Ni  Ni12  1  0.27977700  0.52755700  0.15383400  1
  Ni  Ni13  1  0.27692600  0.97229300  0.15656000  1
  Ni  Ni14  1  0.28062600  0.25020500  0.44459500  1
  Ni  Ni15  1  0.72010800  0.75001500  0.55727500  1
  Ni  Ni16  1  0.72319700  0.47328100  0.84425800  1
  Ni  Ni17  1  0.72016900  0.02819200  0.84606100  1
  Ni  Ni18  1  0.77106300  0.53002000  0.34334700  1
  Ni  Ni19  1  0.77133500  0.97071000  0.34410600  1
  Ni  Ni20  1  0.77356100  0.24891800  0.05613600  1
  Cu  Cu21  1  0.25682000  0.75604100  0.30930000  1
  Cu  Cu22  1  0.24509800  0.06944700  0.97540700  1
  Cu  Cu23  1  0.40668100  0.74973800  0.75063200  1
  Cu  Cu24  1  0.59191200  0.25006200  0.24767100  1
  Cu  Cu25  1  0.75411600  0.06976600  0.52685500  1
  Cu  Cu26  1  0.75352900  0.43047900  0.52659700  1
  Cu  Cu27  1  0.75457500  0.56948700  0.02474500  1
  C  C28  1  0.04995600  0.24314900  0.00120200  1
  C  C29  1  0.04989600  0.61144300  0.36596400  1
  C  C30  1  0.05062500  0.89042700  0.36803800  1
  C  C31  1  0.10201600  0.62418800  0.20858100  1
  C  C32  1  0.09616200  0.87266800  0.21201700  1
  C  C33  1  0.09629000  0.12111600  0.46575300  1
  C  C34  1  0.09597200  0.37904000  0.46563000  1
  C  C35  1  0.09575700  0.00511100  0.07801200  1
  C  C36  1  0.09192200  0.49688300  0.07703200  1
  C  C37  1  0.16703700  0.74845800  0.84863100  1
  C  C38  1  0.16765900  0.61150900  0.70127400  1
  C  C39  1  0.16774700  0.88807100  0.70172400  1
  C  C40  1  0.34594100  0.11136300  0.20379700  1
  C  C41  1  0.34668900  0.38854800  0.20158400  1
  C  C42  1  0.35312000  0.25034000  0.35085600  1
  C  C43  1  0.41294100  0.49962600  0.57631100  1
  C  C44  1  0.41354100  0.00087300  0.57665100  1
  C  C45  1  0.39753300  0.88304600  0.96565000  1
  C  C46  1  0.41786800  0.62343500  0.96596300  1
  C  C47  1  0.39691300  0.12578900  0.70966600  1
  C  C48  1  0.39894600  0.37361300  0.70880700  1
  C  C49  1  0.44289300  0.10837400  0.87446700  1
  C  C50  1  0.45276500  0.39320300  0.87007300  1
  C  C51  1  0.45679300  0.75013500  0.50074300  1
  C  C52  1  0.55898700  0.25007900  0.50218400  1
  C  C53  1  0.55760100  0.60726400  0.12594000  1
  C  C54  1  0.54809000  0.89503400  0.13033000  1
  C  C55  1  0.57441300  0.62569100  0.29200200  1
  C  C56  1  0.57490400  0.87467600  0.29309600  1
  C  C57  1  0.58220100  0.12342200  0.03397700  1
  C  C58  1  0.60271000  0.38272500  0.03423500  1
  C  C59  1  0.60466500  0.00526700  0.42411600  1
  C  C60  1  0.60480800  0.49539700  0.42379900  1
  C  C61  1  0.64390700  0.75029400  0.65133000  1
  C  C62  1  0.65266000  0.61205500  0.79582100  1
  C  C63  1  0.65219000  0.88960600  0.79845200  1
  C  C64  1  0.83130300  0.10934400  0.29599400  1
  C  C65  1  0.83109000  0.39096000  0.29567300  1
  C  C66  1  0.83425400  0.24818600  0.15122200  1
  C  C67  1  0.90439400  0.50592800  0.92297600  1
  C  C68  1  0.90870800  0.99713700  0.92289000  1
  C  C69  1  0.90361700  0.61852200  0.53625400  1
  C  C70  1  0.90355700  0.88158500  0.53617200  1
  C  C71  1  0.89309900  0.12539300  0.79048600  1
  C  C72  1  0.90622800  0.37714200  0.79021100  1
  C  C73  1  0.94486600  0.10624300  0.62741000  1
  C  C74  1  0.94467300  0.39351500  0.62717400  1
  C  C75  1  0.95041800  0.74335900  0.99880100  1
