# generated using pymatgen
data_Cu(NiC2)2
_symmetry_space_group_name_H-M   'P 1'
_cell_length_a   14.80998835
_cell_length_b   12.25379237
_cell_length_c   12.04080265
_cell_angle_alpha   75.11546411
_cell_angle_beta   53.09549848
_cell_angle_gamma   51.78903741
_symmetry_Int_Tables_number   1
_chemical_formula_structural   Cu(NiC2)2
_chemical_formula_sum   'Cu8 Ni16 C32'
_cell_volume   1349.92571395
_cell_formula_units_Z   8
loop_
 _symmetry_equiv_pos_site_id
 _symmetry_equiv_pos_as_xyz
  1  'x, y, z'
loop_
 _atom_site_type_symbol
 _atom_site_label
 _atom_site_symmetry_multiplicity
 _atom_site_fract_x
 _atom_site_fract_y
 _atom_site_fract_z
 _atom_site_occupancy
  Ni  Ni0  1  0.48959300  0.75981300  0.73706900  1
  Ni  Ni1  1  0.75981300  0.48959300  0.01352500  1
  Ni  Ni2  1  0.73706900  0.01352500  0.48959300  1
  Ni  Ni3  1  0.01352500  0.73706900  0.75981300  1
  Ni  Ni4  1  0.76040700  0.49018700  0.51293100  1
  Ni  Ni5  1  0.49018700  0.76040700  0.23647500  1
  Ni  Ni6  1  0.51293100  0.23647500  0.76040700  1
  Ni  Ni7  1  0.23647500  0.51293100  0.49018700  1
  Ni  Ni8  1  0.98491600  0.26491600  0.65539800  1
  Ni  Ni9  1  0.26491600  0.98491600  0.09477000  1
  Ni  Ni10  1  0.65539800  0.09477000  0.98491600  1
  Ni  Ni11  1  0.09477000  0.65539800  0.26491600  1
  Ni  Ni12  1  0.26508400  0.98508400  0.59460200  1
  Ni  Ni13  1  0.98508400  0.26508400  0.15523000  1
  Ni  Ni14  1  0.59460200  0.15523000  0.26508400  1
  Ni  Ni15  1  0.15523000  0.59460200  0.98508400  1
  Cu  Cu16  1  0.49642700  0.49642700  0.00357300  1
  Cu  Cu17  1  0.00357400  0.00357400  0.49642600  1
  Cu  Cu18  1  0.75357400  0.75357400  0.24642600  1
  Cu  Cu19  1  0.24642700  0.24642700  0.75357400  1
  Cu  Cu20  1  0.25000000  0.25000000  0.25000000  1
  Cu  Cu21  1  0.00000000  0.00000000  0.00000000  1
  Cu  Cu22  1  0.75000000  0.75000000  0.75000000  1
  Cu  Cu23  1  0.50000000  0.50000000  0.50000000  1
  C  C24  1  0.47178000  0.27620400  0.96613000  1
  C  C25  1  0.27620400  0.47178000  0.28588500  1
  C  C26  1  0.96613000  0.28588500  0.47178000  1
  C  C27  1  0.28588500  0.96613000  0.27620400  1
  C  C28  1  0.77822000  0.97379600  0.28387000  1
  C  C29  1  0.97379600  0.77822000  0.96411500  1
  C  C30  1  0.28387000  0.96411500  0.77822000  1
  C  C31  1  0.96411500  0.28387000  0.97379600  1
  C  C32  1  0.46824300  0.77962900  0.93950200  1
  C  C33  1  0.77962800  0.46824300  0.81262600  1
  C  C34  1  0.93950200  0.81262600  0.46824300  1
  C  C35  1  0.81262600  0.93950200  0.77962800  1
  C  C36  1  0.78175700  0.47037200  0.31049800  1
  C  C37  1  0.47037200  0.78175700  0.43737400  1
  C  C38  1  0.31049800  0.43737400  0.78175700  1
  C  C39  1  0.43737400  0.31049800  0.47037100  1
  C  C40  1  0.04204900  0.54354900  0.70812500  1
  C  C41  1  0.54354900  0.04204900  0.70627800  1
  C  C42  1  0.70812500  0.70627800  0.04204900  1
  C  C43  1  0.70627800  0.70812500  0.54354900  1
  C  C44  1  0.20795100  0.70645100  0.54187500  1
  C  C45  1  0.70645100  0.20795100  0.54372200  1
  C  C46  1  0.54187500  0.54372200  0.20795100  1
  C  C47  1  0.54372200  0.54187500  0.70645100  1
  C  C48  1  0.20786300  0.70602800  0.04214000  1
  C  C49  1  0.70602800  0.20786300  0.04396900  1
  C  C50  1  0.04214000  0.04396900  0.20786300  1
  C  C51  1  0.04396900  0.04214000  0.70602800  1
  C  C52  1  0.04213700  0.54397200  0.20786000  1
  C  C53  1  0.54397200  0.04213700  0.20603100  1
  C  C54  1  0.20786000  0.20603100  0.04213700  1
  C  C55  1  0.20603100  0.20786000  0.54397200  1
