# generated using pymatgen
data_Cu3NiC2
_symmetry_space_group_name_H-M   'P 1'
_cell_length_a   5.30458073
_cell_length_b   5.30458073
_cell_length_c   9.98277302
_cell_angle_alpha   74.46684544
_cell_angle_beta   74.46684544
_cell_angle_gamma   43.54657027
_symmetry_Int_Tables_number   1
_chemical_formula_structural   Cu3NiC2
_chemical_formula_sum   'Cu6 Ni2 C4'
_cell_volume   185.30401918
_cell_formula_units_Z   2
loop_
 _symmetry_equiv_pos_site_id
 _symmetry_equiv_pos_as_xyz
  1  'x, y, z'
loop_
 _atom_site_type_symbol
 _atom_site_label
 _atom_site_symmetry_multiplicity
 _atom_site_fract_x
 _atom_site_fract_y
 _atom_site_fract_z
 _atom_site_occupancy
  C  C0  1  0.27843500  0.27843500  0.20556500  1
  C  C1  1  0.72156500  0.72156500  0.79443500  1
  C  C2  1  0.88086600  0.88086600  0.43068500  1
  C  C3  1  0.11913400  0.11913400  0.56931500  1
  Ni  Ni4  1  0.61498100  0.61498100  0.09429700  1
  Ni  Ni5  1  0.38501900  0.38501900  0.90570300  1
  Cu  Cu6  1  0.84924300  0.84924300  0.25404600  1
  Cu  Cu7  1  0.15075700  0.15075700  0.74595400  1
  Cu  Cu8  1  0.66759400  0.66759400  0.56451800  1
  Cu  Cu9  1  0.33240600  0.33240600  0.43548200  1
  Cu  Cu10  1  0.92259600  0.92259600  0.62374600  1
  Cu  Cu11  1  0.07740400  0.07740400  0.37625400  1
