# generated using pymatgen
data_Cu(NiC5)3
_symmetry_space_group_name_H-M   'P 1'
_cell_length_a   15.08045800
_cell_length_b   7.50567900
_cell_length_c   9.81749348
_cell_angle_alpha   84.45465934
_cell_angle_beta   90.00000000
_cell_angle_gamma   90.00000000
_symmetry_Int_Tables_number   1
_chemical_formula_structural   Cu(NiC5)3
_chemical_formula_sum   'Cu4 Ni12 C60'
_cell_volume   1106.03249821
_cell_formula_units_Z   4
loop_
 _symmetry_equiv_pos_site_id
 _symmetry_equiv_pos_as_xyz
  1  'x, y, z'
loop_
 _atom_site_type_symbol
 _atom_site_label
 _atom_site_symmetry_multiplicity
 _atom_site_fract_x
 _atom_site_fract_y
 _atom_site_fract_z
 _atom_site_occupancy
  C  C0  1  0.24412500  0.25539800  0.80226700  1
  C  C1  1  0.74412500  0.74460200  0.69773300  1
  C  C2  1  0.75587500  0.74460200  0.19773300  1
  C  C3  1  0.25587500  0.25539800  0.30226700  1
  C  C4  1  0.34822700  0.49687600  0.09320800  1
  C  C5  1  0.84822700  0.50312400  0.40679200  1
  C  C6  1  0.65177300  0.50312400  0.90679200  1
  C  C7  1  0.15177300  0.49687600  0.59320800  1
  C  C8  1  0.05144000  0.26834000  0.05089400  1
  C  C9  1  0.55144000  0.73166000  0.44910600  1
  C  C10  1  0.94856000  0.73166000  0.94910600  1
  C  C11  1  0.44856000  0.26834000  0.55089400  1
  C  C12  1  0.12886000  0.78299000  0.18532800  1
  C  C13  1  0.62886000  0.21701000  0.31467200  1
  C  C14  1  0.87114000  0.21701000  0.81467200  1
  C  C15  1  0.37114000  0.78299000  0.68532800  1
  C  C16  1  0.07726600  0.76932600  0.02513800  1
  C  C17  1  0.57726600  0.23067400  0.47486200  1
  C  C18  1  0.92273400  0.23067400  0.97486200  1
  C  C19  1  0.42273400  0.76932600  0.52513800  1
  C  C20  1  0.47157200  0.32544700  0.59957000  1
  C  C21  1  0.97157200  0.67455300  0.90043000  1
  C  C22  1  0.52842800  0.67455300  0.40043000  1
  C  C23  1  0.02842800  0.32544700  0.09957000  1
  C  C24  1  0.06829000  0.40795300  0.85254300  1
  C  C25  1  0.56829000  0.59204700  0.64745700  1
  C  C26  1  0.93171000  0.59204700  0.14745700  1
  C  C27  1  0.43171000  0.40795300  0.35254300  1
  C  C28  1  0.00382400  0.42064000  0.72920700  1
  C  C29  1  0.50382400  0.57936000  0.77079300  1
  C  C30  1  0.99617600  0.57936000  0.27079300  1
  C  C31  1  0.49617600  0.42064000  0.22920700  1
  Ni  Ni32  1  0.16554800  0.96917800  0.02107200  1
  Ni  Ni33  1  0.66554800  0.03082200  0.47892800  1
  Ni  Ni34  1  0.83445200  0.03082200  0.97892800  1
  Ni  Ni35  1  0.33445200  0.96917800  0.52107200  1
  Ni  Ni36  1  0.32611800  0.44667700  0.99799100  1
  Ni  Ni37  1  0.82611800  0.55332300  0.50200900  1
  Ni  Ni38  1  0.67388200  0.55332300  0.00200900  1
  Ni  Ni39  1  0.17388200  0.44667700  0.49799100  1
  Ni  Ni40  1  0.34400000  0.54221700  0.86278300  1
  Ni  Ni41  1  0.84400000  0.45778300  0.63721700  1
  Ni  Ni42  1  0.65600000  0.45778300  0.13721700  1
  Ni  Ni43  1  0.15600000  0.54221700  0.36278300  1
  Cu  Cu44  1  0.13751900  0.05842300  0.86140900  1
  Cu  Cu45  1  0.63751900  0.94157700  0.63859100  1
  Cu  Cu46  1  0.86248100  0.94157700  0.13859100  1
  Cu  Cu47  1  0.36248100  0.05842300  0.36140900  1
  C  C48  1  0.28297100  0.29390600  0.99634500  1
  C  C49  1  0.78297100  0.70609400  0.50365500  1
  C  C50  1  0.71702900  0.70609400  0.00365500  1
  C  C51  1  0.21702900  0.29390600  0.49634500  1
  C  C52  1  0.24776800  0.21208600  0.10598200  1
  C  C53  1  0.74776800  0.78791400  0.39401800  1
  C  C54  1  0.75223200  0.78791400  0.89401800  1
  C  C55  1  0.25223200  0.21208600  0.60598200  1
  C  C56  1  0.12234100  0.83092800  0.08172000  1
  C  C57  1  0.62234100  0.16907200  0.41828000  1
  C  C58  1  0.87765900  0.16907200  0.91828000  1
  C  C59  1  0.37765900  0.83092800  0.58172000  1
  C  C60  1  0.30934800  0.47621900  0.75753500  1
  C  C61  1  0.80934800  0.52378100  0.74246500  1
  C  C62  1  0.69065200  0.52378100  0.24246500  1
  C  C63  1  0.19065200  0.47621900  0.25753500  1
  C  C64  1  0.39213500  0.68060700  0.85065100  1
  C  C65  1  0.89213500  0.31939300  0.64934900  1
  C  C66  1  0.60786500  0.31939300  0.14934900  1
  C  C67  1  0.10786500  0.68060700  0.35065100  1
  C  C68  1  0.76422500  0.98071700  0.90527900  1
  C  C69  1  0.26422500  0.01928300  0.59472100  1
  C  C70  1  0.23577500  0.01928300  0.09472100  1
  C  C71  1  0.73577500  0.98071700  0.40527900  1
  C  C72  1  0.05158400  0.48548100  0.77141100  1
  C  C73  1  0.55158400  0.51451900  0.72858900  1
  C  C74  1  0.94841600  0.51451900  0.22858900  1
  C  C75  1  0.44841600  0.48548100  0.27141100  1
