# generated using pymatgen
data_Cu20(Ni2C)3
_symmetry_space_group_name_H-M   'P 1'
_cell_length_a   8.75719787
_cell_length_b   8.75719787
_cell_length_c   8.75719787
_cell_angle_alpha   60.00000000
_cell_angle_beta   60.00000000
_cell_angle_gamma   60.00000000
_symmetry_Int_Tables_number   1
_chemical_formula_structural   Cu20(Ni2C)3
_chemical_formula_sum   'Cu20 Ni6 C3'
_cell_volume   474.87629495
_cell_formula_units_Z   1
loop_
 _symmetry_equiv_pos_site_id
 _symmetry_equiv_pos_as_xyz
  1  'x, y, z'
loop_
 _atom_site_type_symbol
 _atom_site_label
 _atom_site_symmetry_multiplicity
 _atom_site_fract_x
 _atom_site_fract_y
 _atom_site_fract_z
 _atom_site_occupancy
  C  C0  1  0.25000000  0.25000000  0.25000000  1
  C  C1  1  0.75000000  0.75000000  0.75000000  1
  C  C2  1  0.00000000  0.00000000  0.00000000  1
  Ni  Ni3  1  0.73291700  0.26708300  0.26708300  1
  Ni  Ni4  1  0.26708300  0.73291700  0.73291700  1
  Ni  Ni5  1  0.26708300  0.73291700  0.26708300  1
  Ni  Ni6  1  0.73291700  0.26708300  0.73291700  1
  Ni  Ni7  1  0.26708300  0.26708300  0.73291700  1
  Ni  Ni8  1  0.73291700  0.73291700  0.26708300  1
  Cu  Cu9  1  0.38452600  0.38452600  0.38452600  1
  Cu  Cu10  1  0.61547400  0.61547400  0.61547400  1
  Cu  Cu11  1  0.38452600  0.38452600  0.84642100  1
  Cu  Cu12  1  0.38452600  0.84642100  0.38452600  1
  Cu  Cu13  1  0.61547400  0.61547400  0.15357900  1
  Cu  Cu14  1  0.61547400  0.15357900  0.61547400  1
  Cu  Cu15  1  0.84642100  0.38452600  0.38452600  1
  Cu  Cu16  1  0.15357900  0.61547400  0.61547400  1
  Cu  Cu17  1  0.34631900  0.00000000  0.00000000  1
  Cu  Cu18  1  0.65368100  0.00000000  0.00000000  1
  Cu  Cu19  1  0.00000000  0.34631900  0.65368100  1
  Cu  Cu20  1  0.00000000  0.65368100  0.34631900  1
  Cu  Cu21  1  0.00000000  0.34631900  0.00000000  1
  Cu  Cu22  1  0.65368100  0.00000000  0.34631900  1
  Cu  Cu23  1  0.00000000  0.65368100  0.00000000  1
  Cu  Cu24  1  0.34631900  0.00000000  0.65368100  1
  Cu  Cu25  1  0.00000000  0.00000000  0.34631900  1
  Cu  Cu26  1  0.00000000  0.00000000  0.65368100  1
  Cu  Cu27  1  0.65368100  0.34631900  0.00000000  1
  Cu  Cu28  1  0.34631900  0.65368100  0.00000000  1
