# generated using pymatgen
data_Cu2NiC4
_symmetry_space_group_name_H-M   'P 1'
_cell_length_a   6.73289048
_cell_length_b   6.73289048
_cell_length_c   6.15435179
_cell_angle_alpha   64.41129878
_cell_angle_beta   64.41129878
_cell_angle_gamma   29.74748583
_symmetry_Int_Tables_number   1
_chemical_formula_structural   Cu2NiC4
_chemical_formula_sum   'Cu2 Ni1 C4'
_cell_volume   123.83657378
_cell_formula_units_Z   1
loop_
 _symmetry_equiv_pos_site_id
 _symmetry_equiv_pos_as_xyz
  1  'x, y, z'
loop_
 _atom_site_type_symbol
 _atom_site_label
 _atom_site_symmetry_multiplicity
 _atom_site_fract_x
 _atom_site_fract_y
 _atom_site_fract_z
 _atom_site_occupancy
  Ni  Ni0  1  0.25367200  0.25367200  0.69118600  1
  Cu  Cu1  1  0.00130200  0.00130200  0.99708100  1
  Cu  Cu2  1  0.74397600  0.74397600  0.30736300  1
  C  C3  1  0.63886200  0.63886200  0.03667100  1
  C  C4  1  0.36059400  0.36059400  0.98670100  1
  C  C5  1  0.89260600  0.89260600  0.43930100  1
  C  C6  1  0.10898800  0.10898800  0.54169800  1
