# generated using pymatgen
data_Cu2NiC4
_symmetry_space_group_name_H-M   'P 1'
_cell_length_a   6.73430524
_cell_length_b   6.73430524
_cell_length_c   6.73430531
_cell_angle_alpha   61.79843391
_cell_angle_beta   61.79843391
_cell_angle_gamma   61.79844239
_symmetry_Int_Tables_number   1
_chemical_formula_structural   Cu2NiC4
_chemical_formula_sum   'Cu4 Ni2 C8'
_cell_volume   224.65483561
_cell_formula_units_Z   2
loop_
 _symmetry_equiv_pos_site_id
 _symmetry_equiv_pos_as_xyz
  1  'x, y, z'
loop_
 _atom_site_type_symbol
 _atom_site_label
 _atom_site_symmetry_multiplicity
 _atom_site_fract_x
 _atom_site_fract_y
 _atom_site_fract_z
 _atom_site_occupancy
  Ni  Ni0  1  0.99911600  0.99911600  0.99911600  1
  Ni  Ni1  1  0.37545100  0.37545100  0.37545100  1
  Cu  Cu2  1  0.75846300  0.75846300  0.75846300  1
  Cu  Cu3  1  0.37422600  0.88062700  0.37422600  1
  Cu  Cu4  1  0.88062700  0.37422600  0.37422600  1
  Cu  Cu5  1  0.37422600  0.37422600  0.88062700  1
  C  C6  1  0.59689200  0.59689200  0.16229500  1
  C  C7  1  0.16229500  0.59689200  0.59689200  1
  C  C8  1  0.59689200  0.16229500  0.59689200  1
  C  C9  1  0.62513100  0.62513100  0.62513100  1
  C  C10  1  0.12533800  0.12533800  0.12533800  1
  C  C11  1  0.13156100  0.61821200  0.13156100  1
  C  C12  1  0.61821200  0.13156100  0.13156100  1
  C  C13  1  0.13156100  0.13156100  0.61821200  1
