# generated using pymatgen
data_Cu(Ni5C2)2
_symmetry_space_group_name_H-M   'P 1'
_cell_length_a   13.14815400
_cell_length_b   9.05817924
_cell_length_c   9.05817924
_cell_angle_alpha   58.21524543
_cell_angle_beta   43.46777432
_cell_angle_gamma   43.46777432
_symmetry_Int_Tables_number   1
_chemical_formula_structural   Cu(Ni5C2)2
_chemical_formula_sum   'Cu2 Ni20 C8'
_cell_volume   510.57072877
_cell_formula_units_Z   2
loop_
 _symmetry_equiv_pos_site_id
 _symmetry_equiv_pos_as_xyz
  1  'x, y, z'
loop_
 _atom_site_type_symbol
 _atom_site_label
 _atom_site_symmetry_multiplicity
 _atom_site_fract_x
 _atom_site_fract_y
 _atom_site_fract_z
 _atom_site_occupancy
  C  C0  1  0.49425500  0.29544500  0.70455500  1
  C  C1  1  0.49425500  0.70455500  0.29544500  1
  C  C2  1  0.44881000  0.79544500  0.79544500  1
  C  C3  1  0.75574500  0.79544500  0.20455500  1
  C  C4  1  0.75574500  0.20455500  0.79544500  1
  C  C5  1  0.03970000  0.20455500  0.20455500  1
  C  C6  1  0.80119000  0.70455500  0.70455500  1
  C  C7  1  0.21030000  0.29544500  0.29544500  1
  Ni  Ni8  1  0.12500000  0.75000000  0.25000000  1
  Ni  Ni9  1  0.12500000  0.25000000  0.75000000  1
  Ni  Ni10  1  0.62500000  0.25000000  0.25000000  1
  Ni  Ni11  1  0.12500000  0.75000000  0.75000000  1
  Ni  Ni12  1  0.30992500  0.89732700  0.62604400  1
  Ni  Ni13  1  0.83329600  0.10267300  0.37395600  1
  Ni  Ni14  1  0.18596900  0.87395600  0.39732700  1
  Ni  Ni15  1  0.94007500  0.87395600  0.60267300  1
  Ni  Ni16  1  0.94007500  0.60267300  0.87395600  1
  Ni  Ni17  1  0.45725200  0.12604400  0.60267300  1
  Ni  Ni18  1  0.41670400  0.12604400  0.39732700  1
  Ni  Ni19  1  0.41670400  0.39732700  0.12604400  1
  Ni  Ni20  1  0.06403100  0.10267300  0.62604400  1
  Ni  Ni21  1  0.06403100  0.62604400  0.10267300  1
  Ni  Ni22  1  0.79274800  0.89732700  0.37395600  1
  Ni  Ni23  1  0.79274800  0.37395600  0.89732700  1
  Ni  Ni24  1  0.30992500  0.62604400  0.89732700  1
  Ni  Ni25  1  0.83329600  0.37395600  0.10267300  1
  Ni  Ni26  1  0.45725200  0.60267300  0.12604400  1
  Ni  Ni27  1  0.18596900  0.39732700  0.87395600  1
  Cu  Cu28  1  0.00000000  0.00000000  0.00000000  1
  Cu  Cu29  1  0.25000000  0.50000000  0.50000000  1
