# generated using pymatgen
data_Cu2Ni2C15
_symmetry_space_group_name_H-M   'P 1'
_cell_length_a   5.85210637
_cell_length_b   5.85272285
_cell_length_c   9.39077318
_cell_angle_alpha   71.30591551
_cell_angle_beta   71.32007268
_cell_angle_gamma   88.81321335
_symmetry_Int_Tables_number   1
_chemical_formula_structural   Cu2Ni2C15
_chemical_formula_sum   'Cu2 Ni2 C15'
_cell_volume   287.41711064
_cell_formula_units_Z   1
loop_
 _symmetry_equiv_pos_site_id
 _symmetry_equiv_pos_as_xyz
  1  'x, y, z'
loop_
 _atom_site_type_symbol
 _atom_site_label
 _atom_site_symmetry_multiplicity
 _atom_site_fract_x
 _atom_site_fract_y
 _atom_site_fract_z
 _atom_site_occupancy
  C  C0  1  0.08701700  0.59586800  0.82084300  1
  C  C1  1  0.90236700  0.39373400  0.20367500  1
  C  C2  1  0.59279600  0.08759300  0.82522000  1
  C  C3  1  0.38981300  0.90183900  0.20809400  1
  C  C4  1  0.98194900  0.99833900  0.51656000  1
  Ni  Ni5  1  0.49719600  0.49828500  0.00739900  1
  Ni  Ni6  1  0.99539400  0.99621400  0.00821000  1
  Cu  Cu7  1  0.65850900  0.65232600  0.51569300  1
  Cu  Cu8  1  0.32746900  0.32466100  0.51638800  1
  C  C9  1  0.25198400  0.25370700  0.99558100  1
  C  C10  1  0.24421300  0.74517100  0.01201600  1
  C  C11  1  0.74343200  0.24441500  0.01391400  1
  C  C12  1  0.73279000  0.73476300  0.03352700  1
  C  C13  1  0.69472200  0.68890100  0.69839500  1
  C  C14  1  0.28595300  0.28556300  0.33680400  1
  C  C15  1  0.10505500  0.10566600  0.69850500  1
  C  C16  1  0.87870400  0.87427900  0.33609600  1
  C  C17  1  0.32535000  0.65789800  0.51580600  1
  C  C18  1  0.66243100  0.31792000  0.51584500  1
