# generated using pymatgen
data_Cu6Ni5C16
_symmetry_space_group_name_H-M   'P 1'
_cell_length_a   5.66091600
_cell_length_b   8.91480644
_cell_length_c   10.44320082
_cell_angle_alpha   87.12783167
_cell_angle_beta   89.31752267
_cell_angle_gamma   76.48834182
_symmetry_Int_Tables_number   1
_chemical_formula_structural   Cu6Ni5C16
_chemical_formula_sum   'Cu6 Ni5 C16'
_cell_volume   511.79571197
_cell_formula_units_Z   1
loop_
 _symmetry_equiv_pos_site_id
 _symmetry_equiv_pos_as_xyz
  1  'x, y, z'
loop_
 _atom_site_type_symbol
 _atom_site_label
 _atom_site_symmetry_multiplicity
 _atom_site_fract_x
 _atom_site_fract_y
 _atom_site_fract_z
 _atom_site_occupancy
  Ni  Ni0  1  0.42925700  0.40780900  0.09611800  1
  Ni  Ni1  1  0.82926800  0.60802800  0.10002600  1
  Ni  Ni2  1  0.03169900  0.20822200  0.09431000  1
  Ni  Ni3  1  0.23111900  0.80792700  0.10289500  1
  Ni  Ni4  1  0.63337100  0.00864100  0.09788000  1
  Cu  Cu5  1  0.82841400  0.94157300  0.58545900  1
  Cu  Cu6  1  0.32743000  0.94140300  0.60810500  1
  Cu  Cu7  1  0.16047900  0.27680800  0.58492700  1
  Cu  Cu8  1  0.66016700  0.27419400  0.61252900  1
  Cu  Cu9  1  0.00920700  0.60772300  0.61000500  1
  Cu  Cu10  1  0.50905500  0.60864500  0.58551600  1
  C  C11  1  0.66589900  0.76770100  0.72729700  1
  C  C12  1  0.83186000  0.44919500  0.46730500  1
  C  C13  1  0.50085600  0.11742500  0.46752700  1
  C  C14  1  0.16613400  0.78228000  0.46672100  1
  C  C15  1  0.00200400  0.10040900  0.72814100  1
  C  C16  1  0.33215000  0.43451800  0.72974700  1
  C  C17  1  0.87048900  0.82356700  0.17694900  1
  C  C18  1  0.07060700  0.42147600  0.17179500  1
  C  C19  1  0.78900800  0.39348100  0.01949300  1
  C  C20  1  0.39180100  0.19249900  0.01996100  1
  C  C21  1  0.47083300  0.62082700  0.17519600  1
  C  C22  1  0.27330400  0.02629400  0.17423300  1
  C  C23  1  0.99359300  0.99110600  0.02365000  1
  C  C24  1  0.58980200  0.79334800  0.02531500  1
  C  C25  1  0.18831100  0.59494200  0.02391200  1
  C  C26  1  0.67288500  0.22395900  0.17098500  1
