# generated using pymatgen
data_Cu2Ni2C15
_symmetry_space_group_name_H-M   'P 1'
_cell_length_a   7.63265200
_cell_length_b   7.84448600
_cell_length_c   7.84478300
_cell_angle_alpha   90.00000000
_cell_angle_beta   90.00000000
_cell_angle_gamma   90.00000000
_symmetry_Int_Tables_number   1
_chemical_formula_structural   Cu2Ni2C15
_chemical_formula_sum   'Cu4 Ni4 C30'
_cell_volume   469.70035542
_cell_formula_units_Z   2
loop_
 _symmetry_equiv_pos_site_id
 _symmetry_equiv_pos_as_xyz
  1  'x, y, z'
loop_
 _atom_site_type_symbol
 _atom_site_label
 _atom_site_symmetry_multiplicity
 _atom_site_fract_x
 _atom_site_fract_y
 _atom_site_fract_z
 _atom_site_occupancy
  Ni  Ni0  1  0.00000000  0.76124600  0.00000000  1
  Ni  Ni1  1  0.00000000  0.23875400  0.00000000  1
  Ni  Ni2  1  0.00000000  0.23875400  0.50000000  1
  Ni  Ni3  1  0.00000000  0.76124600  0.50000000  1
  Cu  Cu4  1  0.50000000  0.73145800  0.50000000  1
  Cu  Cu5  1  0.50000000  0.26854200  0.00000000  1
  Cu  Cu6  1  0.50000000  0.26854200  0.50000000  1
  Cu  Cu7  1  0.50000000  0.73145800  0.00000000  1
  C  C8  1  0.74699700  0.50000000  0.75000000  1
  C  C9  1  0.25300300  0.50000000  0.25000000  1
  C  C10  1  0.25385200  0.50000000  0.75000000  1
  C  C11  1  0.74614800  0.50000000  0.25000000  1
  C  C12  1  0.70970000  0.00000000  0.75000000  1
  C  C13  1  0.72965800  0.00000000  0.25000000  1
  C  C14  1  0.27034200  0.00000000  0.75000000  1
  C  C15  1  0.29030000  0.00000000  0.25000000  1
  C  C16  1  0.70180400  0.76745300  0.75000000  1
  C  C17  1  0.70180400  0.23254700  0.75000000  1
  C  C18  1  0.29819600  0.23254700  0.25000000  1
  C  C19  1  0.29819600  0.76745300  0.25000000  1
  C  C20  1  0.31001200  0.76762100  0.75000000  1
  C  C21  1  0.31001200  0.23237900  0.75000000  1
  C  C22  1  0.68998800  0.23237900  0.25000000  1
  C  C23  1  0.68998800  0.76762100  0.25000000  1
  C  C24  1  0.28073000  0.50000000  0.99867600  1
  C  C25  1  0.28073000  0.50000000  0.50132400  1
  C  C26  1  0.71927000  0.50000000  0.49867600  1
  C  C27  1  0.71927000  0.50000000  0.00132400  1
  C  C28  1  0.31956800  0.00000000  0.00501300  1
  C  C29  1  0.31956800  0.00000000  0.49498700  1
  C  C30  1  0.68043200  0.00000000  0.50501300  1
  C  C31  1  0.68043200  0.00000000  0.99498700  1
  C  C32  1  0.98087200  0.00000000  0.25000000  1
  C  C33  1  0.01912800  0.00000000  0.75000000  1
  C  C34  1  0.01196500  0.50000000  0.25000000  1
  C  C35  1  0.50716800  0.50000000  0.75000000  1
  C  C36  1  0.49283200  0.50000000  0.25000000  1
  C  C37  1  0.98803500  0.50000000  0.75000000  1
