# generated using pymatgen
data_CuNiC28
_symmetry_space_group_name_H-M   'P 1'
_cell_length_a   10.37053700
_cell_length_b   7.44006600
_cell_length_c   11.01525558
_cell_angle_alpha   70.84148089
_cell_angle_beta   90.00000000
_cell_angle_gamma   90.00000000
_symmetry_Int_Tables_number   1
_chemical_formula_structural   CuNiC28
_chemical_formula_sum   'Cu2 Ni2 C56'
_cell_volume   802.83646195
_cell_formula_units_Z   2
loop_
 _symmetry_equiv_pos_site_id
 _symmetry_equiv_pos_as_xyz
  1  'x, y, z'
loop_
 _atom_site_type_symbol
 _atom_site_label
 _atom_site_symmetry_multiplicity
 _atom_site_fract_x
 _atom_site_fract_y
 _atom_site_fract_z
 _atom_site_occupancy
  C  C0  1  0.82737800  0.68751300  0.88160500  1
  C  C1  1  0.32737800  0.31248700  0.11839500  1
  C  C2  1  0.67226000  0.55190300  0.63231900  1
  C  C3  1  0.17226000  0.44809700  0.36768100  1
  C  C4  1  0.55912500  0.44563800  0.34900900  1
  C  C5  1  0.05912500  0.55436200  0.65099100  1
  C  C6  1  0.94360000  0.30124700  0.15814400  1
  C  C7  1  0.44360000  0.69875300  0.84185600  1
  C  C8  1  0.94432600  0.79549900  0.15016700  1
  C  C9  1  0.44432600  0.20450100  0.84983300  1
  C  C10  1  0.17663900  0.94607600  0.36857300  1
  C  C11  1  0.67663900  0.05392400  0.63142700  1
  Ni  Ni12  1  0.54402600  0.94943300  0.33988400  1
  Ni  Ni13  1  0.04402600  0.05056700  0.66011600  1
  Cu  Cu14  1  0.30476800  0.82653500  0.11891000  1
  Cu  Cu15  1  0.80476800  0.17346500  0.88109000  1
  C  C16  1  0.87237600  0.43785600  0.43926700  1
  C  C17  1  0.37237600  0.56214400  0.56073300  1
  C  C18  1  0.62957000  0.79737800  0.08386400  1
  C  C19  1  0.12957000  0.20262200  0.91613600  1
  C  C20  1  0.87201500  0.87510300  0.43366200  1
  C  C21  1  0.37201500  0.12489700  0.56633800  1
  C  C22  1  0.62441500  0.36527000  0.07337800  1
  C  C23  1  0.12441500  0.63473000  0.92662200  1
  C  C24  1  0.72396800  0.92737600  0.45842000  1
  C  C25  1  0.22396800  0.07262400  0.54158000  1
  C  C26  1  0.97517400  0.90726900  0.53849100  1
  C  C27  1  0.47517400  0.09273100  0.46150900  1
  C  C28  1  0.76164400  0.30889800  0.02101900  1
  C  C29  1  0.26164400  0.69110200  0.97898100  1
  C  C30  1  0.88361300  0.63876000  0.47679200  1
  C  C31  1  0.38361300  0.36124000  0.52320800  1
  C  C32  1  0.72969600  0.35128900  0.48732500  1
  C  C33  1  0.22969600  0.64871100  0.51267500  1
  C  C34  1  0.90051100  0.48385400  0.28760200  1
  C  C35  1  0.40051100  0.51614600  0.71239800  1
  C  C36  1  0.37518700  0.96536900  0.24433100  1
  C  C37  1  0.87518700  0.03463100  0.75566900  1
  C  C38  1  0.93208000  0.97644300  0.29156400  1
  C  C39  1  0.43208000  0.02355700  0.70843600  1
  C  C40  1  0.59587400  0.22944800  0.22181100  1
  C  C41  1  0.09587400  0.77055200  0.77818900  1
  C  C42  1  0.63055200  0.78687800  0.23473000  1
  C  C43  1  0.13055200  0.21312200  0.76527000  1
  C  C44  1  0.00240100  0.61546900  0.02130000  1
  C  C45  1  0.50240100  0.38453100  0.97870000  1
  C  C46  1  0.65233500  0.57642900  0.08902400  1
  C  C47  1  0.15233500  0.42357100  0.91097600  1
  C  C48  1  0.15679500  0.77095800  0.21908400  1
  C  C49  1  0.65679500  0.22904200  0.78091600  1
  C  C50  1  0.49391200  0.68083000  0.47357800  1
  C  C51  1  0.99391200  0.31917000  0.52642200  1
  C  C52  1  0.75963200  0.90573400  0.01082700  1
  C  C53  1  0.25963200  0.09426600  0.98917300  1
  C  C54  1  0.49409700  0.87718400  0.00904200  1
  C  C55  1  0.99409700  0.12281600  0.99095800  1
  C  C56  1  0.64973300  0.74493400  0.76027700  1
  C  C57  1  0.14973300  0.25506600  0.23972300  1
  C  C58  1  0.37929800  0.54509500  0.22536500  1
  C  C59  1  0.87929800  0.45490500  0.77463500  1
