# generated using pymatgen
data_Cu2Ni2C
_symmetry_space_group_name_H-M   'P 1'
_cell_length_a   4.41112900
_cell_length_b   6.66056500
_cell_length_c   8.78563217
_cell_angle_alpha   77.60023103
_cell_angle_beta   90.00000000
_cell_angle_gamma   90.00000000
_symmetry_Int_Tables_number   1
_chemical_formula_structural   Cu2Ni2C
_chemical_formula_sum   'Cu4 Ni4 C2'
_cell_volume   252.10594805
_cell_formula_units_Z   2
loop_
 _symmetry_equiv_pos_site_id
 _symmetry_equiv_pos_as_xyz
  1  'x, y, z'
loop_
 _atom_site_type_symbol
 _atom_site_label
 _atom_site_symmetry_multiplicity
 _atom_site_fract_x
 _atom_site_fract_y
 _atom_site_fract_z
 _atom_site_occupancy
  C  C0  1  0.50000000  0.00000000  0.50000000  1
  C  C1  1  0.00000000  0.00000000  0.00000000  1
  Ni  Ni2  1  0.74564000  0.77610500  0.59415900  1
  Ni  Ni3  1  0.24564000  0.22389500  0.90584100  1
  Ni  Ni4  1  0.25436000  0.22389500  0.40584100  1
  Ni  Ni5  1  0.75436000  0.77610500  0.09415900  1
  Cu  Cu6  1  0.11799100  0.74422100  0.60314100  1
  Cu  Cu7  1  0.61799100  0.25577900  0.89685900  1
  Cu  Cu8  1  0.88200900  0.25577900  0.39685900  1
  Cu  Cu9  1  0.38200900  0.74422100  0.10314100  1
