# generated using pymatgen
data_Cu(NiC5)4
_symmetry_space_group_name_H-M   'P 1'
_cell_length_a   14.19089982
_cell_length_b   14.19089982
_cell_length_c   3.93228700
_cell_angle_alpha   90.00000000
_cell_angle_beta   90.00000000
_cell_angle_gamma   157.38527713
_symmetry_Int_Tables_number   1
_chemical_formula_structural   Cu(NiC5)4
_chemical_formula_sum   'Cu1 Ni4 C20'
_cell_volume   304.50762555
_cell_formula_units_Z   1
loop_
 _symmetry_equiv_pos_site_id
 _symmetry_equiv_pos_as_xyz
  1  'x, y, z'
loop_
 _atom_site_type_symbol
 _atom_site_label
 _atom_site_symmetry_multiplicity
 _atom_site_fract_x
 _atom_site_fract_y
 _atom_site_fract_z
 _atom_site_occupancy
  Ni  Ni0  1  0.09985100  0.90014900  0.50000000  1
  Ni  Ni1  1  0.69977400  0.30022600  0.50000000  1
  Ni  Ni2  1  0.30022600  0.69977400  0.50000000  1
  Ni  Ni3  1  0.90014900  0.09985100  0.50000000  1
  Cu  Cu4  1  0.50000000  0.50000000  0.50000000  1
  C  C5  1  0.79982400  0.20017600  0.00000000  1
  C  C6  1  0.40080600  0.59919400  0.00000000  1
  C  C7  1  0.00000000  0.00000000  0.00000000  1
  C  C8  1  0.59919400  0.40080600  0.00000000  1
  C  C9  1  0.20017600  0.79982400  0.00000000  1
  C  C10  1  0.00000000  0.50000000  0.00000000  1
  C  C11  1  0.60090700  0.90070800  0.00000000  1
  C  C12  1  0.20307700  0.30051000  0.00000000  1
  C  C13  1  0.79692300  0.69949000  0.00000000  1
  C  C14  1  0.39909300  0.09929200  0.00000000  1
  C  C15  1  0.50000000  0.00000000  0.00000000  1
  C  C16  1  0.09929200  0.39909300  0.00000000  1
  C  C17  1  0.69949000  0.79692300  0.00000000  1
  C  C18  1  0.30051000  0.20307700  0.00000000  1
  C  C19  1  0.90070800  0.60090700  0.00000000  1
  C  C20  1  0.20062200  0.79937800  0.50000000  1
  C  C21  1  0.79937800  0.20062200  0.50000000  1
  C  C22  1  0.40178500  0.59821500  0.50000000  1
  C  C23  1  0.00000000  0.00000000  0.50000000  1
  C  C24  1  0.59821500  0.40178500  0.50000000  1
