# generated using pymatgen
data_Cu2NiC7
_symmetry_space_group_name_H-M   'P 1'
_cell_length_a   8.35033200
_cell_length_b   8.35033200
_cell_length_c   8.35033200
_cell_angle_alpha   90.00000000
_cell_angle_beta   90.00000000
_cell_angle_gamma   90.00000000
_symmetry_Int_Tables_number   1
_chemical_formula_structural   Cu2NiC7
_chemical_formula_sum   'Cu8 Ni4 C28'
_cell_volume   582.25232137
_cell_formula_units_Z   4
loop_
 _symmetry_equiv_pos_site_id
 _symmetry_equiv_pos_as_xyz
  1  'x, y, z'
loop_
 _atom_site_type_symbol
 _atom_site_label
 _atom_site_symmetry_multiplicity
 _atom_site_fract_x
 _atom_site_fract_y
 _atom_site_fract_z
 _atom_site_occupancy
  Ni  Ni0  1  0.00000000  0.50000000  0.50000000  1
  Ni  Ni1  1  0.50000000  0.50000000  0.00000000  1
  Ni  Ni2  1  0.50000000  0.00000000  0.50000000  1
  Ni  Ni3  1  0.00000000  0.00000000  0.00000000  1
  Cu  Cu4  1  0.38996600  0.11003400  0.88996600  1
  Cu  Cu5  1  0.11003400  0.88996600  0.38996600  1
  Cu  Cu6  1  0.88996600  0.38996600  0.11003400  1
  Cu  Cu7  1  0.61003400  0.61003400  0.61003400  1
  Cu  Cu8  1  0.61003400  0.88996600  0.11003400  1
  Cu  Cu9  1  0.88996600  0.11003400  0.61003400  1
  Cu  Cu10  1  0.11003400  0.61003400  0.88996600  1
  Cu  Cu11  1  0.38996600  0.38996600  0.38996600  1
  C  C12  1  0.50000000  0.00000000  0.00000000  1
  C  C13  1  0.00000000  0.00000000  0.50000000  1
  C  C14  1  0.00000000  0.50000000  0.00000000  1
  C  C15  1  0.50000000  0.50000000  0.50000000  1
  C  C16  1  0.94812600  0.21866300  0.09399200  1
  C  C17  1  0.44812600  0.28133700  0.90600800  1
  C  C18  1  0.05187400  0.71866300  0.40600800  1
  C  C19  1  0.28133700  0.90600800  0.44812600  1
  C  C20  1  0.40600800  0.05187400  0.71866300  1
  C  C21  1  0.90600800  0.44812600  0.28133700  1
  C  C22  1  0.21866300  0.09399200  0.94812600  1
  C  C23  1  0.09399200  0.94812600  0.21866300  1
  C  C24  1  0.44812600  0.21866300  0.40600800  1
  C  C25  1  0.40600800  0.44812600  0.21866300  1
  C  C26  1  0.21866300  0.40600800  0.44812600  1
  C  C27  1  0.28133700  0.59399200  0.94812600  1
  C  C28  1  0.90600800  0.05187400  0.78133700  1
  C  C29  1  0.78133700  0.90600800  0.05187400  1
  C  C30  1  0.09399200  0.55187400  0.71866300  1
  C  C31  1  0.59399200  0.94812600  0.28133700  1
  C  C32  1  0.71866300  0.09399200  0.55187400  1
  C  C33  1  0.94812600  0.28133700  0.59399200  1
  C  C34  1  0.55187400  0.71866300  0.09399200  1
  C  C35  1  0.05187400  0.78133700  0.90600800  1
  C  C36  1  0.55187400  0.78133700  0.59399200  1
  C  C37  1  0.59399200  0.55187400  0.78133700  1
  C  C38  1  0.78133700  0.59399200  0.55187400  1
  C  C39  1  0.71866300  0.40600800  0.05187400  1
