# generated using pymatgen
data_Cu4NiC12
_symmetry_space_group_name_H-M   'P 1'
_cell_length_a   5.58369941
_cell_length_b   11.13272408
_cell_length_c   3.63097700
_cell_angle_alpha   90.00000000
_cell_angle_beta   90.00000000
_cell_angle_gamma   88.17104862
_symmetry_Int_Tables_number   1
_chemical_formula_structural   Cu4NiC12
_chemical_formula_sum   'Cu4 Ni1 C12'
_cell_volume   225.59302661
_cell_formula_units_Z   1
loop_
 _symmetry_equiv_pos_site_id
 _symmetry_equiv_pos_as_xyz
  1  'x, y, z'
loop_
 _atom_site_type_symbol
 _atom_site_label
 _atom_site_symmetry_multiplicity
 _atom_site_fract_x
 _atom_site_fract_y
 _atom_site_fract_z
 _atom_site_occupancy
  Ni  Ni0  1  0.55968200  0.97238400  0.25000000  1
  Cu  Cu1  1  0.07973700  0.84642400  0.25000000  1
  Cu  Cu2  1  0.38811700  0.35425400  0.25000000  1
  Cu  Cu3  1  0.61178400  0.64390400  0.75000000  1
  Cu  Cu4  1  0.91006700  0.14518800  0.75000000  1
  C  C5  1  0.16633500  0.59642400  0.25000000  1
  C  C6  1  0.32874900  0.12862300  0.25000000  1
  C  C7  1  0.63676200  0.87035800  0.75000000  1
  C  C8  1  0.82882700  0.40145900  0.75000000  1
  C  C9  1  0.18705700  0.07551900  0.25000000  1
  C  C10  1  0.15566000  0.31037500  0.75000000  1
  C  C11  1  0.39426700  0.83451900  0.75000000  1
  C  C12  1  0.33955300  0.57216700  0.25000000  1
  C  C13  1  0.65793200  0.42802800  0.75000000  1
  C  C14  1  0.64135000  0.18554200  0.25000000  1
  C  C15  1  0.85436800  0.67546600  0.25000000  1
  C  C16  1  0.80975300  0.91174800  0.75000000  1
