# generated using pymatgen
data_CuNiC9
_symmetry_space_group_name_H-M   'P 1'
_cell_length_a   7.35656984
_cell_length_b   7.35656984
_cell_length_c   7.35656984
_cell_angle_alpha   121.27739846
_cell_angle_beta   118.19103356
_cell_angle_gamma   90.48158515
_symmetry_Int_Tables_number   1
_chemical_formula_structural   CuNiC9
_chemical_formula_sum   'Cu2 Ni2 C18'
_cell_volume   282.38763603
_cell_formula_units_Z   2
loop_
 _symmetry_equiv_pos_site_id
 _symmetry_equiv_pos_as_xyz
  1  'x, y, z'
loop_
 _atom_site_type_symbol
 _atom_site_label
 _atom_site_symmetry_multiplicity
 _atom_site_fract_x
 _atom_site_fract_y
 _atom_site_fract_z
 _atom_site_occupancy
  C  C0  1  0.00000000  0.00000000  0.50000000  1
  C  C1  1  0.00000000  0.50000000  0.00000000  1
  C  C2  1  0.00000000  0.00000000  0.00000000  1
  C  C3  1  0.50000000  0.00000000  0.50000000  1
  Ni  Ni4  1  0.50000000  0.50000000  0.50000000  1
  Ni  Ni5  1  0.50000000  0.00000000  0.00000000  1
  Cu  Cu6  1  0.50000000  0.50000000  0.00000000  1
  Cu  Cu7  1  0.00000000  0.50000000  0.50000000  1
  C  C8  1  0.42410400  0.17410400  0.25000000  1
  C  C9  1  0.81678700  0.56678700  0.25000000  1
  C  C10  1  0.43617200  0.58086800  0.26445300  1
  C  C11  1  0.81641500  0.17171900  0.23554700  1
  C  C12  1  0.43617200  0.17171900  0.85530400  1
  C  C13  1  0.81641500  0.58086800  0.64469600  1
  C  C14  1  0.57589600  0.82589600  0.75000000  1
  C  C15  1  0.18321300  0.43321300  0.75000000  1
  C  C16  1  0.56382800  0.41913200  0.73554700  1
  C  C17  1  0.18358500  0.82828100  0.76445300  1
  C  C18  1  0.56382800  0.82828100  0.14469600  1
  C  C19  1  0.18358500  0.41913200  0.35530400  1
  C  C20  1  0.12324300  0.87324300  0.25000000  1
  C  C21  1  0.87675700  0.12675700  0.75000000  1
