# generated using pymatgen
data_Cu4NiC
_symmetry_space_group_name_H-M   'P 1'
_cell_length_a   3.53375600
_cell_length_b   5.93316700
_cell_length_c   11.50421100
_cell_angle_alpha   90.00000000
_cell_angle_beta   90.00000000
_cell_angle_gamma   90.00000000
_symmetry_Int_Tables_number   1
_chemical_formula_structural   Cu4NiC
_chemical_formula_sum   'Cu16 Ni4 C4'
_cell_volume   241.20148094
_cell_formula_units_Z   4
loop_
 _symmetry_equiv_pos_site_id
 _symmetry_equiv_pos_as_xyz
  1  'x, y, z'
loop_
 _atom_site_type_symbol
 _atom_site_label
 _atom_site_symmetry_multiplicity
 _atom_site_fract_x
 _atom_site_fract_y
 _atom_site_fract_z
 _atom_site_occupancy
  C  C0  1  0.50000000  0.37262500  0.15029100  1
  C  C1  1  0.50000000  0.62737500  0.84970900  1
  C  C2  1  0.50000000  0.12737500  0.65029100  1
  C  C3  1  0.50000000  0.87262500  0.34970900  1
  Ni  Ni4  1  0.50000000  0.36316000  0.41018600  1
  Ni  Ni5  1  0.50000000  0.63684000  0.58981400  1
  Ni  Ni6  1  0.50000000  0.13684000  0.91018600  1
  Ni  Ni7  1  0.50000000  0.86316000  0.08981400  1
  Cu  Cu8  1  0.00000000  0.11450200  0.04687800  1
  Cu  Cu9  1  0.00000000  0.88549800  0.95312200  1
  Cu  Cu10  1  0.00000000  0.38549800  0.54687800  1
  Cu  Cu11  1  0.00000000  0.61450200  0.45312200  1
  Cu  Cu12  1  0.00000000  0.13367200  0.46929400  1
  Cu  Cu13  1  0.00000000  0.86632800  0.53070600  1
  Cu  Cu14  1  0.00000000  0.36632800  0.96929400  1
  Cu  Cu15  1  0.00000000  0.63367200  0.03070600  1
  Cu  Cu16  1  0.00000000  0.02826100  0.19270500  1
  Cu  Cu17  1  0.00000000  0.97173900  0.80729500  1
  Cu  Cu18  1  0.00000000  0.47173900  0.69270500  1
  Cu  Cu19  1  0.00000000  0.52826100  0.30729500  1
  Cu  Cu20  1  0.00000000  0.21208200  0.31231100  1
  Cu  Cu21  1  0.00000000  0.78791800  0.68768900  1
  Cu  Cu22  1  0.00000000  0.28791800  0.81231100  1
  Cu  Cu23  1  0.00000000  0.71208200  0.18768900  1
