# generated using pymatgen
data_Cu4NiC12
_symmetry_space_group_name_H-M   'P 1'
_cell_length_a   7.27133100
_cell_length_b   4.54005600
_cell_length_c   9.41735189
_cell_angle_alpha   88.74088053
_cell_angle_beta   90.00000000
_cell_angle_gamma   90.00000000
_symmetry_Int_Tables_number   1
_chemical_formula_structural   Cu4NiC12
_chemical_formula_sum   'Cu8 Ni2 C24'
_cell_volume   310.81290809
_cell_formula_units_Z   2
loop_
 _symmetry_equiv_pos_site_id
 _symmetry_equiv_pos_as_xyz
  1  'x, y, z'
loop_
 _atom_site_type_symbol
 _atom_site_label
 _atom_site_symmetry_multiplicity
 _atom_site_fract_x
 _atom_site_fract_y
 _atom_site_fract_z
 _atom_site_occupancy
  C  C0  1  0.39879800  0.00425600  0.83519400  1
  C  C1  1  0.89879800  0.99574400  0.66480600  1
  C  C2  1  0.10120200  0.00425600  0.33519400  1
  C  C3  1  0.60120200  0.99574400  0.16480600  1
  Ni  Ni4  1  0.00000000  0.00000000  0.00000000  1
  Ni  Ni5  1  0.50000000  0.00000000  0.50000000  1
  Cu  Cu6  1  0.26460200  0.52946100  0.08497800  1
  Cu  Cu7  1  0.76460200  0.47053900  0.41502200  1
  Cu  Cu8  1  0.73539800  0.47053900  0.91502200  1
  Cu  Cu9  1  0.23539800  0.52946100  0.58497800  1
  Cu  Cu10  1  0.59603000  0.53528500  0.66111300  1
  Cu  Cu11  1  0.09603000  0.46471500  0.83888700  1
  Cu  Cu12  1  0.40397000  0.46471500  0.33888700  1
  Cu  Cu13  1  0.90397000  0.53528500  0.16111300  1
  C  C14  1  0.40433400  0.77780900  0.33331200  1
  C  C15  1  0.59566600  0.22219100  0.66668800  1
  C  C16  1  0.09201800  0.67864100  0.14285800  1
  C  C17  1  0.59201800  0.32135900  0.35714200  1
  C  C18  1  0.90798200  0.32135900  0.85714200  1
  C  C19  1  0.09566600  0.77780900  0.83331200  1
  C  C20  1  0.79291600  0.66627100  0.03754500  1
  C  C21  1  0.29291600  0.33372900  0.46245500  1
  C  C22  1  0.20708400  0.33372900  0.96245500  1
  C  C23  1  0.70708400  0.66627100  0.53754500  1
  C  C24  1  0.82991700  0.67192400  0.29512100  1
  C  C25  1  0.32991700  0.32807600  0.20487900  1
  C  C26  1  0.17008300  0.32807600  0.70487900  1
  C  C27  1  0.67008300  0.67192400  0.79512100  1
  C  C28  1  0.10877900  0.75144600  0.53935300  1
  C  C29  1  0.60877900  0.24855400  0.96064700  1
  C  C30  1  0.89122100  0.24855400  0.46064700  1
  C  C31  1  0.39122100  0.75144600  0.03935300  1
  C  C32  1  0.40798200  0.67864100  0.64285800  1
  C  C33  1  0.90433400  0.22219100  0.16668800  1
