# generated using pymatgen
data_Cu9(NiC2)2
_symmetry_space_group_name_H-M   'P 1'
_cell_length_a   5.49307400
_cell_length_b   7.46895100
_cell_length_c   10.68600800
_cell_angle_alpha   90.00000000
_cell_angle_beta   90.00000000
_cell_angle_gamma   90.00000000
_symmetry_Int_Tables_number   1
_chemical_formula_structural   Cu9(NiC2)2
_chemical_formula_sum   'Cu18 Ni4 C8'
_cell_volume   438.42019905
_cell_formula_units_Z   2
loop_
 _symmetry_equiv_pos_site_id
 _symmetry_equiv_pos_as_xyz
  1  'x, y, z'
loop_
 _atom_site_type_symbol
 _atom_site_label
 _atom_site_symmetry_multiplicity
 _atom_site_fract_x
 _atom_site_fract_y
 _atom_site_fract_z
 _atom_site_occupancy
  C  C0  1  0.00000000  0.83905500  0.34762700  1
  C  C1  1  0.50000000  0.33905500  0.65237300  1
  C  C2  1  0.00000000  0.94394200  0.23802100  1
  C  C3  1  0.50000000  0.44394200  0.76197900  1
  C  C4  1  0.00000000  0.27647700  0.47274300  1
  C  C5  1  0.50000000  0.77647700  0.52725700  1
  C  C6  1  0.00000000  0.12706800  0.84039600  1
  C  C7  1  0.50000000  0.62706800  0.15960400  1
  Ni  Ni8  1  0.50000000  0.99892200  0.99535100  1
  Ni  Ni9  1  0.00000000  0.49892200  0.00464900  1
  Ni  Ni10  1  0.00000000  0.75076800  0.71232400  1
  Ni  Ni11  1  0.50000000  0.25076800  0.28767600  1
  Cu  Cu12  1  0.00000000  0.96105400  0.46480300  1
  Cu  Cu13  1  0.50000000  0.46105400  0.53519700  1
  Cu  Cu14  1  0.50000000  0.10826800  0.90447900  1
  Cu  Cu15  1  0.00000000  0.60826800  0.09552100  1
  Cu  Cu16  1  0.26479400  0.22434400  0.65457100  1
  Cu  Cu17  1  0.73520600  0.22434400  0.65457100  1
  Cu  Cu18  1  0.23520600  0.72434400  0.34542900  1
  Cu  Cu19  1  0.76479400  0.72434400  0.34542900  1
  Cu  Cu20  1  0.80002600  0.81728400  0.75116300  1
  Cu  Cu21  1  0.19997400  0.81728400  0.75116300  1
  Cu  Cu22  1  0.69997400  0.31728400  0.24883700  1
  Cu  Cu23  1  0.30002600  0.31728400  0.24883700  1
  Cu  Cu24  1  0.70060200  0.94360700  0.04006000  1
  Cu  Cu25  1  0.29939800  0.94360700  0.04006000  1
  Cu  Cu26  1  0.79939800  0.44360700  0.95994000  1
  Cu  Cu27  1  0.20060200  0.44360700  0.95994000  1
  Cu  Cu28  1  0.00000000  0.62538700  0.63372600  1
  Cu  Cu29  1  0.50000000  0.12538800  0.36627400  1
