# generated using pymatgen
data_CuNiC7
_symmetry_space_group_name_H-M   'P 1'
_cell_length_a   7.06537804
_cell_length_b   7.06537804
_cell_length_c   7.06537804
_cell_angle_alpha   120.75604893
_cell_angle_beta   119.01515983
_cell_angle_gamma   90.20484248
_symmetry_Int_Tables_number   1
_chemical_formula_structural   CuNiC7
_chemical_formula_sum   'Cu2 Ni2 C14'
_cell_volume   249.75473189
_cell_formula_units_Z   2
loop_
 _symmetry_equiv_pos_site_id
 _symmetry_equiv_pos_as_xyz
  1  'x, y, z'
loop_
 _atom_site_type_symbol
 _atom_site_label
 _atom_site_symmetry_multiplicity
 _atom_site_fract_x
 _atom_site_fract_y
 _atom_site_fract_z
 _atom_site_occupancy
  Ni  Ni0  1  0.00000000  0.50000000  0.00000000  1
  Ni  Ni1  1  0.00000000  0.00000000  0.50000000  1
  Cu  Cu2  1  0.50000000  0.50000000  0.00000000  1
  Cu  Cu3  1  0.00000000  0.50000000  0.50000000  1
  C  C4  1  0.62564500  0.87564500  0.75000000  1
  C  C5  1  0.37435500  0.12435500  0.25000000  1
  C  C6  1  0.32481200  0.57481200  0.75000000  1
  C  C7  1  0.94607400  0.19607400  0.75000000  1
  C  C8  1  0.30482000  0.56886200  0.12712500  1
  C  C9  1  0.94173700  0.17769500  0.37287500  1
  C  C10  1  0.94173700  0.56886200  0.76404200  1
  C  C11  1  0.30482000  0.17769500  0.73595800  1
  C  C12  1  0.67518800  0.42518800  0.25000000  1
  C  C13  1  0.05392600  0.80392600  0.25000000  1
  C  C14  1  0.69518000  0.43113800  0.87287500  1
  C  C15  1  0.05826300  0.82230500  0.62712500  1
  C  C16  1  0.05826300  0.43113800  0.23595800  1
  C  C17  1  0.69518000  0.82230500  0.26404200  1
