# generated using pymatgen
data_Cu3NiC28
_symmetry_space_group_name_H-M   'P 1'
_cell_length_a   6.22090700
_cell_length_b   12.22915600
_cell_length_c   17.05391400
_cell_angle_alpha   90.00000000
_cell_angle_beta   90.00000000
_cell_angle_gamma   90.00000000
_symmetry_Int_Tables_number   1
_chemical_formula_structural   Cu3NiC28
_chemical_formula_sum   'Cu12 Ni4 C112'
_cell_volume   1297.40110210
_cell_formula_units_Z   4
loop_
 _symmetry_equiv_pos_site_id
 _symmetry_equiv_pos_as_xyz
  1  'x, y, z'
loop_
 _atom_site_type_symbol
 _atom_site_label
 _atom_site_symmetry_multiplicity
 _atom_site_fract_x
 _atom_site_fract_y
 _atom_site_fract_z
 _atom_site_occupancy
  C  C0  1  0.70139200  0.25768200  0.86045600  1
  C  C1  1  0.29860800  0.74231800  0.36045600  1
  C  C2  1  0.70139200  0.24231800  0.13954400  1
  C  C3  1  0.29860800  0.75768200  0.63954400  1
  C  C4  1  0.29860800  0.74231800  0.13954400  1
  C  C5  1  0.70139200  0.25768200  0.63954400  1
  C  C6  1  0.29860800  0.75768200  0.86045600  1
  C  C7  1  0.70139200  0.24231800  0.36045600  1
  C  C8  1  0.39550200  0.10491300  0.95564400  1
  C  C9  1  0.60449800  0.89508700  0.45564400  1
  C  C10  1  0.39550200  0.39508700  0.04435600  1
  C  C11  1  0.60449800  0.60491300  0.54435600  1
  C  C12  1  0.60449800  0.89508700  0.04435600  1
  C  C13  1  0.39550200  0.10491300  0.54435600  1
  C  C14  1  0.60449800  0.60491300  0.95564400  1
  C  C15  1  0.39550200  0.39508700  0.45564400  1
  C  C16  1  0.16426900  0.12548700  0.90303700  1
  C  C17  1  0.83573100  0.87451300  0.40303700  1
  C  C18  1  0.16426900  0.37451300  0.09696300  1
  C  C19  1  0.83573100  0.62548700  0.59696300  1
  C  C20  1  0.83573100  0.87451300  0.09696300  1
  C  C21  1  0.16426900  0.12548700  0.59696300  1
  C  C22  1  0.83573100  0.62548700  0.90303700  1
  C  C23  1  0.16426900  0.37451300  0.40303700  1
  C  C24  1  0.20785200  0.00583300  0.94816400  1
  C  C25  1  0.79214800  0.99416700  0.44816400  1
  C  C26  1  0.20785200  0.49416700  0.05183600  1
  C  C27  1  0.79214800  0.50583300  0.55183600  1
  C  C28  1  0.79214800  0.99416700  0.05183600  1
  C  C29  1  0.20785200  0.00583300  0.55183600  1
  C  C30  1  0.79214800  0.50583300  0.94816400  1
  C  C31  1  0.20785200  0.49416700  0.44816400  1
  C  C32  1  0.15357700  0.11902900  0.00211000  1
  C  C33  1  0.84642300  0.88097100  0.50211000  1
  C  C34  1  0.15357700  0.38097100  0.99789000  1
  C  C35  1  0.84642300  0.61902900  0.49789000  1
  C  C36  1  0.84642300  0.88097100  0.99789000  1
  C  C37  1  0.15357700  0.11902900  0.49789000  1
  C  C38  1  0.84642300  0.61902900  0.00211000  1
  C  C39  1  0.15357700  0.38097100  0.50211000  1
  C  C40  1  0.14982000  0.39141600  0.79930200  1
  C  C41  1  0.85018000  0.60858400  0.29930200  1
  C  C42  1  0.14982000  0.10858400  0.20069800  1
  C  C43  1  0.85018000  0.89141600  0.70069800  1
  C  C44  1  0.85018000  0.60858400  0.20069800  1
  C  C45  1  0.14982000  0.39141600  0.70069800  1
  C  C46  1  0.85018000  0.89141600  0.79930200  1
  C  C47  1  0.14982000  0.10858400  0.29930200  1
  C  C48  1  0.38460300  0.36344500  0.75000000  1
  C  C49  1  0.61539700  0.63655500  0.25000000  1
  C  C50  1  0.38460300  0.13655500  0.25000000  1
  C  C51  1  0.61539700  0.86344500  0.75000000  1
  C  C52  1  0.28208700  0.49086400  0.75000000  1
  C  C53  1  0.71791300  0.50913600  0.25000000  1
  C  C54  1  0.28208700  0.00913600  0.25000000  1
  C  C55  1  0.71791300  0.99086400  0.75000000  1
  C  C56  1  0.24698200  0.09547400  0.75000000  1
  C  C57  1  0.75301800  0.90452600  0.25000000  1
  C  C58  1  0.24698200  0.40452600  0.25000000  1
  C  C59  1  0.75301800  0.59547400  0.75000000  1
  Ni  Ni60  1  0.09851500  0.14517200  0.75000000  1
  Ni  Ni61  1  0.90148500  0.85482800  0.25000000  1
  Ni  Ni62  1  0.09851500  0.35482800  0.25000000  1
  Ni  Ni63  1  0.90148500  0.64517200  0.75000000  1
  Cu  Cu64  1  0.23124200  0.08884700  0.95302100  1
  Cu  Cu65  1  0.76875800  0.91115300  0.45302100  1
  Cu  Cu66  1  0.23124200  0.41115300  0.04697900  1
  Cu  Cu67  1  0.76875800  0.58884700  0.54697900  1
  Cu  Cu68  1  0.76875800  0.91115300  0.04697900  1
  Cu  Cu69  1  0.23124200  0.08884700  0.54697900  1
  Cu  Cu70  1  0.76875800  0.58884700  0.95302100  1
  Cu  Cu71  1  0.23124200  0.41115300  0.45302100  1
  Cu  Cu72  1  0.24261000  0.40895700  0.75000000  1
  Cu  Cu73  1  0.75739000  0.59104300  0.25000000  1
  Cu  Cu74  1  0.24261000  0.09104300  0.25000000  1
  Cu  Cu75  1  0.75739000  0.90895700  0.75000000  1
  C  C76  1  0.60197500  0.10672700  0.83861000  1
  C  C77  1  0.39802500  0.89327300  0.33861000  1
  C  C78  1  0.60197500  0.39327300  0.16139000  1
  C  C79  1  0.39802500  0.60672700  0.66139000  1
  C  C80  1  0.39802500  0.89327300  0.16139000  1
  C  C81  1  0.60197500  0.10672700  0.66139000  1
  C  C82  1  0.39802500  0.60672700  0.83861000  1
  C  C83  1  0.60197500  0.39327300  0.33861000  1
  C  C84  1  0.68571600  0.11564100  0.91938100  1
  C  C85  1  0.31428400  0.88435900  0.41938100  1
  C  C86  1  0.68571600  0.38435900  0.08061900  1
  C  C87  1  0.31428400  0.61564100  0.58061900  1
  C  C88  1  0.31428400  0.88435900  0.08061900  1
  C  C89  1  0.68571600  0.11564100  0.58061900  1
  C  C90  1  0.31428400  0.61564100  0.91938100  1
  C  C91  1  0.68571600  0.38435900  0.41938100  1
  C  C92  1  0.92308200  0.31825100  0.93437500  1
  C  C93  1  0.07691800  0.68174900  0.43437500  1
  C  C94  1  0.92308200  0.18174900  0.06562500  1
  C  C95  1  0.07691800  0.81825100  0.56562500  1
  C  C96  1  0.07691800  0.68174900  0.06562500  1
  C  C97  1  0.92308200  0.31825100  0.56562500  1
  C  C98  1  0.07691800  0.81825100  0.93437500  1
  C  C99  1  0.92308200  0.18174900  0.43437500  1
  C  C100  1  0.91006100  0.38332000  0.86169300  1
  C  C101  1  0.08993900  0.61668000  0.36169300  1
  C  C102  1  0.91006100  0.11668000  0.13830700  1
  C  C103  1  0.08993900  0.88332000  0.63830700  1
  C  C104  1  0.08993900  0.61668000  0.13830700  1
  C  C105  1  0.91006100  0.38332000  0.63830700  1
  C  C106  1  0.08993900  0.88332000  0.86169300  1
  C  C107  1  0.91006100  0.11668000  0.36169300  1
  C  C108  1  0.47241800  0.31806600  0.89793200  1
  C  C109  1  0.52758200  0.68193400  0.39793200  1
  C  C110  1  0.47241800  0.18193400  0.10206800  1
  C  C111  1  0.52758200  0.81806600  0.60206800  1
  C  C112  1  0.52758200  0.68193400  0.10206800  1
  C  C113  1  0.47241800  0.31806600  0.60206800  1
  C  C114  1  0.52758200  0.81806600  0.89793200  1
  C  C115  1  0.47241800  0.18193400  0.39793200  1
  C  C116  1  0.64298900  0.29217600  0.75000000  1
  C  C117  1  0.35701100  0.70782400  0.25000000  1
  C  C118  1  0.64298900  0.20782400  0.25000000  1
  C  C119  1  0.35701100  0.79217600  0.75000000  1
  C  C120  1  0.02311400  0.17120700  0.81663500  1
  C  C121  1  0.97688600  0.82879300  0.31663500  1
  C  C122  1  0.02311400  0.32879300  0.18336500  1
  C  C123  1  0.97688600  0.67120700  0.68336500  1
  C  C124  1  0.97688600  0.82879300  0.18336500  1
  C  C125  1  0.02311400  0.17120700  0.68336500  1
  C  C126  1  0.97688600  0.67120700  0.81663500  1
  C  C127  1  0.02311400  0.32879300  0.31663500  1
