# generated using pymatgen
data_CuNiC2
_symmetry_space_group_name_H-M   'P 1'
_cell_length_a   2.95969300
_cell_length_b   8.07842557
_cell_length_c   8.35668231
_cell_angle_alpha   88.74829168
_cell_angle_beta   81.19824491
_cell_angle_gamma   82.29021220
_symmetry_Int_Tables_number   1
_chemical_formula_structural   CuNiC2
_chemical_formula_sum   'Cu4 Ni4 C8'
_cell_volume   195.66737118
_cell_formula_units_Z   4
loop_
 _symmetry_equiv_pos_site_id
 _symmetry_equiv_pos_as_xyz
  1  'x, y, z'
loop_
 _atom_site_type_symbol
 _atom_site_label
 _atom_site_symmetry_multiplicity
 _atom_site_fract_x
 _atom_site_fract_y
 _atom_site_fract_z
 _atom_site_occupancy
  Ni  Ni0  1  0.60771000  0.58570800  0.24988200  1
  Ni  Ni1  1  0.39229000  0.41429200  0.75011800  1
  Ni  Ni2  1  0.17808500  0.23654200  0.40281500  1
  Ni  Ni3  1  0.82191500  0.76345800  0.59718500  1
  Cu  Cu4  1  0.15367500  0.73663500  0.91629200  1
  Cu  Cu5  1  0.36538400  0.91501900  0.26259200  1
  Cu  Cu6  1  0.63461600  0.08498100  0.73740800  1
  Cu  Cu7  1  0.84632500  0.26336500  0.08370800  1
  C  C8  1  0.39787600  0.23724600  0.92937100  1
  C  C9  1  0.21148700  0.90554600  0.71727000  1
  C  C10  1  0.78851300  0.09445400  0.28273000  1
  C  C11  1  0.60212400  0.76275400  0.07062900  1
  C  C12  1  0.81586100  0.59226500  0.77056400  1
  C  C13  1  0.95716300  0.74271300  0.37031800  1
  C  C14  1  0.18413900  0.40773500  0.22943600  1
  C  C15  1  0.04283700  0.25728700  0.62968200  1
