# generated using pymatgen
data_Cu4NiC2
_symmetry_space_group_name_H-M   'P 1'
_cell_length_a   6.24699800
_cell_length_b   8.18057400
_cell_length_c   13.78750100
_cell_angle_alpha   90.00000000
_cell_angle_beta   90.00000000
_cell_angle_gamma   90.00000000
_symmetry_Int_Tables_number   1
_chemical_formula_structural   Cu4NiC2
_chemical_formula_sum   'Cu16 Ni4 C8'
_cell_volume   704.59685669
_cell_formula_units_Z   4
loop_
 _symmetry_equiv_pos_site_id
 _symmetry_equiv_pos_as_xyz
  1  'x, y, z'
loop_
 _atom_site_type_symbol
 _atom_site_label
 _atom_site_symmetry_multiplicity
 _atom_site_fract_x
 _atom_site_fract_y
 _atom_site_fract_z
 _atom_site_occupancy
  C  C0  1  0.50000000  0.00000000  0.50000000  1
  C  C1  1  0.00000000  0.50000000  0.00000000  1
  C  C2  1  0.50000000  0.50000000  0.50000000  1
  C  C3  1  0.00000000  0.00000000  0.00000000  1
  C  C4  1  0.00611200  0.75000000  0.27256600  1
  C  C5  1  0.49388800  0.75000000  0.77256600  1
  C  C6  1  0.99388800  0.25000000  0.72743400  1
  C  C7  1  0.50611200  0.25000000  0.22743400  1
  Ni  Ni8  1  0.59099800  0.75000000  0.09371400  1
  Ni  Ni9  1  0.90900200  0.75000000  0.59371400  1
  Ni  Ni10  1  0.40900200  0.25000000  0.90628600  1
  Ni  Ni11  1  0.09099800  0.25000000  0.40628600  1
  Cu  Cu12  1  0.72957100  0.95837700  0.16543800  1
  Cu  Cu13  1  0.77042900  0.54162300  0.66543800  1
  Cu  Cu14  1  0.27042900  0.45837700  0.83456200  1
  Cu  Cu15  1  0.22957100  0.04162300  0.33456200  1
  Cu  Cu16  1  0.27042900  0.04162300  0.83456200  1
  Cu  Cu17  1  0.22957100  0.45837700  0.33456200  1
  Cu  Cu18  1  0.72957100  0.54162300  0.16543800  1
  Cu  Cu19  1  0.77042900  0.95837700  0.66543800  1
  Cu  Cu20  1  0.25174700  0.75000000  0.09525800  1
  Cu  Cu21  1  0.24825300  0.75000000  0.59525800  1
  Cu  Cu22  1  0.74825300  0.25000000  0.90474200  1
  Cu  Cu23  1  0.75174700  0.25000000  0.40474200  1
  Cu  Cu24  1  0.71974200  0.75000000  0.94863400  1
  Cu  Cu25  1  0.78025800  0.75000000  0.44863400  1
  Cu  Cu26  1  0.28025800  0.25000000  0.05136600  1
  Cu  Cu27  1  0.21974200  0.25000000  0.55136600  1
