# generated using pymatgen
data_Cu5Ni2C5
_symmetry_space_group_name_H-M   'P 1'
_cell_length_a   9.66755200
_cell_length_b   9.66967300
_cell_length_c   9.67897100
_cell_angle_alpha   90.00000000
_cell_angle_beta   90.00000000
_cell_angle_gamma   90.00000000
_symmetry_Int_Tables_number   1
_chemical_formula_structural   Cu5Ni2C5
_chemical_formula_sum   'Cu20 Ni8 C20'
_cell_volume   904.81021116
_cell_formula_units_Z   4
loop_
 _symmetry_equiv_pos_site_id
 _symmetry_equiv_pos_as_xyz
  1  'x, y, z'
loop_
 _atom_site_type_symbol
 _atom_site_label
 _atom_site_symmetry_multiplicity
 _atom_site_fract_x
 _atom_site_fract_y
 _atom_site_fract_z
 _atom_site_occupancy
  C  C0  1  0.28386000  0.16636400  0.99852100  1
  C  C1  1  0.78386000  0.33363600  0.00147900  1
  C  C2  1  0.71614000  0.66636400  0.50147900  1
  C  C3  1  0.21614000  0.83363600  0.49852100  1
  C  C4  1  0.47884300  0.74639800  0.16711700  1
  C  C5  1  0.97884300  0.75360200  0.83288300  1
  C  C6  1  0.66593600  0.02163700  0.73284800  1
  C  C7  1  0.16593600  0.47836300  0.26715200  1
  C  C8  1  0.52115700  0.24639800  0.33288300  1
  C  C9  1  0.02115700  0.25360200  0.66711700  1
  C  C10  1  0.33406400  0.52163700  0.76715200  1
  C  C11  1  0.83406400  0.97836300  0.23284800  1
  C  C12  1  0.34201100  0.85294100  0.85533300  1
  C  C13  1  0.84201100  0.64705900  0.14466700  1
  C  C14  1  0.64420100  0.65565000  0.84338400  1
  C  C15  1  0.14420100  0.84435000  0.15661600  1
  C  C16  1  0.65798900  0.35294100  0.64466700  1
  C  C17  1  0.15798900  0.14705900  0.35533300  1
  C  C18  1  0.35579900  0.15565000  0.65661600  1
  C  C19  1  0.85579900  0.34435000  0.34338400  1
  Ni  Ni20  1  0.08597900  0.46563000  0.94886700  1
  Ni  Ni21  1  0.58597900  0.03437000  0.05113300  1
  Ni  Ni22  1  0.02669400  0.57897500  0.56344900  1
  Ni  Ni23  1  0.52669400  0.92102500  0.43655100  1
  Ni  Ni24  1  0.47330600  0.42102500  0.06344900  1
  Ni  Ni25  1  0.97330600  0.07897500  0.93655100  1
  Ni  Ni26  1  0.41402100  0.53437000  0.44886700  1
  Ni  Ni27  1  0.91402100  0.96563000  0.55113300  1
  Cu  Cu28  1  0.73116500  0.41110500  0.47406000  1
  Cu  Cu29  1  0.23116500  0.08889500  0.52594000  1
  Cu  Cu30  1  0.72181400  0.74085800  0.25708300  1
  Cu  Cu31  1  0.22181400  0.75914200  0.74291700  1
  Cu  Cu32  1  0.77818600  0.25914200  0.75708300  1
  Cu  Cu33  1  0.27818600  0.24085800  0.24291700  1
  Cu  Cu34  1  0.76883500  0.58889500  0.97406000  1
  Cu  Cu35  1  0.26883500  0.91110500  0.02594000  1
  Cu  Cu36  1  0.24103700  0.72066500  0.26245600  1
  Cu  Cu37  1  0.74103700  0.77933500  0.73754400  1
  Cu  Cu38  1  0.58759000  0.51355500  0.72286100  1
  Cu  Cu39  1  0.08759000  0.98644500  0.27713900  1
  Cu  Cu40  1  0.41241000  0.01355500  0.77713900  1
  Cu  Cu41  1  0.91241000  0.48644500  0.22286100  1
  Cu  Cu42  1  0.52500600  0.22004900  0.58961600  1
  Cu  Cu43  1  0.02500600  0.27995100  0.41038400  1
  Cu  Cu44  1  0.47499400  0.72004900  0.91038400  1
  Cu  Cu45  1  0.97499400  0.77995100  0.08961600  1
  Cu  Cu46  1  0.25896300  0.27933500  0.76245600  1
  Cu  Cu47  1  0.75896300  0.22066500  0.23754400  1
