# generated using pymatgen
data_Cu9NiC32
_symmetry_space_group_name_H-M   'P 1'
_cell_length_a   9.31390900
_cell_length_b   15.44164400
_cell_length_c   12.65176179
_cell_angle_alpha   90.00000000
_cell_angle_beta   113.70038319
_cell_angle_gamma   90.00000000
_symmetry_Int_Tables_number   1
_chemical_formula_structural   Cu9NiC32
_chemical_formula_sum   'Cu36 Ni4 C128'
_cell_volume   1666.13708192
_cell_formula_units_Z   4
loop_
 _symmetry_equiv_pos_site_id
 _symmetry_equiv_pos_as_xyz
  1  'x, y, z'
loop_
 _atom_site_type_symbol
 _atom_site_label
 _atom_site_symmetry_multiplicity
 _atom_site_fract_x
 _atom_site_fract_y
 _atom_site_fract_z
 _atom_site_occupancy
  C  C0  1  0.49493400  0.48936200  0.24788500  1
  C  C1  1  0.49493400  0.01063800  0.74788500  1
  C  C2  1  0.50506600  0.51063800  0.75211500  1
  C  C3  1  0.50506600  0.98936200  0.25211500  1
  C  C4  1  0.85402700  0.50495900  0.35759900  1
  C  C5  1  0.85402700  0.99504100  0.85759900  1
  C  C6  1  0.14597300  0.49504100  0.64240100  1
  C  C7  1  0.14597300  0.00495900  0.14240100  1
  C  C8  1  0.81258500  0.46465100  0.45770000  1
  C  C9  1  0.81258500  0.03534900  0.95770000  1
  C  C10  1  0.18741500  0.53534900  0.54230000  1
  C  C11  1  0.18741500  0.96465100  0.04230000  1
  C  C12  1  0.13476700  0.45838700  0.15369300  1
  C  C13  1  0.13476700  0.04161300  0.65369300  1
  C  C14  1  0.86523300  0.54161300  0.84630700  1
  C  C15  1  0.86523300  0.95838700  0.34630700  1
  C  C16  1  0.17702000  0.51304600  0.26985400  1
  C  C17  1  0.17702000  0.98695400  0.76985400  1
  C  C18  1  0.82298000  0.48695400  0.73014600  1
  C  C19  1  0.82298000  0.01304600  0.23014600  1
  C  C20  1  0.46035800  0.66903400  0.12582000  1
  C  C21  1  0.46035800  0.83096600  0.62582000  1
  C  C22  1  0.53964200  0.33096600  0.87418000  1
  C  C23  1  0.53964200  0.16903400  0.37418000  1
  C  C24  1  0.51168800  0.68503800  0.26000700  1
  C  C25  1  0.51168800  0.81496200  0.76000700  1
  C  C26  1  0.48831200  0.31496200  0.73999300  1
  C  C27  1  0.48831200  0.18503800  0.23999300  1
  C  C28  1  0.13391500  0.94016200  0.47404200  1
  C  C29  1  0.13391500  0.55983800  0.97404200  1
  C  C30  1  0.86608500  0.05983800  0.52595800  1
  C  C31  1  0.86608500  0.44016200  0.02595800  1
  C  C32  1  0.41305200  0.78931700  0.02602600  1
  C  C33  1  0.41305200  0.71068300  0.52602600  1
  C  C34  1  0.58694800  0.21068300  0.97397400  1
  C  C35  1  0.58694800  0.28931700  0.47397400  1
  C  C36  1  0.43124600  0.71433500  0.94813000  1
  C  C37  1  0.43124600  0.78566500  0.44813000  1
  C  C38  1  0.56875400  0.28566500  0.05187000  1
  C  C39  1  0.56875400  0.21433500  0.55187000  1
  C  C40  1  0.08220900  0.66066600  0.76575800  1
  C  C41  1  0.08220900  0.83933400  0.26575800  1
  C  C42  1  0.91779100  0.33933400  0.23424200  1
  C  C43  1  0.91779100  0.16066600  0.73424200  1
  C  C44  1  0.13655300  0.77321700  0.78363300  1
  C  C45  1  0.13655300  0.72678300  0.28363300  1
  C  C46  1  0.86344700  0.22678300  0.21636700  1
  C  C47  1  0.86344700  0.27321700  0.71636700  1
  C  C48  1  0.17577700  0.70720000  0.68038900  1
  C  C49  1  0.17577700  0.79280000  0.18038900  1
  C  C50  1  0.82422300  0.29280000  0.31961100  1
  C  C51  1  0.82422300  0.20720000  0.81961100  1
  C  C52  1  0.81641300  0.69400700  0.73077300  1
  C  C53  1  0.81641300  0.80599300  0.23077300  1
  C  C54  1  0.18358700  0.30599300  0.26922700  1
  C  C55  1  0.18358700  0.19400700  0.76922700  1
  C  C56  1  0.70982900  0.77337200  0.62457000  1
  C  C57  1  0.70982900  0.72662800  0.12457000  1
  C  C58  1  0.29017100  0.22662800  0.37543000  1
  C  C59  1  0.29017100  0.27337200  0.87543000  1
  C  C60  1  0.87123900  0.80707600  0.75429100  1
  C  C61  1  0.87123900  0.69292400  0.25429100  1
  C  C62  1  0.12876100  0.19292400  0.24570900  1
  C  C63  1  0.12876100  0.30707600  0.74570900  1
  C  C64  1  0.87126200  0.61211500  0.58995300  1
  C  C65  1  0.87126200  0.88788500  0.08995300  1
  C  C66  1  0.12873800  0.38788500  0.41004700  1
  C  C67  1  0.12873800  0.11211500  0.91004700  1
  C  C68  1  0.95537400  0.66213000  0.50095200  1
  C  C69  1  0.95537400  0.83787000  0.00095200  1
  C  C70  1  0.04462600  0.33787000  0.49904800  1
  C  C71  1  0.04462600  0.16213000  0.99904800  1
  C  C72  1  0.75846600  0.68962800  0.48167900  1
  C  C73  1  0.75846600  0.81037200  0.98167900  1
  C  C74  1  0.24153400  0.31037200  0.51832100  1
  C  C75  1  0.24153400  0.18962800  0.01832100  1
  C  C76  1  0.96939200  0.87853900  0.63970100  1
  C  C77  1  0.96939200  0.62146100  0.13970100  1
  C  C78  1  0.03060800  0.12146100  0.36029900  1
  C  C79  1  0.03060800  0.37853900  0.86029900  1
  C  C80  1  0.82363400  0.83903500  0.50660500  1
  C  C81  1  0.82363400  0.66096500  0.00660500  1
  C  C82  1  0.17636600  0.16096500  0.49339500  1
  C  C83  1  0.17636600  0.33903500  0.99339500  1
  C  C84  1  0.18247500  0.83154600  0.58426300  1
  C  C85  1  0.18247500  0.66845400  0.08426300  1
  C  C86  1  0.81752500  0.16845400  0.41573700  1
  C  C87  1  0.81752500  0.33154600  0.91573700  1
  C  C88  1  0.05137200  0.77291900  0.46356500  1
  C  C89  1  0.05137200  0.72708100  0.96356500  1
  C  C90  1  0.94862800  0.22708100  0.53643500  1
  C  C91  1  0.94862800  0.27291900  0.03643500  1
  C  C92  1  0.49225200  0.55006100  0.49335700  1
  C  C93  1  0.49225200  0.94993900  0.99335700  1
  C  C94  1  0.50774800  0.44993900  0.50664300  1
  C  C95  1  0.50774800  0.05006100  0.00664300  1
  C  C96  1  0.59091700  0.49411300  0.02892100  1
  C  C97  1  0.59091700  0.00588700  0.52892100  1
  C  C98  1  0.40908300  0.50588700  0.97107900  1
  C  C99  1  0.40908300  0.99411300  0.47107900  1
  C  C100  1  0.09486900  0.71961500  0.72182900  1
  C  C101  1  0.09486900  0.78038500  0.22182900  1
  C  C102  1  0.90513100  0.28038500  0.27817100  1
  C  C103  1  0.90513100  0.21961500  0.77817100  1
  C  C104  1  0.82503800  0.75535800  0.68991400  1
  C  C105  1  0.82503800  0.74464200  0.18991400  1
  C  C106  1  0.17496200  0.24464200  0.31008600  1
  C  C107  1  0.17496200  0.25535800  0.81008600  1
  C  C108  1  0.87577300  0.67177100  0.54432500  1
  C  C109  1  0.87577300  0.82822900  0.04432500  1
  C  C110  1  0.12422700  0.32822900  0.45567500  1
  C  C111  1  0.12422700  0.17177100  0.95567500  1
  C  C112  1  0.94271300  0.82864600  0.57265100  1
  C  C113  1  0.94271300  0.67135400  0.07265100  1
  C  C114  1  0.05728700  0.17135400  0.42734900  1
  C  C115  1  0.05728700  0.32864600  0.92734900  1
  C  C116  1  0.06225100  0.83030400  0.51799600  1
  C  C117  1  0.06225100  0.66969600  0.01799600  1
  C  C118  1  0.93774900  0.16969600  0.48200400  1
  C  C119  1  0.93774900  0.33030400  0.98200400  1
  Ni  Ni120  1  0.93635000  0.74351300  0.63141800  1
  Ni  Ni121  1  0.93635000  0.75648700  0.13141800  1
  Ni  Ni122  1  0.06365000  0.25648700  0.36858200  1
  Ni  Ni123  1  0.06365000  0.24351300  0.86858200  1
  C  C124  1  0.45649100  0.31858000  0.16925100  1
  C  C125  1  0.45649100  0.18142000  0.66925100  1
  C  C126  1  0.54350900  0.68142000  0.83074900  1
  C  C127  1  0.54350900  0.81858000  0.33074900  1
  C  C128  1  0.93325500  0.06623200  0.13241400  1
  C  C129  1  0.93325500  0.43376800  0.63241400  1
  C  C130  1  0.06674500  0.93376800  0.86758600  1
  C  C131  1  0.06674500  0.56623200  0.36758600  1
  Cu  Cu132  1  0.48993200  0.58183200  0.40073500  1
  Cu  Cu133  1  0.48993200  0.91816800  0.90073500  1
  Cu  Cu134  1  0.51006800  0.41816800  0.59926500  1
  Cu  Cu135  1  0.51006800  0.08183200  0.09926500  1
  Cu  Cu136  1  0.76689000  0.48018600  0.37423900  1
  Cu  Cu137  1  0.76689000  0.01981400  0.87423900  1
  Cu  Cu138  1  0.23311000  0.51981400  0.62576100  1
  Cu  Cu139  1  0.23311000  0.98018600  0.12576100  1
  Cu  Cu140  1  0.48359000  0.59229900  0.57672400  1
  Cu  Cu141  1  0.48359000  0.90770100  0.07672400  1
  Cu  Cu142  1  0.51641000  0.40770100  0.42327600  1
  Cu  Cu143  1  0.51641000  0.09229900  0.92327600  1
  Cu  Cu144  1  0.22233000  0.48698200  0.21786500  1
  Cu  Cu145  1  0.22233000  0.01301800  0.71786500  1
  Cu  Cu146  1  0.77767000  0.51301800  0.78213500  1
  Cu  Cu147  1  0.77767000  0.98698200  0.28213500  1
  Cu  Cu148  1  0.65368100  0.48850800  0.13733900  1
  Cu  Cu149  1  0.65368100  0.01149200  0.63733900  1
  Cu  Cu150  1  0.34631900  0.51149200  0.86266100  1
  Cu  Cu151  1  0.34631900  0.98850800  0.36266100  1
  Cu  Cu152  1  0.49902600  0.63895700  0.20311800  1
  Cu  Cu153  1  0.49902600  0.86104300  0.70311800  1
  Cu  Cu154  1  0.50097400  0.36104300  0.79688200  1
  Cu  Cu155  1  0.50097400  0.13895700  0.29688200  1
  Cu  Cu156  1  0.66239300  0.49087400  0.96185200  1
  Cu  Cu157  1  0.66239300  0.00912600  0.46185200  1
  Cu  Cu158  1  0.33760700  0.50912600  0.03814800  1
  Cu  Cu159  1  0.33760700  0.99087400  0.53814800  1
  Cu  Cu160  1  0.03487600  0.90687700  0.44830900  1
  Cu  Cu161  1  0.03487600  0.59312300  0.94830900  1
  Cu  Cu162  1  0.96512400  0.09312300  0.55169100  1
  Cu  Cu163  1  0.96512400  0.40687700  0.05169100  1
  Cu  Cu164  1  0.38969800  0.72745800  0.00693500  1
  Cu  Cu165  1  0.38969800  0.77254200  0.50693500  1
  Cu  Cu166  1  0.61030200  0.27254200  0.99306500  1
  Cu  Cu167  1  0.61030200  0.22745800  0.49306500  1
