# generated using pymatgen
data_Cu6Ni3C2
_symmetry_space_group_name_H-M   'P 1'
_cell_length_a   13.96027343
_cell_length_b   13.96027343
_cell_length_c   13.96027343
_cell_angle_alpha   90.00000000
_cell_angle_beta   90.00000000
_cell_angle_gamma   90.00000000
_symmetry_Int_Tables_number   1
_chemical_formula_structural   Cu6Ni3C2
_chemical_formula_sum   'Cu96 Ni48 C32'
_cell_volume   2720.70699856
_cell_formula_units_Z   16
loop_
 _symmetry_equiv_pos_site_id
 _symmetry_equiv_pos_as_xyz
  1  'x, y, z'
loop_
 _atom_site_type_symbol
 _atom_site_label
 _atom_site_symmetry_multiplicity
 _atom_site_fract_x
 _atom_site_fract_y
 _atom_site_fract_z
 _atom_site_occupancy
  C  C0  1  0.17011624  0.17011624  0.17011624  1
  C  C1  1  0.32988376  0.82988376  0.67011624  1
  C  C2  1  0.82988376  0.67011624  0.32988376  1
  C  C3  1  0.67011624  0.32988376  0.82988376  1
  C  C4  1  0.57988376  0.57988376  0.57988376  1
  C  C5  1  0.42011624  0.07988376  0.92011624  1
  C  C6  1  0.92011624  0.42011624  0.07988376  1
  C  C7  1  0.07988376  0.92011624  0.42011624  1
  C  C8  1  0.99004274  0.37500000  0.75995726  1
  C  C9  1  0.50995726  0.62500000  0.25995726  1
  C  C10  1  0.00995726  0.87500000  0.74004274  1
  C  C11  1  0.49004274  0.12500000  0.24004274  1
  C  C12  1  0.37500000  0.75995726  0.99004274  1
  C  C13  1  0.62500000  0.25995726  0.50995726  1
  C  C14  1  0.87500000  0.74004274  0.00995726  1
  C  C15  1  0.12500000  0.24004274  0.49004274  1
  C  C16  1  0.75995726  0.99004274  0.37500000  1
  C  C17  1  0.25995726  0.50995726  0.62500000  1
  C  C18  1  0.74004274  0.00995726  0.87500000  1
  C  C19  1  0.24004274  0.49004274  0.12500000  1
  C  C20  1  0.12500000  0.62500000  0.87500000  1
  C  C21  1  0.37500000  0.37500000  0.37500000  1
  C  C22  1  0.87500000  0.12500000  0.62500000  1
  C  C23  1  0.62500000  0.87500000  0.12500000  1
  C  C24  1  0.01143276  0.01143276  0.01143276  1
  C  C25  1  0.48856724  0.98856724  0.51143276  1
  C  C26  1  0.98856724  0.51143276  0.48856724  1
  C  C27  1  0.51143276  0.48856724  0.98856724  1
  C  C28  1  0.73856724  0.73856724  0.73856724  1
  C  C29  1  0.26143276  0.23856724  0.76143276  1
  C  C30  1  0.76143276  0.26143276  0.23856724  1
  C  C31  1  0.23856724  0.76143276  0.26143276  1
  Ni  Ni32  1  0.23190021  0.29790831  0.95566825  1
  Ni  Ni33  1  0.26809979  0.70209169  0.45566825  1
  Ni  Ni34  1  0.76809979  0.79790831  0.54433175  1
  Ni  Ni35  1  0.73190021  0.20209169  0.04433175  1
  Ni  Ni36  1  0.29790831  0.95566825  0.23190021  1
  Ni  Ni37  1  0.70209169  0.45566825  0.26809979  1
  Ni  Ni38  1  0.79790831  0.54433175  0.76809979  1
  Ni  Ni39  1  0.20209169  0.04433175  0.73190021  1
  Ni  Ni40  1  0.95566825  0.23190021  0.29790831  1
  Ni  Ni41  1  0.45566825  0.26809979  0.70209169  1
  Ni  Ni42  1  0.54433175  0.76809979  0.79790831  1
  Ni  Ni43  1  0.04433175  0.73190021  0.20209169  1
  Ni  Ni44  1  0.51809979  0.79433175  0.45209169  1
  Ni  Ni45  1  0.48190021  0.29433175  0.04790831  1
  Ni  Ni46  1  0.98190021  0.20566825  0.95209169  1
  Ni  Ni47  1  0.01809979  0.70566825  0.54790831  1
  Ni  Ni48  1  0.45209169  0.51809979  0.79433175  1
  Ni  Ni49  1  0.04790831  0.48190021  0.29433175  1
  Ni  Ni50  1  0.95209169  0.98190021  0.20566825  1
  Ni  Ni51  1  0.54790831  0.01809979  0.70566825  1
  Ni  Ni52  1  0.79433175  0.45209169  0.51809979  1
  Ni  Ni53  1  0.29433175  0.04790831  0.48190021  1
  Ni  Ni54  1  0.20566825  0.95209169  0.98190021  1
  Ni  Ni55  1  0.70566825  0.54790831  0.01809979  1
  Ni  Ni56  1  0.19340750  0.38171251  0.89335762  1
  Ni  Ni57  1  0.30659250  0.61828749  0.39335762  1
  Ni  Ni58  1  0.80659250  0.88171251  0.60664238  1
  Ni  Ni59  1  0.69340750  0.11828749  0.10664238  1
  Ni  Ni60  1  0.38171251  0.89335762  0.19340750  1
  Ni  Ni61  1  0.61828749  0.39335762  0.30659250  1
  Ni  Ni62  1  0.88171251  0.60664238  0.80659250  1
  Ni  Ni63  1  0.11828749  0.10664238  0.69340750  1
  Ni  Ni64  1  0.89335762  0.19340750  0.38171251  1
  Ni  Ni65  1  0.39335762  0.30659250  0.61828749  1
  Ni  Ni66  1  0.60664238  0.80659250  0.88171251  1
  Ni  Ni67  1  0.10664238  0.69340750  0.11828749  1
  Ni  Ni68  1  0.55659250  0.85664238  0.36828749  1
  Ni  Ni69  1  0.44340750  0.35664238  0.13171251  1
  Ni  Ni70  1  0.94340750  0.14335762  0.86828749  1
  Ni  Ni71  1  0.05659250  0.64335762  0.63171251  1
  Ni  Ni72  1  0.36828749  0.55659250  0.85664238  1
  Ni  Ni73  1  0.13171251  0.44340750  0.35664238  1
  Ni  Ni74  1  0.86828749  0.94340750  0.14335762  1
  Ni  Ni75  1  0.63171251  0.05659250  0.64335762  1
  Ni  Ni76  1  0.85664238  0.36828749  0.55659250  1
  Ni  Ni77  1  0.35664238  0.13171251  0.44340750  1
  Ni  Ni78  1  0.14335762  0.86828749  0.94340750  1
  Ni  Ni79  1  0.64335762  0.63171251  0.05659250  1
  Cu  Cu80  1  0.23650923  0.30701210  0.04415627  1
  Cu  Cu81  1  0.26349077  0.69298790  0.54415627  1
  Cu  Cu82  1  0.76349077  0.80701210  0.45584373  1
  Cu  Cu83  1  0.73650923  0.19298790  0.95584373  1
  Cu  Cu84  1  0.30701210  0.04415627  0.23650923  1
  Cu  Cu85  1  0.69298790  0.54415627  0.26349077  1
  Cu  Cu86  1  0.80701210  0.45584373  0.76349077  1
  Cu  Cu87  1  0.19298790  0.95584373  0.73650923  1
  Cu  Cu88  1  0.04415627  0.23650923  0.30701210  1
  Cu  Cu89  1  0.54415627  0.26349077  0.69298790  1
  Cu  Cu90  1  0.45584373  0.76349077  0.80701210  1
  Cu  Cu91  1  0.95584373  0.73650923  0.19298790  1
  Cu  Cu92  1  0.51349077  0.70584373  0.44298790  1
  Cu  Cu93  1  0.48650923  0.20584373  0.05701210  1
  Cu  Cu94  1  0.98650923  0.29415627  0.94298790  1
  Cu  Cu95  1  0.01349077  0.79415627  0.55701210  1
  Cu  Cu96  1  0.44298790  0.51349077  0.70584373  1
  Cu  Cu97  1  0.05701210  0.48650923  0.20584373  1
  Cu  Cu98  1  0.94298790  0.98650923  0.29415627  1
  Cu  Cu99  1  0.55701210  0.01349077  0.79415627  1
  Cu  Cu100  1  0.70584373  0.44298790  0.51349077  1
  Cu  Cu101  1  0.20584373  0.05701210  0.48650923  1
  Cu  Cu102  1  0.29415627  0.94298790  0.98650923  1
  Cu  Cu103  1  0.79415627  0.55701210  0.01349077  1
  Cu  Cu104  1  0.25579685  0.22296405  0.90685392  1
  Cu  Cu105  1  0.24420315  0.77703595  0.40685392  1
  Cu  Cu106  1  0.74420315  0.72296405  0.59314608  1
  Cu  Cu107  1  0.75579685  0.27703595  0.09314608  1
  Cu  Cu108  1  0.22296405  0.90685392  0.25579685  1
  Cu  Cu109  1  0.77703595  0.40685392  0.24420315  1
  Cu  Cu110  1  0.72296405  0.59314608  0.74420315  1
  Cu  Cu111  1  0.27703595  0.09314608  0.75579685  1
  Cu  Cu112  1  0.90685392  0.25579685  0.22296405  1
  Cu  Cu113  1  0.40685392  0.24420315  0.77703595  1
  Cu  Cu114  1  0.59314608  0.74420315  0.72296405  1
  Cu  Cu115  1  0.09314608  0.75579685  0.27703595  1
  Cu  Cu116  1  0.49420315  0.84314608  0.52703595  1
  Cu  Cu117  1  0.50579685  0.34314608  0.97296405  1
  Cu  Cu118  1  0.00579685  0.15685392  0.02703595  1
  Cu  Cu119  1  0.99420315  0.65685392  0.47296405  1
  Cu  Cu120  1  0.52703595  0.49420315  0.84314608  1
  Cu  Cu121  1  0.97296405  0.50579685  0.34314608  1
  Cu  Cu122  1  0.02703595  0.00579685  0.15685392  1
  Cu  Cu123  1  0.47296405  0.99420315  0.65685392  1
  Cu  Cu124  1  0.84314608  0.52703595  0.49420315  1
  Cu  Cu125  1  0.34314608  0.97296405  0.50579685  1
  Cu  Cu126  1  0.15685392  0.02703595  0.00579685  1
  Cu  Cu127  1  0.65685392  0.47296405  0.99420315  1
  Cu  Cu128  1  0.15571281  0.45159820  0.93267603  1
  Cu  Cu129  1  0.34428719  0.54840180  0.43267603  1
  Cu  Cu130  1  0.84428719  0.95159820  0.56732397  1
  Cu  Cu131  1  0.65571281  0.04840180  0.06732397  1
  Cu  Cu132  1  0.45159820  0.93267603  0.15571281  1
  Cu  Cu133  1  0.54840180  0.43267603  0.34428719  1
  Cu  Cu134  1  0.95159820  0.56732397  0.84428719  1
  Cu  Cu135  1  0.04840180  0.06732397  0.65571281  1
  Cu  Cu136  1  0.93267603  0.15571281  0.45159820  1
  Cu  Cu137  1  0.43267603  0.34428719  0.54840180  1
  Cu  Cu138  1  0.56732397  0.84428719  0.95159820  1
  Cu  Cu139  1  0.06732397  0.65571281  0.04840180  1
  Cu  Cu140  1  0.59428719  0.81732397  0.29840180  1
  Cu  Cu141  1  0.40571281  0.31732397  0.20159820  1
  Cu  Cu142  1  0.90571281  0.18267603  0.79840180  1
  Cu  Cu143  1  0.09428719  0.68267603  0.70159820  1
  Cu  Cu144  1  0.29840180  0.59428719  0.81732397  1
  Cu  Cu145  1  0.20159820  0.40571281  0.31732397  1
  Cu  Cu146  1  0.79840180  0.90571281  0.18267603  1
  Cu  Cu147  1  0.70159820  0.09428719  0.68267603  1
  Cu  Cu148  1  0.81732397  0.29840180  0.59428719  1
  Cu  Cu149  1  0.31732397  0.20159820  0.40571281  1
  Cu  Cu150  1  0.18267603  0.79840180  0.90571281  1
  Cu  Cu151  1  0.68267603  0.70159820  0.09428719  1
  Cu  Cu152  1  0.20313290  0.36915891  0.80104053  1
  Cu  Cu153  1  0.29686710  0.63084109  0.30104053  1
  Cu  Cu154  1  0.79686710  0.86915891  0.69895947  1
  Cu  Cu155  1  0.70313290  0.13084109  0.19895947  1
  Cu  Cu156  1  0.36915891  0.80104053  0.20313290  1
  Cu  Cu157  1  0.63084109  0.30104053  0.29686710  1
  Cu  Cu158  1  0.86915891  0.69895947  0.79686710  1
  Cu  Cu159  1  0.13084109  0.19895947  0.70313290  1
  Cu  Cu160  1  0.80104053  0.20313290  0.36915891  1
  Cu  Cu161  1  0.30104053  0.29686710  0.63084109  1
  Cu  Cu162  1  0.69895947  0.79686710  0.86915891  1
  Cu  Cu163  1  0.19895947  0.70313290  0.13084109  1
  Cu  Cu164  1  0.54686710  0.94895947  0.38084109  1
  Cu  Cu165  1  0.45313290  0.44895947  0.11915891  1
  Cu  Cu166  1  0.95313290  0.05104053  0.88084109  1
  Cu  Cu167  1  0.04686710  0.55104053  0.61915891  1
  Cu  Cu168  1  0.38084109  0.54686710  0.94895947  1
  Cu  Cu169  1  0.11915891  0.45313290  0.44895947  1
  Cu  Cu170  1  0.88084109  0.95313290  0.05104053  1
  Cu  Cu171  1  0.61915891  0.04686710  0.55104053  1
  Cu  Cu172  1  0.94895947  0.38084109  0.54686710  1
  Cu  Cu173  1  0.44895947  0.11915891  0.45313290  1
  Cu  Cu174  1  0.05104053  0.88084109  0.95313290  1
  Cu  Cu175  1  0.55104053  0.61915891  0.04686710  1
