# generated using pymatgen
data_CuNiC61
_symmetry_space_group_name_H-M   'P 1'
_cell_length_a   8.69535900
_cell_length_b   8.71591300
_cell_length_c   8.73989400
_cell_angle_alpha   90.00000000
_cell_angle_beta   90.00000000
_cell_angle_gamma   90.00000000
_symmetry_Int_Tables_number   1
_chemical_formula_structural   CuNiC61
_chemical_formula_sum   'Cu1 Ni1 C61'
_cell_volume   662.37902134
_cell_formula_units_Z   1
loop_
 _symmetry_equiv_pos_site_id
 _symmetry_equiv_pos_as_xyz
  1  'x, y, z'
loop_
 _atom_site_type_symbol
 _atom_site_label
 _atom_site_symmetry_multiplicity
 _atom_site_fract_x
 _atom_site_fract_y
 _atom_site_fract_z
 _atom_site_occupancy
  Ni  Ni0  1  0.99537000  0.00000000  0.00000000  1
  Cu  Cu1  1  0.99207700  0.50000000  0.50000000  1
  C  C2  1  0.97972300  0.00000000  0.50000000  1
  C  C3  1  0.99830400  0.50000000  0.00000000  1
  C  C4  1  0.49944200  0.00000000  0.00000000  1
  C  C5  1  0.51871700  0.00000000  0.50000000  1
  C  C6  1  0.50103500  0.50000000  0.00000000  1
  C  C7  1  0.49793500  0.50000000  0.50000000  1
  C  C8  1  0.00348500  0.24904100  0.24776800  1
  C  C9  1  0.00348500  0.24904100  0.75223200  1
  C  C10  1  0.00348500  0.75095900  0.24776800  1
  C  C11  1  0.00348500  0.75095900  0.75223200  1
  C  C12  1  0.49807200  0.24980500  0.24932500  1
  C  C13  1  0.49807200  0.24980500  0.75067500  1
  C  C14  1  0.49807200  0.75019500  0.24932500  1
  C  C15  1  0.49807200  0.75019500  0.75067500  1
  C  C16  1  0.24816800  0.00000000  0.22746200  1
  C  C17  1  0.24816800  0.00000000  0.77253800  1
  C  C18  1  0.25126700  0.50000000  0.24152200  1
  C  C19  1  0.25126700  0.50000000  0.75847800  1
  C  C20  1  0.74917700  0.00000000  0.24776800  1
  C  C21  1  0.74917700  0.00000000  0.75223200  1
  C  C22  1  0.74722000  0.50000000  0.24498100  1
  C  C23  1  0.74722000  0.50000000  0.75501900  1
  C  C24  1  0.25069300  0.25674900  0.00000000  1
  C  C25  1  0.25066300  0.27150800  0.50000000  1
  C  C26  1  0.25069300  0.74325100  0.00000000  1
  C  C27  1  0.25066300  0.72849200  0.50000000  1
  C  C28  1  0.74916400  0.25291900  0.00000000  1
  C  C29  1  0.74474800  0.25092000  0.50000000  1
  C  C30  1  0.74916400  0.74708100  0.00000000  1
  C  C31  1  0.74474800  0.74908000  0.50000000  1
  C  C32  1  0.27321500  0.00000000  0.00000000  1
  C  C33  1  0.26100100  0.50000000  0.00000000  1
  C  C34  1  0.27702000  0.50000000  0.50000000  1
  C  C35  1  0.72349300  0.00000000  0.00000000  1
  C  C36  1  0.74605400  0.00000000  0.50000000  1
  C  C37  1  0.74080000  0.50000000  0.00000000  1
  C  C38  1  0.71665100  0.50000000  0.50000000  1
  C  C39  1  0.25210700  0.24674400  0.25237700  1
  C  C40  1  0.25210700  0.24674400  0.74762300  1
  C  C41  1  0.25210700  0.75325600  0.25237700  1
  C  C42  1  0.25210700  0.75325600  0.74762300  1
  C  C43  1  0.75034200  0.24801000  0.25342400  1
  C  C44  1  0.75034200  0.24801000  0.74657600  1
  C  C45  1  0.75034200  0.75199000  0.25342400  1
  C  C46  1  0.75034200  0.75199000  0.74657600  1
  C  C47  1  0.01006600  0.00000000  0.27207400  1
  C  C48  1  0.01006600  0.00000000  0.72792600  1
  C  C49  1  0.00306500  0.50000000  0.22401800  1
  C  C50  1  0.00306500  0.50000000  0.77598200  1
  C  C51  1  0.49206100  0.00000000  0.26020200  1
  C  C52  1  0.49206100  0.00000000  0.73979800  1
  C  C53  1  0.49887900  0.50000000  0.24720600  1
  C  C54  1  0.49887900  0.50000000  0.75279400  1
  C  C55  1  0.00186200  0.26949000  0.00000000  1
  C  C56  1  0.01833000  0.22049300  0.50000000  1
  C  C57  1  0.00186200  0.73051000  0.00000000  1
  C  C58  1  0.01833000  0.77950700  0.50000000  1
  C  C59  1  0.49960800  0.25103700  0.00000000  1
  C  C60  1  0.49159700  0.23831600  0.50000000  1
  C  C61  1  0.49960800  0.74896300  0.00000000  1
  C  C62  1  0.49159700  0.76168400  0.50000000  1
