# generated using pymatgen
data_CuNiC8
_symmetry_space_group_name_H-M   'P 1'
_cell_length_a   8.51023084
_cell_length_b   8.50355328
_cell_length_c   8.50926573
_cell_angle_alpha   90.00000000
_cell_angle_beta   90.00000000
_cell_angle_gamma   90.00000000
_symmetry_Int_Tables_number   1
_chemical_formula_structural   CuNiC8
_chemical_formula_sum   'Cu4 Ni4 C32'
_cell_volume   615.79174662
_cell_formula_units_Z   4
loop_
 _symmetry_equiv_pos_site_id
 _symmetry_equiv_pos_as_xyz
  1  'x, y, z'
loop_
 _atom_site_type_symbol
 _atom_site_label
 _atom_site_symmetry_multiplicity
 _atom_site_fract_x
 _atom_site_fract_y
 _atom_site_fract_z
 _atom_site_occupancy
  C  C0  1  -0.00000000  0.50000000  0.50000000  1
  C  C1  1  0.50000000  0.00000000  0.50000000  1
  C  C2  1  0.50000000  0.00000000  -0.00000000  1
  C  C3  1  0.00000000  0.50000000  -0.00000000  1
  Ni  Ni4  1  0.75000000  0.75000000  0.75000000  1
  Ni  Ni5  1  0.25000000  0.25000000  0.75000000  1
  Ni  Ni6  1  0.25000000  0.75000000  0.25000000  1
  Ni  Ni7  1  0.75000000  0.25000000  0.25000000  1
  Cu  Cu8  1  0.50000000  0.50000000  -0.00000000  1
  Cu  Cu9  1  0.00000000  0.00000000  0.50000000  1
  Cu  Cu10  1  0.00000000  0.00000000  -0.00000000  1
  Cu  Cu11  1  0.50000000  0.50000000  0.50000000  1
  C  C12  1  0.25000000  0.25000000  0.25000000  1
  C  C13  1  0.75000000  0.75000000  0.25000000  1
  C  C14  1  0.75000000  0.25000000  0.75000000  1
  C  C15  1  0.25000000  0.75000000  0.75000000  1
  C  C16  1  0.01940358  0.20554144  0.28569291  1
  C  C17  1  0.98059642  0.79445856  0.28569291  1
  C  C18  1  0.98059642  0.20554144  0.71430709  1
  C  C19  1  0.01940358  0.79445856  0.71430709  1
  C  C20  1  0.28472423  0.01908396  0.20733826  1
  C  C21  1  0.28472423  0.98091604  0.79266174  1
  C  C22  1  0.71527577  0.98091604  0.20733826  1
  C  C23  1  0.71527577  0.01908396  0.79266174  1
  C  C24  1  0.20733194  0.28439916  0.01912355  1
  C  C25  1  0.79266806  0.28439916  0.98087645  1
  C  C26  1  0.20733194  0.71560084  0.98087645  1
  C  C27  1  0.79266806  0.71560084  0.01912355  1
  C  C28  1  0.48059642  0.29445856  0.21430709  1
  C  C29  1  0.51940358  0.70554144  0.21430709  1
  C  C30  1  0.51940358  0.29445856  0.78569291  1
  C  C31  1  0.48059642  0.70554144  0.78569291  1
  C  C32  1  0.21527577  0.48091604  0.29266174  1
  C  C33  1  0.21527577  0.51908396  0.70733826  1
  C  C34  1  0.78472423  0.51908396  0.29266174  1
  C  C35  1  0.78472423  0.48091604  0.70733826  1
  C  C36  1  0.29266806  0.21560084  0.48087645  1
  C  C37  1  0.70733194  0.21560084  0.51912355  1
  C  C38  1  0.29266806  0.78439916  0.51912355  1
  C  C39  1  0.70733194  0.78439916  0.48087645  1
