# generated using pymatgen
data_CuNiC8
_symmetry_space_group_name_H-M   'P 1'
_cell_length_a   5.96818006
_cell_length_b   6.01453449
_cell_length_c   8.48603775
_cell_angle_alpha   90.35592885
_cell_angle_beta   90.62243953
_cell_angle_gamma   89.93313843
_symmetry_Int_Tables_number   1
_chemical_formula_structural   CuNiC8
_chemical_formula_sum   'Cu2 Ni2 C16'
_cell_volume   304.58928803
_cell_formula_units_Z   2
loop_
 _symmetry_equiv_pos_site_id
 _symmetry_equiv_pos_as_xyz
  1  'x, y, z'
loop_
 _atom_site_type_symbol
 _atom_site_label
 _atom_site_symmetry_multiplicity
 _atom_site_fract_x
 _atom_site_fract_y
 _atom_site_fract_z
 _atom_site_occupancy
  C  C0  1  0.50557499  0.52960429  0.24998098  1
  C  C1  1  0.49442501  0.47039571  0.75001902  1
  Ni  Ni2  1  0.99065684  0.03944310  0.25454626  1
  Ni  Ni3  1  0.00934316  0.96055690  0.74545374  1
  Cu  Cu4  1  -0.00000000  0.50000000  -0.00000000  1
  Cu  Cu5  1  0.50000000  0.00000000  0.50000000  1
  C  C6  1  0.50000000  0.00000000  -0.00000000  1
  C  C7  1  -0.00000000  0.50000000  0.50000000  1
  C  C8  1  0.22814832  0.19000694  0.94038320  1
  C  C9  1  0.26992654  0.69785870  0.52559701  1
  C  C10  1  0.77185168  0.80999306  0.05961680  1
  C  C11  1  0.73007346  0.30214130  0.47440299  1
  C  C12  1  0.30113504  0.73432547  0.96293563  1
  C  C13  1  0.18204821  0.22083566  0.55308032  1
  C  C14  1  0.69886496  0.26567453  0.03706437  1
  C  C15  1  0.81795179  0.77916434  0.44691968  1
  C  C16  1  0.39573016  0.00398957  0.22975749  1
  C  C17  1  0.05886136  0.44388636  0.26794772  1
  C  C18  1  0.60426984  0.99601043  0.77024251  1
  C  C19  1  0.94113864  0.55611364  0.73205228  1
