# generated using pymatgen
data_Cu2Ni2C11
_symmetry_space_group_name_H-M   'P 1'
_cell_length_a   37.26694400
_cell_length_b   5.37875200
_cell_length_c   8.09367058
_cell_angle_alpha   89.78386795
_cell_angle_beta   90.00000000
_cell_angle_gamma   90.00000000
_symmetry_Int_Tables_number   1
_chemical_formula_structural   Cu2Ni2C11
_chemical_formula_sum   'Cu16 Ni16 C88'
_cell_volume   1622.36188964
_cell_formula_units_Z   8
loop_
 _symmetry_equiv_pos_site_id
 _symmetry_equiv_pos_as_xyz
  1  'x, y, z'
loop_
 _atom_site_type_symbol
 _atom_site_label
 _atom_site_symmetry_multiplicity
 _atom_site_fract_x
 _atom_site_fract_y
 _atom_site_fract_z
 _atom_site_occupancy
  C  C0  1  0.00000000  0.01420500  0.95818700  1
  C  C1  1  0.25110800  0.00626300  0.96298900  1
  C  C2  1  0.74889200  0.00626300  0.96298900  1
  C  C3  1  0.50000000  0.99381800  0.96216300  1
  C  C4  1  0.12366200  0.51625600  0.96288500  1
  C  C5  1  0.87633800  0.51625600  0.96288500  1
  C  C6  1  0.37413100  0.49386700  0.96004200  1
  C  C7  1  0.62586900  0.49386700  0.96004200  1
  Ni  Ni8  1  0.04160600  0.51425500  0.70203000  1
  Ni  Ni9  1  0.95839400  0.51425500  0.70203000  1
  Ni  Ni10  1  0.29020500  0.49666700  0.71065000  1
  Ni  Ni11  1  0.70979500  0.49666700  0.71065000  1
  Ni  Ni12  1  0.16615100  0.01902000  0.70458500  1
  Ni  Ni13  1  0.83384900  0.01902000  0.70458500  1
  Ni  Ni14  1  0.41622400  0.99657900  0.71437000  1
  Ni  Ni15  1  0.58377600  0.99657900  0.71437000  1
  Ni  Ni16  1  0.20704000  0.51867100  0.70613900  1
  Ni  Ni17  1  0.79296000  0.51867100  0.70613900  1
  Ni  Ni18  1  0.45817200  0.49650900  0.71484500  1
  Ni  Ni19  1  0.54182800  0.49650900  0.71484500  1
  Ni  Ni20  1  0.08322800  0.01416300  0.70272700  1
  Ni  Ni21  1  0.91677200  0.01416300  0.70272700  1
  Ni  Ni22  1  0.33249000  0.99650900  0.71221800  1
  Ni  Ni23  1  0.66751000  0.99650900  0.71221800  1
  Cu  Cu24  1  0.04168500  0.51589500  0.28953500  1
  Cu  Cu25  1  0.95831500  0.51589500  0.28953500  1
  Cu  Cu26  1  0.29181300  0.50484000  0.29829100  1
  Cu  Cu27  1  0.70818700  0.50484000  0.29829100  1
  Cu  Cu28  1  0.16690500  0.01365000  0.29187300  1
  Cu  Cu29  1  0.83309500  0.01365000  0.29187300  1
  Cu  Cu30  1  0.41680300  0.00136900  0.30187800  1
  Cu  Cu31  1  0.58319700  0.00136900  0.30187800  1
  Cu  Cu32  1  0.20849100  0.51283400  0.29356500  1
  Cu  Cu33  1  0.79150900  0.51283400  0.29356500  1
  Cu  Cu34  1  0.45836600  0.50107100  0.30238600  1
  Cu  Cu35  1  0.54163400  0.50107100  0.30238600  1
  Cu  Cu36  1  0.08349700  0.01574700  0.29012500  1
  Cu  Cu37  1  0.91650300  0.01574700  0.29012500  1
  Cu  Cu38  1  0.33356200  0.00408200  0.29994700  1
  Cu  Cu39  1  0.66643800  0.00408200  0.29994700  1
  C  C40  1  0.04162000  0.51538900  0.48396600  1
  C  C41  1  0.95838000  0.51538900  0.48396600  1
  C  C42  1  0.29156900  0.50185600  0.49293000  1
  C  C43  1  0.70843100  0.50185600  0.49293000  1
  C  C44  1  0.16657200  0.01385500  0.48635700  1
  C  C45  1  0.83342800  0.01385500  0.48635700  1
  C  C46  1  0.41658700  0.99914800  0.49667000  1
  C  C47  1  0.58341300  0.99914800  0.49667000  1
  C  C48  1  0.20822800  0.51389200  0.48806900  1
  C  C49  1  0.79177200  0.51389200  0.48806900  1
  C  C50  1  0.45829300  0.49912600  0.49717200  1
  C  C51  1  0.54170700  0.49912600  0.49717200  1
  C  C52  1  0.08322800  0.01540800  0.48456800  1
  C  C53  1  0.91677200  0.01540800  0.48456800  1
  C  C54  1  0.33331300  0.00240700  0.49463400  1
  C  C55  1  0.66668700  0.00240700  0.49463400  1
  C  C56  1  0.00000000  0.42186200  0.78195800  1
  C  C57  1  0.24796600  0.41781100  0.78913800  1
  C  C58  1  0.75203400  0.41781100  0.78913800  1
  C  C59  1  0.50000000  0.41536500  0.79664500  1
  C  C60  1  0.12471000  0.92033700  0.78344100  1
  C  C61  1  0.87529000  0.92033700  0.78344100  1
  C  C62  1  0.37426400  0.91717200  0.79548300  1
  C  C63  1  0.62573600  0.91717200  0.79548300  1
  C  C64  1  0.00000000  0.51528000  0.20887000  1
  C  C65  1  0.25041900  0.50904200  0.21557900  1
  C  C66  1  0.74958100  0.50904200  0.21557900  1
  C  C67  1  0.50000000  0.50287900  0.22254300  1
  C  C68  1  0.12523500  0.01352700  0.21038000  1
  C  C69  1  0.87476500  0.01352700  0.21038000  1
  C  C70  1  0.37524800  0.00462500  0.22092400  1
  C  C71  1  0.62475200  0.00462500  0.22092400  1
  C  C72  1  0.06284400  0.26717300  0.20917300  1
  C  C73  1  0.93715600  0.26717300  0.20917300  1
  C  C74  1  0.31283500  0.25488400  0.21919800  1
  C  C75  1  0.68716500  0.25488400  0.21919800  1
  C  C76  1  0.18808600  0.76459600  0.21216500  1
  C  C77  1  0.81191400  0.76459600  0.21216500  1
  C  C78  1  0.43758700  0.75157100  0.22248700  1
  C  C79  1  0.56241300  0.75157100  0.22248700  1
  C  C80  1  0.18770300  0.26431000  0.21200800  1
  C  C81  1  0.81229700  0.26431000  0.21200800  1
  C  C82  1  0.43769000  0.25145500  0.22229800  1
  C  C83  1  0.56231000  0.25145500  0.22229800  1
  C  C84  1  0.06244300  0.76701000  0.20914100  1
  C  C85  1  0.93755700  0.76701000  0.20914100  1
  C  C86  1  0.31291700  0.75470300  0.21919200  1
  C  C87  1  0.68708300  0.75470300  0.21919200  1
  C  C88  1  0.05085700  0.80961500  0.78213100  1
  C  C89  1  0.94914300  0.80961500  0.78213100  1
  C  C90  1  0.30161200  0.78501800  0.79361300  1
  C  C91  1  0.69838800  0.78501800  0.79361300  1
  C  C92  1  0.17368700  0.31885900  0.78147600  1
  C  C93  1  0.82631300  0.31885900  0.78147600  1
  C  C94  1  0.42704200  0.28677700  0.79669700  1
  C  C95  1  0.57295800  0.28677700  0.79669700  1
  C  C96  1  0.19912900  0.81823400  0.78371200  1
  C  C97  1  0.80087100  0.81823400  0.78371200  1
  C  C98  1  0.44719400  0.78649400  0.79719200  1
  C  C99  1  0.55280600  0.78649400  0.79719200  1
  C  C100  1  0.07375100  0.30933700  0.78248700  1
  C  C101  1  0.92624900  0.30933700  0.78248700  1
  C  C102  1  0.32076900  0.28468200  0.79574000  1
  C  C103  1  0.67923100  0.28468200  0.79574000  1
  C  C104  1  0.00000000  0.01807300  0.55318600  1
  C  C105  1  0.25145400  0.00780700  0.56318200  1
  C  C106  1  0.74854600  0.00780700  0.56318200  1
  C  C107  1  0.50000000  0.99484800  0.57440500  1
  C  C108  1  0.12439100  0.51872200  0.55253700  1
  C  C109  1  0.87560900  0.51872200  0.55253700  1
  C  C110  1  0.37501600  0.50040200  0.57336000  1
  C  C111  1  0.62498400  0.50040200  0.57336000  1
  C  C112  1  0.00000000  0.01484900  0.40095400  1
  C  C113  1  0.24960000  0.00798100  0.41115000  1
  C  C114  1  0.75040000  0.00798100  0.41115000  1
  C  C115  1  0.50000000  0.00065300  0.42225900  1
  C  C116  1  0.12526100  0.51307200  0.40035300  1
  C  C117  1  0.87473900  0.51307200  0.40035300  1
  C  C118  1  0.37508600  0.50104400  0.42122800  1
  C  C119  1  0.62491400  0.50104400  0.42122800  1
