# generated using pymatgen
data_Cu6Ni5C2
_symmetry_space_group_name_H-M   'P 1'
_cell_length_a   8.12507111
_cell_length_b   8.12507111
_cell_length_c   8.57967798
_cell_angle_alpha   61.74779798
_cell_angle_beta   61.74779798
_cell_angle_gamma   54.20905011
_symmetry_Int_Tables_number   1
_chemical_formula_structural   Cu6Ni5C2
_chemical_formula_sum   'Cu12 Ni10 C4'
_cell_volume   389.10063569
_cell_formula_units_Z   2
loop_
 _symmetry_equiv_pos_site_id
 _symmetry_equiv_pos_as_xyz
  1  'x, y, z'
loop_
 _atom_site_type_symbol
 _atom_site_label
 _atom_site_symmetry_multiplicity
 _atom_site_fract_x
 _atom_site_fract_y
 _atom_site_fract_z
 _atom_site_occupancy
  C  C0  1  0.74971500  0.25028500  0.50000000  1
  C  C1  1  0.25028500  0.74971500  0.50000000  1
  C  C2  1  0.22848100  0.22848100  0.88208100  1
  C  C3  1  0.77151900  0.77151900  0.11791900  1
  Ni  Ni4  1  0.02024000  0.68295300  0.06032200  1
  Ni  Ni5  1  0.68295300  0.02024000  0.06032200  1
  Ni  Ni6  1  0.97976000  0.31704700  0.93967800  1
  Ni  Ni7  1  0.31704700  0.97976000  0.93967800  1
  Ni  Ni8  1  0.27664700  0.27664700  0.01029400  1
  Ni  Ni9  1  0.72335300  0.72335300  0.98970600  1
  Ni  Ni10  1  0.75644400  0.75644400  0.53955700  1
  Ni  Ni11  1  0.24355600  0.24355600  0.46044300  1
  Ni  Ni12  1  0.33035300  0.33035300  0.31976800  1
  Ni  Ni13  1  0.66964700  0.66964700  0.68023200  1
  Cu  Cu14  1  0.84459700  0.20565400  0.70187800  1
  Cu  Cu15  1  0.20565400  0.84459700  0.70187800  1
  Cu  Cu16  1  0.15540300  0.79434600  0.29812200  1
  Cu  Cu17  1  0.79434600  0.15540300  0.29812200  1
  Cu  Cu18  1  0.49260500  0.49260500  0.36722100  1
  Cu  Cu19  1  0.50739500  0.50739500  0.63277900  1
  Cu  Cu20  1  0.90055700  0.90055700  0.61145400  1
  Cu  Cu21  1  0.09944300  0.09944300  0.38854600  1
  Cu  Cu22  1  0.16732500  0.49703600  0.67618200  1
  Cu  Cu23  1  0.49703600  0.16732500  0.67618200  1
  Cu  Cu24  1  0.83267500  0.50296400  0.32381800  1
  Cu  Cu25  1  0.50296400  0.83267500  0.32381800  1
