# generated using pymatgen
data_CuNiC4
_symmetry_space_group_name_H-M   'P 1'
_cell_length_a   7.68127392
_cell_length_b   7.68127392
_cell_length_c   6.85076300
_cell_angle_alpha   90.00000000
_cell_angle_beta   90.00000000
_cell_angle_gamma   119.90592209
_symmetry_Int_Tables_number   1
_chemical_formula_structural   CuNiC4
_chemical_formula_sum   'Cu2 Ni2 C8'
_cell_volume   350.38621163
_cell_formula_units_Z   2
loop_
 _symmetry_equiv_pos_site_id
 _symmetry_equiv_pos_as_xyz
  1  'x, y, z'
loop_
 _atom_site_type_symbol
 _atom_site_label
 _atom_site_symmetry_multiplicity
 _atom_site_fract_x
 _atom_site_fract_y
 _atom_site_fract_z
 _atom_site_occupancy
  C  C0  1  0.00028600  0.99971400  0.31888500  1
  C  C1  1  0.99971400  0.00028600  0.81888500  1
  Ni  Ni2  1  0.66325100  0.33674900  0.64203700  1
  Ni  Ni3  1  0.33674900  0.66325100  0.14203700  1
  C  C4  1  0.33463600  0.16773800  0.06603200  1
  C  C5  1  0.83226200  0.66536400  0.06603200  1
  C  C6  1  0.66536400  0.83226200  0.56603200  1
  C  C7  1  0.16773800  0.33463600  0.56603200  1
  C  C8  1  0.16700300  0.83299700  0.56750100  1
  C  C9  1  0.83299700  0.16700300  0.06750100  1
  Cu  Cu10  1  0.67434400  0.32565600  0.47121200  1
  Cu  Cu11  1  0.32565600  0.67434400  0.97121200  1
