# generated using pymatgen
data_Cu2NiC15
_symmetry_space_group_name_H-M   'P 1'
_cell_length_a   6.23817300
_cell_length_b   7.73601000
_cell_length_c   9.84962100
_cell_angle_alpha   90.00000000
_cell_angle_beta   90.00000000
_cell_angle_gamma   90.00000000
_symmetry_Int_Tables_number   1
_chemical_formula_structural   Cu2NiC15
_chemical_formula_sum   'Cu4 Ni2 C30'
_cell_volume   475.32861179
_cell_formula_units_Z   2
loop_
 _symmetry_equiv_pos_site_id
 _symmetry_equiv_pos_as_xyz
  1  'x, y, z'
loop_
 _atom_site_type_symbol
 _atom_site_label
 _atom_site_symmetry_multiplicity
 _atom_site_fract_x
 _atom_site_fract_y
 _atom_site_fract_z
 _atom_site_occupancy
  Ni  Ni0  1  0.00000000  0.20488100  0.43844300  1
  Ni  Ni1  1  0.00000000  0.79511900  0.93844300  1
  Cu  Cu2  1  0.24388800  0.50115000  0.17259400  1
  Cu  Cu3  1  0.75611200  0.49885000  0.67259400  1
  Cu  Cu4  1  0.24388800  0.49885000  0.67259400  1
  Cu  Cu5  1  0.75611200  0.50115000  0.17259400  1
  C  C6  1  0.50000000  0.32991100  0.42709600  1
  C  C7  1  0.50000000  0.67008900  0.92709600  1
  C  C8  1  0.00000000  0.16983800  0.11847500  1
  C  C9  1  0.00000000  0.83016200  0.61847500  1
  C  C10  1  0.06022300  0.70560400  0.33875200  1
  C  C11  1  0.93977700  0.29439600  0.83875200  1
  C  C12  1  0.06022300  0.29439600  0.83875200  1
  C  C13  1  0.93977700  0.70560400  0.33875200  1
  C  C14  1  0.00000000  0.38966800  0.32551800  1
  C  C15  1  0.00000000  0.61033200  0.82551900  1
  C  C16  1  0.50000000  0.99017300  0.16937300  1
  C  C17  1  0.50000000  0.00982700  0.66937300  1
  C  C18  1  0.30052800  0.21499200  0.41521900  1
  C  C19  1  0.69947200  0.78500800  0.91521900  1
  C  C20  1  0.30052800  0.78500800  0.91521900  1
  C  C21  1  0.69947200  0.21499200  0.41521900  1
  C  C22  1  0.00000000  0.08970200  0.26311700  1
  C  C23  1  0.00000000  0.91029800  0.76311700  1
  C  C24  1  0.20403300  0.27757400  0.09377500  1
  C  C25  1  0.79596700  0.72242600  0.59377500  1
  C  C26  1  0.20403300  0.72242600  0.59377500  1
  C  C27  1  0.79596700  0.27757400  0.09377500  1
  C  C28  1  0.00000000  0.01362700  0.01849700  1
  C  C29  1  0.00000000  0.98637300  0.51849700  1
  C  C30  1  0.50000000  0.59043500  0.07105100  1
  C  C31  1  0.50000000  0.40956500  0.57105100  1
  C  C32  1  0.50000000  0.46929200  0.31321100  1
  C  C33  1  0.50000000  0.53070800  0.81321100  1
  C  C34  1  0.00000000  0.64703600  0.07923800  1
  C  C35  1  0.00000000  0.35296400  0.57923800  1
