# generated using pymatgen
data_Cu14Ni2C61
_symmetry_space_group_name_H-M   'P 1'
_cell_length_a   10.86981813
_cell_length_b   15.18712869
_cell_length_c   10.81214962
_cell_angle_alpha   89.93680763
_cell_angle_beta   91.06526242
_cell_angle_gamma   90.01743401
_symmetry_Int_Tables_number   1
_chemical_formula_structural   Cu14Ni2C61
_chemical_formula_sum   'Cu28 Ni4 C122'
_cell_volume   1784.57436104
_cell_formula_units_Z   2
loop_
 _symmetry_equiv_pos_site_id
 _symmetry_equiv_pos_as_xyz
  1  'x, y, z'
loop_
 _atom_site_type_symbol
 _atom_site_label
 _atom_site_symmetry_multiplicity
 _atom_site_fract_x
 _atom_site_fract_y
 _atom_site_fract_z
 _atom_site_occupancy
  Ni  Ni0  1  0.00231364  0.11945163  0.50068100  1
  Ni  Ni1  1  0.49867674  0.37165467  0.99096021  1
  Ni  Ni2  1  0.24460305  0.37671803  0.24799113  1
  Ni  Ni3  1  0.25708102  0.12297992  0.23757325  1
  Cu  Cu4  1  0.00712004  0.11088585  0.00467379  1
  Cu  Cu5  1  0.01714818  0.62924236  0.49908452  1
  Cu  Cu6  1  0.01926078  0.62684740  0.99609127  1
  Cu  Cu7  1  0.53499993  0.12523285  0.49564294  1
  Cu  Cu8  1  0.53043919  0.12373298  0.99517006  1
  Cu  Cu9  1  0.52435530  0.63410661  0.51073173  1
  Cu  Cu10  1  0.52387779  0.62478536  0.97963104  1
  Cu  Cu11  1  0.49639958  0.37140822  0.50904997  1
  Cu  Cu12  1  0.48088701  0.87327237  0.99890511  1
  Cu  Cu13  1  0.47898486  0.87349000  0.50890574  1
  Cu  Cu14  1  0.97366266  0.38301068  0.00459725  1
  Cu  Cu15  1  0.96148544  0.38438122  0.49903781  1
  Cu  Cu16  1  0.97872088  0.87365997  0.00634475  1
  Cu  Cu17  1  0.97386810  0.87258732  0.50303075  1
  Cu  Cu18  1  0.23417123  0.39111883  0.76336774  1
  Cu  Cu19  1  0.23315704  0.87577880  0.24540563  1
  Cu  Cu20  1  0.22775855  0.87202688  0.74817988  1
  Cu  Cu21  1  0.73826081  0.36462729  0.24478887  1
  Cu  Cu22  1  0.73347332  0.37442959  0.74919850  1
  Cu  Cu23  1  0.73323829  0.87434391  0.24534725  1
  Cu  Cu24  1  0.72880098  0.87606534  0.74181362  1
  Cu  Cu25  1  0.26443489  0.11444812  0.75831863  1
  Cu  Cu26  1  0.24041439  0.63403036  0.24227704  1
  Cu  Cu27  1  0.26883624  0.62847558  0.75539087  1
  Cu  Cu28  1  0.76729473  0.12047577  0.25505174  1
  Cu  Cu29  1  0.77810318  0.12215717  0.75602049  1
  Cu  Cu30  1  0.77726788  0.62676089  0.25490096  1
  Cu  Cu31  1  0.77209920  0.62540986  0.75507667  1
  C  C32  1  0.00203998  -0.00047543  0.25090203  1
  C  C33  1  0.99763231  0.99547275  0.75277819  1
  C  C34  1  0.00072583  0.49900985  0.25183832  1
  C  C35  1  0.99539783  0.49949772  0.75158238  1
  C  C36  1  0.49618471  0.00051616  0.74520507  1
  C  C37  1  0.51205532  0.49059978  0.24196681  1
  C  C38  1  0.49910830  0.50072243  0.74649384  1
  C  C39  1  0.25071714  0.00012703  -0.00076918  1
  C  C40  1  0.24924207  0.50193434  0.00241197  1
  C  C41  1  0.23745059  0.49924160  0.51173953  1
  C  C42  1  0.75057919  0.99655952  0.99539400  1
  C  C43  1  0.74568092  0.99837086  0.49658426  1
  C  C44  1  0.75335974  0.50248289  0.99954761  1
  C  C45  1  0.74423975  0.50406877  0.50055503  1
  C  C46  1  0.25226646  0.24039415  0.47843324  1
  C  C47  1  0.24955747  0.75136699  0.99870986  1
  C  C48  1  0.24987378  0.75055693  0.49877217  1
  C  C49  1  0.76284089  0.24628618  0.00563009  1
  C  C50  1  0.74945144  0.25054420  0.50317345  1
  C  C51  1  0.74905394  0.75019330  0.99896771  1
  C  C52  1  0.74838158  0.75077807  0.49853594  1
  C  C53  1  0.00429217  0.25121064  0.76282036  1
  C  C54  1  0.99840379  0.75249765  0.25037545  1
  C  C55  1  0.99825609  0.75007970  0.74952552  1
  C  C56  1  0.50164888  0.24282831  0.24788300  1
  C  C57  1  0.51532787  0.24261812  0.75168949  1
  C  C58  1  0.49714852  0.76006329  0.25403244  1
  C  C59  1  0.49927124  0.75202486  0.75107882  1
  C  C60  1  0.51565601  0.99898410  0.22870230  1
  C  C61  1  0.22737831  0.99296910  0.51602300  1
  C  C62  1  0.27517759  0.24701272  0.97518237  1
  C  C63  1  0.98325549  0.25088836  0.27021977  1
  C  C64  1  0.10647241  0.76990032  0.10607341  1
  C  C65  1  0.10477217  0.77119495  0.60456084  1
  C  C66  1  0.61636519  0.26486955  0.11660054  1
  C  C67  1  0.60621793  0.26273842  0.60380845  1
  C  C68  1  0.60158068  0.76609850  0.10560776  1
  C  C69  1  0.60311892  0.76822251  0.60437821  1
  C  C70  1  0.40385583  0.22301866  0.39366152  1
  C  C71  1  0.40885073  0.22816540  0.88666067  1
  C  C72  1  0.38989338  0.71755855  0.38843703  1
  C  C73  1  0.39430968  0.73235426  0.89581442  1
  C  C74  1  0.88608232  0.24043329  0.39898695  1
  C  C75  1  0.90864979  0.23218577  0.91141361  1
  C  C76  1  0.89160799  0.73076114  0.39283347  1
  C  C77  1  0.89343782  0.72878241  0.89452357  1
  C  C78  1  0.13189529  0.23686145  0.34878682  1
  C  C79  1  0.17405909  0.24702908  0.81698549  1
  C  C80  1  0.13974027  0.73204925  0.35921443  1
  C  C81  1  0.14501283  0.73267437  0.85244818  1
  C  C82  1  0.64734477  0.22747424  0.35547305  1
  C  C83  1  0.66125156  0.22957845  0.86152674  1
  C  C84  1  0.64030516  0.72832191  0.35393653  1
  C  C85  1  0.64382398  0.72811310  0.85473518  1
  C  C86  1  0.35987349  0.26033590  0.13471835  1
  C  C87  1  0.35245396  0.76127592  0.14741661  1
  C  C88  1  0.35603894  0.77028677  0.64407602  1
  C  C89  1  0.87692924  0.27233985  0.14269834  1
  C  C90  1  0.86805053  0.27446419  0.64014016  1
  C  C91  1  0.85421017  0.77071186  0.14536738  1
  C  C92  1  0.85490894  0.77284572  0.64299280  1
  C  C93  1  0.36117158  0.50805363  0.16106600  1
  C  C94  1  0.35741278  0.48522844  0.63968753  1
  C  C95  1  0.35944363  0.98493919  0.14245002  1
  C  C96  1  0.35573906  0.97907552  0.63355046  1
  C  C97  1  0.85271370  0.48069781  0.15056410  1
  C  C98  1  0.84878240  0.47950176  0.64671359  1
  C  C99  1  0.86086223  0.97560590  0.13935728  1
  C  C100  1  0.85467808  0.98042688  0.64341422  1
  C  C101  1  0.14644611  0.01450185  0.36496571  1
  C  C102  1  0.14303761  0.01271840  0.85541277  1
  C  C103  1  0.15473026  0.51560861  0.35688224  1
  C  C104  1  0.14727902  0.51877323  0.85336548  1
  C  C105  1  0.63341805  0.02359363  0.35953688  1
  C  C106  1  0.64190824  0.02473394  0.85270592  1
  C  C107  1  0.62370799  0.53290472  0.35958683  1
  C  C108  1  0.64509477  0.51666950  0.85149238  1
  C  C109  1  0.39263279  0.02258947  0.89292293  1
  C  C110  1  0.39259507  0.51256613  0.89519673  1
  C  C111  1  0.88495224  0.01448890  0.38418282  1
  C  C112  1  0.89083934  0.01711646  0.89089774  1
  C  C113  1  0.89349596  0.51923232  0.39628184  1
  C  C114  1  0.89676145  0.51927561  0.89961904  1
  C  C115  1  0.10485865  0.48353010  0.10721177  1
  C  C116  1  0.09415844  0.47569420  0.61226182  1
  C  C117  1  0.10924774  0.98261686  0.10786596  1
  C  C118  1  0.09886478  0.97553228  0.61355629  1
  C  C119  1  0.60986647  0.49187453  0.10097723  1
  C  C120  1  0.59902187  0.48796851  0.59977308  1
  C  C121  1  0.61363334  0.97668870  0.09997551  1
  C  C122  1  0.60294160  0.98126355  0.60247940  1
  C  C123  1  0.01196279  0.37478162  0.28309901  1
  C  C124  1  0.01053635  0.37603651  0.79272697  1
  C  C125  1  0.01132142  0.87511080  0.28931360  1
  C  C126  1  0.00675214  0.87315890  0.79340066  1
  C  C127  1  0.49405500  0.37292279  0.29355029  1
  C  C128  1  0.49731597  0.37076305  0.76144156  1
  C  C129  1  0.49395149  0.88996735  0.29453678  1
  C  C130  1  0.51102240  0.87637352  0.78752198  1
  C  C131  1  0.49301482  0.11875369  0.21527036  1
  C  C132  1  0.48026332  0.12497042  0.70111860  1
  C  C133  1  0.48724134  0.62646404  0.71993854  1
  C  C134  1  0.99274165  0.12800595  0.21917633  1
  C  C135  1  0.99915559  0.12632237  0.72482075  1
  C  C136  1  0.99814326  0.62578536  0.21394420  1
  C  C137  1  0.98821254  0.62508844  0.71154515  1
  C  C138  1  0.22062323  0.13695423  0.01558491  1
  C  C139  1  0.24142227  0.12222870  0.53577585  1
  C  C140  1  0.23580179  0.62614610  0.03017825  1
  C  C141  1  0.23832358  0.62491592  0.53965865  1
  C  C142  1  0.75063676  0.12149050  0.04170379  1
  C  C143  1  0.75179380  0.12539518  0.53992562  1
  C  C144  1  0.74067281  0.62668707  0.03900036  1
  C  C145  1  0.74308336  0.62729020  0.54024814  1
  C  C146  1  0.26898981  0.36295897  0.49950786  1
  C  C147  1  0.24813011  0.36904143  0.98546362  1
  C  C148  1  0.26294548  0.87734839  0.46123038  1
  C  C149  1  0.26427467  0.87588332  0.96321272  1
  C  C150  1  0.74178107  0.37877470  0.46104744  1
  C  C151  1  0.75482092  0.37619837  0.96597522  1
  C  C152  1  0.75329566  0.87417608  0.45915249  1
  C  C153  1  0.75867316  0.87362689  0.95576079  1
