# generated using pymatgen
data_Cu10Ni2C
_symmetry_space_group_name_H-M   'P 1'
_cell_length_a   6.73744206
_cell_length_b   6.73744206
_cell_length_c   18.00133000
_cell_angle_alpha   90.00000000
_cell_angle_beta   90.00000000
_cell_angle_gamma   120.00000061
_symmetry_Int_Tables_number   1
_chemical_formula_structural   Cu10Ni2C
_chemical_formula_sum   'Cu30 Ni6 C3'
_cell_volume   707.66107780
_cell_formula_units_Z   3
loop_
 _symmetry_equiv_pos_site_id
 _symmetry_equiv_pos_as_xyz
  1  'x, y, z'
loop_
 _atom_site_type_symbol
 _atom_site_label
 _atom_site_symmetry_multiplicity
 _atom_site_fract_x
 _atom_site_fract_y
 _atom_site_fract_z
 _atom_site_occupancy
  C  C0  1  0.00000000  0.00000000  0.67137300  1
  C  C1  1  0.00000000  0.00000000  0.33804000  1
  C  C2  1  0.00000000  0.00000000  0.00470700  1
  Ni  Ni3  1  0.40082000  0.09144000  0.50436700  1
  Ni  Ni4  1  0.90856000  0.30937900  0.17103400  1
  Ni  Ni5  1  0.69062100  0.59918000  0.83770000  1
  Ni  Ni6  1  0.59918000  0.90856000  0.50436700  1
  Ni  Ni7  1  0.09144000  0.69062100  0.17103400  1
  Ni  Ni8  1  0.30937900  0.40082000  0.83770000  1
  Cu  Cu9  1  0.26278600  0.01427900  0.57341700  1
  Cu  Cu10  1  0.98572100  0.24850700  0.24008400  1
  Cu  Cu11  1  0.75149300  0.73721400  0.90675000  1
  Cu  Cu12  1  0.73721400  0.98572100  0.57341700  1
  Cu  Cu13  1  0.01427900  0.75149300  0.24008400  1
  Cu  Cu14  1  0.24850700  0.26278600  0.90675000  1
  Cu  Cu15  1  0.25234600  0.99978600  0.43776200  1
  Cu  Cu16  1  0.00021400  0.25256100  0.10442800  1
  Cu  Cu17  1  0.74743900  0.74765400  0.77109500  1
  Cu  Cu18  1  0.74765400  0.00021400  0.43776200  1
  Cu  Cu19  1  0.99978600  0.74743900  0.10442800  1
  Cu  Cu20  1  0.25256100  0.25234600  0.77109500  1
  Cu  Cu21  1  0.56944100  0.33220100  0.50192800  1
  Cu  Cu22  1  0.66779900  0.23724000  0.16859400  1
  Cu  Cu23  1  0.76276000  0.43055900  0.83526100  1
  Cu  Cu24  1  0.43055900  0.66779900  0.50192800  1
  Cu  Cu25  1  0.33220100  0.76276000  0.16859400  1
  Cu  Cu26  1  0.23724000  0.56944100  0.83526100  1
  Cu  Cu27  1  0.27275300  0.55117800  0.65468400  1
  Cu  Cu28  1  0.44882200  0.72157600  0.32135000  1
  Cu  Cu29  1  0.27842400  0.72724700  0.98801700  1
  Cu  Cu30  1  0.72724700  0.44882200  0.65468400  1
  Cu  Cu31  1  0.55117800  0.27842400  0.32135000  1
  Cu  Cu32  1  0.72157600  0.27275300  0.98801700  1
  Cu  Cu33  1  0.73499600  0.29255100  0.68749200  1
  Cu  Cu34  1  0.70744900  0.44244500  0.35415900  1
  Cu  Cu35  1  0.55755500  0.26500400  0.02082500  1
  Cu  Cu36  1  0.26500400  0.70744900  0.68749200  1
  Cu  Cu37  1  0.29255100  0.55755500  0.35415900  1
  Cu  Cu38  1  0.44244500  0.73499600  0.02082500  1
