# generated using pymatgen
data_CuNi3C8
_symmetry_space_group_name_H-M   'P 1'
_cell_length_a   7.50220600
_cell_length_b   11.09849200
_cell_length_c   11.27237368
_cell_angle_alpha   69.97217802
_cell_angle_beta   90.00000000
_cell_angle_gamma   90.00000000
_symmetry_Int_Tables_number   1
_chemical_formula_structural   CuNi3C8
_chemical_formula_sum   'Cu4 Ni12 C32'
_cell_volume   881.81470634
_cell_formula_units_Z   4
loop_
 _symmetry_equiv_pos_site_id
 _symmetry_equiv_pos_as_xyz
  1  'x, y, z'
loop_
 _atom_site_type_symbol
 _atom_site_label
 _atom_site_symmetry_multiplicity
 _atom_site_fract_x
 _atom_site_fract_y
 _atom_site_fract_z
 _atom_site_occupancy
  C  C0  1  0.86998900  0.41221200  0.11325900  1
  C  C1  1  0.36998900  0.08778800  0.88674100  1
  C  C2  1  0.13001100  0.58778800  0.88674100  1
  C  C3  1  0.63001100  0.91221200  0.11325900  1
  Ni  Ni4  1  0.51044300  0.23225100  0.09775700  1
  Ni  Ni5  1  0.01044300  0.26774900  0.90224300  1
  Ni  Ni6  1  0.48955700  0.76774900  0.90224300  1
  Ni  Ni7  1  0.98955700  0.73225100  0.09775700  1
  Ni  Ni8  1  0.97412700  0.06714300  0.23304300  1
  Ni  Ni9  1  0.47412700  0.43285700  0.76695700  1
  Ni  Ni10  1  0.02587300  0.93285700  0.76695700  1
  Ni  Ni11  1  0.52587300  0.56714300  0.23304300  1
  Ni  Ni12  1  0.10150500  0.42717900  0.36744700  1
  Ni  Ni13  1  0.60150500  0.07282100  0.63255300  1
  Ni  Ni14  1  0.89849500  0.57282100  0.63255300  1
  Ni  Ni15  1  0.39849500  0.92717900  0.36744700  1
  Cu  Cu16  1  0.71218900  0.37839700  0.49399400  1
  Cu  Cu17  1  0.21218900  0.12160300  0.50600600  1
  Cu  Cu18  1  0.28781100  0.62160300  0.50600600  1
  Cu  Cu19  1  0.78781100  0.87839700  0.49399400  1
  C  C20  1  0.50980600  0.08820400  0.03953900  1
  C  C21  1  0.00980600  0.41179600  0.96046100  1
  C  C22  1  0.49019400  0.91179600  0.96046100  1
  C  C23  1  0.99019400  0.58820400  0.03953900  1
  C  C24  1  0.76097800  0.23906100  0.13013000  1
  C  C25  1  0.26097800  0.26093900  0.86987000  1
  C  C26  1  0.23902200  0.76093900  0.86987000  1
  C  C27  1  0.73902200  0.73906100  0.13013000  1
  C  C28  1  0.10813800  0.16677300  0.08755700  1
  C  C29  1  0.60813800  0.33322700  0.91244300  1
  C  C30  1  0.89186200  0.83322700  0.91244300  1
  C  C31  1  0.39186200  0.66677300  0.08755700  1
  C  C32  1  0.64195200  0.47064000  0.14582700  1
  C  C33  1  0.14195200  0.02936000  0.85417300  1
  C  C34  1  0.35804800  0.52936000  0.85417300  1
  C  C35  1  0.85804800  0.97064000  0.14582700  1
  C  C36  1  0.00152200  0.34151000  0.26358900  1
  C  C37  1  0.50152200  0.15849000  0.73641100  1
  C  C38  1  0.99847800  0.65849000  0.73641100  1
  C  C39  1  0.49847800  0.84151000  0.26358900  1
  C  C40  1  0.32849700  0.44071200  0.27775400  1
  C  C41  1  0.82849700  0.05928800  0.72224600  1
  C  C42  1  0.67150300  0.55928800  0.72224600  1
  C  C43  1  0.17150300  0.94071200  0.27775400  1
  C  C44  1  0.99445100  0.40530300  0.72169700  1
  C  C45  1  0.49445100  0.09469700  0.27830300  1
  C  C46  1  0.00554900  0.59469700  0.27830300  1
  C  C47  1  0.50554900  0.90530300  0.72169700  1
