# generated using pymatgen
data_CuNi2C17
_symmetry_space_group_name_H-M   'P 1'
_cell_length_a   5.53981563
_cell_length_b   7.70181830
_cell_length_c   15.49021927
_cell_angle_alpha   90.47983700
_cell_angle_beta   90.04554195
_cell_angle_gamma   111.04935167
_symmetry_Int_Tables_number   1
_chemical_formula_structural   CuNi2C17
_chemical_formula_sum   'Cu2 Ni4 C34'
_cell_volume   616.78707938
_cell_formula_units_Z   2
loop_
 _symmetry_equiv_pos_site_id
 _symmetry_equiv_pos_as_xyz
  1  'x, y, z'
loop_
 _atom_site_type_symbol
 _atom_site_label
 _atom_site_symmetry_multiplicity
 _atom_site_fract_x
 _atom_site_fract_y
 _atom_site_fract_z
 _atom_site_occupancy
  Ni  Ni0  1  0.10340800  0.36955400  0.62393600  1
  Ni  Ni1  1  0.26770600  0.36988300  0.12357400  1
  Ni  Ni2  1  0.90071800  0.63319700  0.37649400  1
  Ni  Ni3  1  0.73486700  0.63148300  0.87694900  1
  Cu  Cu4  1  0.42469700  0.00059900  0.75034500  1
  Cu  Cu5  1  0.57782500  0.00078700  0.24983300  1
  C  C6  1  0.50100400  0.00032100  0.00010500  1
  C  C7  1  0.50201800  0.00131500  0.50008300  1
  C  C8  1  0.09206500  0.24307000  0.87651100  1
  C  C9  1  0.91024100  0.75861800  0.12406700  1
  C  C10  1  0.15368800  0.24426000  0.37569100  1
  C  C11  1  0.84938700  0.75812900  0.62429700  1
  C  C12  1  0.90170900  0.97574200  0.34132500  1
  C  C13  1  0.88162400  0.29192500  0.45806500  1
  C  C14  1  0.12454200  0.71217500  0.54269300  1
  C  C15  1  0.62723100  0.48337300  0.59744200  1
  C  C16  1  0.62012400  0.08761100  0.61475100  1
  C  C17  1  0.53543400  0.91379800  0.88558300  1
  C  C18  1  0.41321200  0.28990600  0.95827900  1
  C  C19  1  0.92661500  0.02702500  0.15851800  1
  C  C20  1  0.36112800  0.33133200  0.77591800  1
  C  C21  1  0.37730800  0.51938700  0.40127900  1
  C  C22  1  0.81211400  0.23893400  0.78382100  1
  C  C23  1  0.14403600  0.51777700  0.90338300  1
  C  C24  1  0.42632300  0.23849700  0.28239000  1
  C  C25  1  0.18964000  0.76259200  0.21692800  1
  C  C26  1  0.46663400  0.08650000  0.11445700  1
  C  C27  1  0.64115100  0.67163900  0.22468200  1
  C  C28  1  0.13125000  0.83585000  0.01063100  1
  C  C29  1  0.10037900  0.02658700  0.65936700  1
  C  C30  1  0.87065300  0.16492500  0.98976000  1
  C  C31  1  0.70781000  0.83740200  0.51077600  1
  C  C32  1  0.58906500  0.71186600  0.04230000  1
  C  C33  1  0.57292700  0.76181000  0.71661600  1
  C  C34  1  0.97036900  0.33167700  0.27537100  1
  C  C35  1  0.29761100  0.16609700  0.48903100  1
  C  C36  1  0.38258000  0.91488600  0.38544100  1
  C  C37  1  0.07636500  0.97487600  0.84187800  1
  C  C38  1  0.02971400  0.66959800  0.72511700  1
  C  C39  1  0.85724100  0.48347100  0.09779300  1
