# generated using pymatgen
data_CuNi3C8
_symmetry_space_group_name_H-M   'P 1'
_cell_length_a   4.23194000
_cell_length_b   5.37382900
_cell_length_c   9.28824500
_cell_angle_alpha   90.00000000
_cell_angle_beta   90.00000000
_cell_angle_gamma   90.00000000
_symmetry_Int_Tables_number   1
_chemical_formula_structural   CuNi3C8
_chemical_formula_sum   'Cu1 Ni3 C8'
_cell_volume   211.23068471
_cell_formula_units_Z   1
loop_
 _symmetry_equiv_pos_site_id
 _symmetry_equiv_pos_as_xyz
  1  'x, y, z'
loop_
 _atom_site_type_symbol
 _atom_site_label
 _atom_site_symmetry_multiplicity
 _atom_site_fract_x
 _atom_site_fract_y
 _atom_site_fract_z
 _atom_site_occupancy
  C  C0  1  0.00000000  0.50000000  0.00102200  1
  C  C1  1  0.00000000  0.00000000  0.49897900  1
  C  C2  1  0.50000000  0.50000000  0.50031200  1
  C  C3  1  0.50000000  0.00000000  0.99963500  1
  C  C4  1  0.50000000  0.75014100  0.25010600  1
  C  C5  1  0.50000000  0.24987000  0.74989500  1
  C  C6  1  0.50000000  0.24985900  0.25010600  1
  C  C7  1  0.50000000  0.75013000  0.74989500  1
  Ni  Ni8  1  0.00000000  0.00000000  0.83387800  1
  Ni  Ni9  1  0.00000000  0.00000000  0.16494300  1
  Ni  Ni10  1  0.00000000  0.50000000  0.66773000  1
  Cu  Cu11  1  0.00000000  0.50000000  0.33352000  1
