# generated using pymatgen
data_Cu5Ni5C2
_symmetry_space_group_name_H-M   'P 1'
_cell_length_a   3.99184700
_cell_length_b   5.33534300
_cell_length_c   9.02892500
_cell_angle_alpha   90.00000000
_cell_angle_beta   90.00000000
_cell_angle_gamma   90.00000000
_symmetry_Int_Tables_number   1
_chemical_formula_structural   Cu5Ni5C2
_chemical_formula_sum   'Cu5 Ni5 C2'
_cell_volume   192.29689751
_cell_formula_units_Z   1
loop_
 _symmetry_equiv_pos_site_id
 _symmetry_equiv_pos_as_xyz
  1  'x, y, z'
loop_
 _atom_site_type_symbol
 _atom_site_label
 _atom_site_symmetry_multiplicity
 _atom_site_fract_x
 _atom_site_fract_y
 _atom_site_fract_z
 _atom_site_occupancy
  C  C0  1  0.00000000  0.50000000  0.00000000  1
  C  C1  1  0.00000000  0.00000000  0.50000000  1
  Ni  Ni2  1  0.50000000  0.00000000  0.00000000  1
  Ni  Ni3  1  0.50000000  0.74662100  0.25635500  1
  Ni  Ni4  1  0.50000000  0.25337900  0.74364500  1
  Ni  Ni5  1  0.50000000  0.25337900  0.25635500  1
  Ni  Ni6  1  0.50000000  0.74662100  0.74364500  1
  Cu  Cu7  1  0.00000000  0.50000000  0.34018200  1
  Cu  Cu8  1  0.00000000  0.00000000  0.83356500  1
  Cu  Cu9  1  0.00000000  0.00000000  0.16643500  1
  Cu  Cu10  1  0.00000000  0.50000000  0.65981800  1
  Cu  Cu11  1  0.50000000  0.50000000  0.50000000  1
