# generated using pymatgen
data_Cu4(Ni2C5)3
_symmetry_space_group_name_H-M   'P 1'
_cell_length_a   9.42928062
_cell_length_b   9.42928062
_cell_length_c   18.79687654
_cell_angle_alpha   86.56977980
_cell_angle_beta   86.56977980
_cell_angle_gamma   118.96767926
_symmetry_Int_Tables_number   1
_chemical_formula_structural   Cu4(Ni2C5)3
_chemical_formula_sum   'Cu16 Ni24 C60'
_cell_volume   1451.98355605
_cell_formula_units_Z   4
loop_
 _symmetry_equiv_pos_site_id
 _symmetry_equiv_pos_as_xyz
  1  'x, y, z'
loop_
 _atom_site_type_symbol
 _atom_site_label
 _atom_site_symmetry_multiplicity
 _atom_site_fract_x
 _atom_site_fract_y
 _atom_site_fract_z
 _atom_site_occupancy
  C  C0  1  0.09436900  0.87953800  0.36143800  1
  C  C1  1  0.12046200  0.90563100  0.13856200  1
  C  C2  1  0.90563100  0.12046200  0.63856200  1
  C  C3  1  0.87953800  0.09436900  0.86143800  1
  C  C4  1  0.20706900  0.47641700  0.19805800  1
  C  C5  1  0.52358300  0.79293100  0.30194200  1
  C  C6  1  0.79293100  0.52358300  0.80194200  1
  C  C7  1  0.47641700  0.20706900  0.69805800  1
  C  C8  1  0.01679700  0.31004300  0.23522600  1
  C  C9  1  0.68995700  0.98320300  0.26477400  1
  C  C10  1  0.98320300  0.68995700  0.76477400  1
  C  C11  1  0.31004300  0.01679700  0.73522600  1
  C  C12  1  0.13266000  0.47093200  0.28852300  1
  C  C13  1  0.52906800  0.86734000  0.21147700  1
  C  C14  1  0.86734000  0.52906800  0.71147700  1
  C  C15  1  0.47093200  0.13266000  0.78852300  1
  C  C16  1  0.29754000  0.46492600  0.35458400  1
  C  C17  1  0.53507400  0.70246000  0.14541600  1
  C  C18  1  0.70246000  0.53507400  0.64541600  1
  C  C19  1  0.46492600  0.29754000  0.85458400  1
  C  C20  1  0.42767100  0.38150000  0.33090600  1
  C  C21  1  0.61850000  0.57232900  0.16909400  1
  C  C22  1  0.57232900  0.61850000  0.66909400  1
  C  C23  1  0.38150000  0.42767100  0.83090600  1
  C  C24  1  0.23890100  0.25847400  0.38411800  1
  C  C25  1  0.74152600  0.76109900  0.11588200  1
  C  C26  1  0.76109900  0.74152600  0.61588200  1
  C  C27  1  0.25847400  0.23890100  0.88411800  1
  C  C28  1  0.42347400  0.65269100  0.47258900  1
  C  C29  1  0.34730900  0.57652600  0.02741100  1
  C  C30  1  0.57652600  0.34730900  0.52741100  1
  C  C31  1  0.65269100  0.42347400  0.97258900  1
  C  C32  1  0.38174800  0.60091900  0.56726400  1
  C  C33  1  0.39908100  0.61825200  0.93273600  1
  C  C34  1  0.61825200  0.39908100  0.43273600  1
  C  C35  1  0.60091900  0.38174800  0.06726400  1
  C  C36  1  0.22461100  0.49838400  0.51054300  1
  C  C37  1  0.50161600  0.77538900  0.98945700  1
  C  C38  1  0.77538900  0.50161600  0.48945700  1
  C  C39  1  0.49838400  0.22461100  0.01054300  1
  C  C40  1  0.26371000  0.89477600  0.59818200  1
  C  C41  1  0.10522400  0.73629000  0.90181800  1
  C  C42  1  0.73629000  0.10522400  0.40181800  1
  C  C43  1  0.89477600  0.26371000  0.09818200  1
  C  C44  1  0.28075600  0.72694100  0.63869300  1
  C  C45  1  0.27305900  0.71924400  0.86130700  1
  C  C46  1  0.71924400  0.27305900  0.36130700  1
  C  C47  1  0.72694100  0.28075600  0.13869300  1
  C  C48  1  0.45569700  0.89704000  0.59124300  1
  C  C49  1  0.10296000  0.54430300  0.90875700  1
  C  C50  1  0.54430300  0.10296000  0.40875700  1
  C  C51  1  0.89704000  0.45569700  0.09124300  1
  Ni  Ni52  1  0.14006600  0.39676900  0.24737300  1
  Ni  Ni53  1  0.60323100  0.85993400  0.25262700  1
  Ni  Ni54  1  0.85993400  0.60323100  0.75262700  1
  Ni  Ni55  1  0.39676900  0.14006600  0.74737300  1
  Ni  Ni56  1  0.30091300  0.35572400  0.33988200  1
  Ni  Ni57  1  0.64427600  0.69908700  0.16011800  1
  Ni  Ni58  1  0.69908700  0.64427600  0.66011800  1
  Ni  Ni59  1  0.35572400  0.30091300  0.83988200  1
  Ni  Ni60  1  0.22156700  0.18817700  0.23923500  1
  Ni  Ni61  1  0.81182300  0.77843300  0.26076500  1
  Ni  Ni62  1  0.77843300  0.81182300  0.76076500  1
  Ni  Ni63  1  0.18817700  0.22156700  0.73923500  1
  Ni  Ni64  1  0.21303100  0.78172500  0.47552600  1
  Ni  Ni65  1  0.21827500  0.78696900  0.02447400  1
  Ni  Ni66  1  0.78696900  0.21827500  0.52447400  1
  Ni  Ni67  1  0.78172500  0.21303100  0.97552600  1
  Ni  Ni68  1  0.33052700  0.61541600  0.51841800  1
  Ni  Ni69  1  0.38458400  0.66947300  0.98158200  1
  Ni  Ni70  1  0.66947300  0.38458400  0.48158200  1
  Ni  Ni71  1  0.61541600  0.33052700  0.01841800  1
  Ni  Ni72  1  0.32273400  0.81993900  0.59265300  1
  Ni  Ni73  1  0.18006100  0.67726600  0.90734700  1
  Ni  Ni74  1  0.67726600  0.18006100  0.40734700  1
  Ni  Ni75  1  0.81993900  0.32273400  0.09265300  1
  Cu  Cu76  1  0.84193600  0.85403900  0.34312200  1
  Cu  Cu77  1  0.14596100  0.15806400  0.15687800  1
  Cu  Cu78  1  0.15806400  0.14596100  0.65687800  1
  Cu  Cu79  1  0.85403900  0.84193600  0.84312200  1
  Cu  Cu80  1  0.30460300  0.07412200  0.27473800  1
  Cu  Cu81  1  0.92587800  0.69539700  0.22526200  1
  Cu  Cu82  1  0.69539700  0.92587800  0.72526200  1
  Cu  Cu83  1  0.07412200  0.30460300  0.77473800  1
  Cu  Cu84  1  0.17555700  0.68599100  0.39736200  1
  Cu  Cu85  1  0.31400900  0.82444300  0.10263800  1
  Cu  Cu86  1  0.82444300  0.31400900  0.60263800  1
  Cu  Cu87  1  0.68599100  0.17555700  0.89736200  1
  Cu  Cu88  1  0.15926400  0.93121000  0.48358100  1
  Cu  Cu89  1  0.06879000  0.84073600  0.01641900  1
  Cu  Cu90  1  0.84073600  0.06879000  0.51641900  1
  Cu  Cu91  1  0.93121000  0.15926400  0.98358100  1
  C  C92  1  0.22057100  0.30805600  0.27429200  1
  C  C93  1  0.69194400  0.77942900  0.22570800  1
  C  C94  1  0.77942900  0.69194400  0.72570800  1
  C  C95  1  0.30805600  0.22057100  0.77429200  1
  C  C96  1  0.28205400  0.73975800  0.52687000  1
  C  C97  1  0.26024200  0.71794600  0.97313000  1
  C  C98  1  0.71794600  0.26024200  0.47313000  1
  C  C99  1  0.73975800  0.28205400  0.02687000  1
