# generated using pymatgen
data_Cu3Ni3C17
_symmetry_space_group_name_H-M   'P 1'
_cell_length_a   9.51334100
_cell_length_b   13.16897400
_cell_length_c   25.64583000
_cell_angle_alpha   90.00000000
_cell_angle_beta   90.00000000
_cell_angle_gamma   90.00000000
_symmetry_Int_Tables_number   1
_chemical_formula_structural   Cu3Ni3C17
_chemical_formula_sum   'Cu12 Ni12 C68'
_cell_volume   3212.93369672
_cell_formula_units_Z   4
loop_
 _symmetry_equiv_pos_site_id
 _symmetry_equiv_pos_as_xyz
  1  'x, y, z'
loop_
 _atom_site_type_symbol
 _atom_site_label
 _atom_site_symmetry_multiplicity
 _atom_site_fract_x
 _atom_site_fract_y
 _atom_site_fract_z
 _atom_site_occupancy
  C  C0  1  0.38385400  0.30739400  0.53243400  1
  C  C1  1  0.61614600  0.69260600  0.46756600  1
  C  C2  1  0.88385400  0.19260600  0.46756600  1
  C  C3  1  0.61614600  0.69260600  0.03243400  1
  C  C4  1  0.11614600  0.80739400  0.53243400  1
  C  C5  1  0.38385400  0.30739400  0.96756600  1
  C  C6  1  0.11614600  0.80739400  0.96756600  1
  C  C7  1  0.88385400  0.19260600  0.03243400  1
  C  C8  1  0.41386900  0.02063000  0.65892900  1
  C  C9  1  0.58613100  0.97937000  0.34107100  1
  C  C10  1  0.91386900  0.47937000  0.34107100  1
  C  C11  1  0.58613100  0.97937000  0.15892900  1
  C  C12  1  0.08613100  0.52063000  0.65892900  1
  C  C13  1  0.41386900  0.02063000  0.84107100  1
  C  C14  1  0.08613100  0.52063000  0.84107100  1
  C  C15  1  0.91386900  0.47937000  0.15892900  1
  C  C16  1  0.10209600  0.13845100  0.25000000  1
  C  C17  1  0.89790400  0.86154900  0.75000000  1
  C  C18  1  0.60209600  0.36154900  0.75000000  1
  C  C19  1  0.39790400  0.63845100  0.25000000  1
  C  C20  1  0.40982400  0.34141900  0.15261100  1
  C  C21  1  0.59017600  0.65858100  0.84738900  1
  C  C22  1  0.90982400  0.15858100  0.84738900  1
  C  C23  1  0.59017600  0.65858100  0.65261100  1
  C  C24  1  0.09017600  0.84141900  0.15261100  1
  C  C25  1  0.40982400  0.34141900  0.34738900  1
  C  C26  1  0.09017600  0.84141900  0.34738900  1
  C  C27  1  0.90982400  0.15858100  0.65261100  1
  Ni  Ni28  1  0.69608200  0.26028200  0.25000000  1
  Ni  Ni29  1  0.30391800  0.73971800  0.75000000  1
  Ni  Ni30  1  0.19608200  0.23971800  0.75000000  1
  Ni  Ni31  1  0.80391800  0.76028200  0.25000000  1
  Ni  Ni32  1  0.30067500  0.04598100  0.05423600  1
  Ni  Ni33  1  0.69932500  0.95401900  0.94576400  1
  Ni  Ni34  1  0.80067500  0.45401900  0.94576400  1
  Ni  Ni35  1  0.69932500  0.95401900  0.55423600  1
  Ni  Ni36  1  0.19932500  0.54598100  0.05423600  1
  Ni  Ni37  1  0.30067500  0.04598100  0.44576400  1
  Ni  Ni38  1  0.19932500  0.54598100  0.44576400  1
  Ni  Ni39  1  0.80067500  0.45401900  0.55423600  1
  Cu  Cu40  1  0.18014900  0.07775800  0.54354800  1
  Cu  Cu41  1  0.81985100  0.92224200  0.45645200  1
  Cu  Cu42  1  0.68014900  0.42224200  0.45645200  1
  Cu  Cu43  1  0.81985100  0.92224200  0.04354800  1
  Cu  Cu44  1  0.31985100  0.57775800  0.54354800  1
  Cu  Cu45  1  0.18014900  0.07775800  0.95645200  1
  Cu  Cu46  1  0.31985100  0.57775800  0.95645200  1
  Cu  Cu47  1  0.68014900  0.42224200  0.04354800  1
  Cu  Cu48  1  0.17359300  0.39959300  0.25000000  1
  Cu  Cu49  1  0.82640700  0.60040700  0.75000000  1
  Cu  Cu50  1  0.67359300  0.10040700  0.75000000  1
  Cu  Cu51  1  0.32640700  0.89959300  0.25000000  1
  C  C52  1  0.33126700  0.28005500  0.66804000  1
  C  C53  1  0.66873300  0.71994500  0.33196000  1
  C  C54  1  0.83126700  0.21994500  0.33196000  1
  C  C55  1  0.66873300  0.71994500  0.16803900  1
  C  C56  1  0.16873300  0.78005500  0.66804000  1
  C  C57  1  0.33126700  0.28005500  0.83196000  1
  C  C58  1  0.16873300  0.78005500  0.83196000  1
  C  C59  1  0.83126700  0.21994500  0.16803900  1
  C  C60  1  0.11249800  0.09217200  0.12155300  1
  C  C61  1  0.88750200  0.90782800  0.87844700  1
  C  C62  1  0.61249800  0.40782800  0.87844700  1
  C  C63  1  0.88750200  0.90782800  0.62155300  1
  C  C64  1  0.38750200  0.59217200  0.12155300  1
  C  C65  1  0.11249800  0.09217200  0.37844700  1
  C  C66  1  0.38750200  0.59217200  0.37844700  1
  C  C67  1  0.61249800  0.40782800  0.62155300  1
  C  C68  1  0.64715300  0.45310800  0.25000000  1
  C  C69  1  0.35284700  0.54689200  0.75000000  1
  C  C70  1  0.14715300  0.04689200  0.75000000  1
  C  C71  1  0.85284700  0.95310800  0.25000000  1
  C  C72  1  0.46846800  0.15517500  0.25000000  1
  C  C73  1  0.53153200  0.84482500  0.75000000  1
  C  C74  1  0.96846800  0.34482500  0.75000000  1
  C  C75  1  0.03153200  0.65517500  0.25000000  1
  C  C76  1  0.51191300  0.16170300  0.07098000  1
  C  C77  1  0.48808700  0.83829700  0.92902000  1
  C  C78  1  0.01191300  0.33829700  0.92902000  1
  C  C79  1  0.48808700  0.83829700  0.57098000  1
  C  C80  1  0.98808700  0.66170300  0.07098000  1
  C  C81  1  0.51191300  0.16170300  0.42902000  1
  C  C82  1  0.98808700  0.66170300  0.42902000  1
  C  C83  1  0.01191300  0.33829700  0.57098000  1
  C  C84  1  0.14567600  0.35820300  0.07283600  1
  C  C85  1  0.85432400  0.64179700  0.92716400  1
  C  C86  1  0.64567600  0.14179700  0.92716400  1
  C  C87  1  0.85432400  0.64179700  0.57283600  1
  C  C88  1  0.35432400  0.85820300  0.07283600  1
  C  C89  1  0.14567600  0.35820300  0.42716400  1
  C  C90  1  0.35432400  0.85820300  0.42716400  1
  C  C91  1  0.64567600  0.14179700  0.57283600  1
