# generated using pymatgen
data_CuNi14C
_symmetry_space_group_name_H-M   'P 1'
_cell_length_a   6.57608356
_cell_length_b   6.61396989
_cell_length_c   10.42359233
_cell_angle_alpha   90.00000000
_cell_angle_beta   90.00000000
_cell_angle_gamma   120.19076941
_symmetry_Int_Tables_number   1
_chemical_formula_structural   CuNi14C
_chemical_formula_sum   'Cu1 Ni14 C1'
_cell_volume   391.86774645
_cell_formula_units_Z   1
loop_
 _symmetry_equiv_pos_site_id
 _symmetry_equiv_pos_as_xyz
  1  'x, y, z'
loop_
 _atom_site_type_symbol
 _atom_site_label
 _atom_site_symmetry_multiplicity
 _atom_site_fract_x
 _atom_site_fract_y
 _atom_site_fract_z
 _atom_site_occupancy
  C  C0  1  0.16264502  0.83132201  0.12500000  1
  Ni  Ni1  1  0.16398024  0.33198962  0.62500000  1
  Ni  Ni2  1  0.16708420  0.83354160  0.62500000  1
  Ni  Ni3  1  0.66435470  0.33178944  0.12500000  1
  Ni  Ni4  1  0.66762245  0.32975423  0.62500000  1
  Ni  Ni5  1  0.66435470  0.83256427  0.12500000  1
  Ni  Ni6  1  0.66762245  0.83786722  0.62500000  1
  Ni  Ni7  1  0.33403654  0.17685874  0.38408097  1
  Ni  Ni8  1  0.33403654  0.17685874  0.86591903  1
  Ni  Ni9  1  0.33403654  0.65717880  0.38408097  1
  Ni  Ni10  1  0.33403654  0.65717880  0.86591903  1
  Ni  Ni11  1  0.83814256  0.16907178  0.36924214  1
  Ni  Ni12  1  0.83814256  0.16907178  0.88075786  1
  Ni  Ni13  1  0.81875413  0.65937756  0.38707665  1
  Ni  Ni14  1  0.81875413  0.65937756  0.86292335  1
  Cu  Cu15  1  0.19239669  0.34619785  0.12500000  1
