# generated using pymatgen
data_Cu2NiC16
_symmetry_space_group_name_H-M   'P 1'
_cell_length_a   6.21922274
_cell_length_b   7.69834001
_cell_length_c   5.31670179
_cell_angle_alpha   89.57653901
_cell_angle_beta   100.57567733
_cell_angle_gamma   112.45182940
_symmetry_Int_Tables_number   1
_chemical_formula_structural   Cu2NiC16
_chemical_formula_sum   'Cu2 Ni1 C16'
_cell_volume   230.70898197
_cell_formula_units_Z   1
loop_
 _symmetry_equiv_pos_site_id
 _symmetry_equiv_pos_as_xyz
  1  'x, y, z'
loop_
 _atom_site_type_symbol
 _atom_site_label
 _atom_site_symmetry_multiplicity
 _atom_site_fract_x
 _atom_site_fract_y
 _atom_site_fract_z
 _atom_site_occupancy
  Ni  Ni0  1  0.50000000  0.50000000  0.00000000  1
  Cu  Cu1  1  0.18687500  0.66085700  0.17786800  1
  Cu  Cu2  1  0.81312500  0.33914300  0.82213200  1
  C  C3  1  0.17352300  0.54843500  0.70872900  1
  C  C4  1  0.82647700  0.45156500  0.29127100  1
  C  C5  1  0.26117500  0.90068600  0.87345700  1
  C  C6  1  0.73882500  0.09931400  0.12654300  1
  C  C7  1  0.80303200  0.87717600  0.66267200  1
  C  C8  1  0.19696800  0.12282400  0.33732800  1
  C  C9  1  0.15451500  0.48706900  0.87150900  1
  C  C10  1  0.84548500  0.51293100  0.12849100  1
  C  C11  1  0.14623700  0.85241200  0.98518400  1
  C  C12  1  0.85376300  0.14758800  0.01481600  1
  C  C13  1  0.24419400  0.79919600  0.46957100  1
  C  C14  1  0.75580600  0.20080400  0.53043000  1
  C  C15  1  0.22808600  0.47601100  0.37250900  1
  C  C16  1  0.77191400  0.52398900  0.62749100  1
  C  C17  1  0.51152200  0.73551200  0.16677100  1
  C  C18  1  0.48847800  0.26448800  0.83322900  1
