# generated using pymatgen
data_Cu8Ni2C17
_symmetry_space_group_name_H-M   'P 1'
_cell_length_a   7.39351500
_cell_length_b   12.23440200
_cell_length_c   13.54687500
_cell_angle_alpha   90.00000000
_cell_angle_beta   90.00000000
_cell_angle_gamma   90.00000000
_symmetry_Int_Tables_number   1
_chemical_formula_structural   Cu8Ni2C17
_chemical_formula_sum   'Cu32 Ni8 C68'
_cell_volume   1225.38575762
_cell_formula_units_Z   4
loop_
 _symmetry_equiv_pos_site_id
 _symmetry_equiv_pos_as_xyz
  1  'x, y, z'
loop_
 _atom_site_type_symbol
 _atom_site_label
 _atom_site_symmetry_multiplicity
 _atom_site_fract_x
 _atom_site_fract_y
 _atom_site_fract_z
 _atom_site_occupancy
  C  C0  1  0.50000000  0.50000000  0.00000000  1
  C  C1  1  0.50000000  0.00000000  0.50000000  1
  C  C2  1  0.00000000  0.50000000  0.50000000  1
  C  C3  1  0.00000000  0.00000000  0.00000000  1
  C  C4  1  0.25234200  0.48704500  0.85575900  1
  C  C5  1  0.74765800  0.98704500  0.64424100  1
  C  C6  1  0.24765800  0.51295500  0.35575900  1
  C  C7  1  0.75234200  0.01295500  0.14424100  1
  C  C8  1  0.74765800  0.51295500  0.14424100  1
  C  C9  1  0.25234200  0.01295500  0.35575900  1
  C  C10  1  0.75234200  0.48704500  0.64424100  1
  C  C11  1  0.24765800  0.98704500  0.85575900  1
  C  C12  1  0.49921300  0.29291900  0.92116600  1
  C  C13  1  0.50078700  0.79291900  0.57883400  1
  C  C14  1  0.00078700  0.70708100  0.42116600  1
  C  C15  1  0.99921300  0.20708100  0.07883400  1
  C  C16  1  0.50078700  0.70708100  0.07883400  1
  C  C17  1  0.49921300  0.20708100  0.42116600  1
  C  C18  1  0.99921300  0.29291900  0.57883400  1
  C  C19  1  0.00078700  0.79291900  0.92116600  1
  C  C20  1  0.16627700  0.53692900  0.08143300  1
  C  C21  1  0.83372300  0.03692900  0.41856700  1
  C  C22  1  0.33372300  0.46307100  0.58143300  1
  C  C23  1  0.66627700  0.96307100  0.91856700  1
  C  C24  1  0.83372300  0.46307100  0.91856700  1
  C  C25  1  0.16627700  0.96307100  0.58143300  1
  C  C26  1  0.66627700  0.53692900  0.41856700  1
  C  C27  1  0.33372300  0.03692900  0.08143300  1
  C  C28  1  0.51520800  0.27916800  0.03697000  1
  C  C29  1  0.48479200  0.77916800  0.46303000  1
  C  C30  1  0.98479200  0.72083200  0.53697000  1
  C  C31  1  0.01520800  0.22083200  0.96303000  1
  C  C32  1  0.48479200  0.72083200  0.96303000  1
  C  C33  1  0.51520800  0.22083200  0.53697000  1
  C  C34  1  0.01520800  0.27916800  0.46303000  1
  C  C35  1  0.98479200  0.77916800  0.03697000  1
  C  C36  1  0.19364200  0.41302300  0.09901900  1
  C  C37  1  0.80635800  0.91302300  0.40098100  1
  C  C38  1  0.30635800  0.58697700  0.59901900  1
  C  C39  1  0.69364200  0.08697700  0.90098100  1
  C  C40  1  0.80635800  0.58697700  0.90098100  1
  C  C41  1  0.19364200  0.08697700  0.59901900  1
  C  C42  1  0.69364200  0.41302300  0.40098100  1
  C  C43  1  0.30635800  0.91302300  0.09901900  1
  C  C44  1  0.50064100  0.22564300  0.19065300  1
  C  C45  1  0.49935900  0.72564300  0.30934700  1
  C  C46  1  0.99935900  0.77435700  0.69065300  1
  C  C47  1  0.00064100  0.27435700  0.80934700  1
  C  C48  1  0.49935900  0.77435700  0.80934700  1
  C  C49  1  0.50064100  0.27435700  0.69065300  1
  C  C50  1  0.00064100  0.22564300  0.30934700  1
  C  C51  1  0.99935900  0.72564300  0.19065300  1
  C  C52  1  0.33254700  0.19431200  0.13036700  1
  C  C53  1  0.66745300  0.69431200  0.36963300  1
  C  C54  1  0.16745300  0.80568800  0.63036700  1
  C  C55  1  0.83254700  0.30568800  0.86963300  1
  C  C56  1  0.66745300  0.80568800  0.86963300  1
  C  C57  1  0.33254700  0.30568800  0.63036700  1
  C  C58  1  0.83254700  0.19431200  0.36963300  1
  C  C59  1  0.16745300  0.69431200  0.13036700  1
  C  C60  1  0.40601500  0.55752100  0.80634900  1
  C  C61  1  0.59398500  0.05752100  0.69365100  1
  C  C62  1  0.09398500  0.44247900  0.30634900  1
  C  C63  1  0.90601500  0.94247900  0.19365100  1
  C  C64  1  0.59398500  0.44247900  0.19365100  1
  C  C65  1  0.40601500  0.94247900  0.30634900  1
  C  C66  1  0.90601500  0.55752100  0.69365100  1
  C  C67  1  0.09398500  0.05752100  0.80634900  1
  Ni  Ni68  1  0.51472700  0.33100800  0.30968500  1
  Ni  Ni69  1  0.48527300  0.83100800  0.19031500  1
  Ni  Ni70  1  0.98527300  0.66899200  0.80968500  1
  Ni  Ni71  1  0.01472700  0.16899200  0.69031500  1
  Ni  Ni72  1  0.48527300  0.66899200  0.69031500  1
  Ni  Ni73  1  0.51472700  0.16899200  0.80968500  1
  Ni  Ni74  1  0.01472700  0.33100800  0.19031500  1
  Ni  Ni75  1  0.98527300  0.83100800  0.30968500  1
  Cu  Cu76  1  0.52811800  0.33349500  0.98216600  1
  Cu  Cu77  1  0.47188200  0.83349500  0.51783400  1
  Cu  Cu78  1  0.97188200  0.66650500  0.48216600  1
  Cu  Cu79  1  0.02811800  0.16650500  0.01783400  1
  Cu  Cu80  1  0.47188200  0.66650500  0.01783400  1
  Cu  Cu81  1  0.52811800  0.16650500  0.48216600  1
  Cu  Cu82  1  0.02811800  0.33349500  0.51783400  1
  Cu  Cu83  1  0.97188200  0.83349500  0.98216600  1
  Cu  Cu84  1  0.38147900  0.50325800  0.85900400  1
  Cu  Cu85  1  0.61852100  0.00325800  0.64099600  1
  Cu  Cu86  1  0.11852100  0.49674200  0.35900400  1
  Cu  Cu87  1  0.88147900  0.99674200  0.14099600  1
  Cu  Cu88  1  0.61852100  0.49674200  0.14099600  1
  Cu  Cu89  1  0.38147900  0.99674200  0.35900400  1
  Cu  Cu90  1  0.88147900  0.50325800  0.64099600  1
  Cu  Cu91  1  0.11852100  0.00325800  0.85900400  1
  Cu  Cu92  1  0.24523300  0.47639400  0.06264900  1
  Cu  Cu93  1  0.75476700  0.97639400  0.43735100  1
  Cu  Cu94  1  0.25476700  0.52360600  0.56264900  1
  Cu  Cu95  1  0.74523300  0.02360600  0.93735100  1
  Cu  Cu96  1  0.75476700  0.52360600  0.93735100  1
  Cu  Cu97  1  0.24523300  0.02360600  0.56264900  1
  Cu  Cu98  1  0.74523300  0.47639400  0.43735100  1
  Cu  Cu99  1  0.25476700  0.97639400  0.06264900  1
  Cu  Cu100  1  0.46442200  0.18677900  0.12874200  1
  Cu  Cu101  1  0.53557800  0.68677900  0.37125800  1
  Cu  Cu102  1  0.03557800  0.81322100  0.62874200  1
  Cu  Cu103  1  0.96442200  0.31322100  0.87125800  1
  Cu  Cu104  1  0.53557800  0.81322100  0.87125800  1
  Cu  Cu105  1  0.46442200  0.31322100  0.62874200  1
  Cu  Cu106  1  0.96442200  0.18677900  0.37125800  1
  Cu  Cu107  1  0.03557800  0.68677900  0.12874200  1
