# generated using pymatgen
data_Cu12NiC53
_symmetry_space_group_name_H-M   'P 1'
_cell_length_a   14.48788435
_cell_length_b   14.58255806
_cell_length_c   14.55214316
_cell_angle_alpha   118.51072091
_cell_angle_beta   93.33414319
_cell_angle_gamma   111.22963980
_symmetry_Int_Tables_number   1
_chemical_formula_structural   Cu12NiC53
_chemical_formula_sum   'Cu24 Ni2 C106'
_cell_volume   2416.03467624
_cell_formula_units_Z   2
loop_
 _symmetry_equiv_pos_site_id
 _symmetry_equiv_pos_as_xyz
  1  'x, y, z'
loop_
 _atom_site_type_symbol
 _atom_site_label
 _atom_site_symmetry_multiplicity
 _atom_site_fract_x
 _atom_site_fract_y
 _atom_site_fract_z
 _atom_site_occupancy
  C  C0  1  0.83958223  0.20430711  0.29386791  1
  C  C1  1  0.16041777  0.79569289  0.70613209  1
  Ni  Ni2  1  0.28608261  0.06476034  0.27048561  1
  Ni  Ni3  1  0.71391739  0.93523966  0.72951439  1
  Cu  Cu4  1  0.25382381  0.22489266  0.90091484  1
  Cu  Cu5  1  0.74617619  0.77510734  0.09908516  1
  Cu  Cu6  1  0.77450336  0.57856397  0.01780727  1
  Cu  Cu7  1  0.22549664  0.42143603  0.98219273  1
  Cu  Cu8  1  0.54183533  0.69519775  0.04581187  1
  Cu  Cu9  1  0.45816467  0.30480225  0.95418813  1
  Cu  Cu10  1  0.03623038  0.39486782  0.43745070  1
  Cu  Cu11  1  0.96376962  0.60513218  0.56254930  1
  Cu  Cu12  1  0.85915543  0.35879927  0.23590946  1
  Cu  Cu13  1  0.14084457  0.64120073  0.76409054  1
  Cu  Cu14  1  0.04150972  0.61366400  0.37302372  1
  Cu  Cu15  1  0.95849028  0.38633600  0.62697628  1
  Cu  Cu16  1  0.06017232  0.54262719  0.10727755  1
  Cu  Cu17  1  0.93982768  0.45737281  0.89272245  1
  Cu  Cu18  1  0.21964428  0.40918189  0.78344301  1
  Cu  Cu19  1  0.78035572  0.59081811  0.21655699  1
  Cu  Cu20  1  0.13383108  0.45970185  0.29895974  1
  Cu  Cu21  1  0.86616892  0.54029815  0.70104026  1
  Cu  Cu22  1  0.56904809  0.49934091  0.19178321  1
  Cu  Cu23  1  0.43095191  0.50065909  0.80821679  1
  Cu  Cu24  1  0.84937929  0.12849935  0.41593405  1
  Cu  Cu25  1  0.15062071  0.87150065  0.58406595  1
  Cu  Cu26  1  0.23422927  0.67230198  0.55093050  1
  Cu  Cu27  1  0.76577073  0.32769802  0.44906950  1
  C  C28  1  0.28763265  0.86116391  0.34816927  1
  C  C29  1  0.71236735  0.13883609  0.65183073  1
  C  C30  1  0.05682836  0.83340882  0.04626207  1
  C  C31  1  0.94317164  0.16659118  0.95373793  1
  C  C32  1  0.51184190  0.01831753  0.30872881  1
  C  C33  1  0.48815810  0.98168247  0.69127119  1
  C  C34  1  0.28507215  0.14504083  0.54967472  1
  C  C35  1  0.71492785  0.85495917  0.45032528  1
  C  C36  1  0.05025413  0.90361637  0.31098468  1
  C  C37  1  0.94974587  0.09638363  0.68901532  1
  C  C38  1  0.28627247  0.33714421  0.46925022  1
  C  C39  1  0.71372753  0.66285579  0.53074978  1
  C  C40  1  0.51399210  0.22324713  0.21989675  1
  C  C41  1  0.48600790  0.77675287  0.78010325  1
  C  C42  1  0.05398318  0.09588406  0.23081004  1
  C  C43  1  0.94601682  0.90411594  0.76918996  1
  C  C44  1  0.50733202  0.30112925  0.50564776  1
  C  C45  1  0.49266798  0.69887075  0.49435224  1
  C  C46  1  0.29716475  0.79438914  0.08524151  1
  C  C47  1  0.70283525  0.20561086  0.91475849  1
  C  C48  1  0.29352300  0.26312203  0.18401394  1
  C  C49  1  0.70647700  0.73687797  0.81598606  1
  C  C50  1  0.29668297  0.00122135  0.00081305  1
  C  C51  1  0.70331703  0.99877865  0.99918695  1
  C  C52  1  0.71199847  0.33498998  0.02211913  1
  C  C53  1  0.28800153  0.66501002  0.97788087  1
  C  C54  1  0.32344337  0.16568707  0.39114543  1
  C  C55  1  0.67655663  0.83431293  0.60885457  1
  C  C56  1  0.32363000  0.89316556  0.02605422  1
  C  C57  1  0.67637000  0.10683444  0.97394578  1
  C  C58  1  0.63625845  0.29712657  0.21583111  1
  C  C59  1  0.36374155  0.70287343  0.78416889  1
  C  C60  1  0.14824675  0.84082293  0.30783264  1
  C  C61  1  0.85175325  0.15917707  0.69216736  1
  C  C62  1  0.26652387  0.46013214  0.53968784  1
  C  C63  1  0.73347613  0.53986786  0.46031216  1
  C  C64  1  0.04586548  0.17111709  0.65107936  1
  C  C65  1  0.95413452  0.82888291  0.34892064  1
  C  C66  1  0.37230840  0.59815856  0.40230497  1
  C  C67  1  0.62769160  0.40184144  0.59769503  1
  C  C68  1  0.99878821  0.00310461  0.29410744  1
  C  C69  1  0.00121179  0.99689539  0.70589256  1
  C  C70  1  0.14799046  0.21982086  0.37317159  1
  C  C71  1  0.85200954  0.78017914  0.62682841  1
  C  C72  1  0.26999491  0.75464598  0.19448332  1
  C  C73  1  0.73000509  0.24535402  0.80551668  1
  C  C74  1  0.52781722  0.10477875  0.23740870  1
  C  C75  1  0.47218278  0.89522125  0.76259130  1
  C  C76  1  0.43189998  0.24682368  0.59109691  1
  C  C77  1  0.56810002  0.75317632  0.40890309  1
  C  C78  1  0.31526622  0.33700647  0.34030712  1
  C  C79  1  0.68473378  0.66299353  0.65969288  1
  C  C80  1  0.44117910  0.30833605  0.20692295  1
  C  C81  1  0.55882090  0.69166395  0.79307705  1
  C  C82  1  0.26147451  0.27395700  0.56248233  1
  C  C83  1  0.73852549  0.72604300  0.43751767  1
  C  C84  1  0.56367657  0.07324529  0.63349216  1
  C  C85  1  0.43632343  0.92675471  0.36650784  1
  C  C86  1  0.27140032  0.15512472  0.67106327  1
  C  C87  1  0.72859968  0.84487528  0.32893673  1
  C  C88  1  0.15613673  0.77651016  0.05835890  1
  C  C89  1  0.84386327  0.22348984  0.94164110  1
  C  C90  1  0.44341687  0.87548964  0.16398641  1
  C  C91  1  0.55658313  0.12451036  0.83601359  1
  C  C92  1  0.32719844  0.11317981  0.19895726  1
  C  C93  1  0.67280156  0.88682019  0.80104274  1
  C  C94  1  0.43321852  0.39562191  0.53049599  1
  C  C95  1  0.56678148  0.60437809  0.46950401  1
  C  C96  1  0.16638982  0.00399305  0.23198761  1
  C  C97  1  0.83361018  0.99600695  0.76801239  1
  C  C98  1  0.03401246  0.28246199  0.07621175  1
  C  C99  1  0.96598754  0.71753801  0.92378825  1
  C  C100  1  0.31204600  0.01016304  0.47479433  1
  C  C101  1  0.68795400  0.98983696  0.52520567  1
  C  C102  1  0.15224487  0.16974882  0.17444686  1
  C  C103  1  0.84775513  0.83025118  0.82555314  1
  C  C104  1  0.15702549  0.92216610  0.00071968  1
  C  C105  1  0.84297451  0.07783390  0.99928032  1
  C  C106  1  0.14621504  0.03850508  0.44912345  1
  C  C107  1  0.85378496  0.96149492  0.55087655  1
  C  C108  1  0.44324091  0.10608856  0.06493144  1
  C  C109  1  0.55675909  0.89391144  0.93506856  1
  C  C110  1  0.63514902  0.03047733  0.33743648  1
  C  C111  1  0.36485098  0.96952267  0.66256352  1
  C  C112  1  0.52422552  0.30176074  0.37446638  1
  C  C113  1  0.47577448  0.69823926  0.62553362  1
  C  C114  1  0.71718862  0.06151870  0.13941950  1
  C  C115  1  0.28281138  0.93848130  0.86058050  1
  C  C116  1  0.99697813  0.05042357  0.90925646  1
  C  C117  1  0.00302187  0.94957643  0.09074354  1
  C  C118  1  0.99897645  0.19933594  0.84847547  1
  C  C119  1  0.00102355  0.80066406  0.15152453  1
  C  C120  1  0.95948919  0.14427639  0.22904333  1
  C  C121  1  0.04051081  0.85572361  0.77095667  1
  C  C122  1  0.52012157  0.15653803  0.43531424  1
  C  C123  1  0.47987843  0.84346197  0.56468576  1
  C  C124  1  0.67440512  0.02483685  0.74235356  1
  C  C125  1  0.32559488  0.97516315  0.25764644  1
  C  C126  1  0.27310876  0.13609145  0.03680974  1
  C  C127  1  0.72689124  0.86390855  0.96319026  1
  C  C128  1  0.26928252  0.77135254  0.39836270  1
  C  C129  1  0.73071748  0.22864746  0.60163730  1
  C  C130  1  0.28201682  0.36165178  0.15591045  1
  C  C131  1  0.71798318  0.63834822  0.84408955  1
