# generated using pymatgen
data_Cu4Ni5C6
_symmetry_space_group_name_H-M   'P 1'
_cell_length_a   12.33265500
_cell_length_b   6.61579900
_cell_length_c   9.94132627
_cell_angle_alpha   61.63746021
_cell_angle_beta   90.00000000
_cell_angle_gamma   90.00000000
_symmetry_Int_Tables_number   1
_chemical_formula_structural   Cu4Ni5C6
_chemical_formula_sum   'Cu16 Ni20 C24'
_cell_volume   713.74950832
_cell_formula_units_Z   4
loop_
 _symmetry_equiv_pos_site_id
 _symmetry_equiv_pos_as_xyz
  1  'x, y, z'
loop_
 _atom_site_type_symbol
 _atom_site_label
 _atom_site_symmetry_multiplicity
 _atom_site_fract_x
 _atom_site_fract_y
 _atom_site_fract_z
 _atom_site_occupancy
  C  C0  1  0.73034900  0.70219700  0.41105300  1
  C  C1  1  0.76965100  0.70219700  0.91105300  1
  C  C2  1  0.26965100  0.29780300  0.58894700  1
  C  C3  1  0.23034900  0.29780300  0.08894700  1
  C  C4  1  0.42055500  0.83111400  0.33664300  1
  C  C5  1  0.07944500  0.83111400  0.83664300  1
  C  C6  1  0.57944500  0.16888600  0.66335700  1
  C  C7  1  0.92055500  0.16888600  0.16335700  1
  C  C8  1  0.14304400  0.83050700  0.45896900  1
  C  C9  1  0.35695600  0.83050700  0.95896900  1
  C  C10  1  0.85695600  0.16949300  0.54103100  1
  C  C11  1  0.64304400  0.16949300  0.04103100  1
  C  C12  1  0.43501200  0.33176300  0.87123900  1
  C  C13  1  0.06498800  0.33176300  0.37123900  1
  C  C14  1  0.56498800  0.66823700  0.12876100  1
  C  C15  1  0.93501200  0.66823700  0.62876100  1
  C  C16  1  0.55312300  0.65806200  0.69523500  1
  C  C17  1  0.94687700  0.65806200  0.19523500  1
  C  C18  1  0.44687700  0.34193800  0.30476500  1
  C  C19  1  0.05312300  0.34193800  0.80476500  1
  C  C20  1  0.33882100  0.72472900  0.68980300  1
  C  C21  1  0.16117900  0.72472900  0.18980300  1
  C  C22  1  0.66117900  0.27527100  0.31019700  1
  C  C23  1  0.83882100  0.27527100  0.81019700  1
  Ni  Ni24  1  0.34523300  0.49062500  0.85006800  1
  Ni  Ni25  1  0.15476700  0.49062500  0.35006800  1
  Ni  Ni26  1  0.65476700  0.50937500  0.14993200  1
  Ni  Ni27  1  0.84523300  0.50937500  0.64993200  1
  Ni  Ni28  1  0.46076800  0.81601000  0.66876500  1
  Ni  Ni29  1  0.03923200  0.81601000  0.16876500  1
  Ni  Ni30  1  0.53923200  0.18399000  0.33123500  1
  Ni  Ni31  1  0.96076800  0.18399000  0.83123500  1
  Ni  Ni32  1  0.53918600  0.43468400  0.82505500  1
  Ni  Ni33  1  0.96081400  0.43468400  0.32505500  1
  Ni  Ni34  1  0.46081400  0.56531600  0.17494500  1
  Ni  Ni35  1  0.03918600  0.56531600  0.67494500  1
  Ni  Ni36  1  0.30861300  0.67281400  0.56125700  1
  Ni  Ni37  1  0.19138700  0.67281400  0.06125700  1
  Ni  Ni38  1  0.69138700  0.32718600  0.43874300  1
  Ni  Ni39  1  0.80861300  0.32718600  0.93874300  1
  Ni  Ni40  1  0.26527800  0.88871900  0.71272900  1
  Ni  Ni41  1  0.23472200  0.88871900  0.21272900  1
  Ni  Ni42  1  0.73472200  0.11128100  0.28727100  1
  Ni  Ni43  1  0.76527800  0.11128100  0.78727100  1
  Cu  Cu44  1  0.57080700  0.63523800  0.55762300  1
  Cu  Cu45  1  0.92919300  0.63523800  0.05762300  1
  Cu  Cu46  1  0.42919300  0.36476200  0.44237700  1
  Cu  Cu47  1  0.07080700  0.36476200  0.94237700  1
  Cu  Cu48  1  0.64723400  0.77241800  0.71075600  1
  Cu  Cu49  1  0.85276600  0.77241800  0.21075600  1
  Cu  Cu50  1  0.35276600  0.22758200  0.28924400  1
  Cu  Cu51  1  0.14723400  0.22758200  0.78924400  1
  Cu  Cu52  1  0.40854300  0.20219400  0.78813300  1
  Cu  Cu53  1  0.09145700  0.20219400  0.28813300  1
  Cu  Cu54  1  0.59145700  0.79780600  0.21186700  1
  Cu  Cu55  1  0.90854300  0.79780600  0.71186700  1
  Cu  Cu56  1  0.43561200  0.16102600  0.02963900  1
  Cu  Cu57  1  0.06438800  0.16102600  0.52963900  1
  Cu  Cu58  1  0.56438800  0.83897400  0.97036100  1
  Cu  Cu59  1  0.93561200  0.83897400  0.47036100  1
