# generated using pymatgen
data_Cu4NiC2
_symmetry_space_group_name_H-M   'P 1'
_cell_length_a   7.98651512
_cell_length_b   7.98651512
_cell_length_c   7.98651512
_cell_angle_alpha   60.00000000
_cell_angle_beta   60.00000000
_cell_angle_gamma   60.00000000
_symmetry_Int_Tables_number   1
_chemical_formula_structural   Cu4NiC2
_chemical_formula_sum   'Cu8 Ni2 C4'
_cell_volume   360.21098829
_cell_formula_units_Z   2
loop_
 _symmetry_equiv_pos_site_id
 _symmetry_equiv_pos_as_xyz
  1  'x, y, z'
loop_
 _atom_site_type_symbol
 _atom_site_label
 _atom_site_symmetry_multiplicity
 _atom_site_fract_x
 _atom_site_fract_y
 _atom_site_fract_z
 _atom_site_occupancy
  C  C0  1  0.12500000  0.62500000  0.12500000  1
  C  C1  1  0.62500000  0.12500000  0.12500000  1
  C  C2  1  0.12500000  0.12500000  0.12500000  1
  C  C3  1  0.12500000  0.12500000  0.62500000  1
  Ni  Ni4  1  0.50000000  0.50000000  0.50000000  1
  Ni  Ni5  1  0.75000000  0.75000000  0.75000000  1
  Cu  Cu6  1  0.37492400  0.87522700  0.37492400  1
  Cu  Cu7  1  0.87522700  0.37492400  0.37492400  1
  Cu  Cu8  1  0.37492400  0.37492400  0.37492400  1
  Cu  Cu9  1  0.37492400  0.37492400  0.87522700  1
  Cu  Cu10  1  0.87507600  0.37477300  0.87507600  1
  Cu  Cu11  1  0.37477300  0.87507600  0.87507600  1
  Cu  Cu12  1  0.87507600  0.87507600  0.87507600  1
  Cu  Cu13  1  0.87507600  0.87507600  0.37477300  1
