# generated using pymatgen
data_Cu6Ni3C25
_symmetry_space_group_name_H-M   'P 1'
_cell_length_a   12.56004332
_cell_length_b   12.56004332
_cell_length_c   12.56004319
_cell_angle_alpha   115.70571874
_cell_angle_beta   115.70571874
_cell_angle_gamma   115.70571855
_symmetry_Int_Tables_number   1
_chemical_formula_structural   Cu6Ni3C25
_chemical_formula_sum   'Cu12 Ni6 C50'
_cell_volume   1034.08847076
_cell_formula_units_Z   2
loop_
 _symmetry_equiv_pos_site_id
 _symmetry_equiv_pos_as_xyz
  1  'x, y, z'
loop_
 _atom_site_type_symbol
 _atom_site_label
 _atom_site_symmetry_multiplicity
 _atom_site_fract_x
 _atom_site_fract_y
 _atom_site_fract_z
 _atom_site_occupancy
  Ni  Ni0  1  0.15918600  0.58051200  0.92524500  1
  Ni  Ni1  1  0.58051200  0.92524500  0.15918600  1
  Ni  Ni2  1  0.92524500  0.15918600  0.58051200  1
  Ni  Ni3  1  0.84081400  0.41948800  0.07475500  1
  Ni  Ni4  1  0.41948800  0.07475500  0.84081400  1
  Ni  Ni5  1  0.07475500  0.84081400  0.41948800  1
  Cu  Cu6  1  0.88512500  0.93070400  0.26548800  1
  Cu  Cu7  1  0.93070400  0.26548800  0.88512500  1
  Cu  Cu8  1  0.26548800  0.88512500  0.93070400  1
  Cu  Cu9  1  0.11487500  0.06929600  0.73451200  1
  Cu  Cu10  1  0.06929600  0.73451200  0.11487500  1
  Cu  Cu11  1  0.73451200  0.11487500  0.06929600  1
  Cu  Cu12  1  0.49619900  0.24001800  0.70227800  1
  Cu  Cu13  1  0.24001800  0.70227800  0.49619900  1
  Cu  Cu14  1  0.70227800  0.49619900  0.24001800  1
  Cu  Cu15  1  0.50380100  0.75998200  0.29772200  1
  Cu  Cu16  1  0.75998200  0.29772200  0.50380100  1
  Cu  Cu17  1  0.29772200  0.50380100  0.75998200  1
  C  C18  1  0.92450300  0.24228600  0.19288100  1
  C  C19  1  0.24228600  0.19288100  0.92450300  1
  C  C20  1  0.19288100  0.92450300  0.24228600  1
  C  C21  1  0.07549700  0.75771400  0.80711900  1
  C  C22  1  0.75771400  0.80711900  0.07549700  1
  C  C23  1  0.80711900  0.07549700  0.75771400  1
  C  C24  1  0.57428400  0.40726400  0.77557100  1
  C  C25  1  0.40726400  0.77557100  0.57428400  1
  C  C26  1  0.77557100  0.57428400  0.40726400  1
  C  C27  1  0.42571600  0.59273600  0.22442900  1
  C  C28  1  0.59273600  0.22442900  0.42571600  1
  C  C29  1  0.22442900  0.42571600  0.59273600  1
  C  C30  1  0.81901900  0.99646100  0.31762200  1
  C  C31  1  0.99646100  0.31762200  0.81901900  1
  C  C32  1  0.31762200  0.81901900  0.99646100  1
  C  C33  1  0.18098100  0.00353900  0.68237800  1
  C  C34  1  0.00353900  0.68237800  0.18098100  1
  C  C35  1  0.68237800  0.18098100  0.00353900  1
  C  C36  1  0.89437300  0.83320500  0.30400400  1
  C  C37  1  0.83320500  0.30400400  0.89437300  1
  C  C38  1  0.30400400  0.89437300  0.83320500  1
  C  C39  1  0.10562700  0.16679500  0.69599600  1
  C  C40  1  0.16679500  0.69599600  0.10562700  1
  C  C41  1  0.69599600  0.10562700  0.16679500  1
  C  C42  1  0.07757200  0.10162900  0.37494100  1
  C  C43  1  0.10162900  0.37494100  0.07757200  1
  C  C44  1  0.37494100  0.07757200  0.10162900  1
  C  C45  1  0.92242800  0.89837100  0.62505900  1
  C  C46  1  0.89837100  0.62505900  0.92242800  1
  C  C47  1  0.62505900  0.92242800  0.89837100  1
  C  C48  1  0.56998300  0.27027900  0.85992200  1
  C  C49  1  0.27027900  0.85992200  0.56998300  1
  C  C50  1  0.85992200  0.56998300  0.27027900  1
  C  C51  1  0.43001700  0.72972100  0.14007800  1
  C  C52  1  0.72972100  0.14007800  0.43001700  1
  C  C53  1  0.14007800  0.43001700  0.72972100  1
  C  C54  1  0.28416100  0.08737300  0.53788800  1
  C  C55  1  0.08737300  0.53788800  0.28416100  1
  C  C56  1  0.53788800  0.28416100  0.08737300  1
  C  C57  1  0.71583900  0.91262700  0.46211200  1
  C  C58  1  0.91262700  0.46211200  0.71583900  1
  C  C59  1  0.46211200  0.71583900  0.91262700  1
  C  C60  1  0.52883000  0.16679900  0.60135500  1
  C  C61  1  0.16679900  0.60135500  0.52883000  1
  C  C62  1  0.60135500  0.52883000  0.16679900  1
  C  C63  1  0.47117000  0.83320100  0.39864500  1
  C  C64  1  0.83320100  0.39864500  0.47117000  1
  C  C65  1  0.39864500  0.47117000  0.83320100  1
  C  C66  1  0.29235800  0.29235800  0.29235800  1
  C  C67  1  0.70764200  0.70764200  0.70764200  1
