# generated using pymatgen
data_Cu2NiC7
_symmetry_space_group_name_H-M   'P 1'
_cell_length_a   5.80317023
_cell_length_b   5.72826623
_cell_length_c   10.03705343
_cell_angle_alpha   93.92233721
_cell_angle_beta   74.71451017
_cell_angle_gamma   61.80877901
_symmetry_Int_Tables_number   1
_chemical_formula_structural   Cu2NiC7
_chemical_formula_sum   'Cu4 Ni2 C14'
_cell_volume   276.26886205
_cell_formula_units_Z   2
loop_
 _symmetry_equiv_pos_site_id
 _symmetry_equiv_pos_as_xyz
  1  'x, y, z'
loop_
 _atom_site_type_symbol
 _atom_site_label
 _atom_site_symmetry_multiplicity
 _atom_site_fract_x
 _atom_site_fract_y
 _atom_site_fract_z
 _atom_site_occupancy
  Ni  Ni0  1  0.49350800  0.74871000  0.24979800  1
  Ni  Ni1  1  0.50649100  0.25129000  0.75018900  1
  Cu  Cu2  1  0.76010800  0.14300700  0.38047100  1
  Cu  Cu3  1  0.77485100  0.63781700  0.87979100  1
  Cu  Cu4  1  0.22517400  0.36222000  0.12018500  1
  Cu  Cu5  1  0.23988000  0.85698100  0.61952400  1
  C  C6  1  0.99964000  0.50008700  0.50015100  1
  C  C7  1  0.00034300  0.99999500  0.99993800  1
  C  C8  1  0.32355300  0.86006000  0.06520100  1
  C  C9  1  0.34494900  0.35712000  0.56622600  1
  C  C10  1  0.79384000  0.29117500  0.16084600  1
  C  C11  1  0.80367900  0.79502500  0.65951400  1
  C  C12  1  0.12806800  0.71142100  0.38722000  1
  C  C13  1  0.14033800  0.22908100  0.88887100  1
  C  C14  1  0.65503300  0.64283300  0.43378500  1
  C  C15  1  0.67650600  0.13996600  0.93478800  1
  C  C16  1  0.85970200  0.77083400  0.11106400  1
  C  C17  1  0.87187500  0.28854300  0.61279900  1
  C  C18  1  0.19626300  0.20497800  0.34048000  1
  C  C19  1  0.20620100  0.70885900  0.83915900  1
