# generated using pymatgen
data_Cu3NiC14
_symmetry_space_group_name_H-M   'P 1'
_cell_length_a   8.98097891
_cell_length_b   8.98097920
_cell_length_c   8.98097933
_cell_angle_alpha   58.52300131
_cell_angle_beta   58.52300436
_cell_angle_gamma   58.52301278
_symmetry_Int_Tables_number   1
_chemical_formula_structural   Cu3NiC14
_chemical_formula_sum   'Cu6 Ni2 C28'
_cell_volume   494.91507127
_cell_formula_units_Z   2
loop_
 _symmetry_equiv_pos_site_id
 _symmetry_equiv_pos_as_xyz
  1  'x, y, z'
loop_
 _atom_site_type_symbol
 _atom_site_label
 _atom_site_symmetry_multiplicity
 _atom_site_fract_x
 _atom_site_fract_y
 _atom_site_fract_z
 _atom_site_occupancy
  C  C0  1  0.00338300  0.00338300  0.00338300  1
  C  C1  1  0.50338300  0.50338300  0.50338300  1
  C  C2  1  0.14598300  0.14598300  0.14598300  1
  C  C3  1  0.64598300  0.64598300  0.64598300  1
  Ni  Ni4  1  0.35267000  0.35267000  0.35267000  1
  Ni  Ni5  1  0.85267000  0.85267000  0.85267000  1
  Cu  Cu6  1  0.04060300  0.45639300  0.74960300  1
  Cu  Cu7  1  0.45639300  0.74960300  0.04060300  1
  Cu  Cu8  1  0.74960300  0.04060300  0.45639300  1
  Cu  Cu9  1  0.24960300  0.95639300  0.54060300  1
  Cu  Cu10  1  0.54060300  0.24960300  0.95639300  1
  Cu  Cu11  1  0.95639300  0.54060300  0.24960300  1
  C  C12  1  0.11518000  0.51746900  0.29185800  1
  C  C13  1  0.29185800  0.11518000  0.51746900  1
  C  C14  1  0.06046900  0.27243500  0.91708200  1
  C  C15  1  0.51746900  0.29185800  0.11518000  1
  C  C16  1  0.01746900  0.61518000  0.79185800  1
  C  C17  1  0.23012900  0.43624800  0.58305800  1
  C  C18  1  0.27243500  0.91708200  0.06046900  1
  C  C19  1  0.43624800  0.58305800  0.23012900  1
  C  C20  1  0.20164400  0.99440300  0.38138700  1
  C  C21  1  0.58305800  0.23012900  0.43624800  1
  C  C22  1  0.08305800  0.93624800  0.73012900  1
  C  C23  1  0.38138700  0.20164400  0.99440300  1
  C  C24  1  0.61518000  0.79185800  0.01746900  1
  C  C25  1  0.91708200  0.06046900  0.27243500  1
  C  C26  1  0.41708200  0.77243500  0.56046900  1
  C  C27  1  0.79185800  0.01746900  0.61518000  1
  C  C28  1  0.56046900  0.41708200  0.77243500  1
  C  C29  1  0.73012900  0.08305800  0.93624800  1
  C  C30  1  0.77243500  0.56046900  0.41708200  1
  C  C31  1  0.99440300  0.38138700  0.20164400  1
  C  C32  1  0.49440300  0.70164400  0.88138700  1
  C  C33  1  0.93624800  0.73012900  0.08305800  1
  C  C34  1  0.70164400  0.88138700  0.49440300  1
  C  C35  1  0.88138700  0.49440300  0.70164400  1
