# generated using pymatgen
data_Cu2Ni2C3
_symmetry_space_group_name_H-M   'P 1'
_cell_length_a   7.18101680
_cell_length_b   7.18101680
_cell_length_c   9.95978522
_cell_angle_alpha   67.72819495
_cell_angle_beta   67.72819495
_cell_angle_gamma   66.82184058
_symmetry_Int_Tables_number   1
_chemical_formula_structural   Cu2Ni2C3
_chemical_formula_sum   'Cu4 Ni4 C6'
_cell_volume   420.67099852
_cell_formula_units_Z   2
loop_
 _symmetry_equiv_pos_site_id
 _symmetry_equiv_pos_as_xyz
  1  'x, y, z'
loop_
 _atom_site_type_symbol
 _atom_site_label
 _atom_site_symmetry_multiplicity
 _atom_site_fract_x
 _atom_site_fract_y
 _atom_site_fract_z
 _atom_site_occupancy
  C  C0  1  0.41883000  0.58117000  0.75000000  1
  C  C1  1  0.58117000  0.41883000  0.25000000  1
  Ni  Ni2  1  0.24980200  0.77017500  0.56253300  1
  Ni  Ni3  1  0.22982500  0.75019800  0.93746700  1
  Ni  Ni4  1  0.75019800  0.22982500  0.43746700  1
  Ni  Ni5  1  0.77017500  0.24980200  0.06253300  1
  Cu  Cu6  1  0.13195500  0.26695800  0.66286100  1
  Cu  Cu7  1  0.73304200  0.86804500  0.83713900  1
  Cu  Cu8  1  0.86804500  0.73304200  0.33713900  1
  Cu  Cu9  1  0.26695800  0.13195500  0.16286100  1
  C  C10  1  0.68063400  0.59200800  0.68354800  1
  C  C11  1  0.40799200  0.31936600  0.81645200  1
  C  C12  1  0.31936600  0.40799200  0.31645200  1
  C  C13  1  0.59200800  0.68063400  0.18354800  1
