# generated using pymatgen
data_CuNiC8
_symmetry_space_group_name_H-M   'P 1'
_cell_length_a   5.22773794
_cell_length_b   5.76287439
_cell_length_c   5.22773794
_cell_angle_alpha   116.97298591
_cell_angle_beta   90.00000000
_cell_angle_gamma   116.97298580
_symmetry_Int_Tables_number   1
_chemical_formula_structural   CuNiC8
_chemical_formula_sum   'Cu1 Ni1 C8'
_cell_volume   120.82524044
_cell_formula_units_Z   1
loop_
 _symmetry_equiv_pos_site_id
 _symmetry_equiv_pos_as_xyz
  1  'x, y, z'
loop_
 _atom_site_type_symbol
 _atom_site_label
 _atom_site_symmetry_multiplicity
 _atom_site_fract_x
 _atom_site_fract_y
 _atom_site_fract_z
 _atom_site_occupancy
  C  C0  1  0.25000000  0.50000000  0.75000000  1
  C  C1  1  -0.00000000  0.00000000  -0.00000000  1
  Ni  Ni2  1  0.75000000  0.50000000  0.25000000  1
  Cu  Cu3  1  0.50000000  0.00000000  0.50000000  1
  C  C4  1  0.24356608  0.48713216  0.24356608  1
  C  C5  1  0.75643392  0.51286784  0.75643392  1
  C  C6  1  0.08186136  -0.03128268  0.34272721  1
  C  C7  1  0.88685596  -0.03128268  0.62599010  1
  C  C8  1  0.37400990  0.03128268  0.91813864  1
  C  C9  1  0.65727279  0.03128268  0.11314404  1
