# generated using pymatgen
data_Cu6Ni3C2
_symmetry_space_group_name_H-M   'P 1'
_cell_length_a   7.79291360
_cell_length_b   7.79291360
_cell_length_c   5.35770484
_cell_angle_alpha   83.39676920
_cell_angle_beta   83.39676920
_cell_angle_gamma   29.94088505
_symmetry_Int_Tables_number   1
_chemical_formula_structural   Cu6Ni3C2
_chemical_formula_sum   'Cu6 Ni3 C2'
_cell_volume   161.23998010
_cell_formula_units_Z   1
loop_
 _symmetry_equiv_pos_site_id
 _symmetry_equiv_pos_as_xyz
  1  'x, y, z'
loop_
 _atom_site_type_symbol
 _atom_site_label
 _atom_site_symmetry_multiplicity
 _atom_site_fract_x
 _atom_site_fract_y
 _atom_site_fract_z
 _atom_site_occupancy
  C  C0  1  0.86520600  0.86520600  0.57241600  1
  C  C1  1  0.13479400  0.13479400  0.42758400  1
  Ni  Ni2  1  0.32746300  0.32746300  0.09373100  1
  Ni  Ni3  1  0.67253700  0.67253700  0.90626900  1
  Ni  Ni4  1  0.00000000  0.00000000  0.00000000  1
  Cu  Cu5  1  0.68929700  0.68929700  0.67218900  1
  Cu  Cu6  1  0.31070300  0.31070300  0.32781100  1
  Cu  Cu7  1  0.65816900  0.65816900  0.13569700  1
  Cu  Cu8  1  0.34183100  0.34183100  0.86430300  1
  Cu  Cu9  1  0.98890500  0.98890500  0.23214300  1
  Cu  Cu10  1  0.01109500  0.01109500  0.76785700  1
