# generated using pymatgen
data_Cu4Ni2C15
_symmetry_space_group_name_H-M   'P 1'
_cell_length_a   7.29319200
_cell_length_b   7.30063500
_cell_length_c   19.45671600
_cell_angle_alpha   90.00000000
_cell_angle_beta   90.00000000
_cell_angle_gamma   90.00000000
_symmetry_Int_Tables_number   1
_chemical_formula_structural   Cu4Ni2C15
_chemical_formula_sum   'Cu16 Ni8 C60'
_cell_volume   1035.97153548
_cell_formula_units_Z   4
loop_
 _symmetry_equiv_pos_site_id
 _symmetry_equiv_pos_as_xyz
  1  'x, y, z'
loop_
 _atom_site_type_symbol
 _atom_site_label
 _atom_site_symmetry_multiplicity
 _atom_site_fract_x
 _atom_site_fract_y
 _atom_site_fract_z
 _atom_site_occupancy
  C  C0  1  0.00000000  0.50000000  0.50000000  1
  C  C1  1  0.50000000  0.00000000  0.50000000  1
  C  C2  1  0.50000000  0.50000000  0.00000000  1
  C  C3  1  0.00000000  0.00000000  0.00000000  1
  C  C4  1  0.57545200  0.56843500  0.41763700  1
  C  C5  1  0.92454800  0.93156500  0.41763700  1
  C  C6  1  0.07545200  0.43156500  0.08236300  1
  C  C7  1  0.42454800  0.06843500  0.08236300  1
  C  C8  1  0.42454800  0.43156500  0.58236300  1
  C  C9  1  0.07545200  0.06843500  0.58236300  1
  C  C10  1  0.92454800  0.56843500  0.91763700  1
  C  C11  1  0.57545200  0.93156500  0.91763700  1
  C  C12  1  0.35489600  0.51674200  0.40087500  1
  C  C13  1  0.14510400  0.98325800  0.40087500  1
  C  C14  1  0.85489600  0.48325800  0.09912500  1
  C  C15  1  0.64510400  0.01674200  0.09912500  1
  C  C16  1  0.64510400  0.48325800  0.59912500  1
  C  C17  1  0.85489600  0.01674200  0.59912500  1
  C  C18  1  0.14510400  0.51674200  0.90087500  1
  C  C19  1  0.35489600  0.98325800  0.90087500  1
  C  C20  1  0.51232800  0.35120300  0.39902500  1
  C  C21  1  0.98767200  0.14879700  0.39902500  1
  C  C22  1  0.01232800  0.64879700  0.10097500  1
  C  C23  1  0.48767200  0.85120300  0.10097500  1
  C  C24  1  0.48767200  0.64879700  0.60097500  1
  C  C25  1  0.01232800  0.85120300  0.60097500  1
  C  C26  1  0.98767200  0.35120300  0.89902500  1
  C  C27  1  0.51232800  0.14879700  0.89902500  1
  C  C28  1  0.42772500  0.43743800  0.28312700  1
  C  C29  1  0.07227500  0.06256200  0.28312700  1
  C  C30  1  0.92772500  0.56256200  0.21687300  1
  C  C31  1  0.57227500  0.93743800  0.21687300  1
  C  C32  1  0.57227500  0.56256200  0.71687300  1
  C  C33  1  0.92772500  0.93743800  0.71687300  1
  C  C34  1  0.07227500  0.43743800  0.78312700  1
  C  C35  1  0.42772500  0.06256200  0.78312700  1
  C  C36  1  0.49394300  0.66798200  0.30291800  1
  C  C37  1  0.00605700  0.83201800  0.30291800  1
  C  C38  1  0.99394300  0.33201800  0.19708200  1
  C  C39  1  0.50605700  0.16798200  0.19708200  1
  C  C40  1  0.50605700  0.33201800  0.69708200  1
  C  C41  1  0.99394300  0.16798200  0.69708200  1
  C  C42  1  0.00605700  0.66798200  0.80291800  1
  C  C43  1  0.49394300  0.83201800  0.80291800  1
  C  C44  1  0.66327300  0.49023100  0.30104700  1
  C  C45  1  0.83672700  0.00976900  0.30104700  1
  C  C46  1  0.16327300  0.50976900  0.19895300  1
  C  C47  1  0.33672700  0.99023100  0.19895300  1
  C  C48  1  0.33672700  0.50976900  0.69895300  1
  C  C49  1  0.16327300  0.99023100  0.69895300  1
  C  C50  1  0.83672700  0.49023100  0.80104700  1
  C  C51  1  0.66327300  0.00976900  0.80104700  1
  C  C52  1  0.52050200  0.52347700  0.31320400  1
  C  C53  1  0.97949800  0.97652300  0.31320400  1
  C  C54  1  0.02050200  0.47652300  0.18679600  1
  C  C55  1  0.47949800  0.02347700  0.18679600  1
  C  C56  1  0.47949800  0.47652300  0.68679600  1
  C  C57  1  0.02050200  0.02347700  0.68679600  1
  C  C58  1  0.97949800  0.52347700  0.81320400  1
  C  C59  1  0.52050200  0.97652300  0.81320400  1
  Ni  Ni60  1  0.48919700  0.48809000  0.38726800  1
  Ni  Ni61  1  0.01080300  0.01191000  0.38726800  1
  Ni  Ni62  1  0.98919700  0.51191000  0.11273200  1
  Ni  Ni63  1  0.51080300  0.98809000  0.11273200  1
  Ni  Ni64  1  0.51080300  0.51191000  0.61273200  1
  Ni  Ni65  1  0.98919700  0.98809000  0.61273200  1
  Ni  Ni66  1  0.01080300  0.48809000  0.88726800  1
  Ni  Ni67  1  0.48919700  0.01191000  0.88726800  1
  Cu  Cu68  1  0.97093200  0.53375600  0.62186900  1
  Cu  Cu69  1  0.52906800  0.96624400  0.62186900  1
  Cu  Cu70  1  0.47093200  0.46624400  0.87813100  1
  Cu  Cu71  1  0.02906800  0.03375600  0.87813100  1
  Cu  Cu72  1  0.02906800  0.46624400  0.37813100  1
  Cu  Cu73  1  0.47093200  0.03375600  0.37813100  1
  Cu  Cu74  1  0.52906800  0.53375600  0.12186900  1
  Cu  Cu75  1  0.97093200  0.96624400  0.12186900  1
  Cu  Cu76  1  0.25000000  0.75000000  0.49839300  1
  Cu  Cu77  1  0.75000000  0.25000000  0.00160700  1
  Cu  Cu78  1  0.75000000  0.25000000  0.50160700  1
  Cu  Cu79  1  0.25000000  0.75000000  0.99839300  1
  Cu  Cu80  1  0.25000000  0.25000000  0.52073200  1
  Cu  Cu81  1  0.75000000  0.75000000  0.97926800  1
  Cu  Cu82  1  0.75000000  0.75000000  0.47926800  1
  Cu  Cu83  1  0.25000000  0.25000000  0.02073200  1
