# generated using pymatgen
data_CuNiC17
_symmetry_space_group_name_H-M   'P 1'
_cell_length_a   3.95527674
_cell_length_b   3.95527674
_cell_length_c   16.59223941
_cell_angle_alpha   83.15495428
_cell_angle_beta   83.15495428
_cell_angle_gamma   90.00286806
_symmetry_Int_Tables_number   1
_chemical_formula_structural   CuNiC17
_chemical_formula_sum   'Cu1 Ni1 C17'
_cell_volume   255.85857048
_cell_formula_units_Z   1
loop_
 _symmetry_equiv_pos_site_id
 _symmetry_equiv_pos_as_xyz
  1  'x, y, z'
loop_
 _atom_site_type_symbol
 _atom_site_label
 _atom_site_symmetry_multiplicity
 _atom_site_fract_x
 _atom_site_fract_y
 _atom_site_fract_z
 _atom_site_occupancy
  Ni  Ni0  1  0.93107700  0.93107700  0.13784500  1
  Cu  Cu1  1  0.06360900  0.06360900  0.87278100  1
  C  C2  1  0.62750500  0.62750500  0.74499000  1
  C  C3  1  0.37079800  0.37079800  0.25840300  1
  C  C4  1  0.49815500  0.49815500  0.00369000  1
  C  C5  1  0.78783900  0.78783900  0.42432100  1
  C  C6  1  0.21381500  0.21381500  0.57237000  1
  C  C7  1  0.37738700  0.87738700  0.24522600  1
  C  C8  1  0.12016800  0.62016800  0.75966400  1
  C  C9  1  0.62016800  0.12016800  0.75966400  1
  C  C10  1  0.87738700  0.37738700  0.24522600  1
  C  C11  1  0.68549600  0.68549600  0.62900700  1
  C  C12  1  0.31299600  0.31299600  0.37400900  1
  C  C13  1  0.56258200  0.56258200  0.87483700  1
  C  C14  1  0.44013200  0.44013200  0.11973600  1
  C  C15  1  0.25063900  0.75063900  0.49872200  1
  C  C16  1  0.75063900  0.25063900  0.49872200  1
  C  C17  1  0.50480400  0.00480400  0.99039300  1
  C  C18  1  0.00480400  0.50480400  0.99039300  1
