# generated using pymatgen
data_CuNi13C6
_symmetry_space_group_name_H-M   'P 1'
_cell_length_a   12.87743881
_cell_length_b   12.87743881
_cell_length_c   12.87743881
_cell_angle_alpha   143.46654540
_cell_angle_beta   143.46654540
_cell_angle_gamma   52.62574489
_symmetry_Int_Tables_number   1
_chemical_formula_structural   CuNi13C6
_chemical_formula_sum   'Cu2 Ni26 C12'
_cell_volume   752.23878127
_cell_formula_units_Z   2
loop_
 _symmetry_equiv_pos_site_id
 _symmetry_equiv_pos_as_xyz
  1  'x, y, z'
loop_
 _atom_site_type_symbol
 _atom_site_label
 _atom_site_symmetry_multiplicity
 _atom_site_fract_x
 _atom_site_fract_y
 _atom_site_fract_z
 _atom_site_occupancy
  C  C0  1  0.47616200  0.97616200  0.82390200  1
  C  C1  1  0.15226000  0.65226000  0.17609800  1
  C  C2  1  0.97616200  0.15226000  0.50000000  1
  C  C3  1  0.65226000  0.47616200  0.50000000  1
  C  C4  1  0.52383800  0.02383800  0.17609800  1
  C  C5  1  0.84774000  0.34774000  0.82390200  1
  C  C6  1  0.02383800  0.84774000  0.50000000  1
  C  C7  1  0.34774000  0.52383800  0.50000000  1
  C  C8  1  0.60565700  0.60565700  0.00000000  1
  C  C9  1  0.10565700  0.10565700  0.00000000  1
  C  C10  1  0.39434300  0.39434300  0.00000000  1
  C  C11  1  0.89434300  0.89434300  0.00000000  1
  Ni  Ni12  1  0.61915700  0.11915700  0.85720400  1
  Ni  Ni13  1  0.26195300  0.76195300  0.14279600  1
  Ni  Ni14  1  0.11915700  0.26195300  0.50000000  1
  Ni  Ni15  1  0.76195300  0.61915700  0.50000000  1
  Ni  Ni16  1  0.38084300  0.88084300  0.14279600  1
  Ni  Ni17  1  0.73804700  0.23804700  0.85720400  1
  Ni  Ni18  1  0.88084300  0.73804700  0.50000000  1
  Ni  Ni19  1  0.23804700  0.38084300  0.50000000  1
  Ni  Ni20  1  0.56668200  0.71041300  0.27709400  1
  Ni  Ni21  1  0.43331800  0.28958700  0.72290600  1
  Ni  Ni22  1  0.06668200  0.78958700  0.85626900  1
  Ni  Ni23  1  0.93331800  0.21041300  0.14373100  1
  Ni  Ni24  1  0.28958700  0.56668200  0.85626900  1
  Ni  Ni25  1  0.71041300  0.43331800  0.14373100  1
  Ni  Ni26  1  0.21041300  0.06668200  0.27709400  1
  Ni  Ni27  1  0.78958700  0.93331800  0.72290600  1
  Ni  Ni28  1  0.79051000  0.29051000  0.27242200  1
  Ni  Ni29  1  0.01808800  0.51808800  0.72757800  1
  Ni  Ni30  1  0.29051000  0.01808800  0.50000000  1
  Ni  Ni31  1  0.51808800  0.79051000  0.50000000  1
  Ni  Ni32  1  0.20949000  0.70949000  0.72757800  1
  Ni  Ni33  1  0.98191200  0.48191200  0.27242200  1
  Ni  Ni34  1  0.70949000  0.98191200  0.50000000  1
  Ni  Ni35  1  0.48191200  0.20949000  0.50000000  1
  Ni  Ni36  1  0.50000000  0.00000000  0.50000000  1
  Ni  Ni37  1  0.00000000  0.50000000  0.50000000  1
  Cu  Cu38  1  0.25000000  0.25000000  0.00000000  1
  Cu  Cu39  1  0.75000000  0.75000000  0.00000000  1
