# generated using pymatgen
data_CuNi3C16
_symmetry_space_group_name_H-M   'P 1'
_cell_length_a   7.79351000
_cell_length_b   7.79937400
_cell_length_c   7.88957800
_cell_angle_alpha   90.00000000
_cell_angle_beta   90.00000000
_cell_angle_gamma   90.00000000
_symmetry_Int_Tables_number   1
_chemical_formula_structural   CuNi3C16
_chemical_formula_sum   'Cu2 Ni6 C32'
_cell_volume   479.56404812
_cell_formula_units_Z   2
loop_
 _symmetry_equiv_pos_site_id
 _symmetry_equiv_pos_as_xyz
  1  'x, y, z'
loop_
 _atom_site_type_symbol
 _atom_site_label
 _atom_site_symmetry_multiplicity
 _atom_site_fract_x
 _atom_site_fract_y
 _atom_site_fract_z
 _atom_site_occupancy
  Ni  Ni0  1  0.24676100  0.24649400  0.25000000  1
  Ni  Ni1  1  0.24675500  0.24665100  0.75000000  1
  Ni  Ni2  1  0.24649500  0.75343700  0.75000000  1
  Ni  Ni3  1  0.75324500  0.24665100  0.25000000  1
  Ni  Ni4  1  0.75323900  0.24649400  0.75000000  1
  Ni  Ni5  1  0.75350500  0.75343700  0.25000000  1
  Cu  Cu6  1  0.24654300  0.75358600  0.25000000  1
  Cu  Cu7  1  0.75345700  0.75358600  0.75000000  1
  C  C8  1  0.00000000  0.50210900  0.00000000  1
  C  C9  1  0.00000000  0.50210900  0.50000000  1
  C  C10  1  0.50000000  0.99858000  0.00000000  1
  C  C11  1  0.50000000  0.99858000  0.50000000  1
  C  C12  1  0.50000000  0.50141300  0.00000000  1
  C  C13  1  0.50000000  0.50141300  0.50000000  1
  C  C14  1  0.00000000  0.99909400  0.00000000  1
  C  C15  1  0.00000000  0.99909400  0.50000000  1
  C  C16  1  0.24775600  0.99719900  0.00201600  1
  C  C17  1  0.24775600  0.99719900  0.49798400  1
  C  C18  1  0.24949700  0.50250500  0.00160500  1
  C  C19  1  0.24949700  0.50250500  0.49839500  1
  C  C20  1  0.75224400  0.99719900  0.99798400  1
  C  C21  1  0.75224400  0.99719900  0.50201600  1
  C  C22  1  0.75050300  0.50250500  0.99839500  1
  C  C23  1  0.75050300  0.50250500  0.50160500  1
  C  C24  1  0.00000000  0.24784100  0.00000000  1
  C  C25  1  0.00000000  0.24784100  0.50000000  1
  C  C26  1  0.00000000  0.75234300  0.00000000  1
  C  C27  1  0.00000000  0.75234300  0.50000000  1
  C  C28  1  0.50000000  0.24937600  0.00000000  1
  C  C29  1  0.50000000  0.24937600  0.50000000  1
  C  C30  1  0.50000000  0.75049900  0.00000000  1
  C  C31  1  0.50000000  0.75049900  0.50000000  1
  C  C32  1  0.00285100  0.99659500  0.25000000  1
  C  C33  1  0.99714900  0.99659500  0.75000000  1
  C  C34  1  0.00171900  0.50256800  0.25000000  1
  C  C35  1  0.99828100  0.50256800  0.75000000  1
  C  C36  1  0.49835200  0.99734100  0.25000000  1
  C  C37  1  0.50164800  0.99734100  0.75000000  1
  C  C38  1  0.49827600  0.50266700  0.25000000  1
  C  C39  1  0.50172400  0.50266700  0.75000000  1
