# generated using pymatgen
data_Cu2NiC11
_symmetry_space_group_name_H-M   'P 1'
_cell_length_a   5.48468291
_cell_length_b   5.48468291
_cell_length_c   6.89719900
_cell_angle_alpha   90.00000000
_cell_angle_beta   90.00000000
_cell_angle_gamma   120.00001103
_symmetry_Int_Tables_number   1
_chemical_formula_structural   Cu2NiC11
_chemical_formula_sum   'Cu2 Ni1 C11'
_cell_volume   179.68275161
_cell_formula_units_Z   1
loop_
 _symmetry_equiv_pos_site_id
 _symmetry_equiv_pos_as_xyz
  1  'x, y, z'
loop_
 _atom_site_type_symbol
 _atom_site_label
 _atom_site_symmetry_multiplicity
 _atom_site_fract_x
 _atom_site_fract_y
 _atom_site_fract_z
 _atom_site_occupancy
  C  C0  1  0.00000000  0.00000000  0.50000000  1
  C  C1  1  0.33333300  0.66666700  0.83833000  1
  C  C2  1  0.66666700  0.33333300  0.16167000  1
  Ni  Ni3  1  0.00000000  0.00000000  0.00000000  1
  Cu  Cu4  1  0.33333300  0.66666700  0.27227200  1
  Cu  Cu5  1  0.66666700  0.33333300  0.72772800  1
  C  C6  1  0.33333300  0.66666700  0.50753300  1
  C  C7  1  0.66666700  0.33333300  0.49246700  1
  C  C8  1  0.64599400  0.88305400  0.17585500  1
  C  C9  1  0.11694600  0.76294000  0.17585500  1
  C  C10  1  0.23706000  0.35400600  0.17585500  1
  C  C11  1  0.35400600  0.11694600  0.82414500  1
  C  C12  1  0.88305400  0.23706000  0.82414500  1
  C  C13  1  0.76294000  0.64599400  0.82414500  1
