# generated using pymatgen
data_Cu5Ni2C25
_symmetry_space_group_name_H-M   'P 1'
_cell_length_a   3.01843500
_cell_length_b   8.05459141
_cell_length_c   12.01729084
_cell_angle_alpha   90.64852652
_cell_angle_beta   95.08547426
_cell_angle_gamma   90.90709992
_symmetry_Int_Tables_number   1
_chemical_formula_structural   Cu5Ni2C25
_chemical_formula_sum   'Cu5 Ni2 C25'
_cell_volume   290.95719857
_cell_formula_units_Z   1
loop_
 _symmetry_equiv_pos_site_id
 _symmetry_equiv_pos_as_xyz
  1  'x, y, z'
loop_
 _atom_site_type_symbol
 _atom_site_label
 _atom_site_symmetry_multiplicity
 _atom_site_fract_x
 _atom_site_fract_y
 _atom_site_fract_z
 _atom_site_occupancy
  C  C0  1  0.00083800  0.99597700  0.25411500  1
  C  C1  1  0.50394100  0.75163000  0.62387200  1
  C  C2  1  0.99936900  0.49831100  0.00136600  1
  C  C3  1  0.50015100  0.25033200  0.37567000  1
  C  C4  1  0.00106900  0.00226100  0.74784000  1
  C  C5  1  0.49588100  0.74634200  0.12665700  1
  C  C6  1  0.99889900  0.50350400  0.49678000  1
  C  C7  1  0.49968800  0.25191400  0.87350400  1
  C  C8  1  0.50032100  0.75008500  0.37528100  1
  Ni  Ni9  1  0.00066300  0.00271100  0.00247100  1
  Ni  Ni10  1  0.49942600  0.74735500  0.87297800  1
  Cu  Cu11  1  0.99761000  0.49724800  0.74801600  1
  Cu  Cu12  1  0.49933100  0.25397000  0.12741000  1
  Cu  Cu13  1  0.00452600  0.99154100  0.49415500  1
  Cu  Cu14  1  0.99691100  0.50904800  0.25578900  1
  Cu  Cu15  1  0.50059700  0.24751500  0.62360500  1
  C  C16  1  0.47839900  0.01357100  0.12477200  1
  C  C17  1  0.99739900  0.77540300  0.50321700  1
  C  C18  1  0.47450200  0.50505200  0.86739700  1
  C  C19  1  0.97834300  0.27158500  0.24278100  1
  C  C20  1  0.47358500  0.01315800  0.61735300  1
  C  C21  1  0.97300200  0.75853300  0.99628200  1
  C  C22  1  0.47976100  0.49816300  0.36559900  1
  C  C23  1  0.97315400  0.26147300  0.74201600  1
  C  C24  1  0.52190200  0.00228400  0.38478600  1
  C  C25  1  0.02221000  0.73661000  0.75199100  1
  C  C26  1  0.52328400  0.48830000  0.13382200  1
  C  C27  1  0.02399700  0.22896300  0.50727000  1
  C  C28  1  0.52672700  0.99211500  0.87837500  1
  C  C29  1  0.00452900  0.72504700  0.24724800  1
  C  C30  1  0.52452200  0.48552000  0.62959300  1
  C  C31  1  0.02546500  0.24447800  0.00798500  1
