# generated using pymatgen
data_CuNiC8
_symmetry_space_group_name_H-M   'P 1'
_cell_length_a   8.51480852
_cell_length_b   8.50428893
_cell_length_c   8.44229337
_cell_angle_alpha   90.00000000
_cell_angle_beta   90.00000000
_cell_angle_gamma   90.00000000
_symmetry_Int_Tables_number   1
_chemical_formula_structural   CuNiC8
_chemical_formula_sum   'Cu4 Ni4 C32'
_cell_volume   611.32665552
_cell_formula_units_Z   4
loop_
 _symmetry_equiv_pos_site_id
 _symmetry_equiv_pos_as_xyz
  1  'x, y, z'
loop_
 _atom_site_type_symbol
 _atom_site_label
 _atom_site_symmetry_multiplicity
 _atom_site_fract_x
 _atom_site_fract_y
 _atom_site_fract_z
 _atom_site_occupancy
  Ni  Ni0  1  0.00000000  -0.00000000  0.00000000  1
  Ni  Ni1  1  0.50000000  0.50000000  0.50000000  1
  Ni  Ni2  1  0.50000000  -0.00000000  0.50000000  1
  Ni  Ni3  1  0.00000000  0.50000000  0.00000000  1
  C  C4  1  0.00000000  0.50000000  0.50000000  1
  C  C5  1  0.50000000  0.50000000  0.00000000  1
  C  C6  1  0.50000000  -0.00000000  0.00000000  1
  C  C7  1  0.00000000  -0.00000000  0.50000000  1
  Cu  Cu8  1  0.75000000  0.75000000  0.75000000  1
  Cu  Cu9  1  0.25000000  0.25000000  0.75000000  1
  Cu  Cu10  1  0.25000000  0.75000000  0.25000000  1
  Cu  Cu11  1  0.75000000  0.25000000  0.25000000  1
  C  C12  1  0.25000000  0.25000000  0.25000000  1
  C  C13  1  0.75000000  0.75000000  0.25000000  1
  C  C14  1  0.75000000  0.25000000  0.75000000  1
  C  C15  1  0.25000000  0.75000000  0.75000000  1
  C  C16  1  0.02700009  0.22013030  0.26950609  1
  C  C17  1  0.97299991  0.77986970  0.26950609  1
  C  C18  1  0.97299991  0.22013030  0.73049391  1
  C  C19  1  0.02700009  0.77986970  0.73049391  1
  C  C20  1  0.27707025  0.02606381  0.22216167  1
  C  C21  1  0.27707025  0.97393619  0.77783833  1
  C  C22  1  0.72292975  0.97393619  0.22216167  1
  C  C23  1  0.72292975  0.02606381  0.77783833  1
  C  C24  1  0.21959346  0.26992439  0.02560417  1
  C  C25  1  0.78040654  0.26992439  0.97439583  1
  C  C26  1  0.21959346  0.73007561  0.97439583  1
  C  C27  1  0.78040654  0.73007561  0.02560417  1
  C  C28  1  0.47299991  0.27986970  0.23049391  1
  C  C29  1  0.52700009  0.72013030  0.23049391  1
  C  C30  1  0.52700009  0.27986970  0.76950609  1
  C  C31  1  0.47299991  0.72013030  0.76950609  1
  C  C32  1  0.22292975  0.47393619  0.27783833  1
  C  C33  1  0.22292975  0.52606381  0.72216167  1
  C  C34  1  0.77707025  0.52606381  0.27783833  1
  C  C35  1  0.77707025  0.47393619  0.72216167  1
  C  C36  1  0.28040654  0.23007561  0.47439583  1
  C  C37  1  0.71959346  0.23007561  0.52560417  1
  C  C38  1  0.28040654  0.76992439  0.52560417  1
  C  C39  1  0.71959346  0.76992439  0.47439583  1
