# generated using pymatgen
data_Cu4Ni2C15
_symmetry_space_group_name_H-M   'P 1'
_cell_length_a   5.87128249
_cell_length_b   6.98202887
_cell_length_c   8.73875322
_cell_angle_alpha   103.04674951
_cell_angle_beta   88.84292538
_cell_angle_gamma   111.73041718
_symmetry_Int_Tables_number   1
_chemical_formula_structural   Cu4Ni2C15
_chemical_formula_sum   'Cu4 Ni2 C15'
_cell_volume   323.38803326
_cell_formula_units_Z   1
loop_
 _symmetry_equiv_pos_site_id
 _symmetry_equiv_pos_as_xyz
  1  'x, y, z'
loop_
 _atom_site_type_symbol
 _atom_site_label
 _atom_site_symmetry_multiplicity
 _atom_site_fract_x
 _atom_site_fract_y
 _atom_site_fract_z
 _atom_site_occupancy
  Ni  Ni0  1  0.12138100  0.23730000  0.47577300  1
  Ni  Ni1  1  0.96993000  0.81935900  0.61432800  1
  Cu  Cu2  1  0.15399900  0.28387800  0.93959500  1
  Cu  Cu3  1  0.55010100  0.10033600  0.19377100  1
  Cu  Cu4  1  0.45117400  0.83158200  0.78681600  1
  Cu  Cu5  1  0.89545600  0.75376800  0.04815900  1
  C  C6  1  0.63849000  0.56871700  0.35036300  1
  C  C7  1  0.67942000  0.33573600  0.69777100  1
  C  C8  1  0.23049400  0.64022900  0.29051800  1
  C  C9  1  0.01294600  0.54172700  0.80722600  1
  C  C10  1  0.18355500  0.89916400  0.29692800  1
  C  C11  1  0.26207300  0.99331100  0.98087600  1
  C  C12  1  0.80139200  0.11770500  0.70727000  1
  C  C13  1  0.63610300  0.81801400  0.26414300  1
  C  C14  1  0.77706000  0.01568300  0.99005600  1
  C  C15  1  0.35006700  0.13857500  0.71385200  1
  C  C16  1  0.88594500  0.47352700  0.19974600  1
  C  C17  1  0.68307600  0.36915600  0.48710400  1
  C  C18  1  0.40587300  0.66414200  0.50437200  1
  C  C19  1  0.33262700  0.37611100  0.20901200  1
  C  C20  1  0.56217300  0.54975900  0.84232000  1
