# generated using pymatgen
data_Cu2NiC5
_symmetry_space_group_name_H-M   'P 1'
_cell_length_a   6.89569600
_cell_length_b   7.31556900
_cell_length_c   8.05084200
_cell_angle_alpha   90.00000000
_cell_angle_beta   90.00000000
_cell_angle_gamma   90.00000000
_symmetry_Int_Tables_number   1
_chemical_formula_structural   Cu2NiC5
_chemical_formula_sum   'Cu4 Ni2 C10'
_cell_volume   406.13229160
_cell_formula_units_Z   2
loop_
 _symmetry_equiv_pos_site_id
 _symmetry_equiv_pos_as_xyz
  1  'x, y, z'
loop_
 _atom_site_type_symbol
 _atom_site_label
 _atom_site_symmetry_multiplicity
 _atom_site_fract_x
 _atom_site_fract_y
 _atom_site_fract_z
 _atom_site_occupancy
  Ni  Ni0  1  0.50241400  0.35632200  0.00000000  1
  Ni  Ni1  1  0.00241400  0.64367800  0.50000000  1
  C  C2  1  0.99975800  0.66388200  0.00000000  1
  C  C3  1  0.49975800  0.33611800  0.50000000  1
  Cu  Cu4  1  0.51999400  0.82662400  0.75137900  1
  Cu  Cu5  1  0.01999400  0.17337600  0.74862100  1
  Cu  Cu6  1  0.01999400  0.17337600  0.25137900  1
  Cu  Cu7  1  0.51999400  0.82662400  0.24862100  1
  C  C8  1  0.87168900  0.37399000  0.00000000  1
  C  C9  1  0.37168900  0.62601000  0.50000000  1
  C  C10  1  0.90197200  0.82280400  0.76429400  1
  C  C11  1  0.40197200  0.17719600  0.73570600  1
  C  C12  1  0.40197200  0.17719600  0.26429400  1
  C  C13  1  0.90197200  0.82280400  0.23570600  1
  C  C14  1  0.33470600  0.66003300  0.00000000  1
  C  C15  1  0.83470600  0.33996700  0.50000000  1
