# generated using pymatgen
data_CuNi5C11
_symmetry_space_group_name_H-M   'P 1'
_cell_length_a   8.77900923
_cell_length_b   8.77900986
_cell_length_c   14.26788600
_cell_angle_alpha   90.00000000
_cell_angle_beta   90.00000000
_cell_angle_gamma   101.60336504
_symmetry_Int_Tables_number   1
_chemical_formula_structural   CuNi5C11
_chemical_formula_sum   'Cu2 Ni10 C22'
_cell_volume   1077.16749729
_cell_formula_units_Z   2
loop_
 _symmetry_equiv_pos_site_id
 _symmetry_equiv_pos_as_xyz
  1  'x, y, z'
loop_
 _atom_site_type_symbol
 _atom_site_label
 _atom_site_symmetry_multiplicity
 _atom_site_fract_x
 _atom_site_fract_y
 _atom_site_fract_z
 _atom_site_occupancy
  C  C0  1  0.02581500  0.97418500  0.94139300  1
  C  C1  1  0.97418500  0.02581500  0.44139300  1
  C  C2  1  0.25496900  0.74503100  0.21136800  1
  C  C3  1  0.74503100  0.25496900  0.71136800  1
  Ni  Ni4  1  0.55242600  0.44757400  0.15822100  1
  Ni  Ni5  1  0.44757400  0.55242600  0.65822100  1
  Ni  Ni6  1  0.72395800  0.80227200  0.21577100  1
  Ni  Ni7  1  0.19772800  0.27604200  0.21577100  1
  Ni  Ni8  1  0.27604200  0.19772800  0.71577100  1
  Ni  Ni9  1  0.80227200  0.72395800  0.71577100  1
  Ni  Ni10  1  0.43453800  0.03128300  0.42006500  1
  Ni  Ni11  1  0.96871700  0.56546200  0.42006500  1
  Ni  Ni12  1  0.56546200  0.96871700  0.92006500  1
  Ni  Ni13  1  0.03128300  0.43453800  0.92006500  1
  C  C14  1  0.89241800  0.10758200  0.04620700  1
  C  C15  1  0.10758200  0.89241800  0.54620700  1
  C  C16  1  0.25407700  0.14882500  0.97301500  1
  C  C17  1  0.85117500  0.74592300  0.97301500  1
  C  C18  1  0.74592300  0.85117500  0.47301500  1
  C  C19  1  0.14882500  0.25407700  0.47301500  1
  C  C20  1  0.16501300  0.83498700  0.84212000  1
  C  C21  1  0.83498700  0.16501300  0.34212000  1
  C  C22  1  0.40389900  0.59610100  0.10160200  1
  C  C23  1  0.59610100  0.40389900  0.60160200  1
  C  C24  1  0.40733400  0.96300700  0.14768000  1
  C  C25  1  0.03699300  0.59266600  0.14768000  1
  C  C26  1  0.59266600  0.03699300  0.64768000  1
  C  C27  1  0.96300700  0.40733400  0.64768000  1
  C  C28  1  0.09554300  0.90445700  0.28885000  1
  C  C29  1  0.90445700  0.09554300  0.78885000  1
  C  C30  1  0.35073500  0.64926500  0.34253100  1
  C  C31  1  0.64926500  0.35073500  0.84253100  1
  Cu  Cu32  1  0.55922700  0.44077300  0.23736700  1
  Cu  Cu33  1  0.44077300  0.55922700  0.73736700  1
