# generated using pymatgen
data_Cu6Ni3C2
_symmetry_space_group_name_H-M   'P 1'
_cell_length_a   5.49494314
_cell_length_b   5.49494314
_cell_length_c   5.49494336
_cell_angle_alpha   90.61278911
_cell_angle_beta   90.61278911
_cell_angle_gamma   90.61278798
_symmetry_Int_Tables_number   1
_chemical_formula_structural   Cu6Ni3C2
_chemical_formula_sum   'Cu6 Ni3 C2'
_cell_volume   165.88784593
_cell_formula_units_Z   1
loop_
 _symmetry_equiv_pos_site_id
 _symmetry_equiv_pos_as_xyz
  1  'x, y, z'
loop_
 _atom_site_type_symbol
 _atom_site_label
 _atom_site_symmetry_multiplicity
 _atom_site_fract_x
 _atom_site_fract_y
 _atom_site_fract_z
 _atom_site_occupancy
  C  C0  1  0.38455400  0.38455400  0.38455400  1
  C  C1  1  0.89830600  0.89830600  0.89830600  1
  Ni  Ni2  1  0.44244600  0.88662800  0.83858800  1
  Ni  Ni3  1  0.88662800  0.83858800  0.44244600  1
  Ni  Ni4  1  0.83858800  0.44244600  0.88662800  1
  Cu  Cu5  1  0.68816200  0.83713400  0.32596600  1
  Cu  Cu6  1  0.32596600  0.68816200  0.83713400  1
  Cu  Cu7  1  0.84942400  0.31574400  0.07771500  1
  Cu  Cu8  1  0.07771500  0.84942400  0.31574400  1
  Cu  Cu9  1  0.31574400  0.07771500  0.84942400  1
  Cu  Cu10  1  0.83713400  0.32596600  0.68816200  1
