# generated using pymatgen
data_Cu(NiC6)2
_symmetry_space_group_name_H-M   'P 1'
_cell_length_a   8.02045428
_cell_length_b   8.02045428
_cell_length_c   8.02045414
_cell_angle_alpha   42.64552055
_cell_angle_beta   42.64552055
_cell_angle_gamma   42.64551931
_symmetry_Int_Tables_number   1
_chemical_formula_structural   Cu(NiC6)2
_chemical_formula_sum   'Cu1 Ni2 C12'
_cell_volume   214.47283469
_cell_formula_units_Z   1
loop_
 _symmetry_equiv_pos_site_id
 _symmetry_equiv_pos_as_xyz
  1  'x, y, z'
loop_
 _atom_site_type_symbol
 _atom_site_label
 _atom_site_symmetry_multiplicity
 _atom_site_fract_x
 _atom_site_fract_y
 _atom_site_fract_z
 _atom_site_occupancy
  C  C0  1  0.99835400  0.99835400  0.99835400  1
  C  C1  1  0.21716000  0.21716000  0.21716000  1
  C  C2  1  0.78295600  0.78295600  0.78295600  1
  Ni  Ni3  1  0.61840700  0.61840700  0.61840700  1
  Ni  Ni4  1  0.50099600  0.50099600  0.50099600  1
  Cu  Cu5  1  0.38154500  0.38154500  0.38154500  1
  C  C6  1  0.70463400  0.25664700  0.70463400  1
  C  C7  1  0.25664700  0.70463400  0.70463400  1
  C  C8  1  0.70463400  0.70463400  0.25664700  1
  C  C9  1  0.29438000  0.74200800  0.29438000  1
  C  C10  1  0.74200800  0.29438000  0.29438000  1
  C  C11  1  0.29438000  0.29438000  0.74200800  1
  C  C12  1  0.00498100  0.49946000  0.49946000  1
  C  C13  1  0.49946000  0.49946000  0.00498100  1
  C  C14  1  0.49946000  0.00498100  0.49946000  1
