# generated using pymatgen
data_Cu5Ni2C25
_symmetry_space_group_name_H-M   'P 1'
_cell_length_a   5.89021000
_cell_length_b   6.65323408
_cell_length_c   7.69288492
_cell_angle_alpha   90.28473728
_cell_angle_beta   100.39122376
_cell_angle_gamma   103.44109743
_symmetry_Int_Tables_number   1
_chemical_formula_structural   Cu5Ni2C25
_chemical_formula_sum   'Cu5 Ni2 C25'
_cell_volume   288.06266949
_cell_formula_units_Z   1
loop_
 _symmetry_equiv_pos_site_id
 _symmetry_equiv_pos_as_xyz
  1  'x, y, z'
loop_
 _atom_site_type_symbol
 _atom_site_label
 _atom_site_symmetry_multiplicity
 _atom_site_fract_x
 _atom_site_fract_y
 _atom_site_fract_z
 _atom_site_occupancy
  C  C0  1  0.74976900  0.24125500  0.75912900  1
  C  C1  1  0.37873800  0.87624400  0.62741700  1
  C  C2  1  0.12974600  0.63250700  0.87854200  1
  C  C3  1  0.50000000  0.00000000  0.00000000  1
  C  C4  1  0.87025400  0.36749300  0.12145800  1
  C  C5  1  0.25023100  0.75874500  0.24087100  1
  C  C6  1  0.62126200  0.12375600  0.37258300  1
  C  C7  1  0.00000000  0.50000000  0.50000000  1
  C  C8  1  0.00000000  0.00000000  0.00000000  1
  Ni  Ni9  1  0.87838500  0.87660700  0.62830900  1
  Ni  Ni10  1  0.12161500  0.12339300  0.37169100  1
  Cu  Cu11  1  0.50000000  0.50000000  0.50000000  1
  Cu  Cu12  1  0.74851000  0.75514000  0.24109200  1
  Cu  Cu13  1  0.36734200  0.36922100  0.12229400  1
  Cu  Cu14  1  0.63265800  0.63077900  0.87770600  1
  Cu  Cu15  1  0.25149000  0.24486000  0.75890800  1
  C  C16  1  0.69805100  0.92656400  0.79915600  1
  C  C17  1  0.33719200  0.55690900  0.68609900  1
  C  C18  1  0.08988900  0.31961800  0.93406300  1
  C  C19  1  0.44304400  0.68189400  0.06465800  1
  C  C20  1  0.83087800  0.05978100  0.20229200  1
  C  C21  1  0.18336100  0.41354900  0.31899900  1
  C  C22  1  0.58790300  0.80739900  0.44129800  1
  C  C23  1  0.94442900  0.16714400  0.56159500  1
  C  C24  1  0.81663900  0.58645100  0.68100100  1
  C  C25  1  0.41209700  0.19260100  0.55870200  1
  C  C26  1  0.16912200  0.94021900  0.79770800  1
  C  C27  1  0.55695600  0.31810600  0.93534200  1
  C  C28  1  0.91011100  0.68038200  0.06593700  1
  C  C29  1  0.30194900  0.07343600  0.20084400  1
  C  C30  1  0.66280800  0.44309100  0.31390100  1
  C  C31  1  0.05557100  0.83285600  0.43840500  1
