# generated using pymatgen
data_Cu3Ni9C2
_symmetry_space_group_name_H-M   'P 1'
_cell_length_a   7.61675077
_cell_length_b   7.61675077
_cell_length_c   9.44834300
_cell_angle_alpha   90.00000000
_cell_angle_beta   90.00000000
_cell_angle_gamma   119.70851440
_symmetry_Int_Tables_number   1
_chemical_formula_structural   Cu3Ni9C2
_chemical_formula_sum   'Cu6 Ni18 C4'
_cell_volume   476.09531190
_cell_formula_units_Z   2
loop_
 _symmetry_equiv_pos_site_id
 _symmetry_equiv_pos_as_xyz
  1  'x, y, z'
loop_
 _atom_site_type_symbol
 _atom_site_label
 _atom_site_symmetry_multiplicity
 _atom_site_fract_x
 _atom_site_fract_y
 _atom_site_fract_z
 _atom_site_occupancy
  C  C0  1  0.99634800  0.66868100  0.25000000  1
  C  C1  1  0.00365200  0.33131900  0.75000000  1
  C  C2  1  0.66868100  0.99634800  0.25000000  1
  C  C3  1  0.33131900  0.00365200  0.75000000  1
  Ni  Ni4  1  0.12756400  0.12756400  0.25000000  1
  Ni  Ni5  1  0.87243600  0.87243600  0.75000000  1
  Ni  Ni6  1  0.00264700  0.33421700  0.07387800  1
  Ni  Ni7  1  0.99735300  0.66578300  0.92612200  1
  Ni  Ni8  1  0.99735300  0.66578300  0.57387800  1
  Ni  Ni9  1  0.33421700  0.00264700  0.42612200  1
  Ni  Ni10  1  0.00264700  0.33421700  0.42612200  1
  Ni  Ni11  1  0.66578300  0.99735300  0.57387800  1
  Ni  Ni12  1  0.66578300  0.99735300  0.92612200  1
  Ni  Ni13  1  0.33421700  0.00264700  0.07387800  1
  Ni  Ni14  1  0.33532200  0.33532200  0.55502300  1
  Ni  Ni15  1  0.66467800  0.66467800  0.44497700  1
  Ni  Ni16  1  0.66467800  0.66467800  0.05502300  1
  Ni  Ni17  1  0.33532200  0.33532200  0.94497700  1
  Ni  Ni18  1  0.33850600  0.54525300  0.25000000  1
  Ni  Ni19  1  0.66149400  0.45474700  0.75000000  1
  Ni  Ni20  1  0.54525300  0.33850600  0.25000000  1
  Ni  Ni21  1  0.45474700  0.66149400  0.75000000  1
  Cu  Cu22  1  0.67196300  0.32803700  0.00000000  1
  Cu  Cu23  1  0.32803700  0.67196300  0.00000000  1
  Cu  Cu24  1  0.32803700  0.67196300  0.50000000  1
  Cu  Cu25  1  0.67196300  0.32803700  0.50000000  1
  Cu  Cu26  1  0.00000000  0.00000000  0.00000000  1
  Cu  Cu27  1  0.00000000  0.00000000  0.50000000  1
