# generated using pymatgen
data_Cu5(NiC3)6
_symmetry_space_group_name_H-M   'P 1'
_cell_length_a   8.65464798
_cell_length_b   8.65464798
_cell_length_c   8.30951900
_cell_angle_alpha   90.00000000
_cell_angle_beta   90.00000000
_cell_angle_gamma   119.99999981
_symmetry_Int_Tables_number   1
_chemical_formula_structural   Cu5(NiC3)6
_chemical_formula_sum   'Cu10 Ni12 C36'
_cell_volume   539.02056296
_cell_formula_units_Z   2
loop_
 _symmetry_equiv_pos_site_id
 _symmetry_equiv_pos_as_xyz
  1  'x, y, z'
loop_
 _atom_site_type_symbol
 _atom_site_label
 _atom_site_symmetry_multiplicity
 _atom_site_fract_x
 _atom_site_fract_y
 _atom_site_fract_z
 _atom_site_occupancy
  Ni  Ni0  1  0.35243300  0.01391200  0.07587500  1
  Ni  Ni1  1  0.64756700  0.98608800  0.92412500  1
  Ni  Ni2  1  0.98608800  0.33852100  0.07587500  1
  Ni  Ni3  1  0.64756700  0.98608800  0.57587500  1
  Ni  Ni4  1  0.01391200  0.66147900  0.92412500  1
  Ni  Ni5  1  0.35243300  0.01391200  0.42412500  1
  Ni  Ni6  1  0.66147900  0.64756700  0.07587500  1
  Ni  Ni7  1  0.01391200  0.66147900  0.57587500  1
  Ni  Ni8  1  0.33852100  0.35243300  0.92412500  1
  Ni  Ni9  1  0.98608800  0.33852100  0.42412500  1
  Ni  Ni10  1  0.33852100  0.35243300  0.57587500  1
  Ni  Ni11  1  0.66147900  0.64756700  0.42412500  1
  Cu  Cu12  1  0.33333300  0.66666700  0.05755900  1
  Cu  Cu13  1  0.66666700  0.33333300  0.94244100  1
  Cu  Cu14  1  0.66666700  0.33333300  0.55755900  1
  Cu  Cu15  1  0.33333300  0.66666700  0.44244100  1
  Cu  Cu16  1  0.23268500  0.23324300  0.25000000  1
  Cu  Cu17  1  0.76731500  0.76675700  0.75000000  1
  Cu  Cu18  1  0.76675700  0.99944200  0.25000000  1
  Cu  Cu19  1  0.23324300  0.00055800  0.75000000  1
  Cu  Cu20  1  0.00055800  0.76731500  0.25000000  1
  Cu  Cu21  1  0.99944200  0.23268500  0.75000000  1
  C  C22  1  0.28641500  0.19670700  0.10220200  1
  C  C23  1  0.71358500  0.80329300  0.89779800  1
  C  C24  1  0.80329300  0.08970800  0.10220200  1
  C  C25  1  0.71358500  0.80329300  0.60220200  1
  C  C26  1  0.19670700  0.91029200  0.89779800  1
  C  C27  1  0.28641500  0.19670700  0.39779800  1
  C  C28  1  0.91029200  0.71358500  0.10220200  1
  C  C29  1  0.19670700  0.91029200  0.60220200  1
  C  C30  1  0.08970800  0.28641500  0.89779800  1
  C  C31  1  0.80329300  0.08970800  0.39779800  1
  C  C32  1  0.08970800  0.28641500  0.60220200  1
  C  C33  1  0.91029200  0.71358500  0.39779800  1
  C  C34  1  0.11976700  0.30113900  0.25000000  1
  C  C35  1  0.88023300  0.69886100  0.75000000  1
  C  C36  1  0.69886100  0.81862700  0.25000000  1
  C  C37  1  0.30113900  0.18137300  0.75000000  1
  C  C38  1  0.18137300  0.88023300  0.25000000  1
  C  C39  1  0.81862700  0.11976700  0.75000000  1
  C  C40  1  0.50194500  0.11922900  0.25000000  1
  C  C41  1  0.49805500  0.88077100  0.75000000  1
  C  C42  1  0.88077100  0.38271600  0.25000000  1
  C  C43  1  0.11922900  0.61728400  0.75000000  1
  C  C44  1  0.61728400  0.49805500  0.25000000  1
  C  C45  1  0.38271600  0.50194500  0.75000000  1
  C  C46  1  0.15001400  0.58850000  0.05834000  1
  C  C47  1  0.84998600  0.41150000  0.94166000  1
  C  C48  1  0.41150000  0.56151400  0.05834000  1
  C  C49  1  0.84998600  0.41150000  0.55834000  1
  C  C50  1  0.58850000  0.43848600  0.94166000  1
  C  C51  1  0.15001400  0.58850000  0.44166000  1
  C  C52  1  0.43848600  0.84998600  0.05834000  1
  C  C53  1  0.58850000  0.43848600  0.55834000  1
  C  C54  1  0.56151400  0.15001400  0.94166000  1
  C  C55  1  0.41150000  0.56151400  0.44166000  1
  C  C56  1  0.56151400  0.15001400  0.55834000  1
  C  C57  1  0.43848600  0.84998600  0.44166000  1
