# generated using pymatgen
data_CuNi5C24
_symmetry_space_group_name_H-M   'P 1'
_cell_length_a   11.19966400
_cell_length_b   11.19966400
_cell_length_c   11.06636200
_cell_angle_alpha   90.00000000
_cell_angle_beta   90.00000000
_cell_angle_gamma   90.00000000
_symmetry_Int_Tables_number   1
_chemical_formula_structural   CuNi5C24
_chemical_formula_sum   'Cu2 Ni10 C48'
_cell_volume   1388.08116066
_cell_formula_units_Z   2
loop_
 _symmetry_equiv_pos_site_id
 _symmetry_equiv_pos_as_xyz
  1  'x, y, z'
loop_
 _atom_site_type_symbol
 _atom_site_label
 _atom_site_symmetry_multiplicity
 _atom_site_fract_x
 _atom_site_fract_y
 _atom_site_fract_z
 _atom_site_occupancy
  C  C0  1  0.50000000  0.00000000  0.64970000  1
  C  C1  1  0.00000000  0.50000000  0.35030000  1
  C  C2  1  0.76465400  0.73534600  0.71704700  1
  C  C3  1  0.76465400  0.26465400  0.71704700  1
  C  C4  1  0.23534600  0.73534600  0.71704700  1
  C  C5  1  0.23534600  0.26465400  0.71704700  1
  C  C6  1  0.73534600  0.76465400  0.28295300  1
  C  C7  1  0.73534600  0.23534600  0.28295300  1
  C  C8  1  0.26465400  0.76465400  0.28295300  1
  C  C9  1  0.26465400  0.23534600  0.28295300  1
  Ni  Ni10  1  0.00000000  0.50000000  0.85216700  1
  Ni  Ni11  1  0.50000000  0.00000000  0.14783300  1
  Ni  Ni12  1  0.77629100  0.00000000  0.98924300  1
  Ni  Ni13  1  0.22370900  0.00000000  0.98924300  1
  Ni  Ni14  1  0.50000000  0.27629100  0.98924300  1
  Ni  Ni15  1  0.50000000  0.72370900  0.98924300  1
  Ni  Ni16  1  0.72370900  0.50000000  0.01075700  1
  Ni  Ni17  1  0.27629100  0.50000000  0.01075700  1
  Ni  Ni18  1  0.00000000  0.22370900  0.01075700  1
  Ni  Ni19  1  0.00000000  0.77629100  0.01075700  1
  Cu  Cu20  1  0.50000000  0.50000000  0.50000000  1
  Cu  Cu21  1  0.00000000  0.00000000  0.50000000  1
  C  C22  1  0.71987300  0.50000000  0.49570800  1
  C  C23  1  0.28012700  0.50000000  0.49570800  1
  C  C24  1  0.00000000  0.21987300  0.49570800  1
  C  C25  1  0.00000000  0.78012700  0.49570800  1
  C  C26  1  0.78012700  0.00000000  0.50429200  1
  C  C27  1  0.21987300  0.00000000  0.50429200  1
  C  C28  1  0.50000000  0.28012700  0.50429200  1
  C  C29  1  0.50000000  0.71987300  0.50429200  1
  C  C30  1  0.50000000  0.50000000  0.71511800  1
  C  C31  1  0.00000000  0.00000000  0.71511800  1
  C  C32  1  0.00000000  0.00000000  0.28488200  1
  C  C33  1  0.50000000  0.50000000  0.28488200  1
  C  C34  1  0.00000000  0.50000000  0.70480300  1
  C  C35  1  0.50000000  0.00000000  0.29519700  1
  C  C36  1  0.70632000  0.00000000  0.85912700  1
  C  C37  1  0.29368000  0.00000000  0.85912700  1
  C  C38  1  0.50000000  0.20632000  0.85912700  1
  C  C39  1  0.50000000  0.79368000  0.85912700  1
  C  C40  1  0.79368000  0.50000000  0.14087300  1
  C  C41  1  0.20632000  0.50000000  0.14087300  1
  C  C42  1  0.00000000  0.29368000  0.14087300  1
  C  C43  1  0.00000000  0.70632000  0.14087300  1
  C  C44  1  0.67312900  0.00000000  0.10607800  1
  C  C45  1  0.32687100  0.00000000  0.10607800  1
  C  C46  1  0.50000000  0.17312900  0.10607800  1
  C  C47  1  0.50000000  0.82687100  0.10607800  1
  C  C48  1  0.82687100  0.50000000  0.89392200  1
  C  C49  1  0.17312900  0.50000000  0.89392200  1
  C  C50  1  0.00000000  0.32687100  0.89392200  1
  C  C51  1  0.00000000  0.67312900  0.89392200  1
  C  C52  1  0.86607300  0.86607300  0.00000000  1
  C  C53  1  0.86607300  0.13392700  0.00000000  1
  C  C54  1  0.13392700  0.86607300  0.00000000  1
  C  C55  1  0.13392700  0.13392700  0.00000000  1
  C  C56  1  0.36607300  0.36607300  0.00000000  1
  C  C57  1  0.36607300  0.63392700  0.00000000  1
  C  C58  1  0.63392700  0.36607300  0.00000000  1
  C  C59  1  0.63392700  0.63392700  0.00000000  1
