# generated using pymatgen
data_Cu12Ni7C29
_symmetry_space_group_name_H-M   'P 1'
_cell_length_a   11.71385174
_cell_length_b   11.71385174
_cell_length_c   11.71385174
_cell_angle_alpha   60.00000000
_cell_angle_beta   60.00000000
_cell_angle_gamma   60.00000000
_symmetry_Int_Tables_number   1
_chemical_formula_structural   Cu12Ni7C29
_chemical_formula_sum   'Cu12 Ni7 C29'
_cell_volume   1136.53855021
_cell_formula_units_Z   1
loop_
 _symmetry_equiv_pos_site_id
 _symmetry_equiv_pos_as_xyz
  1  'x, y, z'
loop_
 _atom_site_type_symbol
 _atom_site_label
 _atom_site_symmetry_multiplicity
 _atom_site_fract_x
 _atom_site_fract_y
 _atom_site_fract_z
 _atom_site_occupancy
  C  C0  1  0.00000000  0.00000000  0.34309800  1
  C  C1  1  0.65690200  0.00000000  0.34309800  1
  C  C2  1  0.00000000  0.65690200  0.34309800  1
  C  C3  1  0.65690200  0.34309800  0.00000000  1
  C  C4  1  0.00000000  0.34309800  0.00000000  1
  C  C5  1  0.00000000  0.34309800  0.65690200  1
  C  C6  1  0.34309800  0.65690200  0.00000000  1
  C  C7  1  0.34309800  0.00000000  0.65690200  1
  C  C8  1  0.34309800  0.00000000  0.00000000  1
  C  C9  1  0.00000000  0.00000000  0.65690200  1
  C  C10  1  0.00000000  0.65690200  0.00000000  1
  C  C11  1  0.65690200  0.00000000  0.00000000  1
  C  C12  1  0.63657100  0.63657100  0.09028800  1
  C  C13  1  0.63657100  0.09028800  0.63657100  1
  C  C14  1  0.09028800  0.63657100  0.63657100  1
  C  C15  1  0.63657100  0.63657100  0.63657100  1
  C  C16  1  0.36342900  0.36342900  0.90971200  1
  C  C17  1  0.36342900  0.90971200  0.36342900  1
  C  C18  1  0.90971200  0.36342900  0.36342900  1
  C  C19  1  0.36342900  0.36342900  0.36342900  1
  C  C20  1  0.50000000  0.50000000  0.50000000  1
  C  C21  1  0.80138300  0.80138300  0.59585000  1
  C  C22  1  0.80138300  0.59585000  0.80138300  1
  C  C23  1  0.59585000  0.80138300  0.80138300  1
  C  C24  1  0.80138300  0.80138300  0.80138300  1
  C  C25  1  0.19861700  0.19861700  0.40415000  1
  C  C26  1  0.19861700  0.40415000  0.19861700  1
  C  C27  1  0.40415000  0.19861700  0.19861700  1
  C  C28  1  0.19861700  0.19861700  0.19861700  1
  Ni  Ni29  1  0.70914200  0.70914200  0.29085800  1
  Ni  Ni30  1  0.29085800  0.70914200  0.29085800  1
  Ni  Ni31  1  0.70914200  0.29085800  0.29085800  1
  Ni  Ni32  1  0.29085800  0.29085800  0.70914200  1
  Ni  Ni33  1  0.70914200  0.29085800  0.70914200  1
  Ni  Ni34  1  0.29085800  0.70914200  0.70914200  1
  Ni  Ni35  1  0.00000000  0.00000000  0.00000000  1
  Cu  Cu36  1  0.89274700  0.89274700  0.60725300  1
  Cu  Cu37  1  0.60725300  0.89274700  0.60725300  1
  Cu  Cu38  1  0.89274700  0.60725300  0.60725300  1
  Cu  Cu39  1  0.60725300  0.60725300  0.89274700  1
  Cu  Cu40  1  0.89274700  0.60725300  0.89274700  1
  Cu  Cu41  1  0.60725300  0.89274700  0.89274700  1
  Cu  Cu42  1  0.10725300  0.10725300  0.39274700  1
  Cu  Cu43  1  0.39274700  0.10725300  0.39274700  1
  Cu  Cu44  1  0.10725300  0.39274700  0.39274700  1
  Cu  Cu45  1  0.39274700  0.39274700  0.10725300  1
  Cu  Cu46  1  0.10725300  0.39274700  0.10725300  1
  Cu  Cu47  1  0.39274700  0.10725300  0.10725300  1
