# generated using pymatgen
data_Cu(NiC7)2
_symmetry_space_group_name_H-M   'P 1'
_cell_length_a   5.88459000
_cell_length_b   10.17138800
_cell_length_c   18.44318800
_cell_angle_alpha   90.00000000
_cell_angle_beta   90.00000000
_cell_angle_gamma   90.00000000
_symmetry_Int_Tables_number   1
_chemical_formula_structural   Cu(NiC7)2
_chemical_formula_sum   'Cu4 Ni8 C56'
_cell_volume   1103.90683915
_cell_formula_units_Z   4
loop_
 _symmetry_equiv_pos_site_id
 _symmetry_equiv_pos_as_xyz
  1  'x, y, z'
loop_
 _atom_site_type_symbol
 _atom_site_label
 _atom_site_symmetry_multiplicity
 _atom_site_fract_x
 _atom_site_fract_y
 _atom_site_fract_z
 _atom_site_occupancy
  C  C0  1  0.25000000  0.25000000  0.95238400  1
  C  C1  1  0.75000000  0.75000000  0.54761600  1
  C  C2  1  0.75000000  0.75000000  0.04761600  1
  C  C3  1  0.25000000  0.25000000  0.45238400  1
  Ni  Ni4  1  0.25826500  0.98592400  0.11274000  1
  Ni  Ni5  1  0.24173500  0.51407600  0.11274000  1
  Ni  Ni6  1  0.75826500  0.01407600  0.38726000  1
  Ni  Ni7  1  0.74173500  0.48592400  0.38726000  1
  Ni  Ni8  1  0.74173500  0.01407600  0.88726000  1
  Ni  Ni9  1  0.75826500  0.48592400  0.88726000  1
  Ni  Ni10  1  0.24173500  0.98592400  0.61274000  1
  Ni  Ni11  1  0.25826500  0.51407600  0.61274000  1
  Cu  Cu12  1  0.75000000  0.25000000  0.70492900  1
  Cu  Cu13  1  0.25000000  0.75000000  0.79507100  1
  Cu  Cu14  1  0.25000000  0.75000000  0.29507100  1
  Cu  Cu15  1  0.75000000  0.25000000  0.20492900  1
  C  C16  1  0.28348900  0.45999400  0.69688200  1
  C  C17  1  0.21651100  0.04000600  0.69688200  1
  C  C18  1  0.78348900  0.54000600  0.80311800  1
  C  C19  1  0.71651100  0.95999400  0.80311800  1
  C  C20  1  0.71651100  0.54000600  0.30311800  1
  C  C21  1  0.78348900  0.95999400  0.30311800  1
  C  C22  1  0.21651100  0.45999400  0.19688200  1
  C  C23  1  0.28348900  0.04000600  0.19688200  1
  C  C24  1  0.56013000  0.36656600  0.89253300  1
  C  C25  1  0.93987000  0.13343400  0.89253300  1
  C  C26  1  0.06013000  0.63343400  0.60746700  1
  C  C27  1  0.43987000  0.86656600  0.60746700  1
  C  C28  1  0.43987000  0.63343400  0.10746700  1
  C  C29  1  0.06013000  0.86656600  0.10746700  1
  C  C30  1  0.93987000  0.36656600  0.39253300  1
  C  C31  1  0.56013000  0.13343400  0.39253300  1
  C  C32  1  0.84825400  0.34776500  0.70721800  1
  C  C33  1  0.65174600  0.15223500  0.70721800  1
  C  C34  1  0.34825400  0.65223500  0.79278200  1
  C  C35  1  0.15174600  0.84776500  0.79278200  1
  C  C36  1  0.15174600  0.65223500  0.29278200  1
  C  C37  1  0.34825400  0.84776500  0.29278200  1
  C  C38  1  0.65174600  0.34776500  0.20721800  1
  C  C39  1  0.84825400  0.15223500  0.20721800  1
  C  C40  1  0.18259800  0.39318800  0.55617100  1
  C  C41  1  0.31740200  0.10681200  0.55617100  1
  C  C42  1  0.68259800  0.60681200  0.94382900  1
  C  C43  1  0.81740200  0.89318800  0.94382900  1
  C  C44  1  0.81740200  0.60681200  0.44382900  1
  C  C45  1  0.68259800  0.89318800  0.44382900  1
  C  C46  1  0.31740200  0.39318800  0.05617100  1
  C  C47  1  0.18259800  0.10681200  0.05617100  1
  C  C48  1  0.25000000  0.25000000  0.81755900  1
  C  C49  1  0.75000000  0.75000000  0.68244100  1
  C  C50  1  0.75000000  0.75000000  0.18244100  1
  C  C51  1  0.25000000  0.25000000  0.31755900  1
  C  C52  1  0.00991100  0.42603800  0.91512200  1
  C  C53  1  0.49008900  0.07396200  0.91512200  1
  C  C54  1  0.50991100  0.57396200  0.58487800  1
  C  C55  1  0.99008900  0.92603800  0.58487800  1
  C  C56  1  0.99008900  0.57396200  0.08487800  1
  C  C57  1  0.50991100  0.92603800  0.08487800  1
  C  C58  1  0.49008900  0.42603800  0.41512200  1
  C  C59  1  0.00991100  0.07396200  0.41512200  1
  C  C60  1  0.82307600  0.29359300  0.04142000  1
  C  C61  1  0.67692400  0.20640700  0.04142000  1
  C  C62  1  0.32307600  0.70640700  0.45858000  1
  C  C63  1  0.17692400  0.79359300  0.45858000  1
  C  C64  1  0.17692400  0.70640700  0.95858000  1
  C  C65  1  0.32307600  0.79359300  0.95858000  1
  C  C66  1  0.67692400  0.29359300  0.54142000  1
  C  C67  1  0.82307600  0.20640700  0.54142000  1
