# generated using pymatgen
data_Cu8NiC4
_symmetry_space_group_name_H-M   'P 1'
_cell_length_a   9.62963682
_cell_length_b   9.62963682
_cell_length_c   9.11977921
_cell_angle_alpha   83.34576972
_cell_angle_beta   83.34576972
_cell_angle_gamma   90.17004005
_symmetry_Int_Tables_number   1
_chemical_formula_structural   Cu8NiC4
_chemical_formula_sum   'Cu32 Ni4 C16'
_cell_volume   834.20568204
_cell_formula_units_Z   4
loop_
 _symmetry_equiv_pos_site_id
 _symmetry_equiv_pos_as_xyz
  1  'x, y, z'
loop_
 _atom_site_type_symbol
 _atom_site_label
 _atom_site_symmetry_multiplicity
 _atom_site_fract_x
 _atom_site_fract_y
 _atom_site_fract_z
 _atom_site_occupancy
  C  C0  1  0.54900300  0.28659200  0.05838600  1
  C  C1  1  0.45099700  0.71340800  0.94161400  1
  C  C2  1  0.71340800  0.45099700  0.44161400  1
  C  C3  1  0.28659200  0.54900300  0.55838600  1
  C  C4  1  0.80420100  0.92143000  0.39275800  1
  C  C5  1  0.19579900  0.07857000  0.60724200  1
  C  C6  1  0.07857000  0.19579900  0.10724200  1
  C  C7  1  0.92143000  0.80420100  0.89275800  1
  C  C8  1  0.79137400  0.05595600  0.04649900  1
  C  C9  1  0.20862600  0.94404400  0.95350100  1
  C  C10  1  0.94404400  0.20862600  0.45350100  1
  C  C11  1  0.05595600  0.79137400  0.54649900  1
  C  C12  1  0.42088000  0.29727600  0.40971600  1
  C  C13  1  0.57912000  0.70272400  0.59028400  1
  C  C14  1  0.70272400  0.57912000  0.09028400  1
  C  C15  1  0.29727600  0.42088000  0.90971600  1
  Ni  Ni16  1  0.42771200  0.92429400  0.27671700  1
  Ni  Ni17  1  0.57228800  0.07570600  0.72328300  1
  Ni  Ni18  1  0.07570600  0.57228800  0.22328300  1
  Ni  Ni19  1  0.92429400  0.42771200  0.77671700  1
  Cu  Cu20  1  0.64583500  0.83500200  0.49711200  1
  Cu  Cu21  1  0.35416500  0.16499800  0.50288800  1
  Cu  Cu22  1  0.16499800  0.35416500  0.00288800  1
  Cu  Cu23  1  0.83500200  0.64583500  0.99711200  1
  Cu  Cu24  1  0.55904800  0.32966700  0.47157400  1
  Cu  Cu25  1  0.44095200  0.67033300  0.52842600  1
  Cu  Cu26  1  0.67033300  0.44095200  0.02842600  1
  Cu  Cu27  1  0.32966700  0.55904800  0.97157400  1
  Cu  Cu28  1  0.82947300  0.09353700  0.46072700  1
  Cu  Cu29  1  0.17052700  0.90646300  0.53927300  1
  Cu  Cu30  1  0.90646300  0.17052700  0.03927300  1
  Cu  Cu31  1  0.09353700  0.82947300  0.96072700  1
  Cu  Cu32  1  0.78381900  0.95579700  0.19224600  1
  Cu  Cu33  1  0.21618100  0.04420300  0.80775400  1
  Cu  Cu34  1  0.04420300  0.21618100  0.30775400  1
  Cu  Cu35  1  0.95579700  0.78381900  0.69224600  1
  Cu  Cu36  1  0.17849600  0.03199200  0.08588000  1
  Cu  Cu37  1  0.82150400  0.96800800  0.91412000  1
  Cu  Cu38  1  0.96800800  0.82150400  0.41412000  1
  Cu  Cu39  1  0.03199200  0.17849600  0.58588000  1
  Cu  Cu40  1  0.44516300  0.26712700  0.24626800  1
  Cu  Cu41  1  0.55483700  0.73287300  0.75373200  1
  Cu  Cu42  1  0.73287300  0.55483700  0.25373200  1
  Cu  Cu43  1  0.26712700  0.44516300  0.74626800  1
  Cu  Cu44  1  0.34971500  0.87221500  0.96868800  1
  Cu  Cu45  1  0.65028500  0.12778500  0.03131200  1
  Cu  Cu46  1  0.12778500  0.65028500  0.53131200  1
  Cu  Cu47  1  0.87221500  0.34971500  0.46868800  1
  Cu  Cu48  1  0.57763500  0.68037600  0.07932300  1
  Cu  Cu49  1  0.42236500  0.31962400  0.92067700  1
  Cu  Cu50  1  0.31962400  0.42236500  0.42067700  1
  Cu  Cu51  1  0.68037600  0.57763500  0.57932300  1
