# generated using pymatgen
data_Cu2(Ni2C)3
_symmetry_space_group_name_H-M   'P 1'
_cell_length_a   12.90299838
_cell_length_b   12.86804648
_cell_length_c   13.37184192
_cell_angle_alpha   90.00000000
_cell_angle_beta   90.00000000
_cell_angle_gamma   90.00000000
_symmetry_Int_Tables_number   1
_chemical_formula_structural   Cu2(Ni2C)3
_chemical_formula_sum   'Cu32 Ni96 C48'
_cell_volume   2220.21226491
_cell_formula_units_Z   16
loop_
 _symmetry_equiv_pos_site_id
 _symmetry_equiv_pos_as_xyz
  1  'x, y, z'
loop_
 _atom_site_type_symbol
 _atom_site_label
 _atom_site_symmetry_multiplicity
 _atom_site_fract_x
 _atom_site_fract_y
 _atom_site_fract_z
 _atom_site_occupancy
  C  C0  1  0.91103529  0.08779456  0.60048537  1
  C  C1  1  0.58896471  0.58779456  0.39951463  1
  C  C2  1  0.41103529  0.91220544  0.89951463  1
  C  C3  1  0.08896471  0.41220544  0.10048537  1
  C  C4  1  0.08896471  0.91220544  0.39951463  1
  C  C5  1  0.41103529  0.41220544  0.60048537  1
  C  C6  1  0.58896471  0.08779456  0.10048537  1
  C  C7  1  0.91103529  0.58779456  0.89951463  1
  C  C8  1  0.70463591  0.29636707  0.79384094  1
  C  C9  1  0.79536409  0.79636707  0.20615906  1
  C  C10  1  0.20463591  0.70363293  0.70615906  1
  C  C11  1  0.29536409  0.20363293  0.29384094  1
  C  C12  1  0.29536409  0.70363293  0.20615906  1
  C  C13  1  0.20463591  0.20363293  0.79384094  1
  C  C14  1  0.79536409  0.29636707  0.29384094  1
  C  C15  1  0.70463591  0.79636707  0.70615906  1
  Ni  Ni16  1  0.59851767  0.14392281  0.80718794  1
  Ni  Ni17  1  0.90148233  0.64392281  0.19281206  1
  Ni  Ni18  1  0.09851767  0.85607719  0.69281206  1
  Ni  Ni19  1  0.40148233  0.35607719  0.30718794  1
  Ni  Ni20  1  0.40148233  0.85607719  0.19281206  1
  Ni  Ni21  1  0.09851767  0.35607719  0.80718794  1
  Ni  Ni22  1  0.90148233  0.14392281  0.30718794  1
  Ni  Ni23  1  0.59851767  0.64392281  0.69281206  1
  Ni  Ni24  1  0.56642169  0.22020343  0.69829213  1
  Ni  Ni25  1  0.93357831  0.72020343  0.30170787  1
  Ni  Ni26  1  0.06642169  0.77979657  0.80170787  1
  Ni  Ni27  1  0.43357831  0.27979657  0.19829213  1
  Ni  Ni28  1  0.43357831  0.77979657  0.30170787  1
  Ni  Ni29  1  0.06642169  0.27979657  0.69829213  1
  Ni  Ni30  1  0.93357831  0.22020343  0.19829213  1
  Ni  Ni31  1  0.56642169  0.72020343  0.80170787  1
  Ni  Ni32  1  0.68033253  0.14073333  0.69833630  1
  Ni  Ni33  1  0.81966747  0.64073333  0.30166370  1
  Ni  Ni34  1  0.18033253  0.85926667  0.80166370  1
  Ni  Ni35  1  0.31966747  0.35926667  0.19833630  1
  Ni  Ni36  1  0.31966747  0.85926667  0.30166370  1
  Ni  Ni37  1  0.18033253  0.35926667  0.69833630  1
  Ni  Ni38  1  0.81966747  0.14073333  0.19833630  1
  Ni  Ni39  1  0.68033253  0.64073333  0.80166370  1
  Ni  Ni40  1  0.80576892  0.32100689  0.64511889  1
  Ni  Ni41  1  0.69423108  0.82100689  0.35488111  1
  Ni  Ni42  1  0.30576892  0.67899311  0.85488111  1
  Ni  Ni43  1  0.19423108  0.17899311  0.14511889  1
  Ni  Ni44  1  0.19423108  0.67899311  0.35488111  1
  Ni  Ni45  1  0.30576892  0.17899311  0.64511889  1
  Ni  Ni46  1  0.69423108  0.32100689  0.14511889  1
  Ni  Ni47  1  0.80576892  0.82100689  0.85488111  1
  Ni  Ni48  1  0.69126265  0.40022531  0.64510309  1
  Ni  Ni49  1  0.80873735  0.90022531  0.35489691  1
  Ni  Ni50  1  0.19126265  0.59977469  0.85489691  1
  Ni  Ni51  1  0.30873735  0.09977469  0.14510309  1
  Ni  Ni52  1  0.30873735  0.59977469  0.35489691  1
  Ni  Ni53  1  0.19126265  0.09977469  0.64510309  1
  Ni  Ni54  1  0.80873735  0.40022531  0.14510309  1
  Ni  Ni55  1  0.69126265  0.90022531  0.85489691  1
  Ni  Ni56  1  0.80153421  0.43670320  0.71946615  1
  Ni  Ni57  1  0.69846579  0.93670320  0.28053385  1
  Ni  Ni58  1  0.30153421  0.56329680  0.78053385  1
  Ni  Ni59  1  0.19846579  0.06329680  0.21946615  1
  Ni  Ni60  1  0.19846579  0.56329680  0.28053385  1
  Ni  Ni61  1  0.30153421  0.06329680  0.71946615  1
  Ni  Ni62  1  0.69846579  0.43670320  0.21946615  1
  Ni  Ni63  1  0.80153421  0.93670320  0.78053385  1
  Ni  Ni64  1  0.77659849  0.19906419  0.92969974  1
  Ni  Ni65  1  0.72340151  0.69906419  0.07030026  1
  Ni  Ni66  1  0.27659849  0.80093581  0.57030026  1
  Ni  Ni67  1  0.22340151  0.30093581  0.42969974  1
  Ni  Ni68  1  0.22340151  0.80093581  0.07030026  1
  Ni  Ni69  1  0.27659849  0.30093581  0.92969974  1
  Ni  Ni70  1  0.72340151  0.19906419  0.42969974  1
  Ni  Ni71  1  0.77659849  0.69906419  0.57030026  1
  Ni  Ni72  1  0.85799460  0.19511828  0.82151941  1
  Ni  Ni73  1  0.64200540  0.69511828  0.17848059  1
  Ni  Ni74  1  0.35799460  0.80488172  0.67848059  1
  Ni  Ni75  1  0.14200540  0.30488172  0.32151941  1
  Ni  Ni76  1  0.14200540  0.80488172  0.17848059  1
  Ni  Ni77  1  0.35799460  0.30488172  0.82151941  1
  Ni  Ni78  1  0.64200540  0.19511828  0.32151941  1
  Ni  Ni79  1  0.85799460  0.69511828  0.67848059  1
  Ni  Ni80  1  0.85558654  0.30977029  0.89879608  1
  Ni  Ni81  1  0.64441346  0.80977029  0.10120392  1
  Ni  Ni82  1  0.35558654  0.69022971  0.60120392  1
  Ni  Ni83  1  0.14441346  0.19022971  0.39879608  1
  Ni  Ni84  1  0.14441346  0.69022971  0.10120392  1
  Ni  Ni85  1  0.35558654  0.19022971  0.89879608  1
  Ni  Ni86  1  0.64441346  0.30977029  0.39879608  1
  Ni  Ni87  1  0.85558654  0.80977029  0.60120392  1
  Ni  Ni88  1  0.59273381  0.32917613  0.93261610  1
  Ni  Ni89  1  0.90726619  0.82917613  0.06738390  1
  Ni  Ni90  1  0.09273381  0.67082387  0.56738390  1
  Ni  Ni91  1  0.40726619  0.17082387  0.43261610  1
  Ni  Ni92  1  0.40726619  0.67082387  0.06738390  1
  Ni  Ni93  1  0.09273381  0.17082387  0.93261610  1
  Ni  Ni94  1  0.90726619  0.32917613  0.43261610  1
  Ni  Ni95  1  0.59273381  0.82917613  0.56738390  1
  Ni  Ni96  1  0.67028549  0.44096945  0.90147286  1
  Ni  Ni97  1  0.82971451  0.94096945  0.09852714  1
  Ni  Ni98  1  0.17028549  0.55903055  0.59852714  1
  Ni  Ni99  1  0.32971451  0.05903055  0.40147286  1
  Ni  Ni100  1  0.32971451  0.55903055  0.09852714  1
  Ni  Ni101  1  0.17028549  0.05903055  0.90147286  1
  Ni  Ni102  1  0.82971451  0.44096945  0.40147286  1
  Ni  Ni103  1  0.67028549  0.94096945  0.59852714  1
  Ni  Ni104  1  0.55895301  0.40747031  0.82615101  1
  Ni  Ni105  1  0.94104699  0.90747031  0.17384899  1
  Ni  Ni106  1  0.05895301  0.59252969  0.67384899  1
  Ni  Ni107  1  0.44104699  0.09252969  0.32615101  1
  Ni  Ni108  1  0.44104699  0.59252969  0.17384899  1
  Ni  Ni109  1  0.05895301  0.09252969  0.82615101  1
  Ni  Ni110  1  0.94104699  0.40747031  0.32615101  1
  Ni  Ni111  1  0.55895301  0.90747031  0.67384899  1
  Cu  Cu112  1  0.62997172  0.18985690  0.74488235  1
  Cu  Cu113  1  0.87002828  0.68985690  0.25511765  1
  Cu  Cu114  1  0.12997172  0.81014310  0.75511765  1
  Cu  Cu115  1  0.37002828  0.31014310  0.24488235  1
  Cu  Cu116  1  0.37002828  0.81014310  0.25511765  1
  Cu  Cu117  1  0.12997172  0.31014310  0.74488235  1
  Cu  Cu118  1  0.87002828  0.18985690  0.24488235  1
  Cu  Cu119  1  0.62997172  0.68985690  0.75511765  1
  Cu  Cu120  1  0.75556406  0.37090896  0.69111664  1
  Cu  Cu121  1  0.74443594  0.87090896  0.30888336  1
  Cu  Cu122  1  0.25556406  0.62909104  0.80888336  1
  Cu  Cu123  1  0.24443594  0.12909104  0.19111664  1
  Cu  Cu124  1  0.24443594  0.62909104  0.30888336  1
  Cu  Cu125  1  0.25556406  0.12909104  0.69111664  1
  Cu  Cu126  1  0.74443594  0.37090896  0.19111664  1
  Cu  Cu127  1  0.75556406  0.87090896  0.80888336  1
  Cu  Cu128  1  0.80910288  0.24570700  0.86816439  1
  Cu  Cu129  1  0.69089712  0.74570700  0.13183561  1
  Cu  Cu130  1  0.30910288  0.75429300  0.63183561  1
  Cu  Cu131  1  0.19089712  0.25429300  0.36816439  1
  Cu  Cu132  1  0.19089712  0.75429300  0.13183561  1
  Cu  Cu133  1  0.30910288  0.25429300  0.86816439  1
  Cu  Cu134  1  0.69089712  0.24570700  0.36816439  1
  Cu  Cu135  1  0.80910288  0.74570700  0.63183561  1
  Cu  Cu136  1  0.62362763  0.37672359  0.87094538  1
  Cu  Cu137  1  0.87637237  0.87672359  0.12905462  1
  Cu  Cu138  1  0.12362763  0.62327641  0.62905462  1
  Cu  Cu139  1  0.37637237  0.12327641  0.37094538  1
  Cu  Cu140  1  0.37637237  0.62327641  0.12905462  1
  Cu  Cu141  1  0.12362763  0.12327641  0.87094538  1
  Cu  Cu142  1  0.87637237  0.37672359  0.37094538  1
  Cu  Cu143  1  0.62362763  0.87672359  0.62905462  1
  C  C144  1  0.95578683  0.20358368  0.57393813  1
  C  C145  1  0.54421317  0.70358368  0.42606187  1
  C  C146  1  0.45578683  0.79641632  0.92606187  1
  C  C147  1  0.04421317  0.29641632  0.07393813  1
  C  C148  1  0.04421317  0.79641632  0.42606187  1
  C  C149  1  0.45578683  0.29641632  0.57393813  1
  C  C150  1  0.54421317  0.20358368  0.07393813  1
  C  C151  1  0.95578683  0.70358368  0.92606187  1
  C  C152  1  0.79633335  0.06919039  0.55159433  1
  C  C153  1  0.70366665  0.56919039  0.44840567  1
  C  C154  1  0.29633335  0.93080961  0.94840567  1
  C  C155  1  0.20366665  0.43080961  0.05159433  1
  C  C156  1  0.20366665  0.93080961  0.44840567  1
  C  C157  1  0.29633335  0.43080961  0.55159433  1
  C  C158  1  0.70366665  0.06919039  0.05159433  1
  C  C159  1  0.79633335  0.56919039  0.94840567  1
  C  C160  1  0.91212036  0.06480263  0.72076952  1
  C  C161  1  0.58787964  0.56480263  0.27923048  1
  C  C162  1  0.41212036  0.93519737  0.77923048  1
  C  C163  1  0.08787964  0.43519737  0.22076952  1
  C  C164  1  0.08787964  0.93519737  0.27923048  1
  C  C165  1  0.41212036  0.43519737  0.72076952  1
  C  C166  1  0.58787964  0.06480263  0.22076952  1
  C  C167  1  0.91212036  0.56480263  0.77923048  1
  C  C168  1  0.00048046  0.98963310  0.55344077  1
  C  C169  1  0.49951954  0.48963310  0.44655923  1
  C  C170  1  0.50048046  0.01036690  0.94655923  1
  C  C171  1  0.99951954  0.51036690  0.05344077  1
  C  C172  1  0.99951954  0.01036690  0.44655923  1
  C  C173  1  0.50048046  0.51036690  0.55344077  1
  C  C174  1  0.49951954  0.98963310  0.05344077  1
  C  C175  1  0.00048046  0.48963310  0.94655923  1
