# generated using pymatgen
data_CuNiC8
_symmetry_space_group_name_H-M   'P 1'
_cell_length_a   5.29886577
_cell_length_b   6.69626159
_cell_length_c   13.19731079
_cell_angle_alpha   91.12979597
_cell_angle_beta   99.42106350
_cell_angle_gamma   76.44723457
_symmetry_Int_Tables_number   1
_chemical_formula_structural   CuNiC8
_chemical_formula_sum   'Cu4 Ni4 C32'
_cell_volume   449.01041058
_cell_formula_units_Z   4
loop_
 _symmetry_equiv_pos_site_id
 _symmetry_equiv_pos_as_xyz
  1  'x, y, z'
loop_
 _atom_site_type_symbol
 _atom_site_label
 _atom_site_symmetry_multiplicity
 _atom_site_fract_x
 _atom_site_fract_y
 _atom_site_fract_z
 _atom_site_occupancy
  Ni  Ni0  1  0.12769300  0.24470900  0.37760800  1
  Ni  Ni1  1  0.62756400  0.24472900  0.87766300  1
  Ni  Ni2  1  0.37241100  0.75527100  0.12233600  1
  Ni  Ni3  1  0.87218900  0.75528600  0.62238700  1
  Cu  Cu4  1  0.19947200  0.10077600  0.94952800  1
  Cu  Cu5  1  0.80051900  0.89920900  0.05046300  1
  Cu  Cu6  1  0.69960400  0.10098500  0.44959500  1
  Cu  Cu7  1  0.30034000  0.89894600  0.55038000  1
  C  C8  1  0.43960000  0.21024300  0.19316800  1
  C  C9  1  0.93965300  0.21023300  0.69320900  1
  C  C10  1  0.64841200  0.61359500  0.39484500  1
  C  C11  1  0.14846200  0.61358800  0.89488100  1
  C  C12  1  0.85154900  0.38641600  0.10511700  1
  C  C13  1  0.35160700  0.38640000  0.60515600  1
  C  C14  1  0.06036300  0.78976000  0.30678900  1
  C  C15  1  0.56041500  0.78976400  0.80683200  1
  C  C16  1  0.68997000  0.31887200  0.19210800  1
  C  C17  1  0.18996100  0.31894600  0.69209400  1
  C  C18  1  0.34265600  0.61576000  0.34053500  1
  C  C19  1  0.84264700  0.61573200  0.84055700  1
  C  C20  1  0.81003500  0.68107500  0.30790500  1
  C  C21  1  0.31004100  0.68113700  0.80789100  1
  C  C22  1  0.15736000  0.38426400  0.15945100  1
  C  C23  1  0.65735700  0.38424100  0.65947000  1
  C  C24  1  0.43878600  0.13787900  0.30935000  1
  C  C25  1  0.93891100  0.13796500  0.80934500  1
  C  C26  1  0.80151400  0.38128200  0.43101400  1
  C  C27  1  0.30162500  0.38133700  0.93103600  1
  C  C28  1  0.06110900  0.86204000  0.19065700  1
  C  C29  1  0.56125900  0.86214800  0.69066400  1
  C  C30  1  0.69839400  0.61867100  0.06896800  1
  C  C31  1  0.19853100  0.61874600  0.56899900  1
  C  C32  1  0.86481000  0.21219800  0.01527800  1
  C  C33  1  0.36468800  0.21229100  0.51524700  1
  C  C34  1  0.04430900  0.96951400  0.39390000  1
  C  C35  1  0.54437000  0.96955300  0.89386400  1
  C  C36  1  0.45563100  0.03045400  0.10613800  1
  C  C37  1  0.95566300  0.03051400  0.60607800  1
  C  C38  1  0.63531300  0.78768100  0.48476600  1
  C  C39  1  0.13519800  0.78779300  0.98472500  1
