# generated using pymatgen
data_CuNiC8
_symmetry_space_group_name_H-M   'P 1'
_cell_length_a   7.91885700
_cell_length_b   7.92900000
_cell_length_c   7.93472133
_cell_angle_alpha   89.90755086
_cell_angle_beta   90.00000000
_cell_angle_gamma   90.00000000
_symmetry_Int_Tables_number   1
_chemical_formula_structural   CuNiC8
_chemical_formula_sum   'Cu4 Ni4 C32'
_cell_volume   498.20953120
_cell_formula_units_Z   4
loop_
 _symmetry_equiv_pos_site_id
 _symmetry_equiv_pos_as_xyz
  1  'x, y, z'
loop_
 _atom_site_type_symbol
 _atom_site_label
 _atom_site_symmetry_multiplicity
 _atom_site_fract_x
 _atom_site_fract_y
 _atom_site_fract_z
 _atom_site_occupancy
  Ni  Ni0  1  0.50000000  0.75103200  0.24808800  1
  Ni  Ni1  1  0.50000000  0.24790200  0.24762600  1
  Ni  Ni2  1  0.00000000  0.75221600  0.75169200  1
  Ni  Ni3  1  0.00000000  0.24879100  0.24851800  1
  Cu  Cu4  1  0.50000000  0.75511400  0.75332000  1
  Cu  Cu5  1  0.50000000  0.24557600  0.75228400  1
  Cu  Cu6  1  0.00000000  0.24472200  0.75400500  1
  Cu  Cu7  1  0.00000000  0.75460500  0.24556700  1
  C  C8  1  0.25010100  0.49991900  0.50465300  1
  C  C9  1  0.74989900  0.49991900  0.50465300  1
  C  C10  1  0.25001200  0.99993300  0.99974200  1
  C  C11  1  0.24996100  0.49996600  0.00028800  1
  C  C12  1  0.24995200  0.99971100  0.50060900  1
  C  C13  1  0.74998800  0.99993300  0.99974200  1
  C  C14  1  0.75003900  0.49996600  0.00028800  1
  C  C15  1  0.75004800  0.99971100  0.50060900  1
  C  C16  1  0.50000000  0.99987600  0.98605200  1
  C  C17  1  0.50000000  0.50019300  0.98493900  1
  C  C18  1  0.50000000  0.00005700  0.51497500  1
  C  C19  1  0.50000000  0.50000100  0.50576100  1
  C  C20  1  0.00000000  0.00127400  0.99575800  1
  C  C21  1  0.00000000  0.49927100  0.99764400  1
  C  C22  1  0.00000000  0.00159300  0.50461100  1
  C  C23  1  0.00000000  0.49921000  0.50460800  1
  C  C24  1  0.25487300  0.00513300  0.74857200  1
  C  C25  1  0.25276900  0.49790400  0.74315400  1
  C  C26  1  0.24395400  0.99366400  0.25158800  1
  C  C27  1  0.24629700  0.50322600  0.25939000  1
  C  C28  1  0.74512700  0.00513300  0.74857200  1
  C  C29  1  0.74723100  0.49790400  0.74315400  1
  C  C30  1  0.75604600  0.99366400  0.25158800  1
  C  C31  1  0.75370300  0.50322600  0.25939000  1
  C  C32  1  0.25112000  0.74818300  0.99621900  1
  C  C33  1  0.24987700  0.25187800  0.98579100  1
  C  C34  1  0.25066700  0.74208500  0.50369700  1
  C  C35  1  0.24981900  0.25768400  0.50857200  1
  C  C36  1  0.74888000  0.74818300  0.99621900  1
  C  C37  1  0.75012300  0.25187800  0.98579100  1
  C  C38  1  0.74933300  0.74208500  0.50369700  1
  C  C39  1  0.75018100  0.25768400  0.50857200  1
