# generated using pymatgen
data_Cu3NiC36
_symmetry_space_group_name_H-M   'P 1'
_cell_length_a   9.84614800
_cell_length_b   9.85533402
_cell_length_c   9.87553206
_cell_angle_alpha   86.99010347
_cell_angle_beta   87.08762744
_cell_angle_gamma   87.20487068
_symmetry_Int_Tables_number   1
_chemical_formula_structural   Cu3NiC36
_chemical_formula_sum   'Cu6 Ni2 C72'
_cell_volume   954.71334549
_cell_formula_units_Z   2
loop_
 _symmetry_equiv_pos_site_id
 _symmetry_equiv_pos_as_xyz
  1  'x, y, z'
loop_
 _atom_site_type_symbol
 _atom_site_label
 _atom_site_symmetry_multiplicity
 _atom_site_fract_x
 _atom_site_fract_y
 _atom_site_fract_z
 _atom_site_occupancy
  C  C0  1  0.95350600  0.99603800  0.01740900  1
  C  C1  1  0.26456200  0.94818300  0.85759000  1
  C  C2  1  0.93305600  0.86681000  0.26937400  1
  C  C3  1  0.44821000  0.77365900  0.34956300  1
  C  C4  1  0.15209100  0.72540800  0.04900600  1
  C  C5  1  0.22861800  0.63256700  0.56688100  1
  C  C6  1  0.64039000  0.55442400  0.23683700  1
  C  C7  1  0.48233800  0.50546300  0.54754700  1
  C  C8  1  0.76641500  0.35570300  0.45734400  1
  C  C9  1  0.53170700  0.23219100  0.64977000  1
  C  C10  1  0.85211200  0.26756900  0.96377300  1
  C  C11  1  0.04801000  0.14663000  0.73472400  1
  Ni  Ni12  1  0.75524900  0.74983900  0.74308700  1
  Ni  Ni13  1  0.24396300  0.02878800  0.46956400  1
  Cu  Cu14  1  0.74024600  0.96972700  0.52255900  1
  Cu  Cu15  1  0.53541800  0.74992600  0.96286200  1
  Cu  Cu16  1  0.97737500  0.53059500  0.75956200  1
  Cu  Cu17  1  0.03484200  0.46815100  0.25169400  1
  Cu  Cu18  1  0.47185000  0.24925800  0.02772400  1
  Cu  Cu19  1  0.25365500  0.24816100  0.24962900  1
  C  C20  1  0.33115800  0.94772000  0.14291100  1
  C  C21  1  0.04651100  0.85416300  0.66925000  1
  C  C22  1  0.44567700  0.82793500  0.64393400  1
  C  C23  1  0.85418900  0.67200400  0.05173500  1
  C  C24  1  0.83143200  0.64645200  0.45299300  1
  C  C25  1  0.35510100  0.55028900  0.16932700  1
  C  C26  1  0.65653700  0.45243700  0.82090700  1
  C  C27  1  0.17805700  0.35401800  0.55002000  1
  C  C28  1  0.15079600  0.32589000  0.95359400  1
  C  C29  1  0.54774300  0.17305000  0.34914000  1
  C  C30  1  0.95369500  0.14730000  0.32603600  1
  C  C31  1  0.67822100  0.04736600  0.84216800  1
  C  C32  1  0.37424100  0.96740200  0.59978900  1
  C  C33  1  0.09043600  0.94538000  0.77803300  1
  C  C34  1  0.67334900  0.88520100  0.86974000  1
  C  C35  1  0.88513800  0.87794100  0.66323900  1
  C  C36  1  0.30780300  0.90841400  0.29548900  1
  C  C37  1  0.10976100  0.89253500  0.52653200  1
  C  C38  1  0.21924200  0.90551100  0.05256500  1
  C  C39  1  0.47120400  0.88246000  0.09689100  1
  C  C40  1  0.60257900  0.83565400  0.61390400  1
  C  C41  1  0.41148200  0.81126000  0.79950100  1
  C  C42  1  0.80544200  0.80098200  0.41739800  1
  C  C43  1  0.93836900  0.78805200  0.09695000  1
  C  C44  1  0.88484600  0.66641500  0.89492600  1
  C  C45  1  0.40093200  0.71315600  0.55892900  1
  C  C46  1  0.08318700  0.70037200  0.69675900  1
  C  C47  1  0.69797900  0.68746400  0.08626600  1
  C  C48  1  0.83629200  0.62263000  0.61461200  1
  C  C49  1  0.62778500  0.61430500  0.82527600  1
  C  C50  1  0.97218100  0.60553300  0.38926200  1
  C  C51  1  0.39496700  0.62075900  0.03034400  1
  C  C52  1  0.44389100  0.59506700  0.28065700  1
  C  C53  1  0.71959300  0.55693900  0.41041000  1
  C  C54  1  0.19947800  0.58448500  0.19450500  1
  C  C55  1  0.90075700  0.53301900  0.12030700  1
  C  C56  1  0.11090000  0.47004000  0.89391600  1
  C  C57  1  0.81347200  0.42031600  0.81886500  1
  C  C58  1  0.59134100  0.40730500  0.69533300  1
  C  C59  1  0.29559600  0.43880400  0.58532000  1
  C  C60  1  0.60148600  0.38758300  0.95648500  1
  C  C61  1  0.04017500  0.40691900  0.61536600  1
  C  C62  1  0.37837700  0.39113000  0.16287900  1
  C  C63  1  0.16820700  0.37519600  0.38855000  1
  C  C64  1  0.92000100  0.30360000  0.31284700  1
  C  C65  1  0.30270900  0.29172100  0.92199100  1
  C  C66  1  0.59418400  0.27886100  0.44333200  1
  C  C67  1  0.12270000  0.32866800  0.11499400  1
  C  C68  1  0.05460600  0.22055800  0.90859500  1
  C  C69  1  0.57794100  0.20589000  0.19700400  1
  C  C70  1  0.19078300  0.20045900  0.59117700  1
  C  C71  1  0.38659700  0.16820600  0.38026500  1
  C  C72  1  0.54206100  0.11284900  0.89522900  1
  C  C73  1  0.80338100  0.09184200  0.90929400  1
  C  C74  1  0.88402100  0.09870100  0.46200100  1
  C  C75  1  0.68210000  0.08025200  0.68567200  1
  C  C76  1  0.11579800  0.11961300  0.33762100  1
  C  C77  1  0.91791800  0.06558600  0.20717400  1
  C  C78  1  0.33712900  0.10830100  0.12287600  1
  C  C79  1  0.60811400  0.02894800  0.38915500  1
