# generated using pymatgen
data_Cu4(Ni2C3)3
_symmetry_space_group_name_H-M   'P 1'
_cell_length_a   9.58601785
_cell_length_b   15.83432707
_cell_length_c   22.18897483
_cell_angle_alpha   90.00000000
_cell_angle_beta   90.00000000
_cell_angle_gamma   90.00000000
_symmetry_Int_Tables_number   1
_chemical_formula_structural   Cu4(Ni2C3)3
_chemical_formula_sum   'Cu32 Ni48 C72'
_cell_volume   3368.02326091
_cell_formula_units_Z   8
loop_
 _symmetry_equiv_pos_site_id
 _symmetry_equiv_pos_as_xyz
  1  'x, y, z'
loop_
 _atom_site_type_symbol
 _atom_site_label
 _atom_site_symmetry_multiplicity
 _atom_site_fract_x
 _atom_site_fract_y
 _atom_site_fract_z
 _atom_site_occupancy
  C  C0  1  0.22092932  0.66145979  0.93242821  1
  C  C1  1  0.77907068  0.16145979  0.06757179  1
  C  C2  1  0.72092932  0.16145979  0.56757179  1
  C  C3  1  0.27907068  0.66145979  0.43242821  1
  C  C4  1  0.26787663  0.41686366  0.18773158  1
  C  C5  1  0.73212337  0.91686366  0.81226842  1
  C  C6  1  0.76787663  0.91686366  0.31226842  1
  C  C7  1  0.23212337  0.41686366  0.68773158  1
  C  C8  1  0.93907479  0.57327262  0.29546809  1
  C  C9  1  0.06092521  0.07327262  0.70453191  1
  C  C10  1  0.43907479  0.07327262  0.20453191  1
  C  C11  1  0.56092521  0.57327262  0.79546809  1
  C  C12  1  0.83089971  0.63552788  0.34405304  1
  C  C13  1  0.16910029  0.13552788  0.65594696  1
  C  C14  1  0.33089971  0.13552788  0.15594696  1
  C  C15  1  0.66910029  0.63552788  0.84405304  1
  C  C16  1  0.88608071  0.53272947  0.36722345  1
  C  C17  1  0.11391929  0.03272947  0.63277655  1
  C  C18  1  0.38608071  0.03272947  0.13277655  1
  C  C19  1  0.61391929  0.53272947  0.86722345  1
  C  C20  1  0.88606368  0.46488857  0.30268592  1
  C  C21  1  0.11393632  0.96488857  0.69731408  1
  C  C22  1  0.38606368  0.96488857  0.19731408  1
  C  C23  1  0.61393632  0.46488857  0.80268592  1
  C  C24  1  0.82989581  0.52632868  0.23933059  1
  C  C25  1  0.17010419  0.02632868  0.76066941  1
  C  C26  1  0.32989581  0.02632868  0.26066941  1
  C  C27  1  0.67010419  0.52632868  0.73933059  1
  C  C28  1  0.79560124  0.63209137  0.26480541  1
  C  C29  1  0.20439876  0.13209137  0.73519459  1
  C  C30  1  0.29560124  0.13209137  0.23519459  1
  C  C31  1  0.70439876  0.63209137  0.76480541  1
  C  C32  1  0.71068275  0.56612988  0.38113302  1
  C  C33  1  0.28931725  0.06612988  0.61886698  1
  C  C34  1  0.21068275  0.06612988  0.11886698  1
  C  C35  1  0.78931725  0.56612988  0.88113302  1
  C  C36  1  0.74482622  0.46076914  0.35540107  1
  C  C37  1  0.25517378  0.96076914  0.64459893  1
  C  C38  1  0.24482622  0.96076914  0.14459893  1
  C  C39  1  0.75517378  0.46076914  0.85540107  1
  C  C40  1  0.70957124  0.45657545  0.27595751  1
  C  C41  1  0.29042876  0.95657545  0.72404249  1
  C  C42  1  0.20957124  0.95657545  0.22404249  1
  C  C43  1  0.79042876  0.45657545  0.77595751  1
  C  C44  1  0.65428623  0.56016557  0.25301094  1
  C  C45  1  0.34571377  0.06016557  0.74698906  1
  C  C46  1  0.15428623  0.06016557  0.24698906  1
  C  C47  1  0.84571377  0.56016557  0.75301094  1
  C  C48  1  0.65457918  0.62737661  0.31796522  1
  C  C49  1  0.34542082  0.12737661  0.68203478  1
  C  C50  1  0.15457918  0.12737661  0.18203478  1
  C  C51  1  0.84542082  0.62737661  0.81796522  1
  C  C52  1  0.60165692  0.51898515  0.32465038  1
  C  C53  1  0.39834308  0.01898515  0.67534962  1
  C  C54  1  0.10165692  0.01898515  0.17534962  1
  C  C55  1  0.89834308  0.51898515  0.82465038  1
  C  C56  1  0.13034757  0.92652951  0.43833167  1
  C  C57  1  0.86965243  0.42652951  0.56166833  1
  C  C58  1  0.63034757  0.42652951  0.06166833  1
  C  C59  1  0.36965243  0.92652951  0.93833167  1
  C  C60  1  0.12534099  0.66215211  0.11834133  1
  C  C61  1  0.87465901  0.16215211  0.88165867  1
  C  C62  1  0.62534099  0.16215211  0.38165867  1
  C  C63  1  0.37465901  0.66215211  0.61834133  1
  C  C64  1  0.58351914  0.71712396  0.05882118  1
  C  C65  1  0.41648086  0.21712396  0.94117882  1
  C  C66  1  0.08351914  0.21712396  0.44117882  1
  C  C67  1  0.91648086  0.71712396  0.55882118  1
  C  C68  1  0.11056911  0.40600235  0.00274138  1
  C  C69  1  0.88943089  0.90600235  0.99725862  1
  C  C70  1  0.61056911  0.90600235  0.49725862  1
  C  C71  1  0.38943089  0.40600235  0.50274138  1
  Ni  Ni72  1  0.11696953  0.60244883  0.28064660  1
  Ni  Ni73  1  0.88303047  0.10244883  0.71935340  1
  Ni  Ni74  1  0.61696953  0.10244883  0.21935340  1
  Ni  Ni75  1  0.38303047  0.60244883  0.78064660  1
  Ni  Ni76  1  0.89745189  0.72865125  0.38029477  1
  Ni  Ni77  1  0.10254811  0.22865125  0.61970523  1
  Ni  Ni78  1  0.39745189  0.22865125  0.11970523  1
  Ni  Ni79  1  0.60254811  0.72865125  0.88029477  1
  Ni  Ni80  1  0.00788077  0.51700563  0.42778427  1
  Ni  Ni81  1  0.99211923  0.01700563  0.57221573  1
  Ni  Ni82  1  0.50788077  0.01700563  0.07221573  1
  Ni  Ni83  1  0.49211923  0.51700563  0.92778427  1
  Ni  Ni84  1  0.00796881  0.37932993  0.29632284  1
  Ni  Ni85  1  0.99203119  0.87932993  0.70367716  1
  Ni  Ni86  1  0.50796881  0.87932993  0.20367716  1
  Ni  Ni87  1  0.49203119  0.37932993  0.79632284  1
  Ni  Ni88  1  0.89289906  0.50453300  0.16435379  1
  Ni  Ni89  1  0.10710094  0.00453300  0.83564621  1
  Ni  Ni90  1  0.39289906  0.00453300  0.33564621  1
  Ni  Ni91  1  0.60710094  0.50453300  0.66435379  1
  Ni  Ni92  1  0.82061298  0.72248374  0.21704519  1
  Ni  Ni93  1  0.17938702  0.22248374  0.78295481  1
  Ni  Ni94  1  0.32061298  0.22248374  0.28295481  1
  Ni  Ni95  1  0.67938702  0.72248374  0.71704519  1
  Ni  Ni96  1  0.64876684  0.58749142  0.45618891  1
  Ni  Ni97  1  0.35123316  0.08749142  0.54381109  1
  Ni  Ni98  1  0.14876684  0.08749142  0.04381109  1
  Ni  Ni99  1  0.85123316  0.58749142  0.95618891  1
  Ni  Ni100  1  0.71970702  0.37215656  0.40455847  1
  Ni  Ni101  1  0.28029298  0.87215656  0.59544153  1
  Ni  Ni102  1  0.21970702  0.87215656  0.09544153  1
  Ni  Ni103  1  0.78029298  0.37215656  0.90455847  1
  Ni  Ni104  1  0.64435789  0.36338707  0.23980402  1
  Ni  Ni105  1  0.35564211  0.86338707  0.76019598  1
  Ni  Ni106  1  0.14435789  0.86338707  0.26019598  1
  Ni  Ni107  1  0.85564211  0.36338707  0.73980402  1
  Ni  Ni108  1  0.53092706  0.57589888  0.19319070  1
  Ni  Ni109  1  0.46907294  0.07589888  0.80680930  1
  Ni  Ni110  1  0.03092706  0.07589888  0.30680930  1
  Ni  Ni111  1  0.96907294  0.57589888  0.69319070  1
  Ni  Ni112  1  0.53347870  0.71342485  0.32552168  1
  Ni  Ni113  1  0.46652130  0.21342485  0.67447832  1
  Ni  Ni114  1  0.03347870  0.21342485  0.17447832  1
  Ni  Ni115  1  0.96652130  0.71342485  0.82552168  1
  Ni  Ni116  1  0.42402072  0.48891200  0.33954469  1
  Ni  Ni117  1  0.57597928  0.98891200  0.66045531  1
  Ni  Ni118  1  0.92402072  0.98891200  0.16045531  1
  Ni  Ni119  1  0.07597928  0.48891200  0.83954469  1
  Cu  Cu120  1  0.98510034  0.92430597  0.42000078  1
  Cu  Cu121  1  0.01489966  0.42430597  0.57999922  1
  Cu  Cu122  1  0.48510034  0.42430597  0.07999922  1
  Cu  Cu123  1  0.51489966  0.92430597  0.92000078  1
  Cu  Cu124  1  0.20708022  0.84744806  0.43634689  1
  Cu  Cu125  1  0.79291978  0.34744806  0.56365311  1
  Cu  Cu126  1  0.70708022  0.34744806  0.06365311  1
  Cu  Cu127  1  0.29291978  0.84744806  0.93634689  1
  Cu  Cu128  1  0.22468417  0.59346201  0.12440283  1
  Cu  Cu129  1  0.77531583  0.09346201  0.87559717  1
  Cu  Cu130  1  0.72468417  0.09346201  0.37559717  1
  Cu  Cu131  1  0.27531583  0.59346201  0.62440283  1
  Cu  Cu132  1  0.07816650  0.68129368  0.05748437  1
  Cu  Cu133  1  0.92183350  0.18129368  0.94251563  1
  Cu  Cu134  1  0.57816650  0.18129368  0.44251563  1
  Cu  Cu135  1  0.42183350  0.68129368  0.55748437  1
  Cu  Cu136  1  0.44477072  0.70048841  0.03537485  1
  Cu  Cu137  1  0.55522928  0.20048841  0.96462515  1
  Cu  Cu138  1  0.94477072  0.20048841  0.46462515  1
  Cu  Cu139  1  0.05522928  0.70048841  0.53537485  1
  Cu  Cu140  1  0.64943219  0.79593777  0.04177341  1
  Cu  Cu141  1  0.35056781  0.29593777  0.95822659  1
  Cu  Cu142  1  0.14943219  0.29593777  0.45822659  1
  Cu  Cu143  1  0.85056781  0.79593777  0.54177341  1
  Cu  Cu144  1  0.18038663  0.48677823  0.99612163  1
  Cu  Cu145  1  0.81961337  0.98677823  0.00387837  1
  Cu  Cu146  1  0.68038663  0.98677823  0.50387837  1
  Cu  Cu147  1  0.31961337  0.48677823  0.49612163  1
  Cu  Cu148  1  0.09860364  0.37285094  0.06356021  1
  Cu  Cu149  1  0.90139636  0.87285094  0.93643979  1
  Cu  Cu150  1  0.59860364  0.87285094  0.43643979  1
  Cu  Cu151  1  0.40139636  0.37285094  0.56356021  1
