# generated using pymatgen
data_Cu(NiC3)2
_symmetry_space_group_name_H-M   'P 1'
_cell_length_a   8.93127454
_cell_length_b   8.93127454
_cell_length_c   6.09899490
_cell_angle_alpha   70.66252556
_cell_angle_beta   70.66252556
_cell_angle_gamma   39.64555805
_symmetry_Int_Tables_number   1
_chemical_formula_structural   Cu(NiC3)2
_chemical_formula_sum   'Cu2 Ni4 C12'
_cell_volume   290.54173526
_cell_formula_units_Z   2
loop_
 _symmetry_equiv_pos_site_id
 _symmetry_equiv_pos_as_xyz
  1  'x, y, z'
loop_
 _atom_site_type_symbol
 _atom_site_label
 _atom_site_symmetry_multiplicity
 _atom_site_fract_x
 _atom_site_fract_y
 _atom_site_fract_z
 _atom_site_occupancy
  Ni  Ni0  1  0.37612200  0.86977600  0.08351200  1
  Ni  Ni1  1  0.12276900  0.61584500  0.33703400  1
  Ni  Ni2  1  0.61584500  0.12276900  0.83703400  1
  Ni  Ni3  1  0.86977600  0.37612200  0.58351200  1
  Cu  Cu4  1  0.72631600  0.26271800  0.19006200  1
  Cu  Cu5  1  0.26271800  0.72631600  0.69006200  1
  C  C6  1  0.49725600  0.99761600  0.50248100  1
  C  C7  1  0.99761600  0.49725600  0.00248100  1
  C  C8  1  0.60277600  0.39312500  0.83036800  1
  C  C9  1  0.39312500  0.60277600  0.33036800  1
  C  C10  1  0.19932300  0.00076100  0.74787900  1
  C  C11  1  0.79271200  0.98877500  0.45716300  1
  C  C12  1  0.00076100  0.19932300  0.24787900  1
  C  C13  1  0.98877500  0.79271200  0.95716300  1
  C  C14  1  0.26208600  0.35514400  0.68733200  1
  C  C15  1  0.72830500  0.64986500  0.80826100  1
  C  C16  1  0.64986500  0.72830500  0.30826100  1
  C  C17  1  0.35514400  0.26208600  0.18733200  1
