# generated using pymatgen
data_CuNi4C31
_symmetry_space_group_name_H-M   'P 1'
_cell_length_a   7.10708384
_cell_length_b   13.61772656
_cell_length_c   22.36978159
_cell_angle_alpha   92.44900451
_cell_angle_beta   90.00000000
_cell_angle_gamma   90.00000000
_symmetry_Int_Tables_number   1
_chemical_formula_structural   CuNi4C31
_chemical_formula_sum   'Cu4 Ni16 C124'
_cell_volume   2163.02205400
_cell_formula_units_Z   4
loop_
 _symmetry_equiv_pos_site_id
 _symmetry_equiv_pos_as_xyz
  1  'x, y, z'
loop_
 _atom_site_type_symbol
 _atom_site_label
 _atom_site_symmetry_multiplicity
 _atom_site_fract_x
 _atom_site_fract_y
 _atom_site_fract_z
 _atom_site_occupancy
  Ni  Ni0  1  0.23009092  0.98630149  0.99688612  1
  Ni  Ni1  1  0.23009092  0.51369851  0.00311388  1
  Ni  Ni2  1  0.76990908  0.01369851  0.00311388  1
  Ni  Ni3  1  0.76990908  0.48630149  0.99688612  1
  Ni  Ni4  1  0.47314088  0.75000000  -0.00000000  1
  Ni  Ni5  1  0.52685912  0.25000000  -0.00000000  1
  Ni  Ni6  1  0.77229429  0.50133225  0.49013287  1
  Ni  Ni7  1  0.77229429  0.99866775  0.50986713  1
  Ni  Ni8  1  0.22770571  0.49866775  0.50986713  1
  Ni  Ni9  1  0.22770571  0.00133225  0.49013287  1
  Ni  Ni10  1  0.48703987  0.75000000  0.50000000  1
  Ni  Ni11  1  0.51296013  0.25000000  0.50000000  1
  Ni  Ni12  1  0.75194721  0.99583820  0.25224921  1
  Ni  Ni13  1  0.75194721  0.50416180  0.74775079  1
  Ni  Ni14  1  0.24805279  0.00416180  0.74775079  1
  Ni  Ni15  1  0.24805279  0.49583820  0.25224921  1
  Cu  Cu16  1  0.97483771  0.75000000  -0.00000000  1
  Cu  Cu17  1  0.02516229  0.25000000  -0.00000000  1
  Cu  Cu18  1  0.99212086  0.75000000  0.50000000  1
  Cu  Cu19  1  0.00787914  0.25000000  0.50000000  1
  C  C20  1  0.98499766  0.78048700  0.18260660  1
  C  C21  1  0.98499766  0.71951300  0.81739340  1
  C  C22  1  0.01500234  0.21951300  0.81739340  1
  C  C23  1  0.01500234  0.28048700  0.18260660  1
  C  C24  1  0.00645807  0.52546797  0.37285356  1
  C  C25  1  0.00645807  0.97453203  0.62714644  1
  C  C26  1  0.99354193  0.47453203  0.62714644  1
  C  C27  1  0.99354193  0.02546797  0.37285356  1
  C  C28  1  0.28514381  0.35283259  0.38747903  1
  C  C29  1  0.28514381  0.14716741  0.61252097  1
  C  C30  1  0.71485619  0.64716741  0.61252097  1
  C  C31  1  0.71485619  0.85283259  0.38747903  1
  C  C32  1  0.71078033  0.64018775  0.11118425  1
  C  C33  1  0.71078033  0.85981225  0.88881575  1
  C  C34  1  0.28921967  0.35981225  0.88881575  1
  C  C35  1  0.28921967  0.14018775  0.11118425  1
  C  C36  1  0.71605047  0.35776023  0.37764783  1
  C  C37  1  0.71605047  0.14223977  0.62235217  1
  C  C38  1  0.28394953  0.64223977  0.62235217  1
  C  C39  1  0.28394953  0.85776023  0.37764783  1
  C  C40  1  0.28226946  0.65405208  0.12349536  1
  C  C41  1  0.28226946  0.84594792  0.87650464  1
  C  C42  1  0.71773054  0.34594792  0.87650464  1
  C  C43  1  0.71773054  0.15405208  0.12349536  1
  C  C44  1  0.98568455  0.72032216  0.31508241  1
  C  C45  1  0.98568455  0.77967784  0.68491759  1
  C  C46  1  0.01431545  0.27967784  0.68491759  1
  C  C47  1  0.01431545  0.22032216  0.31508241  1
  C  C48  1  0.99201037  0.97750728  0.12800511  1
  C  C49  1  0.99201037  0.52249272  0.87199489  1
  C  C50  1  0.00798963  0.02249272  0.87199489  1
  C  C51  1  0.00798963  0.47750728  0.12800511  1
  C  C52  1  0.83934475  0.73737022  0.13168219  1
  C  C53  1  0.83934475  0.76262978  0.86831781  1
  C  C54  1  0.16065525  0.26262978  0.86831781  1
  C  C55  1  0.16065525  0.23737022  0.13168219  1
  C  C56  1  0.91837100  0.74552945  0.24789867  1
  C  C57  1  0.91837100  0.75447055  0.75210133  1
  C  C58  1  0.08162900  0.25447055  0.75210133  1
  C  C59  1  0.08162900  0.24552945  0.24789867  1
  C  C60  1  0.19781919  0.74461115  0.16708529  1
  C  C61  1  0.19781919  0.75538885  0.83291471  1
  C  C62  1  0.80218081  0.25538885  0.83291471  1
  C  C63  1  0.80218081  0.24461115  0.16708529  1
  C  C64  1  0.97686178  0.90061989  0.18386453  1
  C  C65  1  0.97686178  0.59938011  0.81613547  1
  C  C66  1  0.02313822  0.09938011  0.81613547  1
  C  C67  1  0.02313822  0.40061989  0.18386453  1
  C  C68  1  0.03171551  0.57781164  0.43819605  1
  C  C69  1  0.03171551  0.92218836  0.56180395  1
  C  C70  1  0.96828449  0.42218836  0.56180395  1
  C  C71  1  0.96828449  0.07781164  0.43819605  1
  C  C72  1  0.79981433  0.46961835  0.36614119  1
  C  C73  1  0.79981433  0.03038165  0.63385881  1
  C  C74  1  0.20018567  0.53038165  0.63385881  1
  C  C75  1  0.20018567  0.96961835  0.36614119  1
  C  C76  1  0.17154502  0.44346343  0.35472531  1
  C  C77  1  0.17154502  0.05653657  0.64527469  1
  C  C78  1  0.82845498  0.55653657  0.64527469  1
  C  C79  1  0.82845498  0.94346343  0.35472531  1
  C  C80  1  0.02302412  0.60152592  0.31693381  1
  C  C81  1  0.02302412  0.89847408  0.68306619  1
  C  C82  1  0.97697588  0.39847408  0.68306619  1
  C  C83  1  0.97697588  0.10152592  0.31693381  1
  C  C84  1  0.27785445  0.35355794  0.45879127  1
  C  C85  1  0.27785445  0.14644206  0.54120873  1
  C  C86  1  0.72214555  0.64644206  0.54120873  1
  C  C87  1  0.72214555  0.85355794  0.45879127  1
  C  C88  1  0.49475062  0.35714301  0.35729566  1
  C  C89  1  0.49475062  0.14285699  0.64270434  1
  C  C90  1  0.50524938  0.64285699  0.64270434  1
  C  C91  1  0.50524938  0.85714301  0.35729566  1
  C  C92  1  0.82193175  0.75011107  0.36322241  1
  C  C93  1  0.82193175  0.74988893  0.63677759  1
  C  C94  1  0.17806825  0.24988893  0.63677759  1
  C  C95  1  0.17806825  0.25011107  0.36322241  1
  C  C96  1  0.70820353  0.64292352  0.03920180  1
  C  C97  1  0.70820353  0.85707648  0.96079820  1
  C  C98  1  0.29179647  0.35707648  0.96079820  1
  C  C99  1  0.29179647  0.14292352  0.03920180  1
  C  C100  1  0.50468771  0.64836491  0.14298032  1
  C  C101  1  0.50468771  0.85163509  0.85701968  1
  C  C102  1  0.49531229  0.35163509  0.85701968  1
  C  C103  1  0.49531229  0.14836491  0.14298032  1
  C  C104  1  0.81194955  0.54197408  0.13743375  1
  C  C105  1  0.81194955  0.95802592  0.86256625  1
  C  C106  1  0.18805045  0.45802592  0.86256625  1
  C  C107  1  0.18805045  0.04197408  0.13743375  1
  C  C108  1  0.75069932  0.33352522  0.44655386  1
  C  C109  1  0.75069932  0.16647478  0.55344614  1
  C  C110  1  0.24930068  0.66647478  0.55344614  1
  C  C111  1  0.24930068  0.83352522  0.44655386  1
  C  C112  1  0.18109615  0.77811600  0.33073412  1
  C  C113  1  0.18109615  0.72188400  0.66926588  1
  C  C114  1  0.81890385  0.22188400  0.66926588  1
  C  C115  1  0.81890385  0.27811600  0.33073412  1
  C  C116  1  0.24204762  0.66733222  0.05402057  1
  C  C117  1  0.24204762  0.83266778  0.94597943  1
  C  C118  1  0.75795238  0.33266778  0.94597943  1
  C  C119  1  0.75795238  0.16733222  0.05402057  1
  C  C120  1  0.18619193  0.55152818  0.14795498  1
  C  C121  1  0.18619193  0.94847182  0.85204502  1
  C  C122  1  0.81380807  0.44847182  0.85204502  1
  C  C123  1  0.81380807  0.05152818  0.14795498  1
  C  C124  1  0.98298546  0.92561076  0.06252078  1
  C  C125  1  0.98298546  0.57438924  0.93747922  1
  C  C126  1  0.01701454  0.07438924  0.93747922  1
  C  C127  1  0.01701454  0.42561076  0.06252078  1
  C  C128  1  0.55159345  0.90687271  0.04784928  1
  C  C129  1  0.55159345  0.59312729  0.95215072  1
  C  C130  1  0.44840655  0.09312729  0.95215072  1
  C  C131  1  0.44840655  0.40687271  0.04784928  1
  C  C132  1  0.40331704  0.59611431  0.44934167  1
  C  C133  1  0.40331704  0.90388569  0.55065833  1
  C  C134  1  0.59668296  0.40388569  0.55065833  1
  C  C135  1  0.59668296  0.09611431  0.44934167  1
  C  C136  1  0.48275894  0.92205643  0.19027308  1
  C  C137  1  0.48275894  0.57794357  0.80972692  1
  C  C138  1  0.51724106  0.07794357  0.80972692  1
  C  C139  1  0.51724106  0.42205643  0.19027308  1
  C  C140  1  0.50743666  0.60516705  0.28893489  1
  C  C141  1  0.50743666  0.89483295  0.71106511  1
  C  C142  1  0.49256334  0.39483295  0.71106511  1
  C  C143  1  0.49256334  0.10516705  0.28893489  1
