# generated using pymatgen
data_Cu4Ni5C12
_symmetry_space_group_name_H-M   'P 1'
_cell_length_a   6.07726000
_cell_length_b   6.17112034
_cell_length_c   15.04875312
_cell_angle_alpha   91.40072482
_cell_angle_beta   90.35130202
_cell_angle_gamma   119.00121538
_symmetry_Int_Tables_number   1
_chemical_formula_structural   Cu4Ni5C12
_chemical_formula_sum   'Cu8 Ni10 C24'
_cell_volume   493.36101901
_cell_formula_units_Z   2
loop_
 _symmetry_equiv_pos_site_id
 _symmetry_equiv_pos_as_xyz
  1  'x, y, z'
loop_
 _atom_site_type_symbol
 _atom_site_label
 _atom_site_symmetry_multiplicity
 _atom_site_fract_x
 _atom_site_fract_y
 _atom_site_fract_z
 _atom_site_occupancy
  Ni  Ni0  1  0.99760600  0.00198700  0.87353200  1
  Ni  Ni1  1  0.66598400  0.33843700  0.54118800  1
  Ni  Ni2  1  0.33186000  0.67024000  0.20940700  1
  Ni  Ni3  1  0.66814000  0.32976000  0.79059300  1
  Ni  Ni4  1  0.33401600  0.66156300  0.45881200  1
  Ni  Ni5  1  0.00239400  0.99801300  0.12646800  1
  Ni  Ni6  1  0.66663600  0.83349200  0.66613400  1
  Ni  Ni7  1  0.33336400  0.16650800  0.33386600  1
  Ni  Ni8  1  0.00000000  0.50000000  0.00000000  1
  Ni  Ni9  1  0.50000000  0.00000000  0.00000000  1
  Cu  Cu10  1  0.16680000  0.33350300  0.66564900  1
  Cu  Cu11  1  0.83320000  0.66649700  0.33435100  1
  Cu  Cu12  1  0.33182300  0.66345100  0.83257700  1
  Cu  Cu13  1  0.00000000  0.00000000  0.50000000  1
  Cu  Cu14  1  0.66817700  0.33654900  0.16742300  1
  Cu  Cu15  1  0.16774200  0.83402500  0.66603500  1
  Cu  Cu16  1  0.83225800  0.16597500  0.33396500  1
  Cu  Cu17  1  0.50000000  0.50000000  0.00000000  1
  C  C18  1  0.79220800  0.15706400  0.08262500  1
  C  C19  1  0.46804600  0.49947100  0.74865900  1
  C  C20  1  0.13507800  0.83247600  0.41712500  1
  C  C21  1  0.99651000  0.00353900  0.73473400  1
  C  C22  1  0.66264000  0.33653500  0.40271400  1
  C  C23  1  0.31274800  0.64093600  0.07162500  1
  C  C24  1  0.17930200  0.37375200  0.91937000  1
  C  C25  1  0.84578800  0.70826700  0.58799000  1
  C  C26  1  0.51199800  0.04151600  0.25554200  1
  C  C27  1  0.36909100  0.18668600  0.07660500  1
  C  C28  1  0.03476400  0.52523500  0.74256300  1
  C  C29  1  0.69996500  0.85725900  0.41085900  1
  C  C30  1  0.86492200  0.16752400  0.58287500  1
  C  C31  1  0.53195400  0.50052900  0.25134100  1
  C  C32  1  0.20779200  0.84293600  0.91737500  1
  C  C33  1  0.68725200  0.35906400  0.92837500  1
  C  C34  1  0.33736000  0.66346500  0.59728600  1
  C  C35  1  0.00349000  0.99646100  0.26526600  1
  C  C36  1  0.48800200  0.95848400  0.74445800  1
  C  C37  1  0.15421200  0.29173300  0.41201000  1
  C  C38  1  0.82069800  0.62624800  0.08063000  1
  C  C39  1  0.30003500  0.14274100  0.58914100  1
  C  C40  1  0.96523600  0.47476500  0.25743700  1
  C  C41  1  0.63090900  0.81331400  0.92339500  1
