# generated using pymatgen
data_CuNiC2
_symmetry_space_group_name_H-M   'P 1'
_cell_length_a   7.00598426
_cell_length_b   7.00598426
_cell_length_c   6.57136400
_cell_angle_alpha   90.00000000
_cell_angle_beta   90.00000000
_cell_angle_gamma   103.74598350
_symmetry_Int_Tables_number   1
_chemical_formula_structural   CuNiC2
_chemical_formula_sum   'Cu2 Ni2 C4'
_cell_volume   313.30944389
_cell_formula_units_Z   2
loop_
 _symmetry_equiv_pos_site_id
 _symmetry_equiv_pos_as_xyz
  1  'x, y, z'
loop_
 _atom_site_type_symbol
 _atom_site_label
 _atom_site_symmetry_multiplicity
 _atom_site_fract_x
 _atom_site_fract_y
 _atom_site_fract_z
 _atom_site_occupancy
  C  C0  1  0.01893300  0.68101700  0.75000000  1
  C  C1  1  0.31898300  0.98106700  0.25000000  1
  C  C2  1  0.68265700  0.03981100  0.75000000  1
  C  C3  1  0.96018900  0.31734300  0.25000000  1
  Ni  Ni4  1  0.49200800  0.50799200  0.50000000  1
  Ni  Ni5  1  0.49200800  0.50799200  0.00000000  1
  Cu  Cu6  1  0.23165700  0.23643500  0.75000000  1
  Cu  Cu7  1  0.76356500  0.76834300  0.25000000  1
