# generated using pymatgen
data_Cu5Ni3C16
_symmetry_space_group_name_H-M   'P 1'
_cell_length_a   7.49510175
_cell_length_b   7.49510175
_cell_length_c   5.35908100
_cell_angle_alpha   90.00000000
_cell_angle_beta   90.00000000
_cell_angle_gamma   90.52096615
_symmetry_Int_Tables_number   1
_chemical_formula_structural   Cu5Ni3C16
_chemical_formula_sum   'Cu5 Ni3 C16'
_cell_volume   301.04223799
_cell_formula_units_Z   1
loop_
 _symmetry_equiv_pos_site_id
 _symmetry_equiv_pos_as_xyz
  1  'x, y, z'
loop_
 _atom_site_type_symbol
 _atom_site_label
 _atom_site_symmetry_multiplicity
 _atom_site_fract_x
 _atom_site_fract_y
 _atom_site_fract_z
 _atom_site_occupancy
  Ni  Ni0  1  0.25689200  0.74310800  0.00000000  1
  Ni  Ni1  1  0.00000000  0.00000000  0.50000000  1
  Ni  Ni2  1  0.74310800  0.25689200  0.00000000  1
  Cu  Cu3  1  0.50000000  0.00000000  0.50008400  1
  Cu  Cu4  1  0.24717900  0.24717900  0.00000000  1
  Cu  Cu5  1  0.50000000  0.50000000  0.50000000  1
  Cu  Cu6  1  0.75282100  0.75282100  0.00000000  1
  Cu  Cu7  1  0.00000000  0.50000000  0.49991600  1
  C  C8  1  0.48131900  0.75971700  0.30799300  1
  C  C9  1  0.24427700  0.01940800  0.22203900  1
  C  C10  1  0.27027100  0.98902900  0.72351600  1
  C  C11  1  0.52141800  0.72441300  0.79020700  1
  C  C12  1  0.51868100  0.24028300  0.30799300  1
  C  C13  1  0.27558700  0.47858200  0.20979300  1
  C  C14  1  0.24028300  0.51868100  0.69200700  1
  C  C15  1  0.47858200  0.27558700  0.79020700  1
  C  C16  1  0.01097100  0.72972900  0.27648400  1
  C  C17  1  0.75572300  0.98059200  0.22203900  1
  C  C18  1  0.72972900  0.01097100  0.72351600  1
  C  C19  1  0.98059200  0.75572300  0.77796100  1
  C  C20  1  0.98902900  0.27027100  0.27648400  1
  C  C21  1  0.72441300  0.52141800  0.20979300  1
  C  C22  1  0.75971700  0.48131900  0.69200700  1
  C  C23  1  0.01940800  0.24427700  0.77796100  1
