# generated using pymatgen
data_CuNiC16
_symmetry_space_group_name_H-M   'P 1'
_cell_length_a   8.67876926
_cell_length_b   8.67876880
_cell_length_c   8.67876907
_cell_angle_alpha   60.67963284
_cell_angle_beta   60.67963857
_cell_angle_gamma   60.67963939
_symmetry_Int_Tables_number   1
_chemical_formula_structural   CuNiC16
_chemical_formula_sum   'Cu2 Ni2 C32'
_cell_volume   469.32271312
_cell_formula_units_Z   2
loop_
 _symmetry_equiv_pos_site_id
 _symmetry_equiv_pos_as_xyz
  1  'x, y, z'
loop_
 _atom_site_type_symbol
 _atom_site_label
 _atom_site_symmetry_multiplicity
 _atom_site_fract_x
 _atom_site_fract_y
 _atom_site_fract_z
 _atom_site_occupancy
  C  C0  1  0.00170500  0.00170500  0.00170500  1
  C  C1  1  0.50170500  0.50170500  0.50170500  1
  Ni  Ni2  1  0.14653700  0.14653700  0.14653700  1
  Ni  Ni3  1  0.64653700  0.64653700  0.64653700  1
  C  C4  1  0.04245200  0.44731300  0.75969500  1
  C  C5  1  0.44731300  0.75969500  0.04245200  1
  C  C6  1  0.75969500  0.04245200  0.44731300  1
  C  C7  1  0.25969500  0.94731300  0.54245200  1
  C  C8  1  0.54245200  0.25969500  0.94731300  1
  C  C9  1  0.94731300  0.54245200  0.25969500  1
  Cu  Cu10  1  0.35798300  0.35798300  0.35798300  1
  Cu  Cu11  1  0.85798300  0.85798300  0.85798300  1
  C  C12  1  0.09311500  0.50198000  0.33275900  1
  C  C13  1  0.33275900  0.09311500  0.50198000  1
  C  C14  1  0.05171400  0.25249600  0.91603100  1
  C  C15  1  0.50198000  0.33275900  0.09311500  1
  C  C16  1  0.00198000  0.59311500  0.83276000  1
  C  C17  1  0.23633200  0.43378200  0.60370900  1
  C  C18  1  0.25249600  0.91603100  0.05171400  1
  C  C19  1  0.43378200  0.60370900  0.23633200  1
  C  C20  1  0.19240300  0.00233100  0.37765900  1
  C  C21  1  0.60370900  0.23633200  0.43378200  1
  C  C22  1  0.10370900  0.93378200  0.73633200  1
  C  C23  1  0.37765900  0.19240300  0.00233100  1
  C  C24  1  0.59311500  0.83276000  0.00198000  1
  C  C25  1  0.91603100  0.05171400  0.25249600  1
  C  C26  1  0.41603100  0.75249600  0.55171400  1
  C  C27  1  0.83276000  0.00198000  0.59311500  1
  C  C28  1  0.55171400  0.41603100  0.75249600  1
  C  C29  1  0.73633200  0.10370900  0.93378200  1
  C  C30  1  0.75249600  0.55171400  0.41603100  1
  C  C31  1  0.00233100  0.37765900  0.19240300  1
  C  C32  1  0.50233100  0.69240300  0.87765900  1
  C  C33  1  0.93378200  0.73633200  0.10370900  1
  C  C34  1  0.69240300  0.87765900  0.50233100  1
  C  C35  1  0.87765900  0.50233100  0.69240300  1
