# generated using pymatgen
data_Cu9Ni6C
_symmetry_space_group_name_H-M   'P 1'
_cell_length_a   7.23697224
_cell_length_b   12.24830490
_cell_length_c   11.01918200
_cell_angle_alpha   90.00000000
_cell_angle_beta   90.00000000
_cell_angle_gamma   32.19590179
_symmetry_Int_Tables_number   1
_chemical_formula_structural   Cu9Ni6C
_chemical_formula_sum   'Cu18 Ni12 C2'
_cell_volume   520.42638261
_cell_formula_units_Z   2
loop_
 _symmetry_equiv_pos_site_id
 _symmetry_equiv_pos_as_xyz
  1  'x, y, z'
loop_
 _atom_site_type_symbol
 _atom_site_label
 _atom_site_symmetry_multiplicity
 _atom_site_fract_x
 _atom_site_fract_y
 _atom_site_fract_z
 _atom_site_occupancy
  C  C0  1  0.00000000  0.28619000  0.25000000  1
  C  C1  1  0.00000000  0.71381000  0.75000000  1
  Ni  Ni2  1  0.70333600  0.74510300  0.25000000  1
  Ni  Ni3  1  0.70333600  0.55156200  0.75000000  1
  Ni  Ni4  1  0.29666400  0.25489700  0.75000000  1
  Ni  Ni5  1  0.29666400  0.44843800  0.25000000  1
  Ni  Ni6  1  0.70186800  0.29288600  0.93323300  1
  Ni  Ni7  1  0.70186800  0.00524500  0.06676700  1
  Ni  Ni8  1  0.70186800  0.29288600  0.56676700  1
  Ni  Ni9  1  0.70186800  0.00524500  0.43323300  1
  Ni  Ni10  1  0.29813200  0.70711400  0.06676700  1
  Ni  Ni11  1  0.29813200  0.99475500  0.93323300  1
  Ni  Ni12  1  0.29813200  0.70711400  0.43323300  1
  Ni  Ni13  1  0.29813200  0.99475500  0.56676700  1
  Cu  Cu14  1  0.00000000  0.54775500  0.25000000  1
  Cu  Cu15  1  0.00000000  0.45224500  0.75000000  1
  Cu  Cu16  1  0.41977900  0.92319400  0.25000000  1
  Cu  Cu17  1  0.41977900  0.65702600  0.75000000  1
  Cu  Cu18  1  0.58022100  0.07680600  0.75000000  1
  Cu  Cu19  1  0.58022100  0.34297400  0.25000000  1
  Cu  Cu20  1  0.00000000  0.15190000  0.98555300  1
  Cu  Cu21  1  0.00000000  0.84810000  0.01444700  1
  Cu  Cu22  1  0.00000000  0.15190000  0.51444700  1
  Cu  Cu23  1  0.00000000  0.84810000  0.48555300  1
  Cu  Cu24  1  0.41538300  0.42952000  0.89609600  1
  Cu  Cu25  1  0.41538300  0.15509500  0.10390400  1
  Cu  Cu26  1  0.41538300  0.42952000  0.60390400  1
  Cu  Cu27  1  0.41538300  0.15509500  0.39609600  1
  Cu  Cu28  1  0.58461700  0.57048000  0.10390400  1
  Cu  Cu29  1  0.58461700  0.84490500  0.89609600  1
  Cu  Cu30  1  0.58461700  0.57048000  0.39609600  1
  Cu  Cu31  1  0.58461700  0.84490500  0.60390400  1
