# generated using pymatgen
data_CuNiC10
_symmetry_space_group_name_H-M   'P 1'
_cell_length_a   9.14497800
_cell_length_b   9.14497800
_cell_length_c   14.38569200
_cell_angle_alpha   90.00000000
_cell_angle_beta   90.00000000
_cell_angle_gamma   90.00000000
_symmetry_Int_Tables_number   1
_chemical_formula_structural   CuNiC10
_chemical_formula_sum   'Cu4 Ni4 C40'
_cell_volume   1203.08437879
_cell_formula_units_Z   4
loop_
 _symmetry_equiv_pos_site_id
 _symmetry_equiv_pos_as_xyz
  1  'x, y, z'
loop_
 _atom_site_type_symbol
 _atom_site_label
 _atom_site_symmetry_multiplicity
 _atom_site_fract_x
 _atom_site_fract_y
 _atom_site_fract_z
 _atom_site_occupancy
  C  C0  1  0.03399900  0.06167700  0.74804700  1
  C  C1  1  0.96600100  0.93832300  0.24804700  1
  C  C2  1  0.06167700  0.96600100  0.49804700  1
  C  C3  1  0.93832300  0.03399900  0.99804700  1
  C  C4  1  0.43996900  0.46392500  0.75148000  1
  C  C5  1  0.56003100  0.53607500  0.25148000  1
  C  C6  1  0.46392500  0.56003100  0.50148000  1
  C  C7  1  0.53607500  0.43996900  0.00148000  1
  C  C8  1  0.44738900  0.05508000  0.74987900  1
  C  C9  1  0.55261100  0.94492000  0.24987900  1
  C  C10  1  0.05508000  0.55261100  0.49987900  1
  C  C11  1  0.94492000  0.44738900  0.99987900  1
  C  C12  1  0.02639800  0.47231900  0.74989200  1
  C  C13  1  0.97360200  0.52768100  0.24989200  1
  C  C14  1  0.47231900  0.97360200  0.49989200  1
  C  C15  1  0.52768100  0.02639800  0.99989200  1
  C  C16  1  0.34188700  0.26360400  0.35873400  1
  C  C17  1  0.65811300  0.73639600  0.85873400  1
  C  C18  1  0.26360400  0.65811300  0.10873400  1
  C  C19  1  0.73639600  0.34188700  0.60873400  1
  C  C20  1  0.23644000  0.15360300  0.14127200  1
  C  C21  1  0.76356000  0.84639700  0.64127200  1
  C  C22  1  0.15360300  0.76356000  0.89127200  1
  C  C23  1  0.84639700  0.23644000  0.39127200  1
  Ni  Ni24  1  0.76266700  0.73853200  0.08435000  1
  Ni  Ni25  1  0.23733300  0.26146800  0.58435000  1
  Ni  Ni26  1  0.73853200  0.23733300  0.83435000  1
  Ni  Ni27  1  0.26146800  0.76266700  0.33435000  1
  Cu  Cu28  1  0.76067600  0.73719500  0.41546000  1
  Cu  Cu29  1  0.23932400  0.26280500  0.91546000  1
  Cu  Cu30  1  0.73719500  0.23932400  0.16546000  1
  Cu  Cu31  1  0.26280500  0.76067600  0.66546000  1
  C  C32  1  0.73551900  0.43634600  0.83097800  1
  C  C33  1  0.26448100  0.56365400  0.33097800  1
  C  C34  1  0.43634600  0.26448100  0.58097800  1
  C  C35  1  0.56365400  0.73551900  0.08097800  1
  C  C36  1  0.03997000  0.76310000  0.66927800  1
  C  C37  1  0.96003000  0.23690000  0.16927800  1
  C  C38  1  0.76310000  0.96003000  0.41927800  1
  C  C39  1  0.23690000  0.03997000  0.91927800  1
  C  C40  1  0.48634400  0.75974100  0.66653100  1
  C  C41  1  0.51365600  0.24025900  0.16653100  1
  C  C42  1  0.75974100  0.51365600  0.41653100  1
  C  C43  1  0.24025900  0.48634400  0.91653100  1
  C  C44  1  0.73833100  0.03730900  0.83410000  1
  C  C45  1  0.26166900  0.96269100  0.33410000  1
  C  C46  1  0.03730900  0.26166900  0.58410000  1
  C  C47  1  0.96269100  0.73833100  0.08410000  1
