# generated using pymatgen
data_Cu4Ni2C7
_symmetry_space_group_name_H-M   'P 1'
_cell_length_a   6.38590400
_cell_length_b   6.38738100
_cell_length_c   12.25157003
_cell_angle_alpha   58.67505421
_cell_angle_beta   90.00000000
_cell_angle_gamma   90.00000000
_symmetry_Int_Tables_number   1
_chemical_formula_structural   Cu4Ni2C7
_chemical_formula_sum   'Cu8 Ni4 C14'
_cell_volume   426.88714220
_cell_formula_units_Z   2
loop_
 _symmetry_equiv_pos_site_id
 _symmetry_equiv_pos_as_xyz
  1  'x, y, z'
loop_
 _atom_site_type_symbol
 _atom_site_label
 _atom_site_symmetry_multiplicity
 _atom_site_fract_x
 _atom_site_fract_y
 _atom_site_fract_z
 _atom_site_occupancy
  Ni  Ni0  1  0.80406100  0.28539900  0.51860900  1
  Ni  Ni1  1  0.69593900  0.28539900  0.01860900  1
  Ni  Ni2  1  0.19593900  0.71460100  0.48139100  1
  Ni  Ni3  1  0.30406100  0.71460100  0.98139100  1
  Cu  Cu4  1  0.50072800  0.77527100  0.72073800  1
  Cu  Cu5  1  0.99927200  0.77527100  0.22073800  1
  Cu  Cu6  1  0.49927200  0.22472900  0.27926200  1
  Cu  Cu7  1  0.00072800  0.22472900  0.77926200  1
  Cu  Cu8  1  0.00087400  0.25436200  0.25000300  1
  Cu  Cu9  1  0.49912600  0.25436200  0.75000300  1
  Cu  Cu10  1  0.99912600  0.74563800  0.74999700  1
  Cu  Cu11  1  0.50087400  0.74563800  0.24999700  1
  C  C12  1  0.28695300  0.21216600  0.50087400  1
  C  C13  1  0.71304700  0.78783400  0.49912600  1
  C  C14  1  0.21304700  0.21216600  0.00087400  1
  C  C15  1  0.78695300  0.78783400  0.99912600  1
  C  C16  1  0.21454100  0.44810700  0.33879800  1
  C  C17  1  0.78612300  0.87911500  0.33623900  1
  C  C18  1  0.28545900  0.44810700  0.83879800  1
  C  C19  1  0.71387700  0.87911500  0.83623900  1
  C  C20  1  0.78545900  0.55189300  0.66120200  1
  C  C21  1  0.21387700  0.12088500  0.66376100  1
  C  C22  1  0.71454100  0.55189300  0.16120200  1
  C  C23  1  0.28612300  0.12088500  0.16376100  1
  C  C24  1  0.50000000  0.00000000  0.50000000  1
  C  C25  1  0.00000000  0.00000000  0.00000000  1
