# generated using pymatgen
data_CuNi2C17
_symmetry_space_group_name_H-M   'P 1'
_cell_length_a   12.11005599
_cell_length_b   12.11005599
_cell_length_c   10.47463956
_cell_angle_alpha   87.58032148
_cell_angle_beta   87.58032148
_cell_angle_gamma   60.53951455
_symmetry_Int_Tables_number   1
_chemical_formula_structural   CuNi2C17
_chemical_formula_sum   'Cu2 Ni4 C34'
_cell_volume   1335.91237134
_cell_formula_units_Z   2
loop_
 _symmetry_equiv_pos_site_id
 _symmetry_equiv_pos_as_xyz
  1  'x, y, z'
loop_
 _atom_site_type_symbol
 _atom_site_label
 _atom_site_symmetry_multiplicity
 _atom_site_fract_x
 _atom_site_fract_y
 _atom_site_fract_z
 _atom_site_occupancy
  Ni  Ni0  1  0.31212700  0.34629100  0.92257700  1
  Ni  Ni1  1  0.65370900  0.68787300  0.57742300  1
  Ni  Ni2  1  0.68787300  0.65370900  0.07742300  1
  Ni  Ni3  1  0.34629100  0.31212700  0.42257700  1
  C  C4  1  0.29711500  0.70288500  0.75000000  1
  C  C5  1  0.70288500  0.29711500  0.25000000  1
  C  C6  1  0.06684800  0.78469300  0.63390000  1
  C  C7  1  0.21530700  0.93315200  0.86610000  1
  C  C8  1  0.93315200  0.21530700  0.36610000  1
  C  C9  1  0.78469300  0.06684800  0.13390000  1
  C  C10  1  0.93816300  0.84700600  0.87947600  1
  C  C11  1  0.15299400  0.06183700  0.62052400  1
  C  C12  1  0.06183700  0.15299400  0.12052400  1
  C  C13  1  0.84700600  0.93816300  0.37947600  1
  C  C14  1  0.70404800  0.99318200  0.76654500  1
  C  C15  1  0.00681800  0.29595200  0.73345500  1
  C  C16  1  0.29595200  0.00681800  0.23345500  1
  C  C17  1  0.99318200  0.70404800  0.26654500  1
  C  C18  1  0.78657400  0.14417600  0.63463400  1
  C  C19  1  0.85582400  0.21342600  0.86536600  1
  C  C20  1  0.21342600  0.85582400  0.36536600  1
  C  C21  1  0.14417600  0.78657400  0.13463400  1
  Cu  Cu22  1  0.00000000  0.00000000  0.50000000  1
  Cu  Cu23  1  0.00000000  0.00000000  0.00000000  1
  C  C24  1  0.34580300  0.13341700  0.92974300  1
  C  C25  1  0.86658300  0.65419700  0.57025700  1
  C  C26  1  0.65419700  0.86658300  0.07025700  1
  C  C27  1  0.13341700  0.34580300  0.42974300  1
  C  C28  1  0.19054500  0.45815400  0.73877200  1
  C  C29  1  0.54184600  0.80945500  0.76122800  1
  C  C30  1  0.80945500  0.54184600  0.26122800  1
  C  C31  1  0.45815400  0.19054500  0.23877200  1
  C  C32  1  0.16982000  0.45913000  0.09716400  1
  C  C33  1  0.54087000  0.83018000  0.40283600  1
  C  C34  1  0.83018000  0.54087000  0.90283600  1
  C  C35  1  0.45913000  0.16982000  0.59716400  1
  C  C36  1  0.50609300  0.35367300  0.91944000  1
  C  C37  1  0.64632700  0.49390700  0.58056000  1
  C  C38  1  0.49390700  0.64632700  0.08056000  1
  C  C39  1  0.35367300  0.50609300  0.41944000  1
