# generated using pymatgen
data_Cu4NiC
_symmetry_space_group_name_H-M   'P 1'
_cell_length_a   6.89431800
_cell_length_b   4.74491300
_cell_length_c   9.87401853
_cell_angle_alpha   82.76250571
_cell_angle_beta   90.00000000
_cell_angle_gamma   90.00000000
_symmetry_Int_Tables_number   1
_chemical_formula_structural   Cu4NiC
_chemical_formula_sum   'Cu16 Ni4 C4'
_cell_volume   320.43458992
_cell_formula_units_Z   4
loop_
 _symmetry_equiv_pos_site_id
 _symmetry_equiv_pos_as_xyz
  1  'x, y, z'
loop_
 _atom_site_type_symbol
 _atom_site_label
 _atom_site_symmetry_multiplicity
 _atom_site_fract_x
 _atom_site_fract_y
 _atom_site_fract_z
 _atom_site_occupancy
  C  C0  1  0.25000000  0.37820500  0.35940500  1
  C  C1  1  0.75000000  0.62179500  0.64059500  1
  C  C2  1  0.75000000  0.65086600  0.17588700  1
  C  C3  1  0.25000000  0.34913400  0.82411300  1
  Ni  Ni4  1  0.25000000  0.85319500  0.07053800  1
  Ni  Ni5  1  0.75000000  0.14680500  0.92946200  1
  Ni  Ni6  1  0.75000000  0.16837500  0.39915700  1
  Ni  Ni7  1  0.25000000  0.83162500  0.60084300  1
  Cu  Cu8  1  0.25000000  0.83520600  0.45289900  1
  Cu  Cu9  1  0.75000000  0.16479400  0.54710100  1
  Cu  Cu10  1  0.75000000  0.87002900  0.36546300  1
  Cu  Cu11  1  0.25000000  0.12997100  0.63453700  1
  Cu  Cu12  1  0.57634200  0.26250700  0.85383200  1
  Cu  Cu13  1  0.07634200  0.73749300  0.14616800  1
  Cu  Cu14  1  0.42365800  0.73749300  0.14616800  1
  Cu  Cu15  1  0.92365800  0.26250700  0.85383200  1
  Cu  Cu16  1  0.75000000  0.83086300  0.94479700  1
  Cu  Cu17  1  0.25000000  0.16913700  0.05520300  1
  Cu  Cu18  1  0.25000000  0.77445000  0.92733600  1
  Cu  Cu19  1  0.75000000  0.22555000  0.07266400  1
  Cu  Cu20  1  0.07940400  0.67405900  0.66852000  1
  Cu  Cu21  1  0.57940400  0.32594100  0.33148000  1
  Cu  Cu22  1  0.92059600  0.32594100  0.33148000  1
  Cu  Cu23  1  0.42059600  0.67405900  0.66852000  1
