# generated using pymatgen
data_Cu3NiC2
_symmetry_space_group_name_H-M   'P 1'
_cell_length_a   13.22073300
_cell_length_b   9.71695300
_cell_length_c   10.70153589
_cell_angle_alpha   74.00846057
_cell_angle_beta   90.00000000
_cell_angle_gamma   90.00000000
_symmetry_Int_Tables_number   1
_chemical_formula_structural   Cu3NiC2
_chemical_formula_sum   'Cu24 Ni8 C16'
_cell_volume   1321.57486377
_cell_formula_units_Z   8
loop_
 _symmetry_equiv_pos_site_id
 _symmetry_equiv_pos_as_xyz
  1  'x, y, z'
loop_
 _atom_site_type_symbol
 _atom_site_label
 _atom_site_symmetry_multiplicity
 _atom_site_fract_x
 _atom_site_fract_y
 _atom_site_fract_z
 _atom_site_occupancy
  C  C0  1  0.68411600  0.88852700  0.11782900  1
  C  C1  1  0.18411600  0.11147300  0.38217100  1
  C  C2  1  0.31588400  0.11147300  0.88217100  1
  C  C3  1  0.81588400  0.88852700  0.61782900  1
  C  C4  1  0.65068400  0.36304300  0.67288500  1
  C  C5  1  0.15068400  0.63695700  0.82711500  1
  C  C6  1  0.34931600  0.63695700  0.32711500  1
  C  C7  1  0.84931600  0.36304300  0.17288500  1
  C  C8  1  0.90240100  0.48107000  0.54422100  1
  C  C9  1  0.40240100  0.51893000  0.95577900  1
  C  C10  1  0.09759900  0.51893000  0.45577900  1
  C  C11  1  0.59759900  0.48107000  0.04422100  1
  C  C12  1  0.95554600  0.95241900  0.90376000  1
  C  C13  1  0.45554600  0.04758100  0.59624000  1
  C  C14  1  0.04445400  0.04758100  0.09624000  1
  C  C15  1  0.54445400  0.95241900  0.40376000  1
  Ni  Ni16  1  0.03640100  0.21914000  0.66704000  1
  Ni  Ni17  1  0.53640100  0.78086000  0.83296000  1
  Ni  Ni18  1  0.96359900  0.78086000  0.33296000  1
  Ni  Ni19  1  0.46359900  0.21914000  0.16704000  1
  Ni  Ni20  1  0.04147000  0.71668100  0.16640400  1
  Ni  Ni21  1  0.54147000  0.28331900  0.33359600  1
  Ni  Ni22  1  0.95853000  0.28331900  0.83359600  1
  Ni  Ni23  1  0.45853000  0.71668100  0.66640400  1
  Cu  Cu24  1  0.07194800  0.00803600  0.74133700  1
  Cu  Cu25  1  0.57194800  0.99196400  0.75866300  1
  Cu  Cu26  1  0.92805200  0.99196400  0.25866300  1
  Cu  Cu27  1  0.42805200  0.00803600  0.24133700  1
  Cu  Cu28  1  0.93580800  0.72391200  0.02457800  1
  Cu  Cu29  1  0.43580800  0.27608800  0.47542200  1
  Cu  Cu30  1  0.06419200  0.27608800  0.97542200  1
  Cu  Cu31  1  0.56419200  0.72391200  0.52457800  1
  Cu  Cu32  1  0.84618900  0.13495600  0.89104200  1
  Cu  Cu33  1  0.34618900  0.86504400  0.60895800  1
  Cu  Cu34  1  0.15381100  0.86504400  0.10895800  1
  Cu  Cu35  1  0.65381100  0.13495600  0.39104200  1
  Cu  Cu36  1  0.93024700  0.25817700  0.52302700  1
  Cu  Cu37  1  0.43024700  0.74182300  0.97697300  1
  Cu  Cu38  1  0.06975300  0.74182300  0.47697300  1
  Cu  Cu39  1  0.56975300  0.25817700  0.02302700  1
  Cu  Cu40  1  0.90732800  0.48652800  0.75482600  1
  Cu  Cu41  1  0.40732800  0.51347200  0.74517400  1
  Cu  Cu42  1  0.09267200  0.51347200  0.24517400  1
  Cu  Cu43  1  0.59267200  0.48652800  0.25482600  1
  Cu  Cu44  1  0.16455500  0.33962200  0.61631800  1
  Cu  Cu45  1  0.66455500  0.66037800  0.88368200  1
  Cu  Cu46  1  0.83544500  0.66037800  0.38368200  1
  Cu  Cu47  1  0.33544500  0.33962200  0.11631800  1
