# generated using pymatgen
data_CuNiC5
_symmetry_space_group_name_H-M   'P 1'
_cell_length_a   11.38322100
_cell_length_b   3.62398300
_cell_length_c   13.24396600
_cell_angle_alpha   90.00000000
_cell_angle_beta   90.00000000
_cell_angle_gamma   90.00000000
_symmetry_Int_Tables_number   1
_chemical_formula_structural   CuNiC5
_chemical_formula_sum   'Cu4 Ni4 C20'
_cell_volume   546.34802372
_cell_formula_units_Z   4
loop_
 _symmetry_equiv_pos_site_id
 _symmetry_equiv_pos_as_xyz
  1  'x, y, z'
loop_
 _atom_site_type_symbol
 _atom_site_label
 _atom_site_symmetry_multiplicity
 _atom_site_fract_x
 _atom_site_fract_y
 _atom_site_fract_z
 _atom_site_occupancy
  C  C0  1  0.05775400  0.25000000  0.11722900  1
  C  C1  1  0.55775400  0.25000000  0.38277100  1
  C  C2  1  0.08671400  0.25000000  0.59562200  1
  C  C3  1  0.58671400  0.25000000  0.90437800  1
  Ni  Ni4  1  0.94520200  0.75000000  0.88960800  1
  Ni  Ni5  1  0.44520200  0.75000000  0.61039200  1
  Ni  Ni6  1  0.91700500  0.75000000  0.40516100  1
  Ni  Ni7  1  0.41700500  0.75000000  0.09483900  1
  Cu  Cu8  1  0.24678100  0.25000000  0.32994300  1
  Cu  Cu9  1  0.75817600  0.75000000  0.66517100  1
  Cu  Cu10  1  0.25817600  0.75000000  0.83482900  1
  Cu  Cu11  1  0.74678100  0.25000000  0.17005700  1
  C  C12  1  0.02136100  0.75000000  0.71668600  1
  C  C13  1  0.96451300  0.25000000  0.29159900  1
  C  C14  1  0.46451300  0.25000000  0.20840100  1
  C  C15  1  0.52136100  0.75000000  0.78331400  1
  C  C16  1  0.08347600  0.25000000  0.92279000  1
  C  C17  1  0.90695900  0.75000000  0.06721100  1
  C  C18  1  0.40695900  0.75000000  0.43278900  1
  C  C19  1  0.58347600  0.25000000  0.57721000  1
  C  C20  1  0.11817500  0.75000000  0.45895900  1
  C  C21  1  0.87509200  0.25000000  0.52058100  1
  C  C22  1  0.37509200  0.25000000  0.97941900  1
  C  C23  1  0.61817500  0.75000000  0.04104100  1
  C  C24  1  0.21312600  0.75000000  0.16046400  1
  C  C25  1  0.80566600  0.25000000  0.84942100  1
  C  C26  1  0.30566600  0.25000000  0.65057900  1
  C  C27  1  0.71312600  0.75000000  0.33953600  1
