# generated using pymatgen
data_Cu(NiC17)2
_symmetry_space_group_name_H-M   'P 1'
_cell_length_a   8.64507416
_cell_length_b   8.77419664
_cell_length_c   8.79083755
_cell_angle_alpha   59.82782934
_cell_angle_beta   59.45067391
_cell_angle_gamma   58.25363645
_symmetry_Int_Tables_number   1
_chemical_formula_structural   Cu(NiC17)2
_chemical_formula_sum   'Cu1 Ni2 C34'
_cell_volume   462.47828392
_cell_formula_units_Z   1
loop_
 _symmetry_equiv_pos_site_id
 _symmetry_equiv_pos_as_xyz
  1  'x, y, z'
loop_
 _atom_site_type_symbol
 _atom_site_label
 _atom_site_symmetry_multiplicity
 _atom_site_fract_x
 _atom_site_fract_y
 _atom_site_fract_z
 _atom_site_occupancy
  C  C0  1  0.24883600  0.25009300  0.86420400  1
  C  C1  1  0.05672300  0.65254400  0.64206900  1
  C  C2  1  0.43827600  0.84954800  0.85161800  1
  C  C3  1  0.92860300  0.36135700  0.35906800  1
  Ni  Ni4  1  0.99082400  0.99038200  0.00405300  1
  Ni  Ni5  1  0.50118700  0.51522700  0.48534100  1
  Cu  Cu6  1  0.57312400  0.13652000  0.15005600  1
  C  C7  1  0.25334800  0.25027800  0.54034500  1
  C  C8  1  0.25088400  0.95795500  0.25409600  1
  C  C9  1  0.25351300  0.54165100  0.96068900  1
  C  C10  1  0.76633200  0.44106600  0.04428000  1
  C  C11  1  0.73412900  0.05878400  0.75196300  1
  C  C12  1  0.74914000  0.74981600  0.45596700  1
  C  C13  1  0.06806100  0.11701900  0.32397200  1
  C  C14  1  0.07181800  0.50288400  0.12007800  1
  C  C15  1  0.06936700  0.31692600  0.50303200  1
  C  C16  1  0.22658000  0.10065900  0.74605300  1
  C  C17  1  0.43708100  0.18675200  0.39295600  1
  C  C18  1  0.26689400  0.40321200  0.57803700  1
  C  C19  1  0.22609000  0.97434400  0.07778300  1
  C  C20  1  0.25464100  0.75922400  0.40637700  1
  C  C21  1  0.59752400  0.61519600  0.98312500  1
  C  C22  1  0.25962700  0.54505700  0.77411800  1
  C  C23  1  0.78226100  0.25130200  0.06153300  1
  C  C24  1  0.53474100  0.04661600  0.81241000  1
  C  C25  1  0.43510500  0.97975400  0.19874900  1
  C  C26  1  0.23136800  0.74246400  0.93468100  1
  C  C27  1  0.73913900  0.44203900  0.23320000  1
  C  C28  1  0.43824800  0.38803500  0.99056200  1
  C  C29  1  0.72702700  0.24892600  0.58806000  1
  C  C30  1  0.77186700  0.05149300  0.90756900  1
  C  C31  1  0.72358100  0.59293100  0.44460900  1
  C  C32  1  0.56564400  0.82382100  0.61043400  1
  C  C33  1  0.78561700  0.89922000  0.26483300  1
  C  C34  1  0.92491000  0.66501800  0.51728700  1
  C  C35  1  0.96343900  0.46218600  0.89433700  1
  C  C36  1  0.89663500  0.88684600  0.68674000  1
