# generated using pymatgen
data_Cu38NiC18
_symmetry_space_group_name_H-M   'P 1'
_cell_length_a   9.88732139
_cell_length_b   9.88732139
_cell_length_c   9.88732139
_cell_angle_alpha   60.00000000
_cell_angle_beta   60.00000000
_cell_angle_gamma   60.00000000
_symmetry_Int_Tables_number   1
_chemical_formula_structural   Cu38NiC18
_chemical_formula_sum   'Cu38 Ni1 C18'
_cell_volume   683.47235883
_cell_formula_units_Z   1
loop_
 _symmetry_equiv_pos_site_id
 _symmetry_equiv_pos_as_xyz
  1  'x, y, z'
loop_
 _atom_site_type_symbol
 _atom_site_label
 _atom_site_symmetry_multiplicity
 _atom_site_fract_x
 _atom_site_fract_y
 _atom_site_fract_z
 _atom_site_occupancy
  C  C0  1  0.76747700  0.40071500  0.06433000  1
  C  C1  1  0.76747700  0.76747700  0.06433000  1
  C  C2  1  0.40071500  0.76747700  0.06433000  1
  C  C3  1  0.76747700  0.06433000  0.40071500  1
  C  C4  1  0.40071500  0.06433000  0.76747700  1
  C  C5  1  0.76747700  0.06433000  0.76747700  1
  C  C6  1  0.06433000  0.76747700  0.76747700  1
  C  C7  1  0.06433000  0.40071500  0.76747700  1
  C  C8  1  0.06433000  0.76747700  0.40071500  1
  C  C9  1  0.40071500  0.76747700  0.76747700  1
  C  C10  1  0.76747700  0.76747700  0.40071500  1
  C  C11  1  0.76747700  0.40071500  0.76747700  1
  C  C12  1  0.75000000  0.75000000  0.75000000  1
  C  C13  1  0.11631300  0.11631300  0.65106000  1
  C  C14  1  0.11631300  0.65106000  0.11631300  1
  C  C15  1  0.65106000  0.11631300  0.11631300  1
  C  C16  1  0.11631300  0.11631300  0.11631300  1
  C  C17  1  0.25000000  0.25000000  0.25000000  1
  Ni  Ni18  1  0.50000000  0.50000000  0.50000000  1
  Cu  Cu19  1  0.82539100  0.82539100  0.52382700  1
  Cu  Cu20  1  0.82539100  0.52382700  0.82539100  1
  Cu  Cu21  1  0.52382700  0.82539100  0.82539100  1
  Cu  Cu22  1  0.82539100  0.82539100  0.82539100  1
  Cu  Cu23  1  0.18318400  0.18318400  0.45044800  1
  Cu  Cu24  1  0.18318400  0.45044800  0.18318400  1
  Cu  Cu25  1  0.45044800  0.18318400  0.18318400  1
  Cu  Cu26  1  0.18318400  0.18318400  0.18318400  1
  Cu  Cu27  1  0.28020800  0.28020800  0.71979200  1
  Cu  Cu28  1  0.71979200  0.28020800  0.71979200  1
  Cu  Cu29  1  0.28020800  0.71979200  0.71979200  1
  Cu  Cu30  1  0.71979200  0.71979200  0.28020800  1
  Cu  Cu31  1  0.28020800  0.71979200  0.28020800  1
  Cu  Cu32  1  0.71979200  0.28020800  0.28020800  1
  Cu  Cu33  1  0.55517400  0.79617400  0.09347800  1
  Cu  Cu34  1  0.55517400  0.55517400  0.09347800  1
  Cu  Cu35  1  0.79617400  0.55517400  0.09347800  1
  Cu  Cu36  1  0.55517400  0.09347800  0.79617400  1
  Cu  Cu37  1  0.79617400  0.09347800  0.55517400  1
  Cu  Cu38  1  0.55517400  0.09347800  0.55517400  1
  Cu  Cu39  1  0.09347800  0.55517400  0.55517400  1
  Cu  Cu40  1  0.09347800  0.79617400  0.55517400  1
  Cu  Cu41  1  0.09347800  0.55517400  0.79617400  1
  Cu  Cu42  1  0.79617400  0.55517400  0.55517400  1
  Cu  Cu43  1  0.55517400  0.55517400  0.79617400  1
  Cu  Cu44  1  0.55517400  0.79617400  0.55517400  1
  Cu  Cu45  1  0.00221800  0.27580400  0.71975900  1
  Cu  Cu46  1  0.00221800  0.00221800  0.71975900  1
  Cu  Cu47  1  0.27580400  0.00221800  0.71975900  1
  Cu  Cu48  1  0.00221800  0.71975900  0.27580400  1
  Cu  Cu49  1  0.27580400  0.71975900  0.00221800  1
  Cu  Cu50  1  0.00221800  0.71975900  0.00221800  1
  Cu  Cu51  1  0.71975900  0.00221800  0.00221800  1
  Cu  Cu52  1  0.71975900  0.27580400  0.00221800  1
  Cu  Cu53  1  0.71975900  0.00221800  0.27580400  1
  Cu  Cu54  1  0.27580400  0.00221800  0.00221800  1
  Cu  Cu55  1  0.00221800  0.00221800  0.27580400  1
  Cu  Cu56  1  0.00221800  0.27580400  0.00221800  1
