# generated using pymatgen
data_CuNi14C17
_symmetry_space_group_name_H-M   'P 1'
_cell_length_a   4.43945600
_cell_length_b   8.61130600
_cell_length_c   8.71940700
_cell_angle_alpha   90.00000000
_cell_angle_beta   90.00000000
_cell_angle_gamma   90.00000000
_symmetry_Int_Tables_number   1
_chemical_formula_structural   CuNi14C17
_chemical_formula_sum   'Cu1 Ni14 C17'
_cell_volume   333.33869276
_cell_formula_units_Z   1
loop_
 _symmetry_equiv_pos_site_id
 _symmetry_equiv_pos_as_xyz
  1  'x, y, z'
loop_
 _atom_site_type_symbol
 _atom_site_label
 _atom_site_symmetry_multiplicity
 _atom_site_fract_x
 _atom_site_fract_y
 _atom_site_fract_z
 _atom_site_occupancy
  C  C0  1  0.00000000  0.50000000  0.00000000  1
  Ni  Ni1  1  0.00000000  0.00000000  0.50000000  1
  Ni  Ni2  1  0.00000000  0.50000000  0.50000000  1
  Ni  Ni3  1  0.50000000  0.75796100  0.00000000  1
  Ni  Ni4  1  0.50000000  0.24203900  0.00000000  1
  Ni  Ni5  1  0.50000000  0.75109400  0.50000000  1
  Ni  Ni6  1  0.50000000  0.24890600  0.50000000  1
  Ni  Ni7  1  0.50000000  0.00000000  0.74843100  1
  Ni  Ni8  1  0.50000000  0.50000000  0.73924700  1
  Ni  Ni9  1  0.50000000  0.00000000  0.25156900  1
  Ni  Ni10  1  0.50000000  0.50000000  0.26075300  1
  Ni  Ni11  1  0.00000000  0.75372600  0.74165700  1
  Ni  Ni12  1  0.00000000  0.24627400  0.74165700  1
  Ni  Ni13  1  0.00000000  0.75372600  0.25834300  1
  Ni  Ni14  1  0.00000000  0.24627400  0.25834300  1
  Cu  Cu15  1  0.00000000  0.00000000  0.00000000  1
  C  C16  1  0.00000000  0.00000000  0.76490400  1
  C  C17  1  0.00000000  0.50000000  0.72893100  1
  C  C18  1  0.00000000  0.00000000  0.23509600  1
  C  C19  1  0.00000000  0.50000000  0.27106900  1
  C  C20  1  0.50000000  0.75022200  0.75055100  1
  C  C21  1  0.50000000  0.24977800  0.75055100  1
  C  C22  1  0.50000000  0.75022200  0.24944900  1
  C  C23  1  0.50000000  0.24977800  0.24944900  1
  C  C24  1  0.50000000  0.00000000  0.00000000  1
  C  C25  1  0.50000000  0.50000000  0.00000000  1
  C  C26  1  0.50000000  0.00000000  0.50000000  1
  C  C27  1  0.50000000  0.50000000  0.50000000  1
  C  C28  1  0.00000000  0.78354100  0.00000000  1
  C  C29  1  0.00000000  0.21645900  0.00000000  1
  C  C30  1  0.00000000  0.75738100  0.50000000  1
  C  C31  1  0.00000000  0.24261900  0.50000000  1
