# generated using pymatgen
data_Cu2NiC12
_symmetry_space_group_name_H-M   'P 1'
_cell_length_a   9.95444209
_cell_length_b   8.96119167
_cell_length_c   6.54740816
_cell_angle_alpha   78.15811150
_cell_angle_beta   61.77068415
_cell_angle_gamma   40.07120435
_symmetry_Int_Tables_number   1
_chemical_formula_structural   Cu2NiC12
_chemical_formula_sum   'Cu4 Ni2 C24'
_cell_volume   318.35719778
_cell_formula_units_Z   2
loop_
 _symmetry_equiv_pos_site_id
 _symmetry_equiv_pos_as_xyz
  1  'x, y, z'
loop_
 _atom_site_type_symbol
 _atom_site_label
 _atom_site_symmetry_multiplicity
 _atom_site_fract_x
 _atom_site_fract_y
 _atom_site_fract_z
 _atom_site_occupancy
  Ni  Ni0  1  0.25000000  0.25000000  0.25000000  1
  Ni  Ni1  1  0.00000000  0.00000000  0.00000000  1
  Cu  Cu2  1  0.62500000  0.62500000  0.12500000  1
  Cu  Cu3  1  0.62500000  0.12500000  0.62500000  1
  Cu  Cu4  1  0.62500000  0.62500000  0.62500000  1
  Cu  Cu5  1  0.12500000  0.62500000  0.62500000  1
  C  C6  1  0.79448500  0.79448500  0.20551500  1
  C  C7  1  0.45551500  0.45551500  0.04448500  1
  C  C8  1  0.20551500  0.20551500  0.79448500  1
  C  C9  1  0.04448500  0.04448500  0.45551500  1
  C  C10  1  0.95887500  0.33457100  0.01373000  1
  C  C11  1  0.42227600  0.42227600  0.57772400  1
  C  C12  1  0.91014100  0.07017800  0.36525100  1
  C  C13  1  0.23627000  0.55717500  0.29112500  1
  C  C14  1  0.33457100  0.95887500  0.69282500  1
  C  C15  1  0.33985900  0.17982200  0.88474900  1
  C  C16  1  0.82772400  0.82772400  0.67227600  1
  C  C17  1  0.57772400  0.57772400  0.42227600  1
  C  C18  1  0.67227600  0.67227600  0.82772400  1
  C  C19  1  0.29112500  0.91542900  0.23627000  1
  C  C20  1  0.69282500  0.01373000  0.33457100  1
  C  C21  1  0.55717500  0.23627000  0.91542900  1
  C  C22  1  0.01373000  0.69282500  0.95887500  1
  C  C23  1  0.07017800  0.91014100  0.65443000  1
  C  C24  1  0.59557000  0.88474900  0.17982200  1
  C  C25  1  0.36525100  0.65443000  0.91014100  1
  C  C26  1  0.88474900  0.59557000  0.33985900  1
  C  C27  1  0.65443000  0.36525100  0.07017800  1
  C  C28  1  0.91542900  0.29112500  0.55717500  1
  C  C29  1  0.17982200  0.33985900  0.59557000  1
