# generated using pymatgen
data_Cu3NiC16
_symmetry_space_group_name_H-M   'P 1'
_cell_length_a   7.82469300
_cell_length_b   5.47596000
_cell_length_c   5.69631921
_cell_angle_alpha   89.93915681
_cell_angle_beta   90.00000000
_cell_angle_gamma   90.00000000
_symmetry_Int_Tables_number   1
_chemical_formula_structural   Cu3NiC16
_chemical_formula_sum   'Cu3 Ni1 C16'
_cell_volume   244.07407257
_cell_formula_units_Z   1
loop_
 _symmetry_equiv_pos_site_id
 _symmetry_equiv_pos_as_xyz
  1  'x, y, z'
loop_
 _atom_site_type_symbol
 _atom_site_label
 _atom_site_symmetry_multiplicity
 _atom_site_fract_x
 _atom_site_fract_y
 _atom_site_fract_z
 _atom_site_occupancy
  Ni  Ni0  1  0.50000000  0.48817200  0.55106900  1
  Cu  Cu1  1  0.50000000  0.01491900  0.05958800  1
  Cu  Cu2  1  0.00000000  0.51484500  0.43608600  1
  Cu  Cu3  1  0.00000000  0.98631100  0.93953800  1
  C  C4  1  0.24798200  0.49931200  0.99838000  1
  C  C5  1  0.75269700  0.00053700  0.50026200  1
  C  C6  1  0.75201800  0.49931200  0.99838000  1
  C  C7  1  0.24730300  0.00053700  0.50026200  1
  C  C8  1  0.29910600  0.19396700  0.80536900  1
  C  C9  1  0.70411200  0.29787400  0.29703200  1
  C  C10  1  0.80388400  0.79867300  0.20111000  1
  C  C11  1  0.19544900  0.69848500  0.69891700  1
  C  C12  1  0.19611600  0.79867300  0.20111000  1
  C  C13  1  0.80455100  0.69848500  0.69891700  1
  C  C14  1  0.70089400  0.19396700  0.80536900  1
  C  C15  1  0.29588800  0.29787400  0.29703200  1
  C  C16  1  0.50000000  0.60012800  0.97643100  1
  C  C17  1  0.50000000  0.91587400  0.46783900  1
  C  C18  1  0.00000000  0.39899000  0.03180000  1
  C  C19  1  0.00000000  0.10306400  0.53551100  1
