# generated using pymatgen
data_CuNi3C56
_symmetry_space_group_name_H-M   'P 1'
_cell_length_a   14.20295324
_cell_length_b   14.20295324
_cell_length_c   5.41787520
_cell_angle_alpha   81.40975225
_cell_angle_beta   81.40975225
_cell_angle_gamma   135.67285828
_symmetry_Int_Tables_number   1
_chemical_formula_structural   CuNi3C56
_chemical_formula_sum   'Cu1 Ni3 C56'
_cell_volume   701.27011347
_cell_formula_units_Z   1
loop_
 _symmetry_equiv_pos_site_id
 _symmetry_equiv_pos_as_xyz
  1  'x, y, z'
loop_
 _atom_site_type_symbol
 _atom_site_label
 _atom_site_symmetry_multiplicity
 _atom_site_fract_x
 _atom_site_fract_y
 _atom_site_fract_z
 _atom_site_occupancy
  Ni  Ni0  1  0.78652100  0.78652100  0.34041200  1
  Ni  Ni1  1  0.71472900  0.21442900  0.65933600  1
  Ni  Ni2  1  0.21442900  0.71472900  0.65933600  1
  Cu  Cu3  1  0.29088300  0.29088300  0.34610000  1
  C  C4  1  0.24939500  0.00221600  0.49868400  1
  C  C5  1  0.74935700  0.49954400  0.50010300  1
  C  C6  1  0.00221600  0.24939500  0.49868400  1
  C  C7  1  0.49954400  0.74935700  0.50010300  1
  C  C8  1  0.00029800  0.75065100  0.99855000  1
  C  C9  1  0.49863900  0.25042800  0.00124800  1
  C  C10  1  0.75065100  0.00029800  0.99855000  1
  C  C11  1  0.25042800  0.49863900  0.00124800  1
  C  C12  1  0.81978600  0.44123500  0.02695200  1
  C  C13  1  0.32029500  0.94270600  0.02580500  1
  C  C14  1  0.06168400  0.18134100  0.97032200  1
  C  C15  1  0.55636700  0.67702600  0.97802800  1
  C  C16  1  0.18134100  0.06168400  0.97032200  1
  C  C17  1  0.67702600  0.55636700  0.97802800  1
  C  C18  1  0.94270600  0.32029500  0.02580500  1
  C  C19  1  0.44123500  0.81978600  0.02695200  1
  C  C20  1  0.95487000  0.64219100  0.34273100  1
  C  C21  1  0.45404600  0.14261100  0.34512200  1
  C  C22  1  0.85809400  0.04444800  0.65634500  1
  C  C23  1  0.35861900  0.54477100  0.65622300  1
  C  C24  1  0.04444800  0.85809400  0.65634500  1
  C  C25  1  0.54477100  0.35861900  0.65622300  1
  C  C26  1  0.14261100  0.45404600  0.34512200  1
  C  C27  1  0.64219100  0.95487000  0.34273100  1
  C  C28  1  0.97502300  0.61462600  0.90039300  1
  C  C29  1  0.47610700  0.11585900  0.90046600  1
  C  C30  1  0.88770800  0.02611700  0.09327100  1
  C  C31  1  0.38396400  0.51917800  0.10524500  1
  C  C32  1  0.02611700  0.88770800  0.09327100  1
  C  C33  1  0.51917800  0.38396400  0.10524500  1
  C  C34  1  0.11585900  0.47610700  0.90046600  1
  C  C35  1  0.61462600  0.97502300  0.90039300  1
  C  C36  1  0.97850400  0.97850400  0.54288300  1
  C  C37  1  0.46890200  0.46890200  0.53441800  1
  C  C38  1  0.02171200  0.52174500  0.45743800  1
  C  C39  1  0.52174500  0.02171200  0.45743800  1
  C  C40  1  0.38549000  0.73993400  0.34756400  1
  C  C41  1  0.88678800  0.23978000  0.34646300  1
  C  C42  1  0.75631800  0.61113400  0.65665500  1
  C  C43  1  0.25875400  0.11956200  0.64562700  1
  C  C44  1  0.61113400  0.75631800  0.65665500  1
  C  C45  1  0.11956200  0.25875400  0.64562700  1
  C  C46  1  0.23978000  0.88678800  0.34646300  1
  C  C47  1  0.73993400  0.38549000  0.34756400  1
  C  C48  1  0.21474700  0.89548900  0.85408400  1
  C  C49  1  0.71245400  0.39264600  0.85879000  1
  C  C50  1  0.60593800  0.78490700  0.14579800  1
  C  C51  1  0.10730300  0.28743300  0.13938900  1
  C  C52  1  0.78490700  0.60593800  0.14579800  1
  C  C53  1  0.28743300  0.10730300  0.13938900  1
  C  C54  1  0.39264600  0.71245400  0.85879000  1
  C  C55  1  0.89548900  0.21474700  0.85408400  1
  C  C56  1  0.65227300  0.65227300  0.01386100  1
  C  C57  1  0.15196500  0.15196500  0.02961700  1
  C  C58  1  0.35001200  0.85044800  0.98572500  1
  C  C59  1  0.85044800  0.35001200  0.98572500  1
