# generated using pymatgen
data_Cu11Ni2C5
_symmetry_space_group_name_H-M   'P 1'
_cell_length_a   8.69981000
_cell_length_b   7.89711900
_cell_length_c   23.50700270
_cell_angle_alpha   90.00000000
_cell_angle_beta   108.34456124
_cell_angle_gamma   90.00000000
_symmetry_Int_Tables_number   1
_chemical_formula_structural   Cu11Ni2C5
_chemical_formula_sum   'Cu44 Ni8 C20'
_cell_volume   1532.93851969
_cell_formula_units_Z   4
loop_
 _symmetry_equiv_pos_site_id
 _symmetry_equiv_pos_as_xyz
  1  'x, y, z'
loop_
 _atom_site_type_symbol
 _atom_site_label
 _atom_site_symmetry_multiplicity
 _atom_site_fract_x
 _atom_site_fract_y
 _atom_site_fract_z
 _atom_site_occupancy
  C  C0  1  0.25059200  0.60316900  0.87290300  1
  C  C1  1  0.74940800  0.10316900  0.62709700  1
  C  C2  1  0.74940800  0.39683100  0.12709700  1
  C  C3  1  0.25059200  0.89683100  0.37290300  1
  C  C4  1  0.60755000  0.24953700  0.79868800  1
  C  C5  1  0.39245000  0.74953700  0.70131200  1
  C  C6  1  0.39245000  0.75046300  0.20131200  1
  C  C7  1  0.60755000  0.25046300  0.29868800  1
  C  C8  1  0.87109500  0.78865500  0.97868600  1
  C  C9  1  0.12890500  0.28865500  0.52131400  1
  C  C10  1  0.12890500  0.21134500  0.02131400  1
  C  C11  1  0.87109500  0.71134500  0.47868600  1
  C  C12  1  0.87730300  0.76881300  0.75648600  1
  C  C13  1  0.12269700  0.26881300  0.74351400  1
  C  C14  1  0.12269700  0.23118700  0.24351400  1
  C  C15  1  0.87730300  0.73118700  0.25648600  1
  C  C16  1  0.44149900  0.72106100  0.03932200  1
  C  C17  1  0.55850100  0.22106100  0.46067800  1
  C  C18  1  0.55850100  0.27893900  0.96067800  1
  C  C19  1  0.44149900  0.77893900  0.53932200  1
  Ni  Ni20  1  0.76397400  0.76561200  0.93408000  1
  Ni  Ni21  1  0.23602600  0.26561200  0.56592000  1
  Ni  Ni22  1  0.23602600  0.23438800  0.06592000  1
  Ni  Ni23  1  0.76397400  0.73438800  0.43408000  1
  Ni  Ni24  1  0.74819200  0.26467600  0.82124900  1
  Ni  Ni25  1  0.25180800  0.76467600  0.67875100  1
  Ni  Ni26  1  0.25180800  0.73532400  0.17875100  1
  Ni  Ni27  1  0.74819200  0.23532400  0.32124900  1
  Cu  Cu28  1  0.07958100  0.72973000  0.78325400  1
  Cu  Cu29  1  0.92041900  0.22973000  0.71674600  1
  Cu  Cu30  1  0.92041900  0.27027000  0.21674600  1
  Cu  Cu31  1  0.07958100  0.77027000  0.28325400  1
  Cu  Cu32  1  0.41617600  0.62325300  0.84296000  1
  Cu  Cu33  1  0.58382400  0.12325300  0.65704000  1
  Cu  Cu34  1  0.58382400  0.37674700  0.15704000  1
  Cu  Cu35  1  0.41617600  0.87674700  0.34296000  1
  Cu  Cu36  1  0.40671500  0.72430800  0.96477300  1
  Cu  Cu37  1  0.59328500  0.22430800  0.53522700  1
  Cu  Cu38  1  0.59328500  0.27569200  0.03522700  1
  Cu  Cu39  1  0.40671500  0.77569200  0.46477300  1
  Cu  Cu40  1  0.43450800  0.91542500  0.06649900  1
  Cu  Cu41  1  0.56549200  0.41542500  0.43350100  1
  Cu  Cu42  1  0.56549200  0.08457500  0.93350100  1
  Cu  Cu43  1  0.43450800  0.58457500  0.56649900  1
  Cu  Cu44  1  0.85000300  0.86607000  0.69127300  1
  Cu  Cu45  1  0.14999700  0.36607000  0.80872700  1
  Cu  Cu46  1  0.14999700  0.13393000  0.30872700  1
  Cu  Cu47  1  0.85000300  0.63393000  0.19127300  1
  Cu  Cu48  1  0.08198200  0.58495900  0.90123900  1
  Cu  Cu49  1  0.91801800  0.08495900  0.59876100  1
  Cu  Cu50  1  0.91801800  0.41504100  0.09876100  1
  Cu  Cu51  1  0.08198200  0.91504100  0.40123900  1
  Cu  Cu52  1  0.37461100  0.36567000  0.93242400  1
  Cu  Cu53  1  0.62538900  0.86567000  0.56757600  1
  Cu  Cu54  1  0.62538900  0.63433000  0.06757600  1
  Cu  Cu55  1  0.37461100  0.13433000  0.43242400  1
  Cu  Cu56  1  0.77082100  0.58811800  0.74773000  1
  Cu  Cu57  1  0.22917900  0.08811800  0.75227000  1
  Cu  Cu58  1  0.22917900  0.41188200  0.25227000  1
  Cu  Cu59  1  0.77082100  0.91188200  0.24773000  1
  Cu  Cu60  1  0.29548900  0.62180900  0.05934400  1
  Cu  Cu61  1  0.70451100  0.12180900  0.44065600  1
  Cu  Cu62  1  0.70451100  0.37819100  0.94065600  1
  Cu  Cu63  1  0.29548900  0.87819100  0.55934400  1
  Cu  Cu64  1  0.81360900  0.87881600  0.80567600  1
  Cu  Cu65  1  0.18639100  0.37881600  0.69432400  1
  Cu  Cu66  1  0.18639100  0.12118400  0.19432400  1
  Cu  Cu67  1  0.81360900  0.62118400  0.30567600  1
  Cu  Cu68  1  0.23935800  0.90032000  0.86989900  1
  Cu  Cu69  1  0.76064200  0.40032000  0.63010100  1
  Cu  Cu70  1  0.76064200  0.09968000  0.13010100  1
  Cu  Cu71  1  0.23935800  0.59968000  0.36989900  1
