# generated using pymatgen
data_Cu2NiC8
_symmetry_space_group_name_H-M   'P 1'
_cell_length_a   3.94736300
_cell_length_b   3.94736300
_cell_length_c   20.91574100
_cell_angle_alpha   90.00000000
_cell_angle_beta   90.00000000
_cell_angle_gamma   90.00000000
_symmetry_Int_Tables_number   1
_chemical_formula_structural   Cu2NiC8
_chemical_formula_sum   'Cu4 Ni2 C16'
_cell_volume   325.90227140
_cell_formula_units_Z   2
loop_
 _symmetry_equiv_pos_site_id
 _symmetry_equiv_pos_as_xyz
  1  'x, y, z'
loop_
 _atom_site_type_symbol
 _atom_site_label
 _atom_site_symmetry_multiplicity
 _atom_site_fract_x
 _atom_site_fract_y
 _atom_site_fract_z
 _atom_site_occupancy
  Ni  Ni0  1  0.50000000  0.50000000  0.38770100  1
  Ni  Ni1  1  0.50000000  0.50000000  0.61229900  1
  Cu  Cu2  1  0.50000000  0.50000000  0.07470800  1
  Cu  Cu3  1  0.50000000  0.50000000  0.92529200  1
  Cu  Cu4  1  0.50000000  0.50000000  0.22386300  1
  Cu  Cu5  1  0.50000000  0.50000000  0.77613700  1
  C  C6  1  0.00000000  0.00000000  0.30126700  1
  C  C7  1  0.00000000  0.00000000  0.69873300  1
  C  C8  1  0.00000000  0.00000000  0.15148500  1
  C  C9  1  0.00000000  0.00000000  0.84851500  1
  C  C10  1  0.00000000  0.00000000  0.00000000  1
  C  C11  1  0.00000000  0.00000000  0.50000000  1
  C  C12  1  0.00000000  0.50000000  0.30614100  1
  C  C13  1  0.00000000  0.50000000  0.69385900  1
  C  C14  1  0.50000000  0.00000000  0.30614100  1
  C  C15  1  0.50000000  0.00000000  0.69385900  1
  C  C16  1  0.00000000  0.50000000  0.15295300  1
  C  C17  1  0.00000000  0.50000000  0.84704700  1
  C  C18  1  0.50000000  0.00000000  0.15295300  1
  C  C19  1  0.50000000  0.00000000  0.84704700  1
  C  C20  1  0.00000000  0.50000000  0.00000000  1
  C  C21  1  0.50000000  0.00000000  0.00000000  1
