# generated using pymatgen
data_Cu2NiC22
_symmetry_space_group_name_H-M   'P 1'
_cell_length_a   10.04382547
_cell_length_b   6.00082002
_cell_length_c   5.04992855
_cell_angle_alpha   89.99630509
_cell_angle_beta   88.37008308
_cell_angle_gamma   89.99101066
_symmetry_Int_Tables_number   1
_chemical_formula_structural   Cu2NiC22
_chemical_formula_sum   'Cu2 Ni1 C22'
_cell_volume   304.24204764
_cell_formula_units_Z   1
loop_
 _symmetry_equiv_pos_site_id
 _symmetry_equiv_pos_as_xyz
  1  'x, y, z'
loop_
 _atom_site_type_symbol
 _atom_site_label
 _atom_site_symmetry_multiplicity
 _atom_site_fract_x
 _atom_site_fract_y
 _atom_site_fract_z
 _atom_site_occupancy
  Ni  Ni0  1  0.93040900  0.24999100  0.92906300  1
  Cu  Cu1  1  0.22538100  0.75008000  0.43267200  1
  Cu  Cu2  1  0.28711700  0.25017100  0.93779100  1
  C  C3  1  0.71686500  0.74999300  0.06495000  1
  C  C4  1  0.75470000  0.24996700  0.51352500  1
  C  C5  1  0.09483400  0.24991300  0.40345200  1
  C  C6  1  0.40192300  0.75011000  0.88621200  1
  C  C7  1  0.59315200  0.25002300  0.08581500  1
  C  C8  1  0.91010100  0.74999600  0.62185400  1
  C  C9  1  0.06115300  0.74998100  0.65400900  1
  C  C10  1  0.09595500  0.24995500  0.70841500  1
  C  C11  1  0.16512900  0.04689600  0.27092800  1
  C  C12  1  0.16508500  0.45277900  0.27080800  1
  C  C13  1  0.33712700  0.54963600  0.74309200  1
  C  C14  1  0.33723800  0.95071600  0.74336700  1
  C  C15  1  0.37461700  0.74988400  0.19184900  1
  C  C16  1  0.44974300  0.25007100  0.17585400  1
  C  C17  1  0.55663400  0.74995200  0.85708100  1
  C  C18  1  0.61723900  0.25002600  0.78739000  1
  C  C19  1  0.67294100  0.04857500  0.21522400  1
  C  C20  1  0.67296500  0.45139900  0.21521600  1
  C  C21  1  0.84744000  0.54486000  0.78335400  1
  C  C22  1  0.84742600  0.95515900  0.78331800  1
  C  C23  1  0.86502500  0.74998000  0.33650500  1
  C  C24  1  0.94480000  0.24989100  0.31806700  1
