# generated using pymatgen
data_CuNi3C23
_symmetry_space_group_name_H-M   'P 1'
_cell_length_a   10.32748600
_cell_length_b   10.32748600
_cell_length_c   10.32748600
_cell_angle_alpha   90.00000000
_cell_angle_beta   90.00000000
_cell_angle_gamma   90.00000000
_symmetry_Int_Tables_number   1
_chemical_formula_structural   CuNi3C23
_chemical_formula_sum   'Cu2 Ni6 C46'
_cell_volume   1101.49833432
_cell_formula_units_Z   2
loop_
 _symmetry_equiv_pos_site_id
 _symmetry_equiv_pos_as_xyz
  1  'x, y, z'
loop_
 _atom_site_type_symbol
 _atom_site_label
 _atom_site_symmetry_multiplicity
 _atom_site_fract_x
 _atom_site_fract_y
 _atom_site_fract_z
 _atom_site_occupancy
  Ni  Ni0  1  0.25000000  0.50000000  0.00000000  1
  Ni  Ni1  1  0.00000000  0.25000000  0.50000000  1
  Ni  Ni2  1  0.00000000  0.75000000  0.50000000  1
  Ni  Ni3  1  0.50000000  0.00000000  0.75000000  1
  Ni  Ni4  1  0.50000000  0.00000000  0.25000000  1
  Ni  Ni5  1  0.75000000  0.50000000  0.00000000  1
  Cu  Cu6  1  0.00000000  0.00000000  0.00000000  1
  Cu  Cu7  1  0.50000000  0.50000000  0.50000000  1
  C  C8  1  0.31586500  0.68413500  0.31586500  1
  C  C9  1  0.50000000  0.37964000  0.19571200  1
  C  C10  1  0.50000000  0.62036000  0.80428800  1
  C  C11  1  0.37964000  0.19571200  0.50000000  1
  C  C12  1  0.62036000  0.19571200  0.50000000  1
  C  C13  1  0.19571200  0.50000000  0.37964000  1
  C  C14  1  0.25000000  0.00000000  0.50000000  1
  C  C15  1  0.75000000  0.00000000  0.50000000  1
  C  C16  1  0.00000000  0.50000000  0.25000000  1
  C  C17  1  0.00000000  0.50000000  0.75000000  1
  C  C18  1  0.50000000  0.75000000  0.00000000  1
  C  C19  1  0.50000000  0.25000000  0.00000000  1
  C  C20  1  0.18413500  0.18413500  0.18413500  1
  C  C21  1  0.68413500  0.31586500  0.68413500  1
  C  C22  1  0.68413500  0.68413500  0.31586500  1
  C  C23  1  0.31586500  0.68413500  0.68413500  1
  C  C24  1  0.81586500  0.81586500  0.18413500  1
  C  C25  1  0.18413500  0.81586500  0.81586500  1
  C  C26  1  0.81586500  0.18413500  0.81586500  1
  C  C27  1  0.31586500  0.31586500  0.31586500  1
  C  C28  1  0.81586500  0.81586500  0.81586500  1
  C  C29  1  0.81586500  0.18413500  0.18413500  1
  C  C30  1  0.31586500  0.31586500  0.68413500  1
  C  C31  1  0.68413500  0.31586500  0.31586500  1
  C  C32  1  0.18413500  0.18413500  0.81586500  1
  C  C33  1  0.18413500  0.81586500  0.18413500  1
  C  C34  1  0.00000000  0.69571200  0.12036000  1
  C  C35  1  0.68413500  0.68413500  0.68413500  1
  C  C36  1  0.00000000  0.30428800  0.12036000  1
  C  C37  1  0.50000000  0.37964000  0.80428800  1
  C  C38  1  0.50000000  0.62036000  0.19571200  1
  C  C39  1  0.62036000  0.80428800  0.50000000  1
  C  C40  1  0.37964000  0.80428800  0.50000000  1
  C  C41  1  0.19571200  0.50000000  0.62036000  1
  C  C42  1  0.80428800  0.50000000  0.62036000  1
  C  C43  1  0.12036000  0.00000000  0.30428800  1
  C  C44  1  0.30428800  0.12036000  0.00000000  1
  C  C45  1  0.69571200  0.87964000  0.00000000  1
  C  C46  1  0.12036000  0.00000000  0.69571200  1
  C  C47  1  0.69571200  0.12036000  0.00000000  1
  C  C48  1  0.87964000  0.00000000  0.30428800  1
  C  C49  1  0.87964000  0.00000000  0.69571200  1
  C  C50  1  0.30428800  0.87964000  0.00000000  1
  C  C51  1  0.00000000  0.69571200  0.87964000  1
  C  C52  1  0.00000000  0.30428800  0.87964000  1
  C  C53  1  0.80428800  0.50000000  0.37964000  1
