# generated using pymatgen
data_CuNiC8
_symmetry_space_group_name_H-M   'P 1'
_cell_length_a   5.69966800
_cell_length_b   5.50020500
_cell_length_c   9.58229552
_cell_angle_alpha   55.18610588
_cell_angle_beta   90.00000000
_cell_angle_gamma   90.00000000
_symmetry_Int_Tables_number   1
_chemical_formula_structural   CuNiC8
_chemical_formula_sum   'Cu2 Ni2 C16'
_cell_volume   246.63054360
_cell_formula_units_Z   2
loop_
 _symmetry_equiv_pos_site_id
 _symmetry_equiv_pos_as_xyz
  1  'x, y, z'
loop_
 _atom_site_type_symbol
 _atom_site_label
 _atom_site_symmetry_multiplicity
 _atom_site_fract_x
 _atom_site_fract_y
 _atom_site_fract_z
 _atom_site_occupancy
  C  C0  1  0.55564500  0.76439800  0.74955900  1
  C  C1  1  0.05564500  0.23560200  0.75044100  1
  C  C2  1  0.44435500  0.23560200  0.25044100  1
  C  C3  1  0.94435500  0.76439800  0.24955900  1
  Ni  Ni4  1  0.50000000  0.50000000  0.50000000  1
  Ni  Ni5  1  0.00000000  0.50000000  0.00000000  1
  Cu  Cu6  1  0.50000000  0.00000000  0.00000000  1
  Cu  Cu7  1  0.00000000  0.00000000  0.50000000  1
  C  C8  1  0.70274500  0.24586600  0.05071900  1
  C  C9  1  0.20274500  0.75413400  0.44928100  1
  C  C10  1  0.29578300  0.15284900  0.54955000  1
  C  C11  1  0.79578300  0.84715100  0.95045000  1
  C  C12  1  0.29725500  0.75413400  0.94928100  1
  C  C13  1  0.79725500  0.24586600  0.55071900  1
  C  C14  1  0.70421700  0.84715100  0.45045000  1
  C  C15  1  0.20421700  0.15284900  0.04955000  1
  C  C16  1  0.47294200  0.34260800  0.75178500  1
  C  C17  1  0.97294200  0.65739200  0.74821500  1
  C  C18  1  0.52705800  0.65739200  0.24821500  1
  C  C19  1  0.02705800  0.34260800  0.25178500  1
