# generated using pymatgen
data_Cu6Ni4C13
_symmetry_space_group_name_H-M   'P 1'
_cell_length_a   7.60165500
_cell_length_b   12.96861200
_cell_length_c   14.20646200
_cell_angle_alpha   90.00000000
_cell_angle_beta   90.00000000
_cell_angle_gamma   90.00000000
_symmetry_Int_Tables_number   1
_chemical_formula_structural   Cu6Ni4C13
_chemical_formula_sum   'Cu24 Ni16 C52'
_cell_volume   1400.51442518
_cell_formula_units_Z   4
loop_
 _symmetry_equiv_pos_site_id
 _symmetry_equiv_pos_as_xyz
  1  'x, y, z'
loop_
 _atom_site_type_symbol
 _atom_site_label
 _atom_site_symmetry_multiplicity
 _atom_site_fract_x
 _atom_site_fract_y
 _atom_site_fract_z
 _atom_site_occupancy
  Ni  Ni0  1  0.87590400  0.61268100  0.06219700  1
  Ni  Ni1  1  0.62409600  0.88731900  0.56219700  1
  Ni  Ni2  1  0.12409600  0.11268100  0.93780300  1
  Ni  Ni3  1  0.37590400  0.38731900  0.43780300  1
  Ni  Ni4  1  0.12409600  0.38731900  0.93780300  1
  Ni  Ni5  1  0.37590400  0.11268100  0.43780300  1
  Ni  Ni6  1  0.87590400  0.88731900  0.06219700  1
  Ni  Ni7  1  0.62409600  0.61268100  0.56219700  1
  Ni  Ni8  1  0.02829200  0.75000000  0.97092000  1
  Ni  Ni9  1  0.47170800  0.75000000  0.47092000  1
  Ni  Ni10  1  0.97170800  0.25000000  0.02908000  1
  Ni  Ni11  1  0.52829200  0.25000000  0.52908000  1
  Ni  Ni12  1  0.71498100  0.75000000  0.97289600  1
  Ni  Ni13  1  0.78501900  0.75000000  0.47289600  1
  Ni  Ni14  1  0.28501900  0.25000000  0.02710400  1
  Ni  Ni15  1  0.21498100  0.25000000  0.52710400  1
  Cu  Cu16  1  0.64196900  0.39946900  0.06306900  1
  Cu  Cu17  1  0.85803100  0.10053100  0.56306900  1
  Cu  Cu18  1  0.35803100  0.89946900  0.93693100  1
  Cu  Cu19  1  0.14196900  0.60053100  0.43693100  1
  Cu  Cu20  1  0.35803100  0.60053100  0.93693100  1
  Cu  Cu21  1  0.14196900  0.89946900  0.43693100  1
  Cu  Cu22  1  0.64196900  0.10053100  0.06306900  1
  Cu  Cu23  1  0.85803100  0.39946900  0.56306900  1
  Cu  Cu24  1  0.14515100  0.48978800  0.20349200  1
  Cu  Cu25  1  0.35484900  0.01021200  0.70349200  1
  Cu  Cu26  1  0.85484900  0.98978800  0.79650800  1
  Cu  Cu27  1  0.64515100  0.51021200  0.29650800  1
  Cu  Cu28  1  0.85484900  0.51021200  0.79650800  1
  Cu  Cu29  1  0.64515100  0.98978800  0.29650800  1
  Cu  Cu30  1  0.14515100  0.01021200  0.20349200  1
  Cu  Cu31  1  0.35484900  0.48978800  0.70349200  1
  Cu  Cu32  1  0.12236400  0.75000000  0.74382200  1
  Cu  Cu33  1  0.37763600  0.75000000  0.24382200  1
  Cu  Cu34  1  0.87763600  0.25000000  0.25617800  1
  Cu  Cu35  1  0.62236400  0.25000000  0.75617800  1
  Cu  Cu36  1  0.60294300  0.75000000  0.75765300  1
  Cu  Cu37  1  0.89705700  0.75000000  0.25765300  1
  Cu  Cu38  1  0.39705700  0.25000000  0.24234700  1
  Cu  Cu39  1  0.10294300  0.25000000  0.74234700  1
  C  C40  1  0.87851900  0.52833800  0.12223700  1
  C  C41  1  0.62148100  0.97166200  0.62223700  1
  C  C42  1  0.12148100  0.02833800  0.87776300  1
  C  C43  1  0.37851900  0.47166200  0.37776300  1
  C  C44  1  0.12148100  0.47166200  0.87776300  1
  C  C45  1  0.37851900  0.02833800  0.37776300  1
  C  C46  1  0.87851900  0.97166200  0.12223700  1
  C  C47  1  0.62148100  0.52833800  0.62223700  1
  C  C48  1  0.03411900  0.65612900  0.03335500  1
  C  C49  1  0.46588100  0.84387100  0.53335500  1
  C  C50  1  0.96588100  0.15612900  0.96664500  1
  C  C51  1  0.53411900  0.34387100  0.46664500  1
  C  C52  1  0.96588100  0.34387100  0.96664500  1
  C  C53  1  0.53411900  0.15612900  0.46664500  1
  C  C54  1  0.03411900  0.84387100  0.03335500  1
  C  C55  1  0.46588100  0.65612900  0.53335500  1
  C  C56  1  0.71786900  0.65434600  0.03351800  1
  C  C57  1  0.78213100  0.84565400  0.53351800  1
  C  C58  1  0.28213100  0.15434600  0.96648200  1
  C  C59  1  0.21786900  0.34565400  0.46648200  1
  C  C60  1  0.28213100  0.34565400  0.96648200  1
  C  C61  1  0.21786900  0.15434600  0.46648200  1
  C  C62  1  0.71786900  0.84565400  0.03351800  1
  C  C63  1  0.78213100  0.65434600  0.53351800  1
  C  C64  1  0.18337700  0.75000000  0.91088300  1
  C  C65  1  0.31662300  0.75000000  0.41088300  1
  C  C66  1  0.81662300  0.25000000  0.08911700  1
  C  C67  1  0.68337700  0.25000000  0.58911700  1
  C  C68  1  0.87119100  0.75000000  0.91094900  1
  C  C69  1  0.62880900  0.75000000  0.41094900  1
  C  C70  1  0.12880900  0.25000000  0.08905100  1
  C  C71  1  0.37119100  0.25000000  0.58905100  1
  C  C72  1  0.55516500  0.75000000  0.91723100  1
  C  C73  1  0.94483500  0.75000000  0.41723100  1
  C  C74  1  0.44483500  0.25000000  0.08276900  1
  C  C75  1  0.05516500  0.25000000  0.58276900  1
  C  C76  1  0.62428300  0.35933500  0.22782500  1
  C  C77  1  0.87571700  0.14066500  0.72782500  1
  C  C78  1  0.37571700  0.85933500  0.77217500  1
  C  C79  1  0.12428300  0.64066500  0.27217500  1
  C  C80  1  0.37571700  0.64066500  0.77217500  1
  C  C81  1  0.12428300  0.85933500  0.27217500  1
  C  C82  1  0.62428300  0.14066500  0.22782500  1
  C  C83  1  0.87571700  0.35933500  0.72782500  1
  C  C84  1  0.06163300  0.56509200  0.69320700  1
  C  C85  1  0.43836700  0.93490800  0.19320700  1
  C  C86  1  0.93836700  0.06509200  0.30679300  1
  C  C87  1  0.56163300  0.43490800  0.80679300  1
  C  C88  1  0.93836700  0.43490800  0.30679300  1
  C  C89  1  0.56163300  0.06509200  0.80679300  1
  C  C90  1  0.06163300  0.93490800  0.69320700  1
  C  C91  1  0.43836700  0.56509200  0.19320700  1
