# generated using pymatgen
data_CuNiC8
_symmetry_space_group_name_H-M   'P 1'
_cell_length_a   10.01736400
_cell_length_b   5.71290000
_cell_length_c   9.68460681
_cell_angle_alpha   86.99047464
_cell_angle_beta   90.00000000
_cell_angle_gamma   90.00000000
_symmetry_Int_Tables_number   1
_chemical_formula_structural   CuNiC8
_chemical_formula_sum   'Cu4 Ni4 C32'
_cell_volume   553.46821760
_cell_formula_units_Z   4
loop_
 _symmetry_equiv_pos_site_id
 _symmetry_equiv_pos_as_xyz
  1  'x, y, z'
loop_
 _atom_site_type_symbol
 _atom_site_label
 _atom_site_symmetry_multiplicity
 _atom_site_fract_x
 _atom_site_fract_y
 _atom_site_fract_z
 _atom_site_occupancy
  C  C0  1  0.31844900  0.73230000  0.49917000  1
  C  C1  1  0.81844900  0.26770000  0.00083000  1
  C  C2  1  0.68155100  0.26770000  0.50083000  1
  C  C3  1  0.18155100  0.73230000  0.99917000  1
  Ni  Ni4  1  0.39511200  0.30681700  0.80950300  1
  Ni  Ni5  1  0.89511200  0.69318300  0.69049700  1
  Ni  Ni6  1  0.10488800  0.30681700  0.30950300  1
  Ni  Ni7  1  0.60488800  0.69318300  0.19049700  1
  Cu  Cu8  1  0.61032800  0.80589900  0.81174300  1
  Cu  Cu9  1  0.38967200  0.19410100  0.18825700  1
  Cu  Cu10  1  0.88967200  0.80589900  0.31174300  1
  Cu  Cu11  1  0.11032800  0.19410100  0.68825700  1
  C  C12  1  0.44915900  0.87938300  0.12521000  1
  C  C13  1  0.05405500  0.62553300  0.37188500  1
  C  C14  1  0.71526500  0.52150000  0.74917800  1
  C  C15  1  0.28473500  0.47850000  0.25082200  1
  C  C16  1  0.45618900  0.10901500  0.36779000  1
  C  C17  1  0.81029900  0.74174000  0.49735100  1
  C  C18  1  0.78366000  0.97259900  0.75039800  1
  C  C19  1  0.95618900  0.89098500  0.13221000  1
  C  C20  1  0.44594500  0.62553300  0.87188500  1
  C  C21  1  0.21526500  0.47850000  0.75082200  1
  C  C22  1  0.05084100  0.87938300  0.62521000  1
  C  C23  1  0.55084100  0.12061700  0.87479000  1
  C  C24  1  0.28366000  0.02740100  0.74960200  1
  C  C25  1  0.95874300  0.61213000  0.87486300  1
  C  C26  1  0.54381100  0.89098500  0.63221000  1
  C  C27  1  0.04381100  0.10901500  0.86779000  1
  C  C28  1  0.21634000  0.02740100  0.24960200  1
  C  C29  1  0.94915900  0.12061700  0.37479000  1
  C  C30  1  0.45874300  0.38787000  0.62513700  1
  C  C31  1  0.94594500  0.37446700  0.62811500  1
  C  C32  1  0.04125700  0.38787000  0.12513700  1
  C  C33  1  0.71634000  0.97259900  0.25039800  1
  C  C34  1  0.54125700  0.61213000  0.37486300  1
  C  C35  1  0.31029900  0.25826000  0.00264900  1
  C  C36  1  0.18970100  0.25826000  0.50264900  1
  C  C37  1  0.68970100  0.74174000  0.99735100  1
  C  C38  1  0.55405500  0.37446700  0.12811500  1
  C  C39  1  0.78473500  0.52150000  0.24917800  1
