# generated using pymatgen
data_Cu12Ni3C2
_symmetry_space_group_name_H-M   'P 1'
_cell_length_a   9.01078579
_cell_length_b   9.01078579
_cell_length_c   11.17113138
_cell_angle_alpha   87.43737616
_cell_angle_beta   87.43737616
_cell_angle_gamma   80.13976187
_symmetry_Int_Tables_number   1
_chemical_formula_structural   Cu12Ni3C2
_chemical_formula_sum   'Cu48 Ni12 C8'
_cell_volume   892.10687263
_cell_formula_units_Z   4
loop_
 _symmetry_equiv_pos_site_id
 _symmetry_equiv_pos_as_xyz
  1  'x, y, z'
loop_
 _atom_site_type_symbol
 _atom_site_label
 _atom_site_symmetry_multiplicity
 _atom_site_fract_x
 _atom_site_fract_y
 _atom_site_fract_z
 _atom_site_occupancy
  C  C0  1  0.73651900  0.63723700  0.84545100  1
  C  C1  1  0.36276300  0.26348100  0.65454900  1
  C  C2  1  0.26348100  0.36276300  0.15454900  1
  C  C3  1  0.63723700  0.73651900  0.34545100  1
  C  C4  1  0.83085900  0.17103600  0.02751000  1
  C  C5  1  0.82896400  0.16914100  0.47249000  1
  C  C6  1  0.16914100  0.82896400  0.97249000  1
  C  C7  1  0.17103600  0.83085900  0.52751000  1
  Ni  Ni8  1  0.43658800  0.84112800  0.63801100  1
  Ni  Ni9  1  0.15887200  0.56341200  0.86198900  1
  Ni  Ni10  1  0.56341200  0.15887200  0.36198900  1
  Ni  Ni11  1  0.84112800  0.43658800  0.13801100  1
  Ni  Ni12  1  0.86020700  0.88360900  0.57626100  1
  Ni  Ni13  1  0.11639100  0.13979300  0.92373900  1
  Ni  Ni14  1  0.13979300  0.11639100  0.42373900  1
  Ni  Ni15  1  0.88360900  0.86020700  0.07626100  1
  Ni  Ni16  1  0.57167000  0.27436600  0.91957600  1
  Ni  Ni17  1  0.72563400  0.42833000  0.58042400  1
  Ni  Ni18  1  0.42833000  0.72563400  0.08042400  1
  Ni  Ni19  1  0.27436600  0.57167000  0.41957600  1
  Cu  Cu20  1  0.52226800  0.83707500  0.52294200  1
  Cu  Cu21  1  0.16292500  0.47773200  0.97705800  1
  Cu  Cu22  1  0.47773200  0.16292500  0.47705800  1
  Cu  Cu23  1  0.83707500  0.52226800  0.02294200  1
  Cu  Cu24  1  0.39814900  0.99444400  0.68179900  1
  Cu  Cu25  1  0.00555600  0.60185100  0.81820100  1
  Cu  Cu26  1  0.60185100  0.00555600  0.31820100  1
  Cu  Cu27  1  0.99444400  0.39814900  0.18179900  1
  Cu  Cu28  1  0.51026300  0.73356700  0.72745200  1
  Cu  Cu29  1  0.26643300  0.48973700  0.77254800  1
  Cu  Cu30  1  0.48973700  0.26643300  0.27254800  1
  Cu  Cu31  1  0.73356700  0.51026300  0.22745200  1
  Cu  Cu32  1  0.28526700  0.78599800  0.61692300  1
  Cu  Cu33  1  0.21400200  0.71473300  0.88307700  1
  Cu  Cu34  1  0.71473300  0.21400200  0.38307700  1
  Cu  Cu35  1  0.78599800  0.28526700  0.11692300  1
  Cu  Cu36  1  0.79672000  0.83203800  0.68788300  1
  Cu  Cu37  1  0.16796200  0.20328000  0.81211700  1
  Cu  Cu38  1  0.20328000  0.16796200  0.31211700  1
  Cu  Cu39  1  0.83203800  0.79672000  0.18788300  1
  Cu  Cu40  1  0.84183800  0.80368400  0.46911400  1
  Cu  Cu41  1  0.19631600  0.15816200  0.03088600  1
  Cu  Cu42  1  0.15816200  0.19631600  0.53088600  1
  Cu  Cu43  1  0.80368400  0.84183800  0.96911400  1
  Cu  Cu44  1  0.78894800  0.05044200  0.56063600  1
  Cu  Cu45  1  0.94955800  0.21105200  0.93936400  1
  Cu  Cu46  1  0.21105200  0.94955800  0.43936400  1
  Cu  Cu47  1  0.05044200  0.78894800  0.06063600  1
  Cu  Cu48  1  0.02769000  0.88711100  0.59534800  1
  Cu  Cu49  1  0.11288900  0.97231000  0.90465200  1
  Cu  Cu50  1  0.97231000  0.11288900  0.40465200  1
  Cu  Cu51  1  0.88711100  0.02769000  0.09534800  1
  Cu  Cu52  1  0.70280400  0.14896900  0.95891500  1
  Cu  Cu53  1  0.85103100  0.29719600  0.54108500  1
  Cu  Cu54  1  0.29719600  0.85103100  0.04108500  1
  Cu  Cu55  1  0.14896900  0.70280400  0.45891500  1
  Cu  Cu56  1  0.50499000  0.20450400  0.82389900  1
  Cu  Cu57  1  0.79549600  0.49501000  0.67610100  1
  Cu  Cu58  1  0.49501000  0.79549600  0.17610100  1
  Cu  Cu59  1  0.20450400  0.50499000  0.32389900  1
  Cu  Cu60  1  0.63404800  0.40777100  0.87922000  1
  Cu  Cu61  1  0.59222900  0.36595200  0.62078000  1
  Cu  Cu62  1  0.36595200  0.59222900  0.12078000  1
  Cu  Cu63  1  0.40777100  0.63404800  0.37922000  1
  Cu  Cu64  1  0.46694800  0.30071100  0.02309400  1
  Cu  Cu65  1  0.69928900  0.53305200  0.47690600  1
  Cu  Cu66  1  0.53305200  0.69928900  0.97690600  1
  Cu  Cu67  1  0.30071100  0.46694800  0.52309400  1
