# generated using pymatgen
data_CuNiC10
_symmetry_space_group_name_H-M   'P 1'
_cell_length_a   5.14741400
_cell_length_b   8.10279300
_cell_length_c   18.94080900
_cell_angle_alpha   90.00000000
_cell_angle_beta   90.00000000
_cell_angle_gamma   90.00000000
_symmetry_Int_Tables_number   1
_chemical_formula_structural   CuNiC10
_chemical_formula_sum   'Cu4 Ni4 C40'
_cell_volume   789.99140873
_cell_formula_units_Z   4
loop_
 _symmetry_equiv_pos_site_id
 _symmetry_equiv_pos_as_xyz
  1  'x, y, z'
loop_
 _atom_site_type_symbol
 _atom_site_label
 _atom_site_symmetry_multiplicity
 _atom_site_fract_x
 _atom_site_fract_y
 _atom_site_fract_z
 _atom_site_occupancy
  Ni  Ni0  1  0.00000000  0.75000000  0.77581100  1
  Ni  Ni1  1  0.50000000  0.25000000  0.72418900  1
  Ni  Ni2  1  0.00000000  0.25000000  0.22418900  1
  Ni  Ni3  1  0.50000000  0.75000000  0.27581100  1
  Cu  Cu4  1  0.50000000  0.75000000  0.50333800  1
  Cu  Cu5  1  0.00000000  0.25000000  0.99666200  1
  Cu  Cu6  1  0.50000000  0.25000000  0.49666200  1
  Cu  Cu7  1  0.00000000  0.75000000  0.00333800  1
  C  C8  1  0.47750800  0.50786400  0.90004800  1
  C  C9  1  0.97750800  0.49213600  0.59995200  1
  C  C10  1  0.02249200  0.00786400  0.59995200  1
  C  C11  1  0.52249200  0.99213600  0.90004800  1
  C  C12  1  0.52249200  0.49213600  0.09995200  1
  C  C13  1  0.02249200  0.50786400  0.40004800  1
  C  C14  1  0.97750800  0.99213600  0.40004800  1
  C  C15  1  0.47750800  0.00786400  0.09995200  1
  C  C16  1  0.59934100  0.51259800  0.81353900  1
  C  C17  1  0.09934100  0.48740200  0.68646100  1
  C  C18  1  0.90065900  0.01259800  0.68646100  1
  C  C19  1  0.40065900  0.98740200  0.81353900  1
  C  C20  1  0.40065900  0.48740200  0.18646100  1
  C  C21  1  0.90065900  0.51259800  0.31353900  1
  C  C22  1  0.09934100  0.98740200  0.31353900  1
  C  C23  1  0.59934100  0.01259800  0.18646100  1
  C  C24  1  0.75207400  0.49748200  0.96449200  1
  C  C25  1  0.25207400  0.50251800  0.53550800  1
  C  C26  1  0.74792600  0.99748200  0.53550800  1
  C  C27  1  0.24792600  0.00251800  0.96449200  1
  C  C28  1  0.24792600  0.50251800  0.03550800  1
  C  C29  1  0.74792600  0.49748200  0.46449200  1
  C  C30  1  0.25207400  0.00251800  0.46449200  1
  C  C31  1  0.75207400  0.99748200  0.03550800  1
  C  C32  1  0.26637700  0.83156800  0.09511300  1
  C  C33  1  0.76637700  0.16843200  0.40488700  1
  C  C34  1  0.23362300  0.33156800  0.40488700  1
  C  C35  1  0.73362300  0.66843200  0.09511300  1
  C  C36  1  0.73362300  0.16843200  0.90488700  1
  C  C37  1  0.23362300  0.83156800  0.59511300  1
  C  C38  1  0.76637700  0.66843200  0.59511300  1
  C  C39  1  0.26637700  0.33156800  0.90488700  1
  C  C40  1  0.25840100  0.18279500  0.09213500  1
  C  C41  1  0.75840100  0.81720500  0.40786500  1
  C  C42  1  0.24159900  0.68279500  0.40786500  1
  C  C43  1  0.74159900  0.31720500  0.09213500  1
  C  C44  1  0.74159900  0.81720500  0.90786500  1
  C  C45  1  0.24159900  0.18279500  0.59213500  1
  C  C46  1  0.75840100  0.31720500  0.59213500  1
  C  C47  1  0.25840100  0.68279500  0.90786500  1
