# generated using pymatgen
data_Cu16Ni2C19
_symmetry_space_group_name_H-M   'P 1'
_cell_length_a   8.39635739
_cell_length_b   8.39635739
_cell_length_c   4.70163976
_cell_angle_alpha   81.06295358
_cell_angle_beta   81.06295358
_cell_angle_gamma   105.84547262
_symmetry_Int_Tables_number   1
_chemical_formula_structural   Cu16Ni2C19
_chemical_formula_sum   'Cu16 Ni2 C19'
_cell_volume   308.09766846
_cell_formula_units_Z   1
loop_
 _symmetry_equiv_pos_site_id
 _symmetry_equiv_pos_as_xyz
  1  'x, y, z'
loop_
 _atom_site_type_symbol
 _atom_site_label
 _atom_site_symmetry_multiplicity
 _atom_site_fract_x
 _atom_site_fract_y
 _atom_site_fract_z
 _atom_site_occupancy
  C  C0  1  0.00000000  0.00000000  0.00000000  1
  C  C1  1  0.60997200  0.39002800  0.00000000  1
  C  C2  1  0.39002800  0.60997200  0.00000000  1
  Ni  Ni3  1  0.31343500  0.31343500  0.61545700  1
  Ni  Ni4  1  0.68656500  0.68656500  0.38454300  1
  Cu  Cu5  1  0.95829000  0.79575700  0.63338000  1
  Cu  Cu6  1  0.79575700  0.95829000  0.63338000  1
  Cu  Cu7  1  0.04171000  0.20424300  0.36662000  1
  Cu  Cu8  1  0.20424300  0.04171000  0.36662000  1
  Cu  Cu9  1  0.94822800  0.68564200  0.94413600  1
  Cu  Cu10  1  0.68564200  0.94822800  0.94413600  1
  Cu  Cu11  1  0.05177200  0.31435800  0.05586400  1
  Cu  Cu12  1  0.31435800  0.05177200  0.05586400  1
  Cu  Cu13  1  0.82728700  0.43890200  0.52406500  1
  Cu  Cu14  1  0.43890200  0.82728700  0.52406500  1
  Cu  Cu15  1  0.17271300  0.56109800  0.47593500  1
  Cu  Cu16  1  0.56109800  0.17271300  0.47593500  1
  Cu  Cu17  1  0.82456700  0.26408600  0.72047400  1
  Cu  Cu18  1  0.26408600  0.82456700  0.72047400  1
  Cu  Cu19  1  0.17543300  0.73591400  0.27952600  1
  Cu  Cu20  1  0.73591400  0.17543300  0.27952600  1
  C  C21  1  0.15641600  0.15641600  0.61934700  1
  C  C22  1  0.84358400  0.84358400  0.38065300  1
  C  C23  1  0.39412500  0.39412500  0.28712500  1
  C  C24  1  0.60587500  0.60587500  0.71287500  1
  C  C25  1  0.24377000  0.43965300  0.76838300  1
  C  C26  1  0.43965300  0.24377000  0.76838300  1
  C  C27  1  0.75623000  0.56034700  0.23161700  1
  C  C28  1  0.56034700  0.75623000  0.23161700  1
  C  C29  1  0.02135100  0.78808900  0.79745700  1
  C  C30  1  0.78808900  0.02135100  0.79745700  1
  C  C31  1  0.97864900  0.21191100  0.20254300  1
  C  C32  1  0.21191100  0.97864900  0.20254300  1
  C  C33  1  0.82974600  0.38250400  0.72467800  1
  C  C34  1  0.38250400  0.82974600  0.72467800  1
  C  C35  1  0.17025400  0.61749600  0.27532200  1
  C  C36  1  0.61749600  0.17025400  0.27532200  1
