# generated using pymatgen
data_Cu2NiC9
_symmetry_space_group_name_H-M   'P 1'
_cell_length_a   4.09220675
_cell_length_b   4.09220675
_cell_length_c   10.83416080
_cell_angle_alpha   79.10697903
_cell_angle_beta   79.10697903
_cell_angle_gamma   89.96384396
_symmetry_Int_Tables_number   1
_chemical_formula_structural   Cu2NiC9
_chemical_formula_sum   'Cu2 Ni1 C9'
_cell_volume   174.83551179
_cell_formula_units_Z   1
loop_
 _symmetry_equiv_pos_site_id
 _symmetry_equiv_pos_as_xyz
  1  'x, y, z'
loop_
 _atom_site_type_symbol
 _atom_site_label
 _atom_site_symmetry_multiplicity
 _atom_site_fract_x
 _atom_site_fract_y
 _atom_site_fract_z
 _atom_site_occupancy
  Ni  Ni0  1  0.50000000  0.50000000  0.00000000  1
  Cu  Cu1  1  0.31718900  0.31718900  0.36562100  1
  Cu  Cu2  1  0.68281100  0.68281100  0.63437800  1
  C  C3  1  0.09788000  0.09788000  0.80424000  1
  C  C4  1  0.90212000  0.90212000  0.19576000  1
  C  C5  1  0.20819800  0.20819800  0.58360400  1
  C  C6  1  0.79180200  0.79180200  0.41639600  1
  C  C7  1  0.60766300  0.10766300  0.78467400  1
  C  C8  1  0.89233700  0.39233700  0.21532600  1
  C  C9  1  0.39233700  0.89233700  0.21532600  1
  C  C10  1  0.10766300  0.60766300  0.78467400  1
  C  C11  1  0.00000000  0.00000000  0.00000000  1
