# generated using pymatgen
data_CuNi3C10
_symmetry_space_group_name_H-M   'P 1'
_cell_length_a   5.30527746
_cell_length_b   13.90276017
_cell_length_c   18.54216873
_cell_angle_alpha   90.00000000
_cell_angle_beta   90.00000000
_cell_angle_gamma   90.00000000
_symmetry_Int_Tables_number   1
_chemical_formula_structural   CuNi3C10
_chemical_formula_sum   'Cu8 Ni24 C80'
_cell_volume   1367.63328419
_cell_formula_units_Z   8
loop_
 _symmetry_equiv_pos_site_id
 _symmetry_equiv_pos_as_xyz
  1  'x, y, z'
loop_
 _atom_site_type_symbol
 _atom_site_label
 _atom_site_symmetry_multiplicity
 _atom_site_fract_x
 _atom_site_fract_y
 _atom_site_fract_z
 _atom_site_occupancy
  Ni  Ni0  1  0.99014150  0.21697924  0.99243456  1
  Ni  Ni1  1  0.00985850  0.78302076  0.49243456  1
  Ni  Ni2  1  0.00985850  0.71697924  0.99243456  1
  Ni  Ni3  1  0.99014150  0.28302076  0.49243456  1
  Ni  Ni4  1  0.99250846  0.95159707  0.64935480  1
  Ni  Ni5  1  0.00749154  0.04840293  0.14935480  1
  Ni  Ni6  1  0.00749154  0.45159707  0.64935480  1
  Ni  Ni7  1  0.99250846  0.54840293  0.14935480  1
  Ni  Ni8  1  0.99618366  0.86119494  0.82803393  1
  Ni  Ni9  1  0.00381634  0.13880506  0.32803393  1
  Ni  Ni10  1  0.00381634  0.36119494  0.82803393  1
  Ni  Ni11  1  0.99618366  0.63880506  0.32803393  1
  Ni  Ni12  1  0.48033348  0.79813014  0.72942724  1
  Ni  Ni13  1  0.51966652  0.20186986  0.22942724  1
  Ni  Ni14  1  0.51966652  0.29813014  0.72942724  1
  Ni  Ni15  1  0.48033348  0.70186986  0.22942724  1
  Ni  Ni16  1  0.53964854  0.96829689  0.88817608  1
  Ni  Ni17  1  0.46035146  0.03170311  0.38817608  1
  Ni  Ni18  1  0.46035146  0.46829689  0.88817608  1
  Ni  Ni19  1  0.53964854  0.53170311  0.38817608  1
  Ni  Ni20  1  0.50000178  0.88690635  0.54988162  1
  Ni  Ni21  1  0.49999822  0.11309365  0.04988162  1
  Ni  Ni22  1  0.49999822  0.38690635  0.54988162  1
  Ni  Ni23  1  0.50000178  0.61309365  0.04988162  1
  Cu  Cu24  1  0.92801394  0.61100548  0.80446558  1
  Cu  Cu25  1  0.07198606  0.38899452  0.30446558  1
  Cu  Cu26  1  0.07198606  0.11100548  0.80446558  1
  Cu  Cu27  1  0.92801394  0.88899452  0.30446558  1
  Cu  Cu28  1  0.55777845  0.63823306  0.57305804  1
  Cu  Cu29  1  0.44222155  0.36176694  0.07305804  1
  Cu  Cu30  1  0.44222155  0.13823306  0.57305804  1
  Cu  Cu31  1  0.55777845  0.86176694  0.07305804  1
  C  C32  1  0.96887292  0.47529114  0.98108864  1
  C  C33  1  0.03112708  0.52470886  0.48108864  1
  C  C34  1  0.03112708  0.97529114  0.98108864  1
  C  C35  1  0.96887292  0.02470886  0.48108864  1
  C  C36  1  0.99118040  0.22329242  0.65264614  1
  C  C37  1  0.00881960  0.77670758  0.15264614  1
  C  C38  1  0.00881960  0.72329242  0.65264614  1
  C  C39  1  0.99118040  0.27670758  0.15264614  1
  C  C40  1  0.47910385  0.52612717  0.72451959  1
  C  C41  1  0.52089615  0.47387283  0.22451959  1
  C  C42  1  0.52089615  0.02612717  0.72451959  1
  C  C43  1  0.47910385  0.97387283  0.22451959  1
  C  C44  1  0.46114065  0.72650570  0.89621164  1
  C  C45  1  0.53885935  0.27349430  0.39621164  1
  C  C46  1  0.53885935  0.22650570  0.89621164  1
  C  C47  1  0.46114065  0.77349430  0.39621164  1
  C  C48  1  0.57556465  0.80782338  0.85056302  1
  C  C49  1  0.42443535  0.19217662  0.35056302  1
  C  C50  1  0.42443535  0.30782338  0.85056302  1
  C  C51  1  0.57556465  0.69217662  0.35056302  1
  C  C52  1  0.69828393  0.47243974  0.76364833  1
  C  C53  1  0.30171607  0.52756026  0.26364833  1
  C  C54  1  0.30171607  0.97243974  0.76364833  1
  C  C55  1  0.69828393  0.02756026  0.26364833  1
  C  C56  1  0.88076398  0.88044914  0.99487104  1
  C  C57  1  0.11923602  0.11955086  0.49487104  1
  C  C58  1  0.11923602  0.38044914  0.99487104  1
  C  C59  1  0.88076398  0.61955086  0.49487104  1
  C  C60  1  0.79374501  0.77720571  0.61129946  1
  C  C61  1  0.20625499  0.22279429  0.11129946  1
  C  C62  1  0.20625499  0.27720571  0.61129946  1
  C  C63  1  0.79374501  0.72279429  0.11129946  1
  C  C64  1  0.68367236  0.45949006  0.00013988  1
  C  C65  1  0.31632764  0.54050994  0.50013988  1
  C  C66  1  0.31632764  0.95949006  0.00013988  1
  C  C67  1  0.68367236  0.04050994  0.50013988  1
  C  C68  1  0.91840093  0.44295745  0.52730481  1
  C  C69  1  0.08159907  0.55704255  0.02730481  1
  C  C70  1  0.08159907  0.94295745  0.52730481  1
  C  C71  1  0.91840093  0.05704255  0.02730481  1
  C  C72  1  0.77467712  0.99925817  0.76124178  1
  C  C73  1  0.22532288  0.00074183  0.26124178  1
  C  C74  1  0.22532288  0.49925817  0.76124178  1
  C  C75  1  0.77467712  0.50074183  0.26124178  1
  C  C76  1  0.61240182  0.63160782  0.88444448  1
  C  C77  1  0.38759818  0.36839218  0.38444448  1
  C  C78  1  0.38759818  0.13160782  0.88444448  1
  C  C79  1  0.61240182  0.86839218  0.38444448  1
  C  C80  1  0.53336506  0.63473704  0.72981931  1
  C  C81  1  0.46663494  0.36526296  0.22981931  1
  C  C82  1  0.46663494  0.13473704  0.72981931  1
  C  C83  1  0.53336506  0.86526296  0.22981931  1
  C  C84  1  0.95250885  0.61481659  0.64724415  1
  C  C85  1  0.04749115  0.38518341  0.14724415  1
  C  C86  1  0.04749115  0.11481659  0.64724415  1
  C  C87  1  0.95250885  0.88518341  0.14724415  1
  C  C88  1  0.82200440  0.20944004  0.87470110  1
  C  C89  1  0.17799560  0.79055996  0.37470110  1
  C  C90  1  0.17799560  0.70944004  0.87470110  1
  C  C91  1  0.82200440  0.29055996  0.37470110  1
  C  C92  1  0.99111080  0.25369472  0.73334998  1
  C  C93  1  0.00888920  0.74630528  0.23334998  1
  C  C94  1  0.00888920  0.75369472  0.73334998  1
  C  C95  1  0.99111080  0.24630528  0.23334998  1
  C  C96  1  0.52717644  0.99628497  0.64330305  1
  C  C97  1  0.47282356  0.00371503  0.14330305  1
  C  C98  1  0.47282356  0.49628497  0.64330305  1
  C  C99  1  0.52717644  0.50371503  0.14330305  1
  C  C100  1  0.00383163  0.99818657  0.89910619  1
  C  C101  1  0.99616837  0.00181343  0.39910619  1
  C  C102  1  0.99616837  0.49818657  0.89910619  1
  C  C103  1  0.00383163  0.50181343  0.39910619  1
  C  C104  1  0.26604412  0.74988074  0.61767087  1
  C  C105  1  0.73395588  0.25011926  0.11767087  1
  C  C106  1  0.73395588  0.24988074  0.61767087  1
  C  C107  1  0.26604412  0.75011926  0.11767087  1
  C  C108  1  0.46914429  0.75024807  0.97859467  1
  C  C109  1  0.53085571  0.24975193  0.47859467  1
  C  C110  1  0.53085571  0.25024807  0.97859467  1
  C  C111  1  0.46914429  0.74975193  0.47859467  1
