# generated using pymatgen
data_CuNiC7
_symmetry_space_group_name_H-M   'P 1'
_cell_length_a   5.76657800
_cell_length_b   6.40475470
_cell_length_c   7.03365287
_cell_angle_alpha   113.13745194
_cell_angle_beta   90.00000000
_cell_angle_gamma   90.00000000
_symmetry_Int_Tables_number   1
_chemical_formula_structural   CuNiC7
_chemical_formula_sum   'Cu2 Ni2 C14'
_cell_volume   238.88229514
_cell_formula_units_Z   2
loop_
 _symmetry_equiv_pos_site_id
 _symmetry_equiv_pos_as_xyz
  1  'x, y, z'
loop_
 _atom_site_type_symbol
 _atom_site_label
 _atom_site_symmetry_multiplicity
 _atom_site_fract_x
 _atom_site_fract_y
 _atom_site_fract_z
 _atom_site_occupancy
  Ni  Ni0  1  0.75000000  0.07136900  0.20344200  1
  Ni  Ni1  1  0.25000000  0.92863100  0.79655800  1
  Cu  Cu2  1  0.75000000  0.38974100  0.82134900  1
  Cu  Cu3  1  0.25000000  0.61025900  0.17865100  1
  C  C4  1  0.75000000  0.76643200  0.53582100  1
  C  C5  1  0.25000000  0.23356800  0.46417900  1
  C  C6  1  0.96812000  0.76582800  0.40286000  1
  C  C7  1  0.03188000  0.23417200  0.59714000  1
  C  C8  1  0.46812000  0.23417200  0.59714000  1
  C  C9  1  0.53188000  0.76582800  0.40286000  1
  C  C10  1  0.75000000  0.55842500  0.59434200  1
  C  C11  1  0.25000000  0.44157500  0.40565800  1
  C  C12  1  0.99881400  0.67669700  0.96578300  1
  C  C13  1  0.00118600  0.32330300  0.03421700  1
  C  C14  1  0.49881400  0.32330300  0.03421700  1
  C  C15  1  0.50118600  0.67669700  0.96578300  1
  C  C16  1  0.75000000  0.98995900  0.73808000  1
  C  C17  1  0.25000000  0.01004100  0.26192000  1
