# generated using pymatgen
data_CuNi2C5
_symmetry_space_group_name_H-M   'P 1'
_cell_length_a   8.15753072
_cell_length_b   8.15753072
_cell_length_c   7.26317508
_cell_angle_alpha   83.48581648
_cell_angle_beta   83.48581648
_cell_angle_gamma   45.90541411
_symmetry_Int_Tables_number   1
_chemical_formula_structural   CuNi2C5
_chemical_formula_sum   'Cu2 Ni4 C10'
_cell_volume   344.47933140
_cell_formula_units_Z   2
loop_
 _symmetry_equiv_pos_site_id
 _symmetry_equiv_pos_as_xyz
  1  'x, y, z'
loop_
 _atom_site_type_symbol
 _atom_site_label
 _atom_site_symmetry_multiplicity
 _atom_site_fract_x
 _atom_site_fract_y
 _atom_site_fract_z
 _atom_site_occupancy
  Ni  Ni0  1  0.11104600  0.67557000  0.57891900  1
  Ni  Ni1  1  0.32443000  0.88895400  0.92108100  1
  Ni  Ni2  1  0.88895400  0.32443000  0.42108100  1
  Ni  Ni3  1  0.67557000  0.11104600  0.07891900  1
  Cu  Cu4  1  0.00000000  0.50000000  0.00000000  1
  Cu  Cu5  1  0.50000000  0.00000000  0.50000000  1
  C  C6  1  0.91939500  0.08060500  0.75000000  1
  C  C7  1  0.08060500  0.91939500  0.25000000  1
  C  C8  1  0.28023500  0.53738500  0.93245600  1
  C  C9  1  0.46261500  0.71976500  0.56754400  1
  C  C10  1  0.71976500  0.46261500  0.06754400  1
  C  C11  1  0.53738500  0.28023500  0.43245600  1
  C  C12  1  0.14360100  0.29928700  0.68831300  1
  C  C13  1  0.70071300  0.85639900  0.81168700  1
  C  C14  1  0.85639900  0.70071300  0.31168700  1
  C  C15  1  0.29928700  0.14360100  0.18831300  1
