# generated using pymatgen
data_CuNiC2
_symmetry_space_group_name_H-M   'P 1'
_cell_length_a   3.78806500
_cell_length_b   5.82019400
_cell_length_c   6.59297400
_cell_angle_alpha   90.00000000
_cell_angle_beta   90.00000000
_cell_angle_gamma   90.00000000
_symmetry_Int_Tables_number   1
_chemical_formula_structural   CuNiC2
_chemical_formula_sum   'Cu2 Ni2 C4'
_cell_volume   145.35709888
_cell_formula_units_Z   2
loop_
 _symmetry_equiv_pos_site_id
 _symmetry_equiv_pos_as_xyz
  1  'x, y, z'
loop_
 _atom_site_type_symbol
 _atom_site_label
 _atom_site_symmetry_multiplicity
 _atom_site_fract_x
 _atom_site_fract_y
 _atom_site_fract_z
 _atom_site_occupancy
  C  C0  1  0.50000000  0.50342100  0.04189200  1
  C  C1  1  0.50000000  0.00342100  0.95810800  1
  C  C2  1  0.00000000  0.50627300  0.47055500  1
  C  C3  1  0.00000000  0.00627300  0.52944500  1
  Ni  Ni4  1  0.00000000  0.71128700  0.83296900  1
  Ni  Ni5  1  0.00000000  0.21128700  0.16703100  1
  Cu  Cu6  1  0.50000000  0.27901900  0.66563000  1
  Cu  Cu7  1  0.50000000  0.77901900  0.33437000  1
