# generated using pymatgen
data_Cu3Ni7
_symmetry_space_group_name_H-M   'P 1'
_cell_length_a   9.68330601
_cell_length_b   9.68330601
_cell_length_c   6.23407600
_cell_angle_alpha   90.00000000
_cell_angle_beta   90.00000000
_cell_angle_gamma   120.00000007
_symmetry_Int_Tables_number   1
_chemical_formula_structural   Cu3Ni7
_chemical_formula_sum   'Cu6 Ni14'
_cell_volume   506.23251595
_cell_formula_units_Z   2
loop_
 _symmetry_equiv_pos_site_id
 _symmetry_equiv_pos_as_xyz
  1  'x, y, z'
loop_
 _atom_site_type_symbol
 _atom_site_label
 _atom_site_symmetry_multiplicity
 _atom_site_fract_x
 _atom_site_fract_y
 _atom_site_fract_z
 _atom_site_occupancy
  Ni  Ni0  1  0.33333300  0.66666700  0.03085200  1
  Ni  Ni1  1  0.66666700  0.33333300  0.53085200  1
  Ni  Ni2  1  0.12487600  0.87512400  0.24991400  1
  Ni  Ni3  1  0.24975200  0.12487600  0.74991400  1
  Ni  Ni4  1  0.87512400  0.75024800  0.74991400  1
  Ni  Ni5  1  0.12487600  0.24975200  0.24991400  1
  Ni  Ni6  1  0.75024800  0.87512400  0.24991400  1
  Ni  Ni7  1  0.87512400  0.12487600  0.74991400  1
  Ni  Ni8  1  0.54212700  0.45787300  0.05670800  1
  Ni  Ni9  1  0.08425400  0.54212700  0.55670800  1
  Ni  Ni10  1  0.45787300  0.91574600  0.55670800  1
  Ni  Ni11  1  0.54212700  0.08425400  0.05670800  1
  Ni  Ni12  1  0.91574600  0.45787300  0.05670800  1
  Ni  Ni13  1  0.45787300  0.54212700  0.55670800  1
  Cu  Cu14  1  0.81524300  0.18475700  0.29309400  1
  Cu  Cu15  1  0.63048500  0.81524300  0.79309400  1
  Cu  Cu16  1  0.18475700  0.36951500  0.79309400  1
  Cu  Cu17  1  0.81524300  0.63048500  0.29309400  1
  Cu  Cu18  1  0.36951500  0.18475700  0.29309400  1
  Cu  Cu19  1  0.18475700  0.81524300  0.79309400  1
