# generated using pymatgen
data_Cu5Ni3C
_symmetry_space_group_name_H-M   'P 1'
_cell_length_a   9.45375200
_cell_length_b   7.73225500
_cell_length_c   13.69216200
_cell_angle_alpha   90.00000000
_cell_angle_beta   90.00000000
_cell_angle_gamma   90.00000000
_symmetry_Int_Tables_number   1
_chemical_formula_structural   Cu5Ni3C
_chemical_formula_sum   'Cu20 Ni12 C4'
_cell_volume   1000.88090148
_cell_formula_units_Z   4
loop_
 _symmetry_equiv_pos_site_id
 _symmetry_equiv_pos_as_xyz
  1  'x, y, z'
loop_
 _atom_site_type_symbol
 _atom_site_label
 _atom_site_symmetry_multiplicity
 _atom_site_fract_x
 _atom_site_fract_y
 _atom_site_fract_z
 _atom_site_occupancy
  C  C0  1  0.69962000  0.25000000  0.32122200  1
  C  C1  1  0.19962000  0.25000000  0.17877800  1
  C  C2  1  0.30038000  0.75000000  0.67877800  1
  C  C3  1  0.80038000  0.75000000  0.82122200  1
  Ni  Ni4  1  0.95593700  0.25000000  0.87886200  1
  Ni  Ni5  1  0.45593700  0.25000000  0.62113800  1
  Ni  Ni6  1  0.04406300  0.75000000  0.12113800  1
  Ni  Ni7  1  0.54406300  0.75000000  0.37886200  1
  Ni  Ni8  1  0.91250100  0.93113300  0.61291700  1
  Ni  Ni9  1  0.41250100  0.56886700  0.88708300  1
  Ni  Ni10  1  0.08749900  0.43113300  0.38708300  1
  Ni  Ni11  1  0.58749900  0.06886700  0.11291700  1
  Ni  Ni12  1  0.08749900  0.06886700  0.38708300  1
  Ni  Ni13  1  0.58749900  0.43113300  0.11291700  1
  Ni  Ni14  1  0.91250100  0.56886700  0.61291700  1
  Ni  Ni15  1  0.41250100  0.93113300  0.88708300  1
  Cu  Cu16  1  0.87868900  0.25000000  0.21745400  1
  Cu  Cu17  1  0.37868900  0.25000000  0.28254600  1
  Cu  Cu18  1  0.12131100  0.75000000  0.78254600  1
  Cu  Cu19  1  0.62131100  0.75000000  0.71745400  1
  Cu  Cu20  1  0.58494700  0.25000000  0.07390700  1
  Cu  Cu21  1  0.08494700  0.25000000  0.42609300  1
  Cu  Cu22  1  0.41505300  0.75000000  0.92609300  1
  Cu  Cu23  1  0.91505300  0.75000000  0.57390700  1
  Cu  Cu24  1  0.58157400  0.25000000  0.69958200  1
  Cu  Cu25  1  0.08157400  0.25000000  0.80041800  1
  Cu  Cu26  1  0.41842600  0.75000000  0.30041800  1
  Cu  Cu27  1  0.91842600  0.75000000  0.19958200  1
  Cu  Cu28  1  0.66198500  0.00887700  0.40797600  1
  Cu  Cu29  1  0.16198500  0.49112300  0.09202400  1
  Cu  Cu30  1  0.33801500  0.50887700  0.59202400  1
  Cu  Cu31  1  0.83801500  0.99112300  0.90797600  1
  Cu  Cu32  1  0.33801500  0.99112300  0.59202400  1
  Cu  Cu33  1  0.83801500  0.50887700  0.90797600  1
  Cu  Cu34  1  0.66198500  0.49112300  0.40797600  1
  Cu  Cu35  1  0.16198500  0.00887700  0.09202400  1
