# generated using pymatgen
data_Cu3Ni3C20
_symmetry_space_group_name_H-M   'P 1'
_cell_length_a   5.18426100
_cell_length_b   8.56137500
_cell_length_c   15.82139662
_cell_angle_alpha   69.71033829
_cell_angle_beta   90.00000000
_cell_angle_gamma   90.00000000
_symmetry_Int_Tables_number   1
_chemical_formula_structural   Cu3Ni3C20
_chemical_formula_sum   'Cu6 Ni6 C40'
_cell_volume   658.65135121
_cell_formula_units_Z   2
loop_
 _symmetry_equiv_pos_site_id
 _symmetry_equiv_pos_as_xyz
  1  'x, y, z'
loop_
 _atom_site_type_symbol
 _atom_site_label
 _atom_site_symmetry_multiplicity
 _atom_site_fract_x
 _atom_site_fract_y
 _atom_site_fract_z
 _atom_site_occupancy
  Ni  Ni0  1  0.55436200  0.29545000  0.21905000  1
  Ni  Ni1  1  0.05436200  0.70455000  0.28095000  1
  Ni  Ni2  1  0.44563800  0.70455000  0.78095000  1
  Ni  Ni3  1  0.94563800  0.29545000  0.71905000  1
  Ni  Ni4  1  0.50000000  0.00000000  0.50000000  1
  Ni  Ni5  1  0.00000000  0.00000000  0.00000000  1
  Cu  Cu6  1  0.48722700  0.21211300  0.62300600  1
  Cu  Cu7  1  0.51277300  0.78788700  0.37699400  1
  Cu  Cu8  1  0.98722700  0.78788700  0.87699400  1
  Cu  Cu9  1  0.01277300  0.21211300  0.12300600  1
  Cu  Cu10  1  0.00000000  0.50000000  0.50000000  1
  Cu  Cu11  1  0.50000000  0.50000000  0.00000000  1
  C  C12  1  0.99225200  0.03882500  0.35138500  1
  C  C13  1  0.48463700  0.41776300  0.39680600  1
  C  C14  1  0.98463700  0.58223700  0.10319400  1
  C  C15  1  0.01536300  0.41776300  0.89680600  1
  C  C16  1  0.00774800  0.96117500  0.64861500  1
  C  C17  1  0.51536300  0.58223700  0.60319400  1
  C  C18  1  0.50774800  0.03882500  0.85138500  1
  C  C19  1  0.49225200  0.96117500  0.14861500  1
  C  C20  1  0.41691600  0.80581500  0.25110300  1
  C  C21  1  0.91661000  0.75052600  0.00864400  1
  C  C22  1  0.39963200  0.39331600  0.29934300  1
  C  C23  1  0.38201300  0.14762300  0.15800900  1
  C  C24  1  0.60036800  0.60668400  0.70065700  1
  C  C25  1  0.08308400  0.80581500  0.75110300  1
  C  C26  1  0.89963200  0.60668400  0.20065700  1
  C  C27  1  0.72273500  0.51281700  0.89684000  1
  C  C28  1  0.67629100  0.09498000  0.92753700  1
  C  C29  1  0.58308400  0.19418500  0.74889700  1
  C  C30  1  0.11798700  0.14762300  0.65800900  1
  C  C31  1  0.27726500  0.48718300  0.10316000  1
  C  C32  1  0.27114700  0.57671100  0.40456500  1
  C  C33  1  0.32370900  0.90502000  0.07246300  1
  C  C34  1  0.68010800  0.99138400  0.62931100  1
  C  C35  1  0.18010800  0.00861600  0.87068900  1
  C  C36  1  0.77114700  0.42328900  0.09543500  1
  C  C37  1  0.10036800  0.39331600  0.79934300  1
  C  C38  1  0.17629100  0.90502000  0.57246300  1
  C  C39  1  0.22273500  0.48718300  0.60316000  1
  C  C40  1  0.81989200  0.99138400  0.12931100  1
  C  C41  1  0.31989200  0.00861600  0.37068900  1
  C  C42  1  0.08339000  0.24947400  0.99135600  1
  C  C43  1  0.41661000  0.24947400  0.49135600  1
  C  C44  1  0.72885300  0.42328900  0.59543500  1
  C  C45  1  0.91691600  0.19418500  0.24889700  1
  C  C46  1  0.61798700  0.85237700  0.84199100  1
  C  C47  1  0.82370900  0.09498000  0.42753700  1
  C  C48  1  0.58339000  0.75052600  0.50864400  1
  C  C49  1  0.77726500  0.51281700  0.39684000  1
  C  C50  1  0.22885300  0.57671100  0.90456500  1
  C  C51  1  0.88201300  0.85237700  0.34199100  1
