# generated using pymatgen
data_Cu6Ni2C3
_symmetry_space_group_name_H-M   'P 1'
_cell_length_a   5.21794800
_cell_length_b   10.70595600
_cell_length_c   12.33186500
_cell_angle_alpha   90.00000000
_cell_angle_beta   90.00000000
_cell_angle_gamma   90.00000000
_symmetry_Int_Tables_number   1
_chemical_formula_structural   Cu6Ni2C3
_chemical_formula_sum   'Cu24 Ni8 C12'
_cell_volume   688.89647526
_cell_formula_units_Z   4
loop_
 _symmetry_equiv_pos_site_id
 _symmetry_equiv_pos_as_xyz
  1  'x, y, z'
loop_
 _atom_site_type_symbol
 _atom_site_label
 _atom_site_symmetry_multiplicity
 _atom_site_fract_x
 _atom_site_fract_y
 _atom_site_fract_z
 _atom_site_occupancy
  C  C0  1  0.63326400  0.85705500  0.24277400  1
  C  C1  1  0.13326400  0.14294500  0.75722600  1
  C  C2  1  0.13326400  0.64294500  0.74277400  1
  C  C3  1  0.63326400  0.35705500  0.25722600  1
  C  C4  1  0.15454600  0.59566700  0.38155900  1
  C  C5  1  0.65454600  0.40433300  0.61844100  1
  C  C6  1  0.65454600  0.90433300  0.88155900  1
  C  C7  1  0.15454600  0.09566700  0.11844100  1
  C  C8  1  0.65781800  0.67148200  0.51441800  1
  C  C9  1  0.15781800  0.32851800  0.48558200  1
  C  C10  1  0.15781800  0.82851800  0.01441800  1
  C  C11  1  0.65781800  0.17148200  0.98558200  1
  Ni  Ni12  1  0.61551800  0.84066600  0.55057900  1
  Ni  Ni13  1  0.11551800  0.15933400  0.44942100  1
  Ni  Ni14  1  0.11551800  0.65933400  0.05057900  1
  Ni  Ni15  1  0.61551800  0.34066600  0.94942100  1
  Ni  Ni16  1  0.65302300  0.88316600  0.66875800  1
  Ni  Ni17  1  0.15302300  0.11683400  0.33124200  1
  Ni  Ni18  1  0.15302300  0.61683400  0.16875800  1
  Ni  Ni19  1  0.65302300  0.38316600  0.83124200  1
  Cu  Cu20  1  0.95158400  0.67065000  0.50090500  1
  Cu  Cu21  1  0.45158400  0.32935000  0.49909500  1
  Cu  Cu22  1  0.45158400  0.82935000  0.00090500  1
  Cu  Cu23  1  0.95158400  0.17065000  0.99909500  1
  Cu  Cu24  1  0.51367300  0.64885500  0.40730100  1
  Cu  Cu25  1  0.01367300  0.35114500  0.59269900  1
  Cu  Cu26  1  0.01367300  0.85114500  0.90730100  1
  Cu  Cu27  1  0.51367300  0.14885500  0.09269900  1
  Cu  Cu28  1  0.57140000  0.58730300  0.60903100  1
  Cu  Cu29  1  0.07140000  0.41269700  0.39096900  1
  Cu  Cu30  1  0.07140000  0.91269700  0.10903100  1
  Cu  Cu31  1  0.57140000  0.08730300  0.89096900  1
  Cu  Cu32  1  0.58941900  0.91607800  0.47712800  1
  Cu  Cu33  1  0.08941900  0.08392200  0.52287200  1
  Cu  Cu34  1  0.08941900  0.58392200  0.97712800  1
  Cu  Cu35  1  0.58941900  0.41607800  0.02287200  1
  Cu  Cu36  1  0.50131200  0.83541900  0.74062900  1
  Cu  Cu37  1  0.00131200  0.16458100  0.25937100  1
  Cu  Cu38  1  0.00131200  0.66458100  0.24062900  1
  Cu  Cu39  1  0.50131200  0.33541900  0.75937100  1
  Cu  Cu40  1  0.83104500  0.95631100  0.69031900  1
  Cu  Cu41  1  0.33104500  0.04368900  0.30968100  1
  Cu  Cu42  1  0.33104500  0.54368900  0.19031900  1
  Cu  Cu43  1  0.83104500  0.45631100  0.80968100  1
