# generated using pymatgen
data_Cu4Ni3C8
_symmetry_space_group_name_H-M   'P 1'
_cell_length_a   10.79563324
_cell_length_b   10.79563324
_cell_length_c   4.99981990
_cell_angle_alpha   78.12233291
_cell_angle_beta   78.12233291
_cell_angle_gamma   15.28598994
_symmetry_Int_Tables_number   1
_chemical_formula_structural   Cu4Ni3C8
_chemical_formula_sum   'Cu4 Ni3 C8'
_cell_volume   150.27428859
_cell_formula_units_Z   1
loop_
 _symmetry_equiv_pos_site_id
 _symmetry_equiv_pos_as_xyz
  1  'x, y, z'
loop_
 _atom_site_type_symbol
 _atom_site_label
 _atom_site_symmetry_multiplicity
 _atom_site_fract_x
 _atom_site_fract_y
 _atom_site_fract_z
 _atom_site_occupancy
  Ni  Ni0  1  0.50000000  0.50000000  0.50000000  1
  Ni  Ni1  1  0.24757500  0.24757500  0.77564200  1
  Ni  Ni2  1  0.75242500  0.75242500  0.22435800  1
  Cu  Cu3  1  0.37687300  0.37687300  0.62423900  1
  Cu  Cu4  1  0.88377300  0.88377300  0.12338400  1
  Cu  Cu5  1  0.62312700  0.62312700  0.37576100  1
  Cu  Cu6  1  0.11622700  0.11622700  0.87661600  1
  C  C7  1  0.81646900  0.81646900  0.85152500  1
  C  C8  1  0.31736800  0.31736800  0.34099100  1
  C  C9  1  0.68263200  0.68263200  0.65900900  1
  C  C10  1  0.18353100  0.18353100  0.14847500  1
  C  C11  1  0.55979900  0.55979900  0.74757400  1
  C  C12  1  0.05877700  0.05877700  0.27482100  1
  C  C13  1  0.94122300  0.94122300  0.72517900  1
  C  C14  1  0.44020100  0.44020100  0.25242600  1
