# generated using pymatgen
data_CuNi149
_symmetry_space_group_name_H-M   'P 1'
_cell_length_a   15.91944317
_cell_length_b   15.91944889
_cell_length_c   15.57301448
_cell_angle_alpha   90.00000000
_cell_angle_beta   90.00000000
_cell_angle_gamma   120.00001418
_symmetry_Int_Tables_number   1
_chemical_formula_structural   CuNi149
_chemical_formula_sum   'Cu1 Ni149'
_cell_volume   3417.89848002
_cell_formula_units_Z   1
loop_
 _symmetry_equiv_pos_site_id
 _symmetry_equiv_pos_as_xyz
  1  'x, y, z'
loop_
 _atom_site_type_symbol
 _atom_site_label
 _atom_site_symmetry_multiplicity
 _atom_site_fract_x
 _atom_site_fract_y
 _atom_site_fract_z
 _atom_site_occupancy
  Ni  Ni0  1  0.19804613  0.00083230  -0.00000000  1
  Ni  Ni1  1  0.80278617  0.00083230  -0.00000000  1
  Ni  Ni2  1  0.99916770  0.19721383  -0.00000000  1
  Ni  Ni3  1  0.19804613  0.19721383  -0.00000000  1
  Ni  Ni4  1  0.80034220  0.19965780  -0.00000000  1
  Ni  Ni5  1  0.39931560  0.19965780  -0.00000000  1
  Ni  Ni6  1  0.59988592  0.19977085  -0.00000000  1
  Ni  Ni7  1  0.19932166  0.39864332  -0.00000000  1
  Ni  Ni8  1  0.00006618  0.39956284  -0.00000000  1
  Ni  Ni9  1  0.39949666  0.39956284  -0.00000000  1
  Ni  Ni10  1  0.80022915  0.40011508  -0.00000000  1
  Ni  Ni11  1  0.59988592  0.40011508  -0.00000000  1
  Ni  Ni12  1  0.40010314  0.59989586  -0.00000000  1
  Ni  Ni13  1  0.19979272  0.59989686  -0.00000000  1
  Ni  Ni14  1  0.00006618  0.60050234  -0.00000000  1
  Ni  Ni15  1  0.60043716  0.60050334  -0.00000000  1
  Ni  Ni16  1  0.80034220  0.60068440  -0.00000000  1
  Ni  Ni17  1  0.40010314  0.80020728  -0.00000000  1
  Ni  Ni18  1  0.19932166  0.80067834  -0.00000000  1
  Ni  Ni19  1  0.60135668  0.80067834  -0.00000000  1
  Ni  Ni20  1  0.99916770  0.80195387  -0.00000000  1
  Ni  Ni21  1  0.80278617  0.80195387  -0.00000000  1
  Ni  Ni22  1  0.60043716  0.99993482  -0.00000000  1
  Ni  Ni23  1  0.39949666  0.99993482  -0.00000000  1
  Ni  Ni24  1  0.06574375  0.13148750  0.16469887  1
  Ni  Ni25  1  0.86851350  0.93425725  0.16469887  1
  Ni  Ni26  1  0.06574375  0.93425725  0.16469887  1
  Ni  Ni27  1  0.26613634  0.33243373  0.16611988  1
  Ni  Ni28  1  0.06629839  0.33243373  0.16611988  1
  Ni  Ni29  1  0.66756527  0.73386366  0.16611988  1
  Ni  Ni30  1  0.06629839  0.73386366  0.16611988  1
  Ni  Ni31  1  0.66756527  0.93370161  0.16611988  1
  Ni  Ni32  1  0.26613634  0.93370161  0.16611988  1
  Ni  Ni33  1  0.66666600  0.33333300  0.16655761  1
  Ni  Ni34  1  0.46667269  0.53332731  0.16637863  1
  Ni  Ni35  1  0.06665461  0.53332731  0.16637863  1
  Ni  Ni36  1  0.46667269  0.93334639  0.16637863  1
  Ni  Ni37  1  0.46669178  0.13327455  0.16646965  1
  Ni  Ni38  1  0.66658277  0.13327455  0.16646965  1
  Ni  Ni39  1  0.46669178  0.33341823  0.16646965  1
  Ni  Ni40  1  0.86672545  0.33341823  0.16646965  1
  Ni  Ni41  1  0.86672545  0.53330822  0.16646965  1
  Ni  Ni42  1  0.66658277  0.53330822  0.16646965  1
  Ni  Ni43  1  0.26650745  0.53301490  0.16651755  1
  Ni  Ni44  1  0.46698510  0.73349255  0.16651755  1
  Ni  Ni45  1  0.26650745  0.73349255  0.16651755  1
  Ni  Ni46  1  0.86634611  0.13365389  0.16708054  1
  Ni  Ni47  1  0.26730778  0.13365389  0.16708054  1
  Ni  Ni48  1  0.86634611  0.73269222  0.16708054  1
  Ni  Ni49  1  0.00000000  0.00000000  0.33290697  1
  Ni  Ni50  1  0.19941661  0.99984071  0.33312556  1
  Ni  Ni51  1  0.80042410  0.99984071  0.33312556  1
  Ni  Ni52  1  0.00016029  0.19957590  0.33312556  1
  Ni  Ni53  1  0.19941661  0.19957690  0.33312556  1
  Ni  Ni54  1  0.00016029  0.80058339  0.33312556  1
  Ni  Ni55  1  0.80042410  0.80058339  0.33312556  1
  Ni  Ni56  1  0.19991008  0.39982016  0.33303622  1
  Ni  Ni57  1  0.19991008  0.80008992  0.33303622  1
  Ni  Ni58  1  0.60018084  0.80009092  0.33303622  1
  Ni  Ni59  1  0.60025216  0.99997119  0.33311257  1
  Ni  Ni60  1  0.39971903  0.99997119  0.33311257  1
  Ni  Ni61  1  0.00002881  0.39974784  0.33311257  1
  Ni  Ni62  1  0.39971903  0.39974784  0.33311257  1
  Ni  Ni63  1  0.00002881  0.60028097  0.33311257  1
  Ni  Ni64  1  0.60025216  0.60028197  0.33311257  1
  Ni  Ni65  1  0.60000532  0.20000965  0.33306745  1
  Ni  Ni66  1  0.79999035  0.39999468  0.33306745  1
  Ni  Ni67  1  0.60000532  0.39999568  0.33306745  1
  Ni  Ni68  1  0.39988085  0.19993992  0.33328634  1
  Ni  Ni69  1  0.80005908  0.19994092  0.33328634  1
  Ni  Ni70  1  0.80005908  0.60011915  0.33328634  1
  Ni  Ni71  1  0.39999074  0.60000826  0.33314331  1
  Ni  Ni72  1  0.20001752  0.60000926  0.33314331  1
  Ni  Ni73  1  0.39999074  0.79998248  0.33314331  1
  Ni  Ni74  1  0.06651025  0.13301949  0.50000000  1
  Ni  Ni75  1  0.26635509  0.13317804  0.50000000  1
  Ni  Ni76  1  0.86682196  0.13317804  0.50000000  1
  Ni  Ni77  1  0.46661288  0.13316714  0.50000000  1
  Ni  Ni78  1  0.66655426  0.13316714  0.50000000  1
  Ni  Ni79  1  0.26658814  0.33301490  0.50000000  1
  Ni  Ni80  1  0.06642676  0.33301490  0.50000000  1
  Ni  Ni81  1  0.66666600  0.33333300  0.50000000  1
  Ni  Ni82  1  0.46661288  0.33344574  0.50000000  1
  Ni  Ni83  1  0.86683286  0.33344574  0.50000000  1
  Ni  Ni84  1  0.26652020  0.53304140  0.50000000  1
  Ni  Ni85  1  0.06647172  0.53323536  0.50000000  1
  Ni  Ni86  1  0.46676464  0.53323636  0.50000000  1
  Ni  Ni87  1  0.86683286  0.53338712  0.50000000  1
  Ni  Ni88  1  0.66655426  0.53338712  0.50000000  1
  Ni  Ni89  1  0.26652020  0.73347980  0.50000000  1
  Ni  Ni90  1  0.46695860  0.73347980  0.50000000  1
  Ni  Ni91  1  0.66698510  0.73341186  0.50000000  1
  Ni  Ni92  1  0.06642676  0.73341186  0.50000000  1
  Ni  Ni93  1  0.86682196  0.73364491  0.50000000  1
  Ni  Ni94  1  0.46676464  0.93352828  0.50000000  1
  Ni  Ni95  1  0.86698051  0.93349075  0.50000000  1
  Ni  Ni96  1  0.06651025  0.93349075  0.50000000  1
  Ni  Ni97  1  0.26658814  0.93357324  0.50000000  1
  Ni  Ni98  1  0.66698510  0.93357424  0.50000000  1
  Ni  Ni99  1  0.39999074  0.60000826  0.66685669  1
  Ni  Ni100  1  0.20001752  0.60000926  0.66685669  1
  Ni  Ni101  1  0.39999074  0.79998248  0.66685669  1
  Ni  Ni102  1  0.39988085  0.19993992  0.66671366  1
  Ni  Ni103  1  0.80005908  0.19994092  0.66671366  1
  Ni  Ni104  1  0.80005908  0.60011915  0.66671366  1
  Ni  Ni105  1  0.60000532  0.20000965  0.66693255  1
  Ni  Ni106  1  0.79999035  0.39999468  0.66693255  1
  Ni  Ni107  1  0.60000532  0.39999568  0.66693255  1
  Ni  Ni108  1  0.60025216  0.99997119  0.66688743  1
  Ni  Ni109  1  0.39971903  0.99997119  0.66688743  1
  Ni  Ni110  1  0.00002881  0.39974784  0.66688743  1
  Ni  Ni111  1  0.39971903  0.39974784  0.66688743  1
  Ni  Ni112  1  0.00002881  0.60028097  0.66688743  1
  Ni  Ni113  1  0.60025216  0.60028197  0.66688743  1
  Ni  Ni114  1  0.19991008  0.39982016  0.66696378  1
  Ni  Ni115  1  0.19991008  0.80008992  0.66696378  1
  Ni  Ni116  1  0.60018084  0.80009092  0.66696378  1
  Ni  Ni117  1  0.19941661  0.99984071  0.66687544  1
  Ni  Ni118  1  0.80042410  0.99984071  0.66687544  1
  Ni  Ni119  1  0.00016029  0.19957590  0.66687544  1
  Ni  Ni120  1  0.19941661  0.19957690  0.66687544  1
  Ni  Ni121  1  0.00016029  0.80058339  0.66687544  1
  Ni  Ni122  1  0.80042410  0.80058339  0.66687544  1
  Ni  Ni123  1  0.00000000  0.00000000  0.66709303  1
  Ni  Ni124  1  0.86634611  0.13365389  0.83291946  1
  Ni  Ni125  1  0.26730778  0.13365389  0.83291946  1
  Ni  Ni126  1  0.86634611  0.73269222  0.83291946  1
  Ni  Ni127  1  0.26650745  0.53301490  0.83348145  1
  Ni  Ni128  1  0.46698510  0.73349255  0.83348145  1
  Ni  Ni129  1  0.26650745  0.73349255  0.83348145  1
  Ni  Ni130  1  0.46669178  0.13327455  0.83353035  1
  Ni  Ni131  1  0.66658277  0.13327455  0.83353035  1
  Ni  Ni132  1  0.46669178  0.33341823  0.83353035  1
  Ni  Ni133  1  0.86672545  0.33341823  0.83353035  1
  Ni  Ni134  1  0.86672545  0.53330822  0.83353035  1
  Ni  Ni135  1  0.66658277  0.53330822  0.83353035  1
  Ni  Ni136  1  0.46667269  0.53332731  0.83362037  1
  Ni  Ni137  1  0.06665461  0.53332731  0.83362037  1
  Ni  Ni138  1  0.46667269  0.93334639  0.83362037  1
  Ni  Ni139  1  0.66666600  0.33333300  0.83344339  1
  Ni  Ni140  1  0.26613634  0.33243373  0.83388012  1
  Ni  Ni141  1  0.06629839  0.33243373  0.83388012  1
  Ni  Ni142  1  0.66756527  0.73386366  0.83388012  1
  Ni  Ni143  1  0.06629839  0.73386366  0.83388012  1
  Ni  Ni144  1  0.66756527  0.93370161  0.83388012  1
  Ni  Ni145  1  0.26613634  0.93370161  0.83388012  1
  Ni  Ni146  1  0.06574375  0.13148750  0.83530113  1
  Ni  Ni147  1  0.86851350  0.93425725  0.83530113  1
  Ni  Ni148  1  0.06574375  0.93425725  0.83530113  1
  Cu  Cu149  1  0.00000000  0.00000000  -0.00000000  1
