# generated using pymatgen
data_Cu3(Ni5C31)2
_symmetry_space_group_name_H-M   'P 1'
_cell_length_a   14.01908083
_cell_length_b   14.01908083
_cell_length_c   14.01908083
_cell_angle_alpha   109.47122063
_cell_angle_beta   109.47122063
_cell_angle_gamma   109.47122063
_symmetry_Int_Tables_number   1
_chemical_formula_structural   Cu3(Ni5C31)2
_chemical_formula_sum   'Cu6 Ni20 C124'
_cell_volume   2120.98075739
_cell_formula_units_Z   2
loop_
 _symmetry_equiv_pos_site_id
 _symmetry_equiv_pos_as_xyz
  1  'x, y, z'
loop_
 _atom_site_type_symbol
 _atom_site_label
 _atom_site_symmetry_multiplicity
 _atom_site_fract_x
 _atom_site_fract_y
 _atom_site_fract_z
 _atom_site_occupancy
  C  C0  1  0.79438611  0.54438611  0.75000000  1
  C  C1  1  0.70561389  0.95561389  0.25000000  1
  C  C2  1  0.54438611  0.75000000  0.79438611  1
  C  C3  1  0.29438611  0.25000000  0.04438611  1
  C  C4  1  0.95561389  0.25000000  0.70561389  1
  C  C5  1  0.20561389  0.75000000  0.45561389  1
  C  C6  1  0.75000000  0.79438611  0.54438611  1
  C  C7  1  0.04438611  0.29438611  0.25000000  1
  C  C8  1  0.25000000  0.70561389  0.95561389  1
  C  C9  1  0.45561389  0.20561389  0.75000000  1
  C  C10  1  0.25000000  0.04438611  0.29438611  1
  C  C11  1  0.75000000  0.45561389  0.20561389  1
  C  C12  1  0.74169772  0.47129415  0.46532326  1
  C  C13  1  0.75830228  0.72362553  0.22959643  1
  C  C14  1  0.49402910  0.02870585  0.27040357  1
  C  C15  1  0.47129415  0.46532326  0.74169772  1
  C  C16  1  0.24169772  0.96532326  0.97129415  1
  C  C17  1  0.00597090  0.77637447  0.03467674  1
  C  C18  1  0.72362553  0.22959643  0.75830228  1
  C  C19  1  0.25830228  0.72959643  0.22362553  1
  C  C20  1  0.02870585  0.27040357  0.49402910  1
  C  C21  1  0.99402910  0.77040357  0.52870585  1
  C  C22  1  0.77637447  0.03467674  0.00597090  1
  C  C23  1  0.50597090  0.53467674  0.27637447  1
  C  C24  1  0.46532326  0.74169772  0.47129415  1
  C  C25  1  0.97129415  0.24169772  0.96532326  1
  C  C26  1  0.27040357  0.49402910  0.02870585  1
  C  C27  1  0.52870585  0.99402910  0.77040357  1
  C  C28  1  0.03467674  0.00597090  0.77637447  1
  C  C29  1  0.27637447  0.50597090  0.53467674  1
  C  C30  1  0.22959643  0.75830228  0.72362553  1
  C  C31  1  0.22362553  0.25830228  0.72959643  1
  C  C32  1  0.96532326  0.97129415  0.24169772  1
  C  C33  1  0.72959643  0.22362553  0.25830228  1
  C  C34  1  0.53467674  0.27637447  0.50597090  1
  C  C35  1  0.77040357  0.52870585  0.99402910  1
  C  C36  1  0.84865443  0.84865443  0.84865443  1
  C  C37  1  0.65134557  -0.00000000  0.50000000  1
  C  C38  1  0.50000000  0.65134557  0.00000000  1
  C  C39  1  0.34865443  0.34865443  0.34865443  1
  C  C40  1  0.00000000  0.50000000  0.65134557  1
  C  C41  1  0.15134557  -0.00000000  0.50000000  1
  C  C42  1  -0.00000000  0.50000000  0.15134557  1
  C  C43  1  0.50000000  0.15134557  0.00000000  1
  Ni  Ni44  1  0.98076497  0.73076497  0.75000000  1
  Ni  Ni45  1  0.51923503  0.76923503  0.25000000  1
  Ni  Ni46  1  0.73076497  0.75000000  0.98076497  1
  Ni  Ni47  1  0.48076497  0.25000000  0.23076497  1
  Ni  Ni48  1  0.76923503  0.25000000  0.51923503  1
  Ni  Ni49  1  0.01923503  0.75000000  0.26923503  1
  Ni  Ni50  1  0.75000000  0.98076497  0.73076497  1
  Ni  Ni51  1  0.23076497  0.48076497  0.25000000  1
  Ni  Ni52  1  0.25000000  0.51923503  0.76923503  1
  Ni  Ni53  1  0.26923503  0.01923503  0.75000000  1
  Ni  Ni54  1  0.25000000  0.23076497  0.48076497  1
  Ni  Ni55  1  0.75000000  0.26923503  0.01923503  1
  Ni  Ni56  1  0.57925204  0.57925204  0.57925204  1
  Ni  Ni57  1  0.92074796  -0.00000000  0.50000000  1
  Ni  Ni58  1  0.50000000  0.92074796  0.00000000  1
  Ni  Ni59  1  0.07925204  0.07925204  0.07925204  1
  Ni  Ni60  1  -0.00000000  0.50000000  0.92074796  1
  Ni  Ni61  1  0.42074796  -0.00000000  0.50000000  1
  Ni  Ni62  1  -0.00000000  0.50000000  0.42074796  1
  Ni  Ni63  1  0.50000000  0.42074796  0.00000000  1
  Cu  Cu64  1  0.62500000  0.37500000  0.75000000  1
  Cu  Cu65  1  0.87500000  0.12500000  0.25000000  1
  Cu  Cu66  1  0.37500000  0.75000000  0.62500000  1
  Cu  Cu67  1  0.12500000  0.25000000  0.87500000  1
  Cu  Cu68  1  0.75000000  0.62500000  0.37500000  1
  Cu  Cu69  1  0.25000000  0.87500000  0.12500000  1
  C  C70  1  0.68487600  0.68487600  0.68487600  1
  C  C71  1  0.81512400  0.00000000  0.50000000  1
  C  C72  1  0.50000000  0.81512400  0.00000000  1
  C  C73  1  0.18487600  0.18487600  0.18487600  1
  C  C74  1  -0.00000000  0.50000000  0.81512400  1
  C  C75  1  0.31512400  0.00000000  0.50000000  1
  C  C76  1  -0.00000000  0.50000000  0.31512400  1
  C  C77  1  0.50000000  0.31512400  0.00000000  1
  C  C78  1  0.54362639  0.60624658  0.48260144  1
  C  C79  1  0.95637361  0.93897504  0.56262019  1
  C  C80  1  0.37635485  0.89375342  0.93737981  1
  C  C81  1  0.60624658  0.48260144  0.54362639  1
  C  C82  1  0.04362639  0.98260144  0.10624658  1
  C  C83  1  0.12364515  0.56102496  0.01739856  1
  C  C84  1  0.93897504  0.56262019  0.95637361  1
  C  C85  1  0.45637361  0.06262019  0.43897504  1
  C  C86  1  0.89375342  0.93737981  0.37635485  1
  C  C87  1  0.87635485  0.43737981  0.39375342  1
  C  C88  1  0.56102496  0.01739856  0.12364515  1
  C  C89  1  0.62364515  0.51739856  0.06102496  1
  C  C90  1  0.48260144  0.54362639  0.60624658  1
  C  C91  1  0.10624658  0.04362639  0.98260144  1
  C  C92  1  0.93737981  0.37635485  0.89375342  1
  C  C93  1  0.39375342  0.87635485  0.43737981  1
  C  C94  1  0.01739856  0.12364515  0.56102496  1
  C  C95  1  0.06102496  0.62364515  0.51739856  1
  C  C96  1  0.56262019  0.95637361  0.93897504  1
  C  C97  1  0.43897504  0.45637361  0.06262019  1
  C  C98  1  0.98260144  0.10624658  0.04362639  1
  C  C99  1  0.06262019  0.43897504  0.45637361  1
  C  C100  1  0.51739856  0.06102496  0.62364515  1
  C  C101  1  0.43737981  0.39375342  0.87635485  1
  C  C102  1  0.65804777  0.90599793  0.60447540  1
  C  C103  1  0.84195223  0.94642763  0.74795016  1
  C  C104  1  0.19847747  0.59400207  0.75204984  1
  C  C105  1  0.90599793  0.60447540  0.65804777  1
  C  C106  1  0.15804777  0.10447540  0.40599793  1
  C  C107  1  0.30152253  0.55357237  0.89552460  1
  C  C108  1  0.94642763  0.74795016  0.84195223  1
  C  C109  1  0.34195223  0.24795016  0.44642763  1
  C  C110  1  0.59400207  0.75204984  0.19847747  1
  C  C111  1  0.69847747  0.25204984  0.09400207  1
  C  C112  1  0.55357237  0.89552460  0.30152253  1
  C  C113  1  0.80152253  0.39552460  0.05357237  1
  C  C114  1  0.60447540  0.65804777  0.90599793  1
  C  C115  1  0.40599793  0.15804777  0.10447540  1
  C  C116  1  0.75204984  0.19847747  0.59400207  1
  C  C117  1  0.09400207  0.69847747  0.25204984  1
  C  C118  1  0.89552460  0.30152253  0.55357237  1
  C  C119  1  0.05357237  0.80152253  0.39552460  1
  C  C120  1  0.74795016  0.84195223  0.94642763  1
  C  C121  1  0.44642763  0.34195223  0.24795016  1
  C  C122  1  0.10447540  0.40599793  0.15804777  1
  C  C123  1  0.24795016  0.44642763  0.34195223  1
  C  C124  1  0.39552460  0.05357237  0.80152253  1
  C  C125  1  0.25204984  0.09400207  0.69847747  1
  C  C126  1  0.54002374  0.73574962  0.34215566  1
  C  C127  1  0.95997626  0.80213192  0.69572589  1
  C  C128  1  0.10640603  0.76425038  0.80427411  1
  C  C129  1  0.73574962  0.34215566  0.54002374  1
  C  C130  1  0.04002374  0.84215566  0.23574962  1
  C  C131  1  0.39359397  0.69786808  0.15784434  1
  C  C132  1  0.80213192  0.69572589  0.95997626  1
  C  C133  1  0.45997626  0.19572589  0.30213192  1
  C  C134  1  0.76425038  0.80427411  0.10640603  1
  C  C135  1  0.60640603  0.30427411  0.26425038  1
  C  C136  1  0.69786808  0.15784434  0.39359397  1
  C  C137  1  0.89359397  0.65784434  0.19786808  1
  C  C138  1  0.34215566  0.54002374  0.73574962  1
  C  C139  1  0.23574962  0.04002374  0.84215566  1
  C  C140  1  0.80427411  0.10640603  0.76425038  1
  C  C141  1  0.26425038  0.60640603  0.30427411  1
  C  C142  1  0.15784434  0.39359397  0.69786808  1
  C  C143  1  0.19786808  0.89359397  0.65784434  1
  C  C144  1  0.69572589  0.95997626  0.80213192  1
  C  C145  1  0.30213192  0.45997626  0.19572589  1
  C  C146  1  0.84215566  0.23574962  0.04002374  1
  C  C147  1  0.19572589  0.30213192  0.45997626  1
  C  C148  1  0.65784434  0.19786808  0.89359397  1
  C  C149  1  0.30427411  0.26425038  0.60640603  1
