# generated using pymatgen
data_Cu5NiC3
_symmetry_space_group_name_H-M   'P 1'
_cell_length_a   3.95710300
_cell_length_b   12.01866600
_cell_length_c   17.04530000
_cell_angle_alpha   90.00000000
_cell_angle_beta   90.00000000
_cell_angle_gamma   90.00000000
_symmetry_Int_Tables_number   1
_chemical_formula_structural   Cu5NiC3
_chemical_formula_sum   'Cu20 Ni4 C12'
_cell_volume   810.65911504
_cell_formula_units_Z   4
loop_
 _symmetry_equiv_pos_site_id
 _symmetry_equiv_pos_as_xyz
  1  'x, y, z'
loop_
 _atom_site_type_symbol
 _atom_site_label
 _atom_site_symmetry_multiplicity
 _atom_site_fract_x
 _atom_site_fract_y
 _atom_site_fract_z
 _atom_site_occupancy
  C  C0  1  0.25000000  0.03834500  0.67593700  1
  C  C1  1  0.25000000  0.53834500  0.82406300  1
  C  C2  1  0.75000000  0.96165500  0.32406300  1
  C  C3  1  0.75000000  0.46165500  0.17593700  1
  C  C4  1  0.25000000  0.37601600  0.59878100  1
  C  C5  1  0.25000000  0.87601600  0.90121900  1
  C  C6  1  0.75000000  0.62398400  0.40121900  1
  C  C7  1  0.75000000  0.12398400  0.09878100  1
  C  C8  1  0.25000000  0.40360400  0.99686000  1
  C  C9  1  0.25000000  0.90360400  0.50314000  1
  C  C10  1  0.75000000  0.59639600  0.00314000  1
  C  C11  1  0.75000000  0.09639600  0.49686000  1
  Ni  Ni12  1  0.25000000  0.30069700  0.36303100  1
  Ni  Ni13  1  0.25000000  0.80069700  0.13696900  1
  Ni  Ni14  1  0.75000000  0.69930300  0.63696900  1
  Ni  Ni15  1  0.75000000  0.19930300  0.86303100  1
  Cu  Cu16  1  0.25000000  0.01165800  0.20183800  1
  Cu  Cu17  1  0.25000000  0.51165800  0.29816200  1
  Cu  Cu18  1  0.75000000  0.98834200  0.79816200  1
  Cu  Cu19  1  0.75000000  0.48834200  0.70183800  1
  Cu  Cu20  1  0.25000000  0.08243900  0.42271300  1
  Cu  Cu21  1  0.25000000  0.58243900  0.07728700  1
  Cu  Cu22  1  0.75000000  0.91756100  0.57728700  1
  Cu  Cu23  1  0.75000000  0.41756100  0.92271300  1
  Cu  Cu24  1  0.25000000  0.10513300  0.97058200  1
  Cu  Cu25  1  0.25000000  0.60513300  0.52941800  1
  Cu  Cu26  1  0.75000000  0.89486700  0.02941800  1
  Cu  Cu27  1  0.75000000  0.39486700  0.47058200  1
  Cu  Cu28  1  0.25000000  0.26461300  0.76350000  1
  Cu  Cu29  1  0.25000000  0.76461300  0.73650000  1
  Cu  Cu30  1  0.75000000  0.73538700  0.23650000  1
  Cu  Cu31  1  0.75000000  0.23538700  0.26350000  1
  Cu  Cu32  1  0.25000000  0.30600500  0.11134200  1
  Cu  Cu33  1  0.25000000  0.80600500  0.38865800  1
  Cu  Cu34  1  0.75000000  0.69399500  0.88865800  1
  Cu  Cu35  1  0.75000000  0.19399500  0.61134200  1
