# generated using pymatgen
data_Cu9Ni6C7
_symmetry_space_group_name_H-M   'P 1'
_cell_length_a   10.61937085
_cell_length_b   10.61937085
_cell_length_c   8.20977022
_cell_angle_alpha   80.15396356
_cell_angle_beta   80.15396356
_cell_angle_gamma   32.93075568
_symmetry_Int_Tables_number   1
_chemical_formula_structural   Cu9Ni6C7
_chemical_formula_sum   'Cu18 Ni12 C14'
_cell_volume   495.23524456
_cell_formula_units_Z   2
loop_
 _symmetry_equiv_pos_site_id
 _symmetry_equiv_pos_as_xyz
  1  'x, y, z'
loop_
 _atom_site_type_symbol
 _atom_site_label
 _atom_site_symmetry_multiplicity
 _atom_site_fract_x
 _atom_site_fract_y
 _atom_site_fract_z
 _atom_site_occupancy
  C  C0  1  0.81391200  0.57399700  0.68018300  1
  C  C1  1  0.42600300  0.18608800  0.81981700  1
  C  C2  1  0.18608800  0.42600300  0.31981700  1
  C  C3  1  0.57399700  0.81391200  0.18018300  1
  C  C4  1  0.99995200  0.21926700  0.09271200  1
  C  C5  1  0.78073300  0.00004800  0.40728800  1
  C  C6  1  0.00004800  0.78073300  0.90728800  1
  C  C7  1  0.21926700  0.99995200  0.59271200  1
  C  C8  1  0.61190300  0.38809700  0.75000000  1
  C  C9  1  0.38809700  0.61190300  0.25000000  1
  C  C10  1  0.51724700  0.70592500  0.93709100  1
  C  C11  1  0.29407500  0.48275300  0.56290900  1
  C  C12  1  0.48275300  0.29407500  0.06290900  1
  C  C13  1  0.70592500  0.51724700  0.43709100  1
  Ni  Ni14  1  0.35107700  0.83057800  0.06542200  1
  Ni  Ni15  1  0.16942200  0.64892300  0.43457800  1
  Ni  Ni16  1  0.64892300  0.16942200  0.93457800  1
  Ni  Ni17  1  0.83057800  0.35107700  0.56542200  1
  Ni  Ni18  1  0.72180800  0.59662800  0.96126400  1
  Ni  Ni19  1  0.40337200  0.27819200  0.53873600  1
  Ni  Ni20  1  0.27819200  0.40337200  0.03873600  1
  Ni  Ni21  1  0.59662800  0.72180800  0.46126400  1
  Ni  Ni22  1  0.69608700  0.49023800  0.28267500  1
  Ni  Ni23  1  0.50976200  0.30391300  0.21732500  1
  Ni  Ni24  1  0.30391300  0.50976200  0.71732500  1
  Ni  Ni25  1  0.49023800  0.69608700  0.78267500  1
  Cu  Cu26  1  0.13384600  0.28703400  0.51993700  1
  Cu  Cu27  1  0.71296600  0.86615400  0.98006300  1
  Cu  Cu28  1  0.86615400  0.71296600  0.48006300  1
  Cu  Cu29  1  0.28703400  0.13384600  0.01993700  1
  Cu  Cu30  1  0.20598700  0.05713600  0.31352300  1
  Cu  Cu31  1  0.94286400  0.79401300  0.18647700  1
  Cu  Cu32  1  0.79401300  0.94286400  0.68647700  1
  Cu  Cu33  1  0.05713600  0.20598700  0.81352300  1
  Cu  Cu34  1  0.98461600  0.01538400  0.75000000  1
  Cu  Cu35  1  0.01538400  0.98461600  0.25000000  1
  Cu  Cu36  1  0.50865700  0.94400600  0.71635300  1
  Cu  Cu37  1  0.05599400  0.49134300  0.78364700  1
  Cu  Cu38  1  0.49134300  0.05599400  0.28364700  1
  Cu  Cu39  1  0.94400600  0.50865700  0.21635300  1
  Cu  Cu40  1  0.71657600  0.34679100  0.01332800  1
  Cu  Cu41  1  0.65320900  0.28342400  0.48667200  1
  Cu  Cu42  1  0.28342400  0.65320900  0.98667200  1
  Cu  Cu43  1  0.34679100  0.71657600  0.51332800  1
