# generated using pymatgen
data_Cu5Ni3C28
_symmetry_space_group_name_H-M   'P 1'
_cell_length_a   11.21936155
_cell_length_b   11.17134173
_cell_length_c   18.06903403
_cell_angle_alpha   107.89238790
_cell_angle_beta   107.86115618
_cell_angle_gamma   90.52075299
_symmetry_Int_Tables_number   1
_chemical_formula_structural   Cu5Ni3C28
_chemical_formula_sum   'Cu20 Ni12 C112'
_cell_volume   2037.89504199
_cell_formula_units_Z   4
loop_
 _symmetry_equiv_pos_site_id
 _symmetry_equiv_pos_as_xyz
  1  'x, y, z'
loop_
 _atom_site_type_symbol
 _atom_site_label
 _atom_site_symmetry_multiplicity
 _atom_site_fract_x
 _atom_site_fract_y
 _atom_site_fract_z
 _atom_site_occupancy
  Ni  Ni0  1  0.31053259  0.05583153  0.11879682  1
  Ni  Ni1  1  0.30656541  0.55453848  0.11898135  1
  Ni  Ni2  1  0.80666453  0.05963907  0.12088663  1
  Ni  Ni3  1  0.80721119  0.55494009  0.11820086  1
  Ni  Ni4  1  0.18541097  0.94757034  0.38334803  1
  Ni  Ni5  1  0.18427975  0.94127782  0.87547053  1
  Ni  Ni6  1  0.68255330  0.43729076  0.87331849  1
  Ni  Ni7  1  0.05863554  0.31547723  0.11822770  1
  Ni  Ni8  1  0.05986380  0.81010680  0.11733795  1
  Ni  Ni9  1  0.55727443  0.31066178  0.11884986  1
  Ni  Ni10  1  0.55571695  0.81240562  0.11971271  1
  Ni  Ni11  1  0.92986560  0.68784984  0.87273868  1
  Cu  Cu12  1  0.30031630  0.05893285  0.61052526  1
  Cu  Cu13  1  0.30821119  0.55444383  0.61084226  1
  Cu  Cu14  1  0.80818723  0.05474284  0.60975148  1
  Cu  Cu15  1  0.79646658  0.55612229  0.61145935  1
  Cu  Cu16  1  0.19256719  0.44679383  0.39316248  1
  Cu  Cu17  1  0.18967474  0.43451844  0.88234168  1
  Cu  Cu18  1  0.69437156  0.44432675  0.39311592  1
  Cu  Cu19  1  0.70124268  0.94718696  0.39126756  1
  Cu  Cu20  1  0.69262349  0.94060479  0.88384522  1
  Cu  Cu21  1  0.05376776  0.30487066  0.60880160  1
  Cu  Cu22  1  0.05104869  0.80431188  0.60949450  1
  Cu  Cu23  1  0.56001238  0.30479054  0.61065877  1
  Cu  Cu24  1  0.55274809  0.79929453  0.60929525  1
  Cu  Cu25  1  0.44560337  0.19349894  0.39053897  1
  Cu  Cu26  1  0.43559876  0.19040675  0.88318668  1
  Cu  Cu27  1  0.44033661  0.69425504  0.39191328  1
  Cu  Cu28  1  0.44393011  0.69437716  0.88363807  1
  Cu  Cu29  1  0.94930915  0.19609865  0.39312547  1
  Cu  Cu30  1  0.94567981  0.19176480  0.88480383  1
  Cu  Cu31  1  0.94526362  0.69896941  0.39415497  1
  C  C32  1  0.99231920  0.00171986  0.99423048  1
  C  C33  1  0.99435905  0.48627007  0.98274925  1
  C  C34  1  0.48778367  0.99403423  0.98301511  1
  C  C35  1  0.50105505  0.00032103  0.50208257  1
  C  C36  1  0.48716861  0.49199740  0.98491542  1
  C  C37  1  0.49683270  0.49575526  0.49755198  1
  C  C38  1  0.23937636  0.73823099  0.98192696  1
  C  C39  1  0.24994135  0.75325972  0.50339524  1
  C  C40  1  0.73836885  0.23985378  0.98313407  1
  C  C41  1  0.75279006  0.24982038  0.50079529  1
  C  C42  1  0.74320587  0.74792132  0.99427469  1
  C  C43  1  0.74867344  0.74966249  0.49752137  1
  C  C44  1  0.00239425  0.00401399  0.50499721  1
  C  C45  1  0.00143765  0.50185802  0.50335121  1
  C  C46  1  0.24464321  0.24456663  0.98984992  1
  C  C47  1  0.25369498  0.25362019  0.50380498  1
  C  C48  1  0.12114383  0.11209261  0.25200825  1
  C  C49  1  0.11224066  0.10067841  0.74392045  1
  C  C50  1  0.12258610  0.60722376  0.26072143  1
  C  C51  1  0.11782719  0.59183805  0.74312187  1
  C  C52  1  0.62633201  0.11294099  0.26016506  1
  C  C53  1  0.61209624  0.09227148  0.74474391  1
  C  C54  1  0.62240156  0.60956311  0.26118872  1
  C  C55  1  0.60995373  0.60503844  0.74617866  1
  C  C56  1  0.37233614  0.39873992  0.26009606  1
  C  C57  1  0.36135163  0.39826900  0.74785450  1
  C  C58  1  0.37710139  0.89894074  0.26031754  1
  C  C59  1  0.36657210  0.89893919  0.74464228  1
  C  C60  1  0.87211942  0.40389897  0.26279251  1
  C  C61  1  0.86725261  0.39084310  0.74283380  1
  C  C62  1  0.86863580  0.89552319  0.25305002  1
  C  C63  1  0.85726210  0.90327729  0.74698091  1
  C  C64  1  0.12473588  0.13061248  0.50023845  1
  C  C65  1  0.11051910  0.11525380  0.99436511  1
  C  C66  1  0.12812729  0.63351640  0.49849730  1
  C  C67  1  0.10683749  0.61108084  0.98948273  1
  C  C68  1  0.63027748  0.12718711  0.49578645  1
  C  C69  1  0.61196978  0.10825094  0.98952465  1
  C  C70  1  0.61295625  0.61706898  0.49638796  1
  C  C71  1  0.60645725  0.61308034  0.99256706  1
  C  C72  1  0.12289987  0.36760497  0.99441241  1
  C  C73  1  0.13016627  0.37775965  0.50601446  1
  C  C74  1  0.13316876  0.86038023  0.99594780  1
  C  C75  1  0.12572934  0.88035026  0.51009610  1
  C  C76  1  0.62816204  0.35821438  0.99488705  1
  C  C77  1  0.62525505  0.37848854  0.50786054  1
  C  C78  1  0.63149060  0.86270330  0.99684417  1
  C  C79  1  0.62501048  0.87487911  0.50616353  1
  C  C80  1  0.38423063  0.12014696  0.49992370  1
  C  C81  1  0.36834557  0.12240589  0.99029560  1
  C  C82  1  0.37228230  0.61685351  0.49514883  1
  C  C83  1  0.35723324  0.62635802  0.99038406  1
  C  C84  1  0.87379051  0.12134917  0.49434695  1
  C  C85  1  0.86058381  0.13314834  0.99447767  1
  C  C86  1  0.86330788  0.62863800  0.49981837  1
  C  C87  1  0.85556288  0.63223378  0.99192288  1
  C  C88  1  0.37928946  0.38160128  0.99740648  1
  C  C89  1  0.38501155  0.38105440  0.50599971  1
  C  C90  1  0.38380200  0.87806671  0.99402947  1
  C  C91  1  0.37360434  0.87208398  0.50797806  1
  C  C92  1  0.87752343  0.38361475  0.99397380  1
  C  C93  1  0.87000054  0.37562478  0.50834306  1
  C  C94  1  0.87856405  0.88560464  0.99810821  1
  C  C95  1  0.87495671  0.87911730  0.50702988  1
  C  C96  1  0.06738847  0.08358137  0.13871457  1
  C  C97  1  0.06607322  0.08929397  0.63493141  1
  C  C98  1  0.07569427  0.58838905  0.15065008  1
  C  C99  1  0.08005356  0.58663048  0.63406038  1
  C  C100  1  0.57598424  0.08809326  0.14954625  1
  C  C101  1  0.57926528  0.08441048  0.63610761  1
  C  C102  1  0.57664808  0.58694795  0.15051703  1
  C  C103  1  0.56837466  0.58867198  0.63698851  1
  C  C104  1  0.44378807  0.40847409  0.36865577  1
  C  C105  1  0.42725867  0.41064000  0.86033446  1
  C  C106  1  0.44213723  0.91275252  0.37029488  1
  C  C107  1  0.43797748  0.91217718  0.85628186  1
  C  C108  1  0.94086514  0.41692408  0.37306632  1
  C  C109  1  0.93675746  0.40770871  0.85502863  1
  C  C110  1  0.92769025  0.90388657  0.36142362  1
  C  C111  1  0.92373079  0.92872017  0.86121147  1
  C  C112  1  0.32473719  0.31288239  0.14939306  1
  C  C113  1  0.32806511  0.30706007  0.63829589  1
  C  C114  1  0.32803987  0.80845785  0.15002354  1
  C  C115  1  0.32998577  0.79715861  0.63652076  1
  C  C116  1  0.82703050  0.31449039  0.15240087  1
  C  C117  1  0.82146652  0.29215165  0.63411308  1
  C  C118  1  0.82073196  0.80950824  0.14019947  1
  C  C119  1  0.82288192  0.80130887  0.63902731  1
  C  C120  1  0.18969091  0.20581713  0.36185419  1
  C  C121  1  0.18294291  0.19137488  0.85531773  1
  C  C122  1  0.19174612  0.69989206  0.37089813  1
  C  C123  1  0.18819150  0.68573777  0.85602104  1
  C  C124  1  0.69424839  0.20907353  0.36974638  1
  C  C125  1  0.68861042  0.18473281  0.85796017  1
  C  C126  1  0.69152236  0.70701142  0.37163550  1
  C  C127  1  0.67432784  0.69834791  0.85868352  1
  C  C128  1  0.48020267  0.03997623  0.26376174  1
  C  C129  1  0.45152722  0.05540624  0.74625593  1
  C  C130  1  0.47256477  0.54282662  0.26425431  1
  C  C131  1  0.45457900  0.54514746  0.74938823  1
  C  C132  1  0.98189170  0.03539552  0.26382339  1
  C  C133  1  0.95542110  0.04806636  0.74805507  1
  C  C134  1  0.97114113  0.54623772  0.26437248  1
  C  C135  1  0.95856257  0.53018761  0.73509290  1
  C  C136  1  0.22398073  0.46948700  0.26404598  1
  C  C137  1  0.20091747  0.43877894  0.74575251  1
  C  C138  1  0.23360176  0.98513090  0.25209448  1
  C  C139  1  0.20844380  0.95911684  0.73566078  1
  C  C140  1  0.72201645  0.47034482  0.26484050  1
  C  C141  1  0.71660597  0.46990141  0.73841118  1
  C  C142  1  0.72647122  0.97563930  0.26111033  1
  C  C143  1  0.69552426  0.94083288  0.74491026  1
