# generated using pymatgen
data_Cu2Ni2C11
_symmetry_space_group_name_H-M   'P 1'
_cell_length_a   5.97859059
_cell_length_b   5.97859059
_cell_length_c   8.52330460
_cell_angle_alpha   66.66645491
_cell_angle_beta   66.66645491
_cell_angle_gamma   63.30894503
_symmetry_Int_Tables_number   1
_chemical_formula_structural   Cu2Ni2C11
_chemical_formula_sum   'Cu2 Ni2 C11'
_cell_volume   240.92847971
_cell_formula_units_Z   1
loop_
 _symmetry_equiv_pos_site_id
 _symmetry_equiv_pos_as_xyz
  1  'x, y, z'
loop_
 _atom_site_type_symbol
 _atom_site_label
 _atom_site_symmetry_multiplicity
 _atom_site_fract_x
 _atom_site_fract_y
 _atom_site_fract_z
 _atom_site_occupancy
  C  C0  1  0.50000000  0.50000000  0.50000000  1
  Ni  Ni1  1  0.00000000  0.50000000  0.00000000  1
  Ni  Ni2  1  0.50000000  0.00000000  0.00000000  1
  Cu  Cu3  1  0.06868100  0.06868100  0.73759000  1
  Cu  Cu4  1  0.93131900  0.93131900  0.26241000  1
  C  C5  1  0.69402500  0.69402500  0.92760400  1
  C  C6  1  0.30597500  0.30597500  0.07239600  1
  C  C7  1  0.19627100  0.19627100  0.51350300  1
  C  C8  1  0.80372900  0.80372900  0.48649700  1
  C  C9  1  0.81499000  0.28284700  0.21769900  1
  C  C10  1  0.71715300  0.18501000  0.78230100  1
  C  C11  1  0.18501000  0.71715300  0.78230100  1
  C  C12  1  0.28284700  0.81499000  0.21769900  1
  C  C13  1  0.17079100  0.17079100  0.86781900  1
  C  C14  1  0.82920900  0.82920900  0.13218100  1
