# generated using pymatgen
data_Cu4NiC3
_symmetry_space_group_name_H-M   'P 1'
_cell_length_a   6.65600503
_cell_length_b   6.65600503
_cell_length_c   11.21363200
_cell_angle_alpha   90.00000000
_cell_angle_beta   90.00000000
_cell_angle_gamma   118.15926875
_symmetry_Int_Tables_number   1
_chemical_formula_structural   Cu4NiC3
_chemical_formula_sum   'Cu8 Ni2 C6'
_cell_volume   437.99026321
_cell_formula_units_Z   2
loop_
 _symmetry_equiv_pos_site_id
 _symmetry_equiv_pos_as_xyz
  1  'x, y, z'
loop_
 _atom_site_type_symbol
 _atom_site_label
 _atom_site_symmetry_multiplicity
 _atom_site_fract_x
 _atom_site_fract_y
 _atom_site_fract_z
 _atom_site_occupancy
  C  C0  1  0.63234700  0.63234700  0.50000000  1
  C  C1  1  0.63234700  0.63234700  0.00000000  1
  C  C2  1  0.00795800  0.44941400  0.12965000  1
  C  C3  1  0.00795800  0.44941400  0.37035000  1
  C  C4  1  0.44941400  0.00795800  0.62965000  1
  C  C5  1  0.44941400  0.00795800  0.87035000  1
  Ni  Ni6  1  0.37908800  0.08140200  0.25000000  1
  Ni  Ni7  1  0.08140200  0.37908800  0.75000000  1
  Cu  Cu8  1  0.44065700  0.31660000  0.75000000  1
  Cu  Cu9  1  0.96890600  0.74351900  0.25000000  1
  Cu  Cu10  1  0.31660000  0.44065700  0.25000000  1
  Cu  Cu11  1  0.74351900  0.96890600  0.75000000  1
  Cu  Cu12  1  0.13251300  0.64231200  0.93149300  1
  Cu  Cu13  1  0.64231200  0.13251300  0.06850700  1
  Cu  Cu14  1  0.13251300  0.64231200  0.56850700  1
  Cu  Cu15  1  0.64231200  0.13251300  0.43149300  1
