# generated using pymatgen
data_Cu3Ni5C32
_symmetry_space_group_name_H-M   'P 1'
_cell_length_a   7.82645179
_cell_length_b   7.82645179
_cell_length_c   7.82960189
_cell_angle_alpha   89.88070360
_cell_angle_beta   89.88070360
_cell_angle_gamma   89.91202923
_symmetry_Int_Tables_number   1
_chemical_formula_structural   Cu3Ni5C32
_chemical_formula_sum   'Cu3 Ni5 C32'
_cell_volume   479.58668469
_cell_formula_units_Z   1
loop_
 _symmetry_equiv_pos_site_id
 _symmetry_equiv_pos_as_xyz
  1  'x, y, z'
loop_
 _atom_site_type_symbol
 _atom_site_label
 _atom_site_symmetry_multiplicity
 _atom_site_fract_x
 _atom_site_fract_y
 _atom_site_fract_z
 _atom_site_occupancy
  Ni  Ni0  1  0.74974300  0.24975800  0.74967800  1
  Ni  Ni1  1  0.25020200  0.25020200  0.75006500  1
  Ni  Ni2  1  0.74917100  0.74917100  0.74899200  1
  Ni  Ni3  1  0.24975800  0.74974300  0.74967800  1
  Ni  Ni4  1  0.74985200  0.74985200  0.24977200  1
  Cu  Cu5  1  0.74995000  0.25064800  0.25082000  1
  Cu  Cu6  1  0.25079300  0.25079300  0.25108600  1
  Cu  Cu7  1  0.25064800  0.74995000  0.25082000  1
  C  C8  1  0.00067200  0.00067200  0.00129000  1
  C  C9  1  0.49971900  0.00038100  0.00114100  1
  C  C10  1  0.00038100  0.49971900  0.00114100  1
  C  C11  1  0.49960800  0.49960800  0.00108400  1
  C  C12  1  0.00036600  0.00036600  0.49891600  1
  C  C13  1  0.49962600  0.00036300  0.49884900  1
  C  C14  1  0.00036300  0.49962600  0.49884900  1
  C  C15  1  0.49961300  0.49961300  0.49889300  1
  C  C16  1  0.99894100  0.99894100  0.74812700  1
  C  C17  1  0.49970500  0.00011200  0.74979900  1
  C  C18  1  0.00011200  0.49970500  0.74979900  1
  C  C19  1  0.49984400  0.49984400  0.74987600  1
  C  C20  1  0.00280200  0.00280200  0.25207800  1
  C  C21  1  0.49839300  0.00178500  0.25014700  1
  C  C22  1  0.00178500  0.49839300  0.25014700  1
  C  C23  1  0.49824400  0.49824400  0.25007800  1
  C  C24  1  0.00079400  0.25182300  0.00474300  1
  C  C25  1  0.49999800  0.25013300  0.00378300  1
  C  C26  1  0.00078500  0.74846000  0.00082300  1
  C  C27  1  0.49799300  0.74982900  0.00210000  1
  C  C28  1  0.00013800  0.25019900  0.49637100  1
  C  C29  1  0.49989700  0.25006900  0.49617400  1
  C  C30  1  0.00189300  0.74977400  0.49767100  1
  C  C31  1  0.49802800  0.74989500  0.49777300  1
  C  C32  1  0.74846000  0.00078500  0.00082300  1
  C  C33  1  0.25182300  0.00079400  0.00474300  1
  C  C34  1  0.74982900  0.49799300  0.00210000  1
  C  C35  1  0.25013300  0.49999800  0.00378300  1
  C  C36  1  0.74977400  0.00189300  0.49767100  1
  C  C37  1  0.25019900  0.00013800  0.49637100  1
  C  C38  1  0.74989500  0.49802800  0.49777300  1
  C  C39  1  0.25006900  0.49989700  0.49617400  1
