# generated using pymatgen
data_Cu13Ni2C3
_symmetry_space_group_name_H-M   'P 1'
_cell_length_a   6.96360500
_cell_length_b   7.91854152
_cell_length_c   21.80150090
_cell_angle_alpha   99.26235327
_cell_angle_beta   90.00000000
_cell_angle_gamma   90.00000000
_symmetry_Int_Tables_number   1
_chemical_formula_structural   Cu13Ni2C3
_chemical_formula_sum   'Cu52 Ni8 C12'
_cell_volume   1186.49527766
_cell_formula_units_Z   4
loop_
 _symmetry_equiv_pos_site_id
 _symmetry_equiv_pos_as_xyz
  1  'x, y, z'
loop_
 _atom_site_type_symbol
 _atom_site_label
 _atom_site_symmetry_multiplicity
 _atom_site_fract_x
 _atom_site_fract_y
 _atom_site_fract_z
 _atom_site_occupancy
  C  C0  1  0.62662100  0.13416800  0.63145500  1
  C  C1  1  0.12662100  0.86583200  0.86854500  1
  C  C2  1  0.37337900  0.86583200  0.36854500  1
  C  C3  1  0.87337900  0.13416800  0.13145500  1
  C  C4  1  0.82348100  0.61156500  0.62564500  1
  C  C5  1  0.32348100  0.38843500  0.87435500  1
  C  C6  1  0.17651900  0.38843500  0.37435500  1
  C  C7  1  0.67651900  0.61156500  0.12564500  1
  C  C8  1  0.80378100  0.47379400  0.77965100  1
  C  C9  1  0.30378100  0.52620600  0.72034900  1
  C  C10  1  0.19621900  0.52620600  0.22034900  1
  C  C11  1  0.69621900  0.47379400  0.27965100  1
  Ni  Ni12  1  0.81978000  0.83546100  0.47113200  1
  Ni  Ni13  1  0.31978000  0.16453900  0.02886800  1
  Ni  Ni14  1  0.18022000  0.16453900  0.52886800  1
  Ni  Ni15  1  0.68022000  0.83546100  0.97113200  1
  Ni  Ni16  1  0.32483600  0.70148300  0.55042400  1
  Ni  Ni17  1  0.82483600  0.29851700  0.94957600  1
  Ni  Ni18  1  0.67516400  0.29851700  0.44957600  1
  Ni  Ni19  1  0.17516400  0.70148300  0.05042400  1
  Cu  Cu20  1  0.91083300  0.68396800  0.52049700  1
  Cu  Cu21  1  0.41083300  0.31603200  0.97950300  1
  Cu  Cu22  1  0.08916700  0.31603200  0.47950300  1
  Cu  Cu23  1  0.58916700  0.68396800  0.02049700  1
  Cu  Cu24  1  0.56283300  0.78173800  0.46637000  1
  Cu  Cu25  1  0.06283300  0.21826200  0.03363000  1
  Cu  Cu26  1  0.43716700  0.21826200  0.53363000  1
  Cu  Cu27  1  0.93716700  0.78173800  0.96637000  1
  Cu  Cu28  1  0.81804000  0.02940900  0.53023800  1
  Cu  Cu29  1  0.31804000  0.97059100  0.96976200  1
  Cu  Cu30  1  0.18196000  0.97059100  0.46976200  1
  Cu  Cu31  1  0.68196000  0.02940900  0.03023800  1
  Cu  Cu32  1  0.18518700  0.61678800  0.61166000  1
  Cu  Cu33  1  0.68518700  0.38321200  0.88834000  1
  Cu  Cu34  1  0.81481300  0.38321200  0.38834000  1
  Cu  Cu35  1  0.31481300  0.61678800  0.11166000  1
  Cu  Cu36  1  0.54456800  0.59104000  0.56790700  1
  Cu  Cu37  1  0.04456800  0.40896000  0.93209300  1
  Cu  Cu38  1  0.45543200  0.40896000  0.43209300  1
  Cu  Cu39  1  0.95543200  0.59104000  0.06790700  1
  Cu  Cu40  1  0.35738900  0.91635500  0.59231600  1
  Cu  Cu41  1  0.85738900  0.08364500  0.90768400  1
  Cu  Cu42  1  0.64261100  0.08364500  0.40768400  1
  Cu  Cu43  1  0.14261100  0.91635500  0.09231600  1
  Cu  Cu44  1  0.84279500  0.37654300  0.59643000  1
  Cu  Cu45  1  0.34279500  0.62345700  0.90357000  1
  Cu  Cu46  1  0.15720500  0.62345700  0.40357000  1
  Cu  Cu47  1  0.65720500  0.37654300  0.09643000  1
  Cu  Cu48  1  0.78862200  0.84526200  0.64828700  1
  Cu  Cu49  1  0.28862200  0.15473800  0.85171300  1
  Cu  Cu50  1  0.21137800  0.15473800  0.35171300  1
  Cu  Cu51  1  0.71137800  0.84526200  0.14828700  1
  Cu  Cu52  1  0.61568700  0.55147200  0.69601300  1
  Cu  Cu53  1  0.11568700  0.44852800  0.80398700  1
  Cu  Cu54  1  0.38431300  0.44852800  0.30398700  1
  Cu  Cu55  1  0.88431300  0.55147200  0.19601300  1
  Cu  Cu56  1  0.80877600  0.25472300  0.73230500  1
  Cu  Cu57  1  0.30877600  0.74527700  0.76769500  1
  Cu  Cu58  1  0.19122400  0.74527700  0.26769500  1
  Cu  Cu59  1  0.69122400  0.25472300  0.23230500  1
  Cu  Cu60  1  0.80438800  0.69084000  0.82742700  1
  Cu  Cu61  1  0.30438800  0.30916000  0.67257300  1
  Cu  Cu62  1  0.19561200  0.30916000  0.17257300  1
  Cu  Cu63  1  0.69561200  0.69084000  0.32742700  1
  Cu  Cu64  1  0.98699000  0.57268800  0.70807200  1
  Cu  Cu65  1  0.48699000  0.42731200  0.79192800  1
  Cu  Cu66  1  0.01301000  0.42731200  0.29192800  1
  Cu  Cu67  1  0.51301000  0.57268800  0.20807200  1
  Cu  Cu68  1  0.51535400  0.02584500  0.73526200  1
  Cu  Cu69  1  0.01535400  0.97415500  0.76473800  1
  Cu  Cu70  1  0.48464600  0.97415500  0.26473800  1
  Cu  Cu71  1  0.98464600  0.02584500  0.23526200  1
