# generated using pymatgen
data_Cu2NiC16
_symmetry_space_group_name_H-M   'P 1'
_cell_length_a   8.31543590
_cell_length_b   8.31543590
_cell_length_c   7.96632872
_cell_angle_alpha   86.79828941
_cell_angle_beta   86.79828941
_cell_angle_gamma   109.40646743
_symmetry_Int_Tables_number   1
_chemical_formula_structural   Cu2NiC16
_chemical_formula_sum   'Cu4 Ni2 C32'
_cell_volume   517.11464815
_cell_formula_units_Z   2
loop_
 _symmetry_equiv_pos_site_id
 _symmetry_equiv_pos_as_xyz
  1  'x, y, z'
loop_
 _atom_site_type_symbol
 _atom_site_label
 _atom_site_symmetry_multiplicity
 _atom_site_fract_x
 _atom_site_fract_y
 _atom_site_fract_z
 _atom_site_occupancy
  Ni  Ni0  1  0.63644700  0.36355300  0.75000000  1
  Ni  Ni1  1  0.36355300  0.63644700  0.25000000  1
  Cu  Cu2  1  0.31431700  0.02529200  0.81022500  1
  Cu  Cu3  1  0.68568300  0.97470800  0.18977500  1
  Cu  Cu4  1  0.97470800  0.68568300  0.68977500  1
  Cu  Cu5  1  0.02529200  0.31431700  0.31022500  1
  C  C6  1  0.56206700  0.71041700  0.82392400  1
  C  C7  1  0.43793300  0.28958300  0.17607600  1
  C  C8  1  0.28958300  0.43793300  0.67607600  1
  C  C9  1  0.71041700  0.56206700  0.32392400  1
  C  C10  1  0.73958600  0.05008800  0.62796600  1
  C  C11  1  0.26041400  0.94991200  0.37203400  1
  C  C12  1  0.94991200  0.26041400  0.87203400  1
  C  C13  1  0.05008800  0.73958600  0.12796600  1
  C  C14  1  0.18871500  0.91824300  0.55189600  1
  C  C15  1  0.81128500  0.08175700  0.44810400  1
  C  C16  1  0.08175700  0.81128500  0.94810400  1
  C  C17  1  0.91824300  0.18871500  0.05189600  1
  C  C18  1  0.37904900  0.62095100  0.75000000  1
  C  C19  1  0.62095100  0.37904900  0.25000000  1
  C  C20  1  0.41629600  0.34335400  0.65902900  1
  C  C21  1  0.58370400  0.65664600  0.34097100  1
  C  C22  1  0.65664600  0.58370400  0.84097100  1
  C  C23  1  0.34335400  0.41629600  0.15902900  1
  C  C24  1  0.66375800  0.84684500  0.66704300  1
  C  C25  1  0.33624200  0.15315500  0.33295700  1
  C  C26  1  0.15315500  0.33624200  0.83295700  1
  C  C27  1  0.84684500  0.66375800  0.16704300  1
  C  C28  1  0.89561200  0.10438800  0.75000000  1
  C  C29  1  0.10438800  0.89561200  0.25000000  1
  C  C30  1  0.53457000  0.80135600  0.97323500  1
  C  C31  1  0.46543000  0.19864400  0.02676500  1
  C  C32  1  0.19864400  0.46543000  0.52676500  1
  C  C33  1  0.80135600  0.53457000  0.47323500  1
  C  C34  1  0.60677000  0.12929800  0.68343500  1
  C  C35  1  0.39323000  0.87070200  0.31656500  1
  C  C36  1  0.87070200  0.39323000  0.81656500  1
  C  C37  1  0.12929800  0.60677000  0.18343500  1
