# generated using pymatgen
data_CuNiC6
_symmetry_space_group_name_H-M   'P 1'
_cell_length_a   5.20516400
_cell_length_b   5.25680323
_cell_length_c   7.43999650
_cell_angle_alpha   109.46226933
_cell_angle_beta   105.55855088
_cell_angle_gamma   97.66189167
_symmetry_Int_Tables_number   1
_chemical_formula_structural   CuNiC6
_chemical_formula_sum   'Cu2 Ni2 C12'
_cell_volume   179.26773666
_cell_formula_units_Z   2
loop_
 _symmetry_equiv_pos_site_id
 _symmetry_equiv_pos_as_xyz
  1  'x, y, z'
loop_
 _atom_site_type_symbol
 _atom_site_label
 _atom_site_symmetry_multiplicity
 _atom_site_fract_x
 _atom_site_fract_y
 _atom_site_fract_z
 _atom_site_occupancy
  C  C0  1  0.00000000  0.00000000  0.50000000  1
  C  C1  1  0.00000000  0.00000000  0.00000000  1
  Ni  Ni2  1  0.32553600  0.64632100  0.22849400  1
  Ni  Ni3  1  0.67446400  0.35367900  0.77150600  1
  Cu  Cu4  1  0.65079700  0.97241700  0.33418100  1
  Cu  Cu5  1  0.34920300  0.02758300  0.66581900  1
  C  C6  1  0.14112700  0.96732000  0.72131700  1
  C  C7  1  0.27146500  0.80179900  0.38330200  1
  C  C8  1  0.71266000  0.66027400  0.66077300  1
  C  C9  1  0.63523300  0.76872400  0.07733000  1
  C  C10  1  0.12446100  0.68177600  0.11838500  1
  C  C11  1  0.87553900  0.31822400  0.88161500  1
  C  C12  1  0.36476700  0.23127600  0.92267000  1
  C  C13  1  0.28734000  0.33972600  0.33922700  1
  C  C14  1  0.72853500  0.19820100  0.61669800  1
  C  C15  1  0.85887300  0.03268000  0.27868300  1
