# generated using pymatgen
data_CuNi2C3
_symmetry_space_group_name_H-M   'P 1'
_cell_length_a   5.55589420
_cell_length_b   5.55589420
_cell_length_c   14.79162154
_cell_angle_alpha   87.32784502
_cell_angle_beta   87.32784502
_cell_angle_gamma   136.55928233
_symmetry_Int_Tables_number   1
_chemical_formula_structural   CuNi2C3
_chemical_formula_sum   'Cu4 Ni8 C12'
_cell_volume   311.44985434
_cell_formula_units_Z   4
loop_
 _symmetry_equiv_pos_site_id
 _symmetry_equiv_pos_as_xyz
  1  'x, y, z'
loop_
 _atom_site_type_symbol
 _atom_site_label
 _atom_site_symmetry_multiplicity
 _atom_site_fract_x
 _atom_site_fract_y
 _atom_site_fract_z
 _atom_site_occupancy
  Ni  Ni0  1  0.89599100  0.44492100  0.15306200  1
  Ni  Ni1  1  0.55507900  0.10400900  0.34693800  1
  Ni  Ni2  1  0.10400900  0.55507900  0.84693800  1
  Ni  Ni3  1  0.44492100  0.89599100  0.65306200  1
  Ni  Ni4  1  0.86856600  0.66385600  0.47177700  1
  Ni  Ni5  1  0.33614400  0.13143400  0.02822300  1
  Ni  Ni6  1  0.13143400  0.33614400  0.52822300  1
  Ni  Ni7  1  0.66385600  0.86856600  0.97177700  1
  Cu  Cu8  1  0.23553300  0.35510300  0.33202900  1
  Cu  Cu9  1  0.64489700  0.76446700  0.16797100  1
  Cu  Cu10  1  0.76446700  0.64489700  0.66797100  1
  Cu  Cu11  1  0.35510300  0.23553300  0.83202900  1
  C  C12  1  0.58086300  0.41913700  0.25000000  1
  C  C13  1  0.41913700  0.58086300  0.75000000  1
  C  C14  1  0.11734400  0.54799600  0.39407400  1
  C  C15  1  0.45200400  0.88265600  0.10592600  1
  C  C16  1  0.88265600  0.45200400  0.60592600  1
  C  C17  1  0.54799600  0.11734400  0.89407400  1
  C  C18  1  0.21717800  0.33950700  0.93231200  1
  C  C19  1  0.66049300  0.78282200  0.56768800  1
  C  C20  1  0.78282200  0.66049300  0.06768800  1
  C  C21  1  0.33950700  0.21717800  0.43231200  1
  C  C22  1  0.89050200  0.10949800  0.25000000  1
  C  C23  1  0.10949800  0.89050200  0.75000000  1
