# generated using pymatgen
data_CuNiC6
_symmetry_space_group_name_H-M   'P 1'
_cell_length_a   7.22750500
_cell_length_b   8.95451700
_cell_length_c   10.18890200
_cell_angle_alpha   90.00000000
_cell_angle_beta   90.00000000
_cell_angle_gamma   90.00000000
_symmetry_Int_Tables_number   1
_chemical_formula_structural   CuNiC6
_chemical_formula_sum   'Cu4 Ni4 C24'
_cell_volume   659.41367775
_cell_formula_units_Z   4
loop_
 _symmetry_equiv_pos_site_id
 _symmetry_equiv_pos_as_xyz
  1  'x, y, z'
loop_
 _atom_site_type_symbol
 _atom_site_label
 _atom_site_symmetry_multiplicity
 _atom_site_fract_x
 _atom_site_fract_y
 _atom_site_fract_z
 _atom_site_occupancy
  C  C0  1  0.55545100  0.25000000  0.86317400  1
  C  C1  1  0.05545100  0.25000000  0.63682600  1
  C  C2  1  0.44454900  0.75000000  0.13682600  1
  C  C3  1  0.94454900  0.75000000  0.36317400  1
  Ni  Ni4  1  0.55532600  0.25000000  0.57249300  1
  Ni  Ni5  1  0.05532600  0.25000000  0.92750700  1
  Ni  Ni6  1  0.44467400  0.75000000  0.42750700  1
  Ni  Ni7  1  0.94467400  0.75000000  0.07249300  1
  Cu  Cu8  1  0.55246800  0.25000000  0.41300300  1
  Cu  Cu9  1  0.05246800  0.25000000  0.08699700  1
  Cu  Cu10  1  0.44753200  0.75000000  0.58699700  1
  Cu  Cu11  1  0.94753200  0.75000000  0.91300300  1
  C  C12  1  0.55690100  0.45253400  0.83955000  1
  C  C13  1  0.05690100  0.04746600  0.66045000  1
  C  C14  1  0.44309900  0.95253400  0.16045000  1
  C  C15  1  0.94309900  0.54746600  0.33955000  1
  C  C16  1  0.44309900  0.54746600  0.16045000  1
  C  C17  1  0.94309900  0.95253400  0.33955000  1
  C  C18  1  0.55690100  0.04746600  0.83955000  1
  C  C19  1  0.05690100  0.45253400  0.66045000  1
  C  C20  1  0.22254700  0.25000000  0.87599200  1
  C  C21  1  0.72254700  0.25000000  0.62400800  1
  C  C22  1  0.77745300  0.75000000  0.12400800  1
  C  C23  1  0.27745300  0.75000000  0.37599200  1
  C  C24  1  0.88847300  0.25000000  0.87343500  1
  C  C25  1  0.38847300  0.25000000  0.62656500  1
  C  C26  1  0.11152700  0.75000000  0.12656500  1
  C  C27  1  0.61152700  0.75000000  0.37343500  1
  C  C28  1  0.55942200  0.25000000  0.05002900  1
  C  C29  1  0.05942200  0.25000000  0.44997100  1
  C  C30  1  0.44057800  0.75000000  0.94997100  1
  C  C31  1  0.94057800  0.75000000  0.55002900  1
