# generated using pymatgen
data_CuNi6C
_symmetry_space_group_name_H-M   'P 1'
_cell_length_a   6.73706961
_cell_length_b   6.73706961
_cell_length_c   7.09376236
_cell_angle_alpha   79.42799166
_cell_angle_beta   79.42799166
_cell_angle_gamma   118.96322523
_symmetry_Int_Tables_number   1
_chemical_formula_structural   CuNi6C
_chemical_formula_sum   'Cu2 Ni12 C2'
_cell_volume   262.67490724
_cell_formula_units_Z   2
loop_
 _symmetry_equiv_pos_site_id
 _symmetry_equiv_pos_as_xyz
  1  'x, y, z'
loop_
 _atom_site_type_symbol
 _atom_site_label
 _atom_site_symmetry_multiplicity
 _atom_site_fract_x
 _atom_site_fract_y
 _atom_site_fract_z
 _atom_site_occupancy
  C  C0  1  0.31697300  0.61074000  0.76292900  1
  C  C1  1  0.61074000  0.31697300  0.26292900  1
  Ni  Ni2  1  0.23292800  0.72988700  0.25187500  1
  Ni  Ni3  1  0.72988700  0.23292800  0.75187500  1
  Ni  Ni4  1  0.12598000  0.64878300  0.14315300  1
  Ni  Ni5  1  0.64878300  0.12598000  0.64315300  1
  Ni  Ni6  1  0.81294700  0.33995200  0.86103200  1
  Ni  Ni7  1  0.33995200  0.81294700  0.36103200  1
  Ni  Ni8  1  0.91550400  0.87059700  0.85652500  1
  Ni  Ni9  1  0.87059700  0.91550400  0.35652500  1
  Ni  Ni10  1  0.12138000  0.96934800  0.76096800  1
  Ni  Ni11  1  0.96934800  0.12138000  0.26096800  1
  Ni  Ni12  1  0.76580800  0.71166900  0.45564700  1
  Ni  Ni13  1  0.71166900  0.76580800  0.95564700  1
  Cu  Cu14  1  0.24178900  0.30091700  0.52617100  1
  Cu  Cu15  1  0.30091700  0.24178900  0.02617100  1
