# generated using pymatgen
data_CuNi4C3
_symmetry_space_group_name_H-M   'P 1'
_cell_length_a   7.54589020
_cell_length_b   7.54589020
_cell_length_c   10.24178959
_cell_angle_alpha   66.01173568
_cell_angle_beta   66.01173568
_cell_angle_gamma   52.80374281
_symmetry_Int_Tables_number   1
_chemical_formula_structural   CuNi4C3
_chemical_formula_sum   'Cu4 Ni16 C12'
_cell_volume   413.92900679
_cell_formula_units_Z   4
loop_
 _symmetry_equiv_pos_site_id
 _symmetry_equiv_pos_as_xyz
  1  'x, y, z'
loop_
 _atom_site_type_symbol
 _atom_site_label
 _atom_site_symmetry_multiplicity
 _atom_site_fract_x
 _atom_site_fract_y
 _atom_site_fract_z
 _atom_site_occupancy
  C  C0  1  0.20695200  0.67537500  0.01688000  1
  C  C1  1  0.34046300  0.77656600  0.48662200  1
  C  C2  1  0.77656600  0.34046300  0.98662200  1
  C  C3  1  0.67537500  0.20695200  0.51688000  1
  C  C4  1  0.95631300  0.74213100  0.36592600  1
  C  C5  1  0.26913500  0.05300500  0.12852300  1
  C  C6  1  0.05300500  0.26913500  0.62852300  1
  C  C7  1  0.74213100  0.95631300  0.86592600  1
  C  C8  1  0.42493000  0.22631900  0.30669200  1
  C  C9  1  0.77564900  0.57238700  0.19374900  1
  C  C10  1  0.57238700  0.77564900  0.69374900  1
  C  C11  1  0.22631900  0.42493000  0.80669200  1
  Ni  Ni12  1  0.46698700  0.38470100  0.13400800  1
  Ni  Ni13  1  0.61591200  0.52581700  0.36660800  1
  Ni  Ni14  1  0.52581700  0.61591200  0.86660800  1
  Ni  Ni15  1  0.38470100  0.46698700  0.63400800  1
  Ni  Ni16  1  0.36157100  0.04428800  0.30161100  1
  Ni  Ni17  1  0.95523900  0.63321700  0.20342700  1
  Ni  Ni18  1  0.63321700  0.95523900  0.70342700  1
  Ni  Ni19  1  0.04428800  0.36157100  0.80161100  1
  Ni  Ni20  1  0.21301700  0.39931800  0.42848900  1
  Ni  Ni21  1  0.60734400  0.78326900  0.07020000  1
  Ni  Ni22  1  0.78326900  0.60734400  0.57020000  1
  Ni  Ni23  1  0.39931800  0.21301700  0.92848900  1
  Ni  Ni24  1  0.66844200  0.07335000  0.37289800  1
  Ni  Ni25  1  0.93136300  0.32915800  0.12538100  1
  Ni  Ni26  1  0.32915800  0.93136300  0.62538100  1
  Ni  Ni27  1  0.07335000  0.66844200  0.87289800  1
  Cu  Cu28  1  0.15535100  0.84704700  0.16635500  1
  Cu  Cu29  1  0.84704700  0.15535100  0.66635500  1
  Cu  Cu30  1  0.03489000  0.89869100  0.45653300  1
  Cu  Cu31  1  0.89869100  0.03489000  0.95653300  1
