# generated using pymatgen
data_Cu(Ni2C101)2
_symmetry_space_group_name_H-M   'P 1'
_cell_length_a   15.50592108
_cell_length_b   15.50592108
_cell_length_c   15.50592108
_cell_angle_alpha   92.16468229
_cell_angle_beta   118.75818945
_cell_angle_gamma   118.75818945
_symmetry_Int_Tables_number   1
_chemical_formula_structural   Cu(Ni2C101)2
_chemical_formula_sum   'Cu1 Ni4 C202'
_cell_volume   2683.60519461
_cell_formula_units_Z   1
loop_
 _symmetry_equiv_pos_site_id
 _symmetry_equiv_pos_as_xyz
  1  'x, y, z'
loop_
 _atom_site_type_symbol
 _atom_site_label
 _atom_site_symmetry_multiplicity
 _atom_site_fract_x
 _atom_site_fract_y
 _atom_site_fract_z
 _atom_site_occupancy
  Ni  Ni0  1  0.76836163  0.94737835  0.94737835  1
  Ni  Ni1  1  0.23163837  0.17901672  0.17901672  1
  Ni  Ni2  1  -0.00000000  0.05262165  0.82098328  1
  Ni  Ni3  1  -0.00000000  0.82098328  0.05262165  1
  Cu  Cu4  1  -0.00000000  -0.00000000  -0.00000000  1
  C  C5  1  0.66941487  0.94300953  0.02649393  1
  C  C6  1  0.33058513  0.35707905  0.27359466  1
  C  C7  1  0.08348440  0.05699047  0.72640534  1
  C  C8  1  0.91651560  0.64292095  0.97350607  1
  C  C9  1  0.91651560  0.97350607  0.64292095  1
  C  C10  1  0.08348440  0.72640534  0.05699047  1
  C  C11  1  0.66941487  0.02649393  0.94300953  1
  C  C12  1  0.33058513  0.27359466  0.35707905  1
  C  C13  1  0.60598087  0.81008852  0.94507228  1
  C  C14  1  0.39401913  0.33909141  0.20410765  1
  C  C15  1  0.13498376  0.18991148  0.79589235  1
  C  C16  1  0.86501624  0.66090859  0.05492772  1
  C  C17  1  0.86501624  0.05492772  0.66090859  1
  C  C18  1  0.13498376  0.79589235  0.18991148  1
  C  C19  1  0.60598087  0.94507228  0.81008852  1
  C  C20  1  0.39401913  0.20410765  0.33909141  1
  C  C21  1  0.56692712  0.81140173  0.81140173  1
  C  C22  1  0.43307288  0.24447461  0.24447461  1
  C  C23  1  0.00000000  0.18859827  0.75552539  1
  C  C24  1  0.00000000  0.75552539  0.18859827  1
  C  C25  1  0.45749477  0.75976916  0.83952716  1
  C  C26  1  0.54250523  0.38203240  0.30227439  1
  C  C27  1  0.07975800  0.24023084  0.69772561  1
  C  C28  1  0.92024200  0.61796760  0.16047284  1
  C  C29  1  0.92024200  0.16047284  0.61796760  1
  C  C30  1  0.07975800  0.69772561  0.24023084  1
  C  C31  1  0.45749477  0.83952716  0.75976916  1
  C  C32  1  0.54250523  0.30227439  0.38203240  1
  C  C33  1  0.51817139  0.83764065  0.96656612  1
  C  C34  1  0.48182861  0.44839473  0.31946926  1
  C  C35  1  0.12892547  0.16235935  0.68053074  1
  C  C36  1  0.87107453  0.55160527  0.03343388  1
  C  C37  1  0.87107453  0.03343388  0.55160527  1
  C  C38  1  0.12892547  0.68053074  0.16235935  1
  C  C39  1  0.51817139  0.96656612  0.83764065  1
  C  C40  1  0.48182861  0.31946926  0.44839473  1
  C  C41  1  0.55579576  0.96536792  0.96536792  1
  C  C42  1  0.44420424  0.40957216  0.40957216  1
  C  C43  1  -0.00000000  0.03463208  0.59042784  1
  C  C44  1  -0.00000000  0.59042784  0.03463208  1
  C  C45  1  0.42505811  0.85294940  0.85294940  1
  C  C46  1  0.57494189  0.42789129  0.42789129  1
  C  C47  1  -0.00000000  0.14705060  0.57210871  1
  C  C48  1  0.00000000  0.57210871  0.14705060  1
  C  C49  1  0.54465168  0.26919129  0.91763029  1
  C  C50  1  0.45534832  0.37297861  0.72453961  1
  C  C51  1  0.64843900  0.73080871  0.27546039  1
  C  C52  1  0.35156100  0.62702139  0.08236971  1
  C  C53  1  0.35156100  0.08236971  0.62702139  1
  C  C54  1  0.64843900  0.27546039  0.73080871  1
  C  C55  1  0.54465168  0.91763029  0.26919129  1
  C  C56  1  0.45534832  0.72453961  0.37297861  1
  C  C57  1  0.43565551  0.16019586  0.02569967  1
  C  C58  1  0.56434449  0.59004416  0.72454035  1
  C  C59  1  0.86550381  0.83980414  0.27545965  1
  C  C60  1  0.13449619  0.40995584  0.97430033  1
  C  C61  1  0.13449619  0.97430033  0.40995584  1
  C  C62  1  0.86550381  0.27545965  0.83980414  1
  C  C63  1  0.43565551  0.02569967  0.16019586  1
  C  C64  1  0.56434449  0.72454035  0.59004416  1
  C  C65  1  0.73574559  0.97801652  0.12069916  1
  C  C66  1  0.26425441  0.38495357  0.24227093  1
  C  C67  1  0.14268264  0.02198348  0.75772907  1
  C  C68  1  0.85731736  0.61504643  0.87930084  1
  C  C69  1  0.85731736  0.87930084  0.61504643  1
  C  C70  1  0.14268264  0.75772907  0.02198348  1
  C  C71  1  0.73574559  0.12069916  0.97801652  1
  C  C72  1  0.26425441  0.24227093  0.38495357  1
  C  C73  1  0.62701964  0.74985197  0.98116808  1
  C  C74  1  0.37298036  0.35414844  0.12283233  1
  C  C75  1  0.23131611  0.25014803  0.87716767  1
  C  C76  1  0.76868389  0.64585156  0.01883192  1
  C  C77  1  0.76868389  0.01883192  0.64585156  1
  C  C78  1  0.23131611  0.87716767  0.25014803  1
  C  C79  1  0.62701964  0.98116808  0.74985197  1
  C  C80  1  0.37298036  0.12283233  0.35414844  1
  C  C81  1  0.55970063  0.75182007  0.75182007  1
  C  C82  1  0.44029937  0.19211944  0.19211944  1
  C  C83  1  -0.00000000  0.24817993  0.80788056  1
  C  C84  1  0.00000000  0.80788056  0.24817993  1
  C  C85  1  0.38057736  0.66696993  0.80298174  1
  C  C86  1  0.61942264  0.42240438  0.28639257  1
  C  C87  1  0.13601181  0.33303007  0.71360743  1
  C  C88  1  0.86398819  0.57759562  0.19701826  1
  C  C89  1  0.86398819  0.19701826  0.57759562  1
  C  C90  1  0.13601181  0.71360743  0.33303007  1
  C  C91  1  0.38057736  0.80298174  0.66696993  1
  C  C92  1  0.61942264  0.28639257  0.42240438  1
  C  C93  1  0.48469731  0.80017792  0.02010576  1
  C  C94  1  0.51530269  0.53540845  0.31548061  1
  C  C95  1  0.21992785  0.19982208  0.68451939  1
  C  C96  1  0.78007215  0.46459155  0.97989424  1
  C  C97  1  0.78007215  0.97989424  0.46459155  1
  C  C98  1  0.21992785  0.68451939  0.19982208  1
  C  C99  1  0.48469731  0.02010576  0.80017792  1
  C  C100  1  0.51530269  0.31548061  0.53540845  1
  C  C101  1  0.54833634  0.01754341  0.01754341  1
  C  C102  1  0.45166366  0.46920707  0.46920707  1
  C  C103  1  -0.00000000  0.98245659  0.53079293  1
  C  C104  1  0.00000000  0.53079293  0.98245659  1
  C  C105  1  0.32660097  0.82632531  0.82632531  1
  C  C106  1  0.67339903  0.49972433  0.49972433  1
  C  C107  1  0.00000000  0.17367469  0.50027567  1
  C  C108  1  0.00000000  0.50027567  0.17367469  1
  C  C109  1  0.35902356  0.16297051  0.89593889  1
  C  C110  1  0.64097644  0.53691532  0.80394694  1
  C  C111  1  0.73296838  0.83702949  0.19605306  1
  C  C112  1  0.26703162  0.46308468  0.10406111  1
  C  C113  1  0.26703162  0.10406111  0.46308468  1
  C  C114  1  0.73296838  0.19605306  0.83702949  1
  C  C115  1  0.35902356  0.89593889  0.16297051  1
  C  C116  1  0.64097644  0.80394694  0.53691532  1
  C  C117  1  0.43873256  0.10155467  0.92518604  1
  C  C118  1  0.56126744  0.48645348  0.66282211  1
  C  C119  1  0.82363137  0.89844533  0.33717789  1
  C  C120  1  0.17636863  0.51354652  0.07481396  1
  C  C121  1  0.17636863  0.07481396  0.51354652  1
  C  C122  1  0.82363137  0.33717789  0.89844533  1
  C  C123  1  0.43873256  0.92518604  0.10155467  1
  C  C124  1  0.56126744  0.66282211  0.48645348  1
  C  C125  1  0.46746931  0.34855451  0.96630534  1
  C  C126  1  0.53253069  0.49883603  0.88108520  1
  C  C127  1  0.61775083  0.65144549  0.11891480  1
  C  C128  1  0.38224917  0.50116397  0.03369466  1
  C  C129  1  0.38224917  0.03369466  0.50116397  1
  C  C130  1  0.61775083  0.11891480  0.65144549  1
  C  C131  1  0.46746931  0.96630534  0.34855451  1
  C  C132  1  0.53253069  0.88108520  0.49883603  1
  C  C133  1  0.55147590  0.35356742  0.09789299  1
  C  C134  1  0.44852410  0.54641709  0.80209152  1
  C  C135  1  0.74432557  0.64643258  0.19790848  1
  C  C136  1  0.25567443  0.45358291  0.90210701  1
  C  C137  1  0.25567443  0.90210701  0.45358291  1
  C  C138  1  0.74432557  0.19790848  0.64643258  1
  C  C139  1  0.55147590  0.09789299  0.35356742  1
  C  C140  1  0.44852410  0.80209152  0.54641709  1
  C  C141  1  0.63008292  0.42910828  0.04367775  1
  C  C142  1  0.36991708  0.41359483  0.79902536  1
  C  C143  1  0.61456947  0.57089172  0.20097464  1
  C  C144  1  0.38543053  0.58640517  0.95632225  1
  C  C145  1  0.38543053  0.95632225  0.58640517  1
  C  C146  1  0.61456947  0.20097464  0.57089172  1
  C  C147  1  0.63008292  0.04367775  0.42910828  1
  C  C148  1  0.36991708  0.79902536  0.41359483  1
  C  C149  1  0.65325681  0.20622927  0.03441836  1
  C  C150  1  0.34674319  0.38116154  0.55297246  1
  C  C151  1  0.82818908  0.79377073  0.44702754  1
  C  C152  1  0.17181092  0.61883846  0.96558164  1
  C  C153  1  0.17181092  0.96558164  0.61883846  1
  C  C154  1  0.82818908  0.44702754  0.79377073  1
  C  C155  1  0.65325681  0.03441836  0.20622927  1
  C  C156  1  0.34674319  0.55297246  0.38116154  1
  C  C157  1  0.73542177  0.34804803  0.08163196  1
  C  C158  1  0.26457823  0.34621019  0.61262626  1
  C  C159  1  0.73358393  0.65195197  0.38737374  1
  C  C160  1  0.26641607  0.65378981  0.91836804  1
  C  C161  1  0.26641607  0.91836804  0.65378981  1
  C  C162  1  0.73358393  0.38737374  0.65195197  1
  C  C163  1  0.73542177  0.08163196  0.34804803  1
  C  C164  1  0.26457823  0.61262626  0.34621019  1
  C  C165  1  0.65944192  0.27261150  0.13701099  1
  C  C166  1  0.34055808  0.47756907  0.61316958  1
  C  C167  1  0.86439949  0.72738850  0.38683042  1
  C  C168  1  0.13560051  0.52243093  0.86298901  1
  C  C169  1  0.13560051  0.86298901  0.52243093  1
  C  C170  1  0.86439949  0.38683042  0.72738850  1
  C  C171  1  0.65944192  0.13701099  0.27261150  1
  C  C172  1  0.34055808  0.61316958  0.47756907  1
  C  C173  1  0.43637158  0.16472542  0.95574421  1
  C  C174  1  0.56362842  0.51937263  0.72835384  1
  C  C175  1  0.79101879  0.83527458  0.27164616  1
  C  C176  1  0.20898121  0.48062737  0.04425579  1
  C  C177  1  0.20898121  0.04425579  0.48062737  1
  C  C178  1  0.79101879  0.27164616  0.83527458  1
  C  C179  1  0.43637158  0.95574421  0.16472542  1
  C  C180  1  0.56362842  0.72835384  0.51937263  1
  C  C181  1  0.54932286  0.35665110  0.02638260  1
  C  C182  1  0.45067714  0.47705974  0.80732825  1
  C  C183  1  0.66973149  0.64334890  0.19267175  1
  C  C184  1  0.33026851  0.52294026  0.97361740  1
  C  C185  1  0.33026851  0.97361740  0.52294026  1
  C  C186  1  0.66973149  0.19267175  0.64334890  1
  C  C187  1  0.54932286  0.02638260  0.35665110  1
  C  C188  1  0.45067714  0.80732825  0.47705974  1
  C  C189  1  0.65738437  0.27372680  0.06547724  1
  C  C190  1  0.34261563  0.40809287  0.61634243  1
  C  C191  1  0.79175044  0.72627320  0.38365757  1
  C  C192  1  0.20824956  0.59190713  0.93452276  1
  C  C193  1  0.20824956  0.93452276  0.59190713  1
  C  C194  1  0.79175044  0.38365757  0.72627320  1
  C  C195  1  0.65738437  0.06547724  0.27372680  1
  C  C196  1  0.34261563  0.61634243  0.40809287  1
  C  C197  1  0.54730171  0.26649418  0.98613666  1
  C  C198  1  0.45269829  0.43883495  0.71919247  1
  C  C199  1  0.71964249  0.73350582  0.28080753  1
  C  C200  1  0.28035751  0.56116505  0.01386334  1
  C  C201  1  0.28035751  0.01386334  0.56116505  1
  C  C202  1  0.71964249  0.28080753  0.73350582  1
  C  C203  1  0.54730171  0.98613666  0.26649418  1
  C  C204  1  0.45269829  0.71919247  0.43883495  1
  C  C205  1  0.50000000  0.25000000  0.75000000  1
  C  C206  1  0.50000000  0.75000000  0.25000000  1
