# generated using pymatgen
data_Cu4NiC12
_symmetry_space_group_name_H-M   'P 1'
_cell_length_a   6.72338649
_cell_length_b   6.72338649
_cell_length_c   6.72338649
_cell_angle_alpha   109.47122063
_cell_angle_beta   109.47122063
_cell_angle_gamma   109.47122063
_symmetry_Int_Tables_number   1
_chemical_formula_structural   Cu4NiC12
_chemical_formula_sum   'Cu4 Ni1 C12'
_cell_volume   233.96039220
_cell_formula_units_Z   1
loop_
 _symmetry_equiv_pos_site_id
 _symmetry_equiv_pos_as_xyz
  1  'x, y, z'
loop_
 _atom_site_type_symbol
 _atom_site_label
 _atom_site_symmetry_multiplicity
 _atom_site_fract_x
 _atom_site_fract_y
 _atom_site_fract_z
 _atom_site_occupancy
  Ni  Ni0  1  0.00000000  0.00000000  0.00000000  1
  Cu  Cu1  1  0.50000000  0.50000000  0.50000000  1
  Cu  Cu2  1  0.50000000  0.00000000  0.00000000  1
  Cu  Cu3  1  0.00000000  0.50000000  0.00000000  1
  Cu  Cu4  1  0.00000000  0.00000000  0.50000000  1
  C  C5  1  0.84865200  0.65083100  0.49948200  1
  C  C6  1  0.15134800  0.34916900  0.50051800  1
  C  C7  1  0.15134800  0.65083100  0.80217900  1
  C  C8  1  0.84865200  0.34916900  0.19782100  1
  C  C9  1  0.65083100  0.49948200  0.84865200  1
  C  C10  1  0.34916900  0.50051800  0.15134800  1
  C  C11  1  0.65083100  0.80217900  0.15134800  1
  C  C12  1  0.34916900  0.19782100  0.84865200  1
  C  C13  1  0.49948200  0.84865200  0.65083100  1
  C  C14  1  0.50051800  0.15134800  0.34916900  1
  C  C15  1  0.19782100  0.84865200  0.34916900  1
  C  C16  1  0.80217900  0.15134800  0.65083100  1
