# generated using pymatgen
data_Cu3Ni2C9
_symmetry_space_group_name_H-M   'P 1'
_cell_length_a   3.63686700
_cell_length_b   17.97195900
_cell_length_c   8.68156359
_cell_angle_alpha   90.00000000
_cell_angle_beta   111.76259189
_cell_angle_gamma   90.00000000
_symmetry_Int_Tables_number   1
_chemical_formula_structural   Cu3Ni2C9
_chemical_formula_sum   'Cu12 Ni8 C36'
_cell_volume   526.99849126
_cell_formula_units_Z   4
loop_
 _symmetry_equiv_pos_site_id
 _symmetry_equiv_pos_as_xyz
  1  'x, y, z'
loop_
 _atom_site_type_symbol
 _atom_site_label
 _atom_site_symmetry_multiplicity
 _atom_site_fract_x
 _atom_site_fract_y
 _atom_site_fract_z
 _atom_site_occupancy
  C  C0  1  0.39156600  0.67036600  0.98479000  1
  C  C1  1  0.60843400  0.17036600  0.51521000  1
  C  C2  1  0.60843400  0.32963400  0.01521000  1
  C  C3  1  0.39156600  0.82963400  0.48479000  1
  C  C4  1  0.99933200  0.65456000  0.79199500  1
  C  C5  1  0.00066800  0.15456000  0.70800500  1
  C  C6  1  0.00066800  0.34544000  0.20800500  1
  C  C7  1  0.99933200  0.84544000  0.29199500  1
  C  C8  1  0.56280300  0.77781000  0.08482700  1
  C  C9  1  0.43719700  0.27781000  0.41517300  1
  C  C10  1  0.43719700  0.22219000  0.91517300  1
  C  C11  1  0.56280300  0.72219000  0.58482700  1
  C  C12  1  0.99193800  0.89891800  0.76584100  1
  C  C13  1  0.00806200  0.39891800  0.73415900  1
  C  C14  1  0.00806200  0.10108200  0.23415900  1
  C  C15  1  0.99193800  0.60108200  0.26584100  1
  C  C16  1  0.23367100  0.98172900  0.86907600  1
  C  C17  1  0.76632900  0.48172900  0.63092400  1
  C  C18  1  0.76632900  0.01827100  0.13092400  1
  C  C19  1  0.23367100  0.51827100  0.36907600  1
  C  C20  1  0.31734700  0.54634100  0.87939400  1
  C  C21  1  0.68265300  0.04634100  0.62060600  1
  C  C22  1  0.68265300  0.45365900  0.12060600  1
  C  C23  1  0.31734700  0.95365900  0.37939400  1
  Ni  Ni24  1  0.12587600  0.76426700  0.85467100  1
  Ni  Ni25  1  0.87412400  0.26426700  0.64532900  1
  Ni  Ni26  1  0.87412400  0.23573300  0.14532900  1
  Ni  Ni27  1  0.12587600  0.73573300  0.35467100  1
  Ni  Ni28  1  0.41069100  0.88437300  0.99612400  1
  Ni  Ni29  1  0.58930900  0.38437300  0.50387600  1
  Ni  Ni30  1  0.58930900  0.11562700  0.00387600  1
  Ni  Ni31  1  0.41069100  0.61562700  0.49612400  1
  Cu  Cu32  1  0.18495500  0.69036500  0.87860000  1
  Cu  Cu33  1  0.81504500  0.19036500  0.62140000  1
  Cu  Cu34  1  0.81504500  0.30963500  0.12140000  1
  Cu  Cu35  1  0.18495500  0.80963500  0.37860000  1
  Cu  Cu36  1  0.36761000  0.80726000  0.98558400  1
  Cu  Cu37  1  0.63239000  0.30726000  0.51441600  1
  Cu  Cu38  1  0.63239000  0.19274000  0.01441600  1
  Cu  Cu39  1  0.36761000  0.69274000  0.48558400  1
  Cu  Cu40  1  0.18443200  0.92543400  0.86735900  1
  Cu  Cu41  1  0.81556800  0.42543400  0.63264100  1
  Cu  Cu42  1  0.81556800  0.07456600  0.13264100  1
  Cu  Cu43  1  0.18443200  0.57456600  0.36735900  1
  C  C44  1  0.87215700  0.79140000  0.72554900  1
  C  C45  1  0.12784300  0.29140000  0.77445100  1
  C  C46  1  0.12784300  0.20860000  0.27445100  1
  C  C47  1  0.87215700  0.70860000  0.22554900  1
  C  C48  1  0.66238300  0.91130600  0.12725700  1
  C  C49  1  0.33761700  0.41130600  0.37274300  1
  C  C50  1  0.33761700  0.08869400  0.87274300  1
  C  C51  1  0.66238300  0.58869400  0.62725700  1
  C  C52  1  0.57265500  0.53074200  0.96198000  1
  C  C53  1  0.42734500  0.03074200  0.53802000  1
  C  C54  1  0.42734500  0.46925800  0.03802000  1
  C  C55  1  0.57265500  0.96925800  0.46198000  1
