# generated using pymatgen
data_Cu7Ni2C3
_symmetry_space_group_name_H-M   'P 1'
_cell_length_a   6.94957200
_cell_length_b   9.22699800
_cell_length_c   21.42024334
_cell_angle_alpha   70.27729338
_cell_angle_beta   90.00000000
_cell_angle_gamma   90.00000000
_symmetry_Int_Tables_number   1
_chemical_formula_structural   Cu7Ni2C3
_chemical_formula_sum   'Cu28 Ni8 C12'
_cell_volume   1292.96854212
_cell_formula_units_Z   4
loop_
 _symmetry_equiv_pos_site_id
 _symmetry_equiv_pos_as_xyz
  1  'x, y, z'
loop_
 _atom_site_type_symbol
 _atom_site_label
 _atom_site_symmetry_multiplicity
 _atom_site_fract_x
 _atom_site_fract_y
 _atom_site_fract_z
 _atom_site_occupancy
  C  C0  1  0.98713800  0.75267000  0.49034100  1
  C  C1  1  0.48713800  0.24733000  0.00965900  1
  C  C2  1  0.01286200  0.24733000  0.50965900  1
  C  C3  1  0.51286200  0.75267000  0.99034100  1
  C  C4  1  0.54250100  0.16217700  0.68352700  1
  C  C5  1  0.04250100  0.83782300  0.81647300  1
  C  C6  1  0.45749900  0.83782300  0.31647300  1
  C  C7  1  0.95749900  0.16217700  0.18352700  1
  C  C8  1  0.96708000  0.34138600  0.84886700  1
  C  C9  1  0.46708000  0.65861400  0.65113300  1
  C  C10  1  0.03292000  0.65861400  0.15113300  1
  C  C11  1  0.53292000  0.34138600  0.34886700  1
  Ni  Ni12  1  0.48926500  0.96298700  0.45579200  1
  Ni  Ni13  1  0.51073500  0.03701300  0.54420800  1
  Ni  Ni14  1  0.01073500  0.96298700  0.95579200  1
  Ni  Ni15  1  0.98926500  0.03701300  0.04420800  1
  Ni  Ni16  1  0.98744900  0.56906900  0.32884200  1
  Ni  Ni17  1  0.48744900  0.43093100  0.17115800  1
  Ni  Ni18  1  0.01255100  0.43093100  0.67115800  1
  Ni  Ni19  1  0.51255100  0.56906900  0.82884200  1
  Cu  Cu20  1  0.53654200  0.26796200  0.50598800  1
  Cu  Cu21  1  0.03654200  0.73203800  0.99401200  1
  Cu  Cu22  1  0.46345800  0.73203800  0.49401200  1
  Cu  Cu23  1  0.96345800  0.26796200  0.00598800  1
  Cu  Cu24  1  0.75910500  0.92326100  0.09710900  1
  Cu  Cu25  1  0.25910500  0.07673900  0.40289100  1
  Cu  Cu26  1  0.24089500  0.07673900  0.90289100  1
  Cu  Cu27  1  0.74089500  0.92326100  0.59710900  1
  Cu  Cu28  1  0.73256700  0.04434200  0.40159900  1
  Cu  Cu29  1  0.76743300  0.04434200  0.90159900  1
  Cu  Cu30  1  0.23256700  0.95565800  0.09840100  1
  Cu  Cu31  1  0.26743300  0.95565800  0.59840100  1
  Cu  Cu32  1  0.77606200  0.49119900  0.61063900  1
  Cu  Cu33  1  0.27606200  0.50880100  0.88936100  1
  Cu  Cu34  1  0.22393800  0.50880100  0.38936100  1
  Cu  Cu35  1  0.72393800  0.49119900  0.11063900  1
  Cu  Cu36  1  0.74170100  0.56380500  0.88960000  1
  Cu  Cu37  1  0.24170100  0.43619500  0.61040000  1
  Cu  Cu38  1  0.25829900  0.43619500  0.11040000  1
  Cu  Cu39  1  0.75829900  0.56380500  0.38960000  1
  Cu  Cu40  1  0.52546800  0.21745300  0.24142800  1
  Cu  Cu41  1  0.02546800  0.78254700  0.25857200  1
  Cu  Cu42  1  0.47453200  0.78254700  0.75857200  1
  Cu  Cu43  1  0.97453200  0.21745300  0.74142800  1
  Cu  Cu44  1  0.57900800  0.41809000  0.77927900  1
  Cu  Cu45  1  0.07900800  0.58191000  0.72072100  1
  Cu  Cu46  1  0.42099200  0.58191000  0.22072100  1
  Cu  Cu47  1  0.92099200  0.41809000  0.27927900  1
