# generated using pymatgen
data_CuNi14C
_symmetry_space_group_name_H-M   'P 1'
_cell_length_a   6.55007915
_cell_length_b   6.54637754
_cell_length_c   10.64403822
_cell_angle_alpha   90.00000000
_cell_angle_beta   90.00000000
_cell_angle_gamma   119.98131326
_symmetry_Int_Tables_number   1
_chemical_formula_structural   CuNi14C
_chemical_formula_sum   'Cu1 Ni14 C1'
_cell_volume   395.33603281
_cell_formula_units_Z   1
loop_
 _symmetry_equiv_pos_site_id
 _symmetry_equiv_pos_as_xyz
  1  'x, y, z'
loop_
 _atom_site_type_symbol
 _atom_site_label
 _atom_site_symmetry_multiplicity
 _atom_site_fract_x
 _atom_site_fract_y
 _atom_site_fract_z
 _atom_site_occupancy
  C  C0  1  0.16463493  0.33231696  0.12500000  1
  Ni  Ni1  1  0.16689639  0.33344770  0.62500000  1
  Ni  Ni2  1  0.16557599  0.83278750  0.62500000  1
  Ni  Ni3  1  0.66009743  0.32005988  0.12500000  1
  Ni  Ni4  1  0.66677675  0.33438538  0.62500000  1
  Ni  Ni5  1  0.66009743  0.84003655  0.12500000  1
  Ni  Ni6  1  0.66677675  0.83239036  0.62500000  1
  Ni  Ni7  1  0.33734370  0.16203577  0.38583526  1
  Ni  Ni8  1  0.33734370  0.16203577  0.86416474  1
  Ni  Ni9  1  0.33734370  0.67530893  0.38583526  1
  Ni  Ni10  1  0.33734370  0.67530893  0.86416474  1
  Ni  Ni11  1  0.82470381  0.16235241  0.38729252  1
  Ni  Ni12  1  0.82470381  0.16235241  0.86270748  1
  Ni  Ni13  1  0.83425320  0.66712710  0.36891578  1
  Ni  Ni14  1  0.83425320  0.66712710  0.88108422  1
  Cu  Cu15  1  0.18185552  0.84092726  0.12500000  1
