# generated using pymatgen
data_Cu2Ni2C11
_symmetry_space_group_name_H-M   'P 1'
_cell_length_a   15.23091304
_cell_length_b   15.23091304
_cell_length_c   15.23091304
_cell_angle_alpha   166.20754623
_cell_angle_beta   166.05638962
_cell_angle_gamma   19.66112604
_symmetry_Int_Tables_number   1
_chemical_formula_structural   Cu2Ni2C11
_chemical_formula_sum   'Cu2 Ni2 C11'
_cell_volume   202.95695377
_cell_formula_units_Z   1
loop_
 _symmetry_equiv_pos_site_id
 _symmetry_equiv_pos_as_xyz
  1  'x, y, z'
loop_
 _atom_site_type_symbol
 _atom_site_label
 _atom_site_symmetry_multiplicity
 _atom_site_fract_x
 _atom_site_fract_y
 _atom_site_fract_z
 _atom_site_occupancy
  Ni  Ni0  1  0.94849900  0.99934000  0.05084000  1
  Ni  Ni1  1  0.05150100  0.10234100  0.05084000  1
  Cu  Cu2  1  0.79746100  0.80307900  0.00561800  1
  Cu  Cu3  1  0.20253900  0.20815800  0.00561800  1
  C  C4  1  0.62743900  0.63469400  0.00725500  1
  C  C5  1  0.37256100  0.37981600  0.00725500  1
  C  C6  1  0.56903500  0.57202900  0.00299500  1
  C  C7  1  0.43096500  0.43396000  0.00299500  1
  C  C8  1  0.72144500  0.72643400  0.00498900  1
  C  C9  1  0.27855500  0.28354400  0.00498900  1
  C  C10  1  0.14672700  0.65186000  0.50513300  1
  C  C11  1  0.64819100  0.15460000  0.50640900  1
  C  C12  1  0.85327300  0.35840600  0.50513300  1
  C  C13  1  0.35180900  0.85821800  0.50640900  1
  C  C14  1  0.00000000  0.55352100  0.55352100  1
