# generated using pymatgen
data_Cu3Ni9C2
_symmetry_space_group_name_H-M   'P 1'
_cell_length_a   7.38082763
_cell_length_b   7.38082763
_cell_length_c   9.33271400
_cell_angle_alpha   90.00000000
_cell_angle_beta   90.00000000
_cell_angle_gamma   119.27758399
_symmetry_Int_Tables_number   1
_chemical_formula_structural   Cu3Ni9C2
_chemical_formula_sum   'Cu6 Ni18 C4'
_cell_volume   443.47012976
_cell_formula_units_Z   2
loop_
 _symmetry_equiv_pos_site_id
 _symmetry_equiv_pos_as_xyz
  1  'x, y, z'
loop_
 _atom_site_type_symbol
 _atom_site_label
 _atom_site_symmetry_multiplicity
 _atom_site_fract_x
 _atom_site_fract_y
 _atom_site_fract_z
 _atom_site_occupancy
  C  C0  1  0.99320700  0.67188400  0.25000000  1
  C  C1  1  0.00679300  0.32811600  0.75000000  1
  C  C2  1  0.67188400  0.99320700  0.25000000  1
  C  C3  1  0.32811600  0.00679300  0.75000000  1
  Ni  Ni4  1  0.12500500  0.12500500  0.25000000  1
  Ni  Ni5  1  0.87499500  0.87499500  0.75000000  1
  Ni  Ni6  1  0.33222300  0.33222300  0.54199400  1
  Ni  Ni7  1  0.66777700  0.66777700  0.04199400  1
  Ni  Ni8  1  0.33222300  0.33222300  0.95800600  1
  Ni  Ni9  1  0.66777700  0.66777700  0.45800600  1
  Ni  Ni10  1  0.33862600  0.55330800  0.25000000  1
  Ni  Ni11  1  0.66137400  0.44669200  0.75000000  1
  Ni  Ni12  1  0.55330800  0.33862600  0.25000000  1
  Ni  Ni13  1  0.44669200  0.66137400  0.75000000  1
  Ni  Ni14  1  0.99827200  0.33516200  0.07079700  1
  Ni  Ni15  1  0.00172800  0.66483800  0.57079700  1
  Ni  Ni16  1  0.33516200  0.99827200  0.42920300  1
  Ni  Ni17  1  0.66483800  0.00172800  0.92920300  1
  Ni  Ni18  1  0.00172800  0.66483800  0.92920300  1
  Ni  Ni19  1  0.99827200  0.33516200  0.42920300  1
  Ni  Ni20  1  0.66483800  0.00172800  0.57079700  1
  Ni  Ni21  1  0.33516200  0.99827200  0.07079700  1
  Cu  Cu22  1  0.00000000  0.00000000  0.00000000  1
  Cu  Cu23  1  0.00000000  0.00000000  0.50000000  1
  Cu  Cu24  1  0.67084800  0.32915200  0.00000000  1
  Cu  Cu25  1  0.32915200  0.67084800  0.50000000  1
  Cu  Cu26  1  0.32915200  0.67084800  0.00000000  1
  Cu  Cu27  1  0.67084800  0.32915200  0.50000000  1
