# generated using pymatgen
data_CuNi3C8
_symmetry_space_group_name_H-M   'P 1'
_cell_length_a   5.59785100
_cell_length_b   6.87721900
_cell_length_c   9.48885100
_cell_angle_alpha   90.00000000
_cell_angle_beta   90.00000000
_cell_angle_gamma   90.00000000
_symmetry_Int_Tables_number   1
_chemical_formula_structural   CuNi3C8
_chemical_formula_sum   'Cu2 Ni6 C16'
_cell_volume   365.29843867
_cell_formula_units_Z   2
loop_
 _symmetry_equiv_pos_site_id
 _symmetry_equiv_pos_as_xyz
  1  'x, y, z'
loop_
 _atom_site_type_symbol
 _atom_site_label
 _atom_site_symmetry_multiplicity
 _atom_site_fract_x
 _atom_site_fract_y
 _atom_site_fract_z
 _atom_site_occupancy
  Ni  Ni0  1  0.00000000  0.26708900  0.66784600  1
  Ni  Ni1  1  0.00000000  0.73291100  0.33215400  1
  Ni  Ni2  1  0.50000000  0.23291100  0.16784600  1
  Ni  Ni3  1  0.50000000  0.76708900  0.83215400  1
  Ni  Ni4  1  0.50000000  0.00000000  0.50000000  1
  Ni  Ni5  1  0.00000000  0.50000000  0.00000000  1
  Cu  Cu6  1  0.00000000  0.00000000  0.00000000  1
  Cu  Cu7  1  0.50000000  0.50000000  0.50000000  1
  C  C8  1  0.00000000  0.26259700  0.33387900  1
  C  C9  1  0.00000000  0.73740300  0.66612100  1
  C  C10  1  0.50000000  0.23740300  0.83387900  1
  C  C11  1  0.50000000  0.76259700  0.16612100  1
  C  C12  1  0.21583900  0.29859800  0.40336700  1
  C  C13  1  0.78416100  0.70140200  0.59663300  1
  C  C14  1  0.21583900  0.70140200  0.59663300  1
  C  C15  1  0.28416100  0.20140200  0.90336700  1
  C  C16  1  0.78416100  0.29859800  0.40336700  1
  C  C17  1  0.71583900  0.79859800  0.09663300  1
  C  C18  1  0.28416100  0.79859800  0.09663300  1
  C  C19  1  0.71583900  0.20140200  0.90336700  1
  C  C20  1  0.00000000  0.19339700  0.19601700  1
  C  C21  1  0.00000000  0.80660300  0.80398300  1
  C  C22  1  0.50000000  0.30660300  0.69601700  1
  C  C23  1  0.50000000  0.69339700  0.30398300  1
