# generated using pymatgen
data_Cu2Ni3C4
_symmetry_space_group_name_H-M   'P 1'
_cell_length_a   6.65552142
_cell_length_b   11.54542302
_cell_length_c   9.83181878
_cell_angle_alpha   90.00000000
_cell_angle_beta   90.00000000
_cell_angle_gamma   90.00000000
_symmetry_Int_Tables_number   1
_chemical_formula_structural   Cu2Ni3C4
_chemical_formula_sum   'Cu8 Ni12 C16'
_cell_volume   755.48492092
_cell_formula_units_Z   4
loop_
 _symmetry_equiv_pos_site_id
 _symmetry_equiv_pos_as_xyz
  1  'x, y, z'
loop_
 _atom_site_type_symbol
 _atom_site_label
 _atom_site_symmetry_multiplicity
 _atom_site_fract_x
 _atom_site_fract_y
 _atom_site_fract_z
 _atom_site_occupancy
  C  C0  1  0.61980734  0.25000000  0.86412920  1
  C  C1  1  0.11980734  0.25000000  0.63587080  1
  C  C2  1  0.38019266  0.75000000  0.13587080  1
  C  C3  1  0.88019266  0.75000000  0.36412920  1
  C  C4  1  0.72064045  0.25000000  0.43963664  1
  C  C5  1  0.22064045  0.25000000  0.06036336  1
  C  C6  1  0.27935955  0.75000000  0.56036336  1
  C  C7  1  0.77935955  0.75000000  0.93963664  1
  C  C8  1  0.67585917  0.47225899  0.11610209  1
  C  C9  1  0.17585917  0.02774101  0.38389791  1
  C  C10  1  0.32414083  0.97225899  0.88389791  1
  C  C11  1  0.82414083  0.52774101  0.61610209  1
  C  C12  1  0.32414083  0.52774101  0.88389791  1
  C  C13  1  0.82414083  0.97225899  0.61610209  1
  C  C14  1  0.67585917  0.02774101  0.11610209  1
  C  C15  1  0.17585917  0.47225899  0.38389791  1
  Ni  Ni16  1  0.83973503  0.25000000  0.17402722  1
  Ni  Ni17  1  0.33973503  0.25000000  0.32597278  1
  Ni  Ni18  1  0.16026497  0.75000000  0.82597278  1
  Ni  Ni19  1  0.66026497  0.75000000  0.67402722  1
  Ni  Ni20  1  0.54628293  0.59242115  0.35115064  1
  Ni  Ni21  1  0.04628293  0.90757885  0.14884936  1
  Ni  Ni22  1  0.45371707  0.09242115  0.64884936  1
  Ni  Ni23  1  0.95371707  0.40757885  0.85115064  1
  Ni  Ni24  1  0.45371707  0.40757885  0.64884936  1
  Ni  Ni25  1  0.95371707  0.09242115  0.85115064  1
  Ni  Ni26  1  0.54628293  0.90757885  0.35115064  1
  Ni  Ni27  1  0.04628293  0.59242115  0.14884936  1
  Cu  Cu28  1  0.55540925  0.62334938  0.00837964  1
  Cu  Cu29  1  0.05540925  0.87665062  0.49162036  1
  Cu  Cu30  1  0.44459075  0.12334938  0.99162036  1
  Cu  Cu31  1  0.94459075  0.37665062  0.50837964  1
  Cu  Cu32  1  0.44459075  0.37665062  0.99162036  1
  Cu  Cu33  1  0.94459075  0.12334938  0.50837964  1
  Cu  Cu34  1  0.55540925  0.87665062  0.00837964  1
  Cu  Cu35  1  0.05540925  0.62334938  0.49162036  1
