# generated using pymatgen
data_CuNiC23
_symmetry_space_group_name_H-M   'P 1'
_cell_length_a   9.33204600
_cell_length_b   9.55941460
_cell_length_c   23.72126539
_cell_angle_alpha   99.41288382
_cell_angle_beta   94.76045964
_cell_angle_gamma   107.87526524
_symmetry_Int_Tables_number   1
_chemical_formula_structural   CuNiC23
_chemical_formula_sum   'Cu3 Ni3 C69'
_cell_volume   1966.78478020
_cell_formula_units_Z   3
loop_
 _symmetry_equiv_pos_site_id
 _symmetry_equiv_pos_as_xyz
  1  'x, y, z'
loop_
 _atom_site_type_symbol
 _atom_site_label
 _atom_site_symmetry_multiplicity
 _atom_site_fract_x
 _atom_site_fract_y
 _atom_site_fract_z
 _atom_site_occupancy
  Ni  Ni0  1  0.56327300  0.06527300  0.83304200  1
  Ni  Ni1  1  0.25195300  0.75056100  0.49997600  1
  Ni  Ni2  1  0.89676300  0.40848200  0.16224500  1
  Cu  Cu3  1  0.25260300  0.99219700  0.75914200  1
  Cu  Cu4  1  0.93564500  0.67381700  0.41701900  1
  Cu  Cu5  1  0.57647100  0.32688300  0.08160600  1
  C  C6  1  0.39816900  0.64458000  0.91380700  1
  C  C7  1  0.99963900  0.25102500  0.75429900  1
  C  C8  1  0.07842500  0.33677600  0.58736000  1
  C  C9  1  0.66843500  0.45712300  0.92358200  1
  C  C10  1  0.09124700  0.57322300  0.83249600  1
  C  C11  1  0.68966000  0.90977900  0.40720300  1
  C  C12  1  0.73999900  0.04380900  0.25280000  1
  C  C13  1  0.33761200  0.08407900  0.58888200  1
  C  C14  1  0.76814500  0.25385800  0.49853000  1
  C  C15  1  0.29189400  0.54028800  0.10016500  1
  C  C16  1  0.01061800  0.76354600  0.25093900  1
  C  C17  1  0.42093300  0.92389200  0.16395900  1
  C  C18  1  0.60820900  0.49891900  0.69305400  1
  C  C19  1  0.34297000  0.31509400  0.83305400  1
  C  C20  1  0.65882400  0.12482100  0.67136400  1
  C  C21  1  0.22809800  0.17312600  0.37933800  1
  C  C22  1  0.73569500  0.74275500  0.71601400  1
  C  C23  1  0.84777300  0.84329300  0.84626800  1
  C  C24  1  0.03115500  0.01475200  0.49247000  1
  C  C25  1  0.33804200  0.80530200  0.33542300  1
  C  C26  1  0.39546500  0.42828400  0.38542400  1
  C  C27  1  0.12605200  0.67111100  0.67077900  1
  C  C28  1  0.52058400  0.51586100  0.51523800  1
  C  C29  1  0.67582700  0.64926600  0.15712700  1
  C  C30  1  0.98953100  0.47982900  0.00440400  1
  C  C31  1  0.79087800  0.70422600  0.61630500  1
  C  C32  1  0.58338400  0.42386600  0.29736600  1
  C  C33  1  0.80258900  0.34574300  0.32863600  1
  C  C34  1  0.16197500  0.17321800  0.16906800  1
  C  C35  1  0.53536500  0.71480900  0.66124100  1
  C  C36  1  0.47283800  0.01184500  0.00925600  1
  C  C37  1  0.17744900  0.38432600  0.33450600  1
  C  C38  1  0.79798100  0.98651700  0.94949600  1
  C  C39  1  0.13501200  0.68077600  0.93194000  1
  C  C40  1  0.37485900  0.36192800  0.92618400  1
  C  C41  1  0.79727700  0.33517500  0.59869600  1
  C  C42  1  0.71902400  0.24130500  0.75095200  1
  C  C43  1  0.00783700  0.76414500  0.49596900  1
  C  C44  1  0.60286100  0.83405800  0.83154100  1
  C  C45  1  0.00293500  0.98191200  0.75974600  1
  C  C46  1  0.05003400  0.05633900  0.58591700  1
  C  C47  1  0.82222000  0.59620400  0.82430300  1
  C  C48  1  0.63804700  0.40074100  0.16591800  1
  C  C49  1  0.40970900  0.92157600  0.41129200  1
  C  C50  1  0.46339000  0.01510000  0.25988900  1
  C  C51  1  0.08346400  0.29590600  0.85503700  1
  C  C52  1  0.27806300  0.51146100  0.49624300  1
  C  C53  1  0.66471000  0.14319900  0.92241500  1
  C  C54  1  0.19069900  0.45264900  0.67071200  1
  C  C55  1  0.32118700  0.80669200  0.58790300  1
  C  C56  1  0.67407600  0.63009500  0.42525900  1
  C  C57  1  0.68986100  0.67260800  0.25466200  1
  C  C58  1  0.30753900  0.06212300  0.84736100  1
  C  C59  1  0.49847700  0.27790000  0.49505800  1
  C  C60  1  0.05666300  0.60211000  0.08050400  1
  C  C61  1  0.92659100  0.17445400  0.14824000  1
  C  C62  1  0.42339100  0.15979000  0.67988100  1
  C  C63  1  0.26011800  0.75738000  0.74126700  1
  C  C64  1  0.90146600  0.05153000  0.32100700  1
  C  C65  1  0.14491400  0.93678300  0.15065300  1
  C  C66  1  0.32151600  0.29734800  0.07903200  1
  C  C67  1  0.10572800  0.84706500  0.33890800  1
  C  C68  1  0.77255500  0.98569300  0.50458000  1
  C  C69  1  0.95001900  0.44186300  0.39733800  1
  C  C70  1  0.98304100  0.48156300  0.24665700  1
  C  C71  1  0.55949700  0.80703000  0.99887800  1
  C  C72  1  0.41835200  0.64205700  0.17822800  1
  C  C73  1  0.75797300  0.52552400  0.01224800  1
  C  C74  1  0.61472700  0.10176100  0.07270500  1
