# generated using pymatgen
data_Cu5Ni3C31
_symmetry_space_group_name_H-M   'P 1'
_cell_length_a   10.92506003
_cell_length_b   15.44892280
_cell_length_c   10.87180682
_cell_angle_alpha   90.17588804
_cell_angle_beta   90.22421629
_cell_angle_gamma   90.05542366
_symmetry_Int_Tables_number   1
_chemical_formula_structural   Cu5Ni3C31
_chemical_formula_sum   'Cu20 Ni12 C124'
_cell_volume   1834.92442470
_cell_formula_units_Z   4
loop_
 _symmetry_equiv_pos_site_id
 _symmetry_equiv_pos_as_xyz
  1  'x, y, z'
loop_
 _atom_site_type_symbol
 _atom_site_label
 _atom_site_symmetry_multiplicity
 _atom_site_fract_x
 _atom_site_fract_y
 _atom_site_fract_z
 _atom_site_occupancy
  Ni  Ni0  1  0.00835673  0.12169873  0.50159051  1
  Ni  Ni1  1  0.00705454  0.12116719  0.99523867  1
  Ni  Ni2  1  0.01124472  0.62573533  0.49872145  1
  Ni  Ni3  1  0.49845623  0.38060187  0.99664048  1
  Ni  Ni4  1  0.48970292  0.38126804  0.50575981  1
  Ni  Ni5  1  0.49070104  0.87162964  0.99294878  1
  Ni  Ni6  1  0.24034217  0.38559249  0.25422100  1
  Ni  Ni7  1  0.23456650  0.37757927  0.74257454  1
  Ni  Ni8  1  0.23242658  0.87155322  0.24312715  1
  Ni  Ni9  1  0.24096062  0.11784494  0.25877749  1
  Ni  Ni10  1  0.26248731  0.12162543  0.74005845  1
  Ni  Ni11  1  0.26397286  0.62773852  0.25168242  1
  Cu  Cu12  1  0.01924093  0.62649207  0.99482158  1
  Cu  Cu13  1  0.52371408  0.13084759  0.50967308  1
  Cu  Cu14  1  0.53068405  0.12146342  0.97246187  1
  Cu  Cu15  1  0.52122969  0.62474843  0.49679613  1
  Cu  Cu16  1  0.51938374  0.62533823  0.99518592  1
  Cu  Cu17  1  0.48256502  0.86546126  0.51866005  1
  Cu  Cu18  1  0.96769358  0.38460466  0.99838488  1
  Cu  Cu19  1  0.97939819  0.37791231  0.50368781  1
  Cu  Cu20  1  0.98004991  0.87230597  0.00566749  1
  Cu  Cu21  1  0.97286760  0.87143424  0.50394920  1
  Cu  Cu22  1  0.22757404  0.87177704  0.75147253  1
  Cu  Cu23  1  0.74564704  0.38688039  0.25004890  1
  Cu  Cu24  1  0.73437871  0.37928018  0.74809601  1
  Cu  Cu25  1  0.74676058  0.86392606  0.25007969  1
  Cu  Cu26  1  0.73264946  0.87223968  0.74624662  1
  Cu  Cu27  1  0.27218394  0.62497426  0.75583321  1
  Cu  Cu28  1  0.77602810  0.11973977  0.25274254  1
  Cu  Cu29  1  0.76948195  0.12394320  0.75608288  1
  Cu  Cu30  1  0.76634313  0.62454379  0.25315346  1
  Cu  Cu31  1  0.76790493  0.62592306  0.75404383  1
  C  C32  1  0.99545896  0.99511870  0.25111205  1
  C  C33  1  0.99542877  0.99613906  0.75462579  1
  C  C34  1  0.99914228  0.50118500  0.24821171  1
  C  C35  1  0.99948475  0.50129473  0.75046990  1
  C  C36  1  0.51425063  0.98573531  0.24170616  1
  C  C37  1  0.50119494  0.99815797  0.74669985  1
  C  C38  1  0.50209071  0.50519552  0.24911609  1
  C  C39  1  0.50210780  0.50398511  0.74866646  1
  C  C40  1  0.25143385  0.00041633  0.99909561  1
  C  C41  1  0.23609350  0.99117073  0.51047603  1
  C  C42  1  0.24965541  0.50295193  0.00024709  1
  C  C43  1  0.24988666  0.50341441  0.50237305  1
  C  C44  1  0.75221341  0.99727190  0.99768074  1
  C  C45  1  0.74518424  0.99901867  0.50134159  1
  C  C46  1  0.74992351  0.50461453  0.00072890  1
  C  C47  1  0.75054424  0.50132688  0.50089070  1
  C  C48  1  0.25819543  0.24673632  0.97358415  1
  C  C49  1  0.25028017  0.25054428  0.49585170  1
  C  C50  1  0.25084850  0.74955034  0.99698986  1
  C  C51  1  0.24959922  0.75005550  0.50358640  1
  C  C52  1  0.75008506  0.24955469  0.99979141  1
  C  C53  1  0.75229910  0.24941230  0.50587046  1
  C  C54  1  0.75170074  0.74900497  0.99987137  1
  C  C55  1  0.74824169  0.74919199  0.50011987  1
  C  C56  1  0.99061948  0.25284838  0.26031952  1
  C  C57  1  0.99439916  0.25229681  0.74910278  1
  C  C58  1  0.99861218  0.74874896  0.24853883  1
  C  C59  1  0.99976071  0.75044540  0.75157720  1
  C  C60  1  0.52298893  0.25618858  0.26241264  1
  C  C61  1  0.50546257  0.25014538  0.74465322  1
  C  C62  1  0.50292968  0.74761787  0.25073352  1
  C  C63  1  0.50094025  0.74749104  0.74967218  1
  C  C64  1  0.10331041  0.26296624  0.60594596  1
  C  C65  1  0.10524520  0.76589630  0.10404596  1
  C  C66  1  0.10593048  0.77382523  0.60776675  1
  C  C67  1  0.59551869  0.24805701  0.10751062  1
  C  C68  1  0.60402787  0.26169412  0.60365478  1
  C  C69  1  0.61474344  0.77076007  0.11441522  1
  C  C70  1  0.60833199  0.76444110  0.60562280  1
  C  C71  1  0.39634917  0.22225845  0.36426976  1
  C  C72  1  0.40649888  0.23569751  0.89650116  1
  C  C73  1  0.39678226  0.73172937  0.39706912  1
  C  C74  1  0.39551720  0.72909119  0.89182764  1
  C  C75  1  0.88645085  0.23557044  0.40102865  1
  C  C76  1  0.88862449  0.23791468  0.89458305  1
  C  C77  1  0.88721046  0.73527324  0.38916495  1
  C  C78  1  0.89503899  0.73159583  0.89621796  1
  C  C79  1  0.14535316  0.24407105  0.34682873  1
  C  C80  1  0.13432274  0.23666611  0.85938919  1
  C  C81  1  0.13958710  0.73705746  0.35909196  1
  C  C82  1  0.14660358  0.73256115  0.85129923  1
  C  C83  1  0.64890097  0.21883526  0.35930690  1
  C  C84  1  0.64522137  0.22944784  0.85523708  1
  C  C85  1  0.64510154  0.72842970  0.35676748  1
  C  C86  1  0.64343811  0.72966934  0.85767621  1
  C  C87  1  0.35864523  0.25921854  0.63824425  1
  C  C88  1  0.36333099  0.76520339  0.14021925  1
  C  C89  1  0.35523527  0.76948331  0.64744255  1
  C  C90  1  0.86324568  0.27314386  0.13870489  1
  C  C91  1  0.85137390  0.27225544  0.64480868  1
  C  C92  1  0.85973302  0.76838029  0.13942819  1
  C  C93  1  0.85706480  0.77072721  0.64268373  1
  C  C94  1  0.36226713  0.49143870  0.13890648  1
  C  C95  1  0.35893747  0.48985570  0.64248244  1
  C  C96  1  0.36581838  0.99910323  0.15833138  1
  C  C97  1  0.35551991  0.97907836  0.63988948  1
  C  C98  1  0.85883868  0.48234357  0.13974940  1
  C  C99  1  0.85732782  0.48098544  0.64244965  1
  C  C100  1  0.85457891  0.97991999  0.14375679  1
  C  C101  1  0.85360590  0.97693673  0.64176233  1
  C  C102  1  0.13642120  0.00509654  0.36412257  1
  C  C103  1  0.14205206  0.01552978  0.86050571  1
  C  C104  1  0.14037617  0.51568714  0.35807920  1
  C  C105  1  0.14514424  0.51548900  0.85389326  1
  C  C106  1  0.61877649  0.03139943  0.35928743  1
  C  C107  1  0.64524891  0.01697060  0.85322243  1
  C  C108  1  0.64335338  0.51872182  0.35785154  1
  C  C109  1  0.64305999  0.52208057  0.85871778  1
  C  C110  1  0.39512824  0.01767945  0.89287464  1
  C  C111  1  0.39295157  0.51967746  0.39145282  1
  C  C112  1  0.39334788  0.51588164  0.89151651  1
  C  C113  1  0.87919110  0.01739109  0.38614129  1
  C  C114  1  0.88918510  0.01123252  0.89102661  1
  C  C115  1  0.88850098  0.51301940  0.38927089  1
  C  C116  1  0.89393872  0.51768683  0.89734094  1
  C  C117  1  0.10383042  0.48405013  0.10435692  1
  C  C118  1  0.10414755  0.48226881  0.60687776  1
  C  C119  1  0.10813176  0.98331996  0.11168212  1
  C  C120  1  0.10171189  0.97765183  0.61172064  1
  C  C121  1  0.61505398  0.48720873  0.11304007  1
  C  C122  1  0.61225666  0.48953226  0.60979065  1
  C  C123  1  0.60825347  0.99224916  0.10271452  1
  C  C124  1  0.59855679  0.98358299  0.59793590  1
  C  C125  1  0.00432155  0.37642150  0.27974968  1
  C  C126  1  -0.00006021  0.37717624  0.78666092  1
  C  C127  1  0.99443686  0.87342683  0.28525308  1
  C  C128  1  0.00723480  0.87317702  0.79150960  1
  C  C129  1  0.50089485  0.37709865  0.26794658  1
  C  C130  1  0.51063770  0.37617734  0.77020575  1
  C  C131  1  0.50695753  0.87482157  0.29697563  1
  C  C132  1  0.51370975  0.87327280  0.77177199  1
  C  C133  1  0.49789695  0.12353943  0.71989958  1
  C  C134  1  0.50042556  0.62816181  0.21191907  1
  C  C135  1  0.49219065  0.62633226  0.71276788  1
  C  C136  1  0.99950053  0.12767749  0.22486011  1
  C  C137  1  0.98773985  0.12339955  0.72638552  1
  C  C138  1  0.98905009  0.62506073  0.21456340  1
  C  C139  1  0.98684944  0.62587199  0.72248488  1
  C  C140  1  0.24602655  0.13589573  0.03619967  1
  C  C141  1  0.25999413  0.11460440  0.50627138  1
  C  C142  1  0.23791798  0.62505987  0.02499591  1
  C  C143  1  0.24252993  0.62785885  0.53837776  1
  C  C144  1  0.75269465  0.12337926  0.03374723  1
  C  C145  1  0.74724573  0.12361961  0.54247222  1
  C  C146  1  0.74171114  0.62648634  0.03815145  1
  C  C147  1  0.74763879  0.62580298  0.53698396  1
  C  C148  1  0.25974166  0.37669994  0.47765046  1
  C  C149  1  0.25510752  0.36348893  0.00565303  1
  C  C150  1  0.26871537  0.87552551  0.46746893  1
  C  C151  1  0.25864068  0.87569717  0.97084289  1
  C  C152  1  0.74808179  0.37468467  0.46454874  1
  C  C153  1  0.74365070  0.37600668  0.96781646  1
  C  C154  1  0.75119001  0.87526461  0.46228232  1
  C  C155  1  0.75318550  0.87346276  0.96342280  1
