# generated using pymatgen
data_Cu5Ni2C7
_symmetry_space_group_name_H-M   'P 1'
_cell_length_a   5.96643158
_cell_length_b   6.02374153
_cell_length_c   9.88887913
_cell_angle_alpha   90.73316147
_cell_angle_beta   90.00230045
_cell_angle_gamma   119.68559239
_symmetry_Int_Tables_number   1
_chemical_formula_structural   Cu5Ni2C7
_chemical_formula_sum   'Cu10 Ni4 C14'
_cell_volume   308.72987502
_cell_formula_units_Z   2
loop_
 _symmetry_equiv_pos_site_id
 _symmetry_equiv_pos_as_xyz
  1  'x, y, z'
loop_
 _atom_site_type_symbol
 _atom_site_label
 _atom_site_symmetry_multiplicity
 _atom_site_fract_x
 _atom_site_fract_y
 _atom_site_fract_z
 _atom_site_occupancy
  C  C0  1  0.02012000  0.00503200  0.49018400  1
  C  C1  1  0.98490800  0.00504100  0.99018100  1
  Ni  Ni2  1  0.66848700  0.32523700  0.09706200  1
  Ni  Ni3  1  0.65673500  0.32524800  0.59705900  1
  Ni  Ni4  1  0.33212900  0.65328100  0.89899700  1
  Ni  Ni5  1  0.32118300  0.65328200  0.39899600  1
  Cu  Cu6  1  0.66377900  0.33186600  0.95593400  1
  Cu  Cu7  1  0.66801800  0.33186200  0.45593400  1
  Cu  Cu8  1  0.33412900  0.66293500  0.04072100  1
  Cu  Cu9  1  0.32887600  0.66293800  0.54072100  1
  Cu  Cu10  1  0.97841000  0.64734200  0.23158500  1
  Cu  Cu11  1  0.35055800  0.32646000  0.22991000  1
  Cu  Cu12  1  0.97589300  0.32645400  0.72990100  1
  Cu  Cu13  1  0.66892800  0.64734400  0.73159000  1
  Cu  Cu14  1  0.32601100  0.96659600  0.77593700  1
  Cu  Cu15  1  0.64059200  0.96660000  0.27593000  1
  C  C16  1  0.86877900  0.60743500  0.13904200  1
  C  C17  1  0.38796300  0.26230700  0.13596600  1
  C  C18  1  0.73650400  0.12752100  0.14336000  1
  C  C19  1  0.87432600  0.26230700  0.63596000  1
  C  C20  1  0.73864500  0.60743500  0.63904400  1
  C  C21  1  0.39099200  0.12752000  0.64336600  1
  C  C22  1  0.11809400  0.38961500  0.85410100  1
  C  C23  1  0.60393900  0.72790300  0.85198000  1
  C  C24  1  0.26223100  0.87045500  0.86523100  1
  C  C25  1  0.12398200  0.72790400  0.35198300  1
  C  C26  1  0.27154300  0.38962100  0.35410200  1
  C  C27  1  0.60824600  0.87045800  0.36522500  1
