# generated using pymatgen
data_Cu(NiC4)2
_symmetry_space_group_name_H-M   'P 1'
_cell_length_a   5.31647013
_cell_length_b   5.31646990
_cell_length_c   5.78489300
_cell_angle_alpha   90.00000000
_cell_angle_beta   90.00000000
_cell_angle_gamma   59.93316280
_symmetry_Int_Tables_number   1
_chemical_formula_structural   Cu(NiC4)2
_chemical_formula_sum   'Cu1 Ni2 C8'
_cell_volume   141.50761470
_cell_formula_units_Z   1
loop_
 _symmetry_equiv_pos_site_id
 _symmetry_equiv_pos_as_xyz
  1  'x, y, z'
loop_
 _atom_site_type_symbol
 _atom_site_label
 _atom_site_symmetry_multiplicity
 _atom_site_fract_x
 _atom_site_fract_y
 _atom_site_fract_z
 _atom_site_occupancy
  C  C0  1  0.00000000  0.00000000  0.61640200  1
  C  C1  1  0.00000000  0.00000000  0.05026500  1
  Ni  Ni2  1  0.50000000  0.00000000  0.67110300  1
  Ni  Ni3  1  0.00000000  0.50000000  0.99556400  1
  Cu  Cu4  1  0.50000000  0.50000000  0.33333300  1
  C  C5  1  0.21524300  0.59052900  0.17147400  1
  C  C6  1  0.59052900  0.21524300  0.49519300  1
  C  C7  1  0.17643800  0.17643800  0.83333300  1
  C  C8  1  0.78475700  0.40947100  0.17147400  1
  C  C9  1  0.40947100  0.78475700  0.49519300  1
  C  C10  1  0.82356200  0.82356200  0.83333300  1
