# generated using pymatgen
data_Cu8Ni16C29
_symmetry_space_group_name_H-M   'P 1'
_cell_length_a   9.65025381
_cell_length_b   9.65025381
_cell_length_c   9.65025381
_cell_angle_alpha   98.35454381
_cell_angle_beta   98.35454381
_cell_angle_gamma   135.18642210
_symmetry_Int_Tables_number   1
_chemical_formula_structural   Cu8Ni16C29
_chemical_formula_sum   'Cu8 Ni16 C29'
_cell_volume   585.58625284
_cell_formula_units_Z   1
loop_
 _symmetry_equiv_pos_site_id
 _symmetry_equiv_pos_as_xyz
  1  'x, y, z'
loop_
 _atom_site_type_symbol
 _atom_site_label
 _atom_site_symmetry_multiplicity
 _atom_site_fract_x
 _atom_site_fract_y
 _atom_site_fract_z
 _atom_site_occupancy
  C  C0  1  0.29942800  0.20227400  0.50283400  1
  C  C1  1  0.69944000  0.79659400  0.49716600  1
  C  C2  1  0.20227400  0.69944000  0.90284600  1
  C  C3  1  0.79659400  0.29942800  0.09715400  1
  Ni  Ni4  1  0.18235500  0.27363200  0.24128100  1
  Ni  Ni5  1  0.03235000  0.94107400  0.75871900  1
  Ni  Ni6  1  0.27363200  0.03235000  0.09127600  1
  Ni  Ni7  1  0.94107400  0.18235500  0.90872400  1
  Ni  Ni8  1  0.82027200  0.72377200  0.75458200  1
  Ni  Ni9  1  0.96919000  0.06569000  0.24541800  1
  Ni  Ni10  1  0.72377200  0.96919000  0.90350000  1
  Ni  Ni11  1  0.06569000  0.82027200  0.09650000  1
  Ni  Ni12  1  0.24661000  0.88189200  0.34099800  1
  Ni  Ni13  1  0.54089400  0.90561200  0.65900200  1
  Ni  Ni14  1  0.88189200  0.54089400  0.63528200  1
  Ni  Ni15  1  0.90561200  0.24661000  0.36471800  1
  Ni  Ni16  1  0.75670600  0.11846000  0.66075500  1
  Ni  Ni17  1  0.45770500  0.09595100  0.33924500  1
  Ni  Ni18  1  0.11846000  0.45770500  0.36175500  1
  Ni  Ni19  1  0.09595100  0.75670600  0.63824500  1
  Cu  Cu20  1  0.65738900  0.34932300  0.79494500  1
  Cu  Cu21  1  0.55437800  0.86244400  0.20505500  1
  Cu  Cu22  1  0.34932300  0.55437800  0.69193400  1
  Cu  Cu23  1  0.86244400  0.65738900  0.30806600  1
  Cu  Cu24  1  0.34143300  0.65132400  0.20641600  1
  Cu  Cu25  1  0.44490800  0.13501700  0.79358400  1
  Cu  Cu26  1  0.65132400  0.44490800  0.30989100  1
  Cu  Cu27  1  0.13501700  0.34143300  0.69010900  1
  C  C28  1  0.11632600  0.14743300  0.26462700  1
  C  C29  1  0.88280600  0.85169900  0.73537300  1
  C  C30  1  0.14743300  0.88280600  0.03110600  1
  C  C31  1  0.85169900  0.11632600  0.96889400  1
  C  C32  1  0.37785800  0.02870300  0.40508900  1
  C  C33  1  0.62361400  0.97277000  0.59491100  1
  C  C34  1  0.02870300  0.62361400  0.65084500  1
  C  C35  1  0.97277000  0.37785800  0.34915500  1
  C  C36  1  0.64561700  0.42248800  0.70080700  1
  C  C37  1  0.72168100  0.94481000  0.29919300  1
  C  C38  1  0.42248800  0.72168100  0.77687100  1
  C  C39  1  0.94481000  0.64561700  0.22312900  1
  C  C40  1  0.35283000  0.58149700  0.30371700  1
  C  C41  1  0.27778100  0.04911300  0.69628300  1
  C  C42  1  0.58149700  0.27778100  0.22866700  1
  C  C43  1  0.04911300  0.35283000  0.77133300  1
  C  C44  1  0.82358900  0.42878200  0.88782700  1
  C  C45  1  0.54095600  0.93576200  0.11217300  1
  C  C46  1  0.42878200  0.54095600  0.60519400  1
  C  C47  1  0.93576200  0.82358900  0.39480600  1
  C  C48  1  0.17545000  0.57155600  0.11293600  1
  C  C49  1  0.45862000  0.06251400  0.88706400  1
  C  C50  1  0.57155600  0.45862000  0.39610600  1
  C  C51  1  0.06251400  0.17545000  0.60389400  1
  C  C52  1  0.34862700  0.34862700  0.00000000  1
