# generated using pymatgen
data_CuNi14C
_symmetry_space_group_name_H-M   'P 1'
_cell_length_a   6.38426075
_cell_length_b   6.14821904
_cell_length_c   10.13653636
_cell_angle_alpha   90.00000000
_cell_angle_beta   90.00000000
_cell_angle_gamma   118.78432131
_symmetry_Int_Tables_number   1
_chemical_formula_structural   CuNi14C
_chemical_formula_sum   'Cu1 Ni14 C1'
_cell_volume   348.71527040
_cell_formula_units_Z   1
loop_
 _symmetry_equiv_pos_site_id
 _symmetry_equiv_pos_as_xyz
  1  'x, y, z'
loop_
 _atom_site_type_symbol
 _atom_site_label
 _atom_site_symmetry_multiplicity
 _atom_site_fract_x
 _atom_site_fract_y
 _atom_site_fract_z
 _atom_site_occupancy
  Ni  Ni0  1  0.16672107  0.33336003  0.62500000  1
  Ni  Ni1  1  0.16353312  0.83176606  0.62500000  1
  Ni  Ni2  1  0.65863856  0.32558789  0.12500000  1
  Ni  Ni3  1  0.66384737  0.33372919  0.62500000  1
  Ni  Ni4  1  0.65863856  0.83304967  0.12500000  1
  Ni  Ni5  1  0.66384737  0.83011718  0.62500000  1
  Ni  Ni6  1  0.33109048  0.15940211  0.36810108  1
  Ni  Ni7  1  0.33109048  0.15940211  0.88189892  1
  Ni  Ni8  1  0.33109048  0.67168937  0.36810108  1
  Ni  Ni9  1  0.33109048  0.67168937  0.88189892  1
  Ni  Ni10  1  0.84170438  0.17085269  0.37691667  1
  Ni  Ni11  1  0.84170438  0.17085269  0.87308333  1
  Ni  Ni12  1  0.85037453  0.67518776  0.36298399  1
  Ni  Ni13  1  0.85037453  0.67518776  0.88701601  1
  Cu  Cu14  1  0.15805948  0.32902924  0.12500000  1
  C  C15  1  0.15819472  0.82909686  0.12500000  1
