# generated using pymatgen
data_CuNiC2
_symmetry_space_group_name_H-M   'P 1'
_cell_length_a   8.87370100
_cell_length_b   6.92593700
_cell_length_c   7.46068988
_cell_angle_alpha   89.18385951
_cell_angle_beta   90.00000000
_cell_angle_gamma   90.00000000
_symmetry_Int_Tables_number   1
_chemical_formula_structural   CuNiC2
_chemical_formula_sum   'Cu12 Ni12 C24'
_cell_volume   458.47774013
_cell_formula_units_Z   12
loop_
 _symmetry_equiv_pos_site_id
 _symmetry_equiv_pos_as_xyz
  1  'x, y, z'
loop_
 _atom_site_type_symbol
 _atom_site_label
 _atom_site_symmetry_multiplicity
 _atom_site_fract_x
 _atom_site_fract_y
 _atom_site_fract_z
 _atom_site_occupancy
  Ni  Ni0  1  0.78816300  0.52461800  0.24191300  1
  Ni  Ni1  1  0.28816300  0.47538200  0.25808700  1
  Ni  Ni2  1  0.21183700  0.47538200  0.75808700  1
  Ni  Ni3  1  0.71183700  0.52461800  0.74191300  1
  Ni  Ni4  1  0.83672200  0.83318900  0.10120000  1
  Ni  Ni5  1  0.33672200  0.16681100  0.39880000  1
  Ni  Ni6  1  0.16327800  0.16681100  0.89880000  1
  Ni  Ni7  1  0.66327800  0.83318900  0.60120000  1
  Ni  Ni8  1  0.04380700  0.67109400  0.26970700  1
  Ni  Ni9  1  0.54380700  0.32890600  0.23029300  1
  Ni  Ni10  1  0.95619300  0.32890600  0.73029300  1
  Ni  Ni11  1  0.45619300  0.67109400  0.76970700  1
  Cu  Cu12  1  0.13771500  0.86038900  0.47470400  1
  Cu  Cu13  1  0.63771500  0.13961100  0.02529600  1
  Cu  Cu14  1  0.86228500  0.13961100  0.52529600  1
  Cu  Cu15  1  0.36228500  0.86038900  0.97470400  1
  Cu  Cu16  1  0.87134800  0.06672200  0.95411900  1
  Cu  Cu17  1  0.37134800  0.93327800  0.54588100  1
  Cu  Cu18  1  0.12865200  0.93327800  0.04588100  1
  Cu  Cu19  1  0.62865200  0.06672200  0.45411900  1
  Cu  Cu20  1  0.04955700  0.66796700  0.56130600  1
  Cu  Cu21  1  0.54955700  0.33203300  0.93869400  1
  Cu  Cu22  1  0.95044300  0.33203300  0.43869400  1
  Cu  Cu23  1  0.45044300  0.66796700  0.06130600  1
  C  C24  1  0.69416800  0.37703500  0.28606200  1
  C  C25  1  0.19416800  0.62296500  0.21393800  1
  C  C26  1  0.30583200  0.62296500  0.71393800  1
  C  C27  1  0.80583200  0.37703500  0.78606200  1
  C  C28  1  0.93812600  0.50964400  0.29338700  1
  C  C29  1  0.43812600  0.49035600  0.20661300  1
  C  C30  1  0.06187400  0.49035600  0.70661300  1
  C  C31  1  0.56187400  0.50964400  0.79338700  1
  C  C32  1  0.73783100  0.68688900  0.14836700  1
  C  C33  1  0.23783100  0.31311100  0.35163300  1
  C  C34  1  0.26216900  0.31311100  0.85163300  1
  C  C35  1  0.76216900  0.68688900  0.64836700  1
  C  C36  1  0.98684600  0.82072800  0.14719800  1
  C  C37  1  0.48684600  0.17927200  0.35280200  1
  C  C38  1  0.01315400  0.17927200  0.85280200  1
  C  C39  1  0.51315400  0.82072800  0.64719800  1
  C  C40  1  0.78486600  0.98809000  0.00199800  1
  C  C41  1  0.28486600  0.01191000  0.49800200  1
  C  C42  1  0.21513400  0.01191000  0.99800200  1
  C  C43  1  0.71513400  0.98809000  0.50199800  1
  C  C44  1  0.05200800  0.76617000  0.45847500  1
  C  C45  1  0.55200800  0.23383000  0.04152500  1
  C  C46  1  0.94799200  0.23383000  0.54152500  1
  C  C47  1  0.44799200  0.76617000  0.95847500  1
