# generated using pymatgen
data_CuNi3C14
_symmetry_space_group_name_H-M   'P 1'
_cell_length_a   7.76141260
_cell_length_b   7.75122159
_cell_length_c   7.64806146
_cell_angle_alpha   89.98339144
_cell_angle_beta   90.23763300
_cell_angle_gamma   89.70127937
_symmetry_Int_Tables_number   1
_chemical_formula_structural   CuNi3C14
_chemical_formula_sum   'Cu2 Ni6 C28'
_cell_volume   460.10042504
_cell_formula_units_Z   2
loop_
 _symmetry_equiv_pos_site_id
 _symmetry_equiv_pos_as_xyz
  1  'x, y, z'
loop_
 _atom_site_type_symbol
 _atom_site_label
 _atom_site_symmetry_multiplicity
 _atom_site_fract_x
 _atom_site_fract_y
 _atom_site_fract_z
 _atom_site_occupancy
  C  C0  1  0.26985600  0.25957900  0.23860900  1
  C  C1  1  0.20522500  0.24024800  0.74143000  1
  C  C2  1  0.30577900  0.74056800  0.22310400  1
  C  C3  1  0.21154800  0.74905700  0.73674100  1
  C  C4  1  0.75310100  0.26503900  0.24609500  1
  C  C5  1  0.74458900  0.26342300  0.73655300  1
  C  C6  1  0.75869000  0.74414700  0.24090400  1
  C  C7  1  0.73571100  0.73669300  0.74067800  1
  Ni  Ni8  1  0.98963800  0.50298400  0.97735900  1
  Ni  Ni9  1  0.98356100  0.50662900  0.48543600  1
  Ni  Ni10  1  0.50741700  0.99947300  0.99028400  1
  Ni  Ni11  1  0.48713700  0.99828600  0.52438800  1
  Ni  Ni12  1  0.50594400  0.49845600  0.99480900  1
  Ni  Ni13  1  0.48649900  0.50414400  0.49433500  1
  Cu  Cu14  1  0.02064400  0.99532400  0.01442200  1
  Cu  Cu15  1  0.00494300  0.99748200  0.46425900  1
  C  C16  1  0.94384800  0.49518800  0.23068200  1
  C  C17  1  0.04404500  0.49768300  0.72900700  1
  C  C18  1  0.53150200  0.98144400  0.26434000  1
  C  C19  1  0.59998400  0.00664900  0.75398500  1
  C  C20  1  0.53528400  0.51399700  0.24654500  1
  C  C21  1  0.24635000  0.99217000  0.98982400  1
  C  C22  1  0.21865800  0.99571700  0.54709500  1
  C  C23  1  0.25187500  0.50540600  0.00342100  1
  C  C24  1  0.23566400  0.52321000  0.44066700  1
  C  C25  1  0.96600100  0.00074000  0.23706300  1
  C  C26  1  0.73875900  0.49590300  0.92726700  1
  C  C27  1  0.72769200  0.49590600  0.53509400  1
  C  C28  1  0.96284700  0.20091600  0.93621900  1
  C  C29  1  0.93380600  0.20723800  0.51446100  1
  C  C30  1  0.95431000  0.79210500  0.94192100  1
  C  C31  1  0.92021300  0.79516800  0.51666000  1
  C  C32  1  0.51484100  0.24782800  0.00884400  1
  C  C33  1  0.46387400  0.25650600  0.53454200  1
  C  C34  1  0.51396800  0.74959100  0.98722400  1
  C  C35  1  0.47619500  0.74510500  0.55573300  1
