# generated using pymatgen
data_CuNiC2
_symmetry_space_group_name_H-M   'P 1'
_cell_length_a   3.81229300
_cell_length_b   6.65210500
_cell_length_c   12.20252503
_cell_angle_alpha   90.00000000
_cell_angle_beta   93.01654209
_cell_angle_gamma   90.00000000
_symmetry_Int_Tables_number   1
_chemical_formula_structural   CuNiC2
_chemical_formula_sum   'Cu4 Ni4 C8'
_cell_volume   309.02448497
_cell_formula_units_Z   4
loop_
 _symmetry_equiv_pos_site_id
 _symmetry_equiv_pos_as_xyz
  1  'x, y, z'
loop_
 _atom_site_type_symbol
 _atom_site_label
 _atom_site_symmetry_multiplicity
 _atom_site_fract_x
 _atom_site_fract_y
 _atom_site_fract_z
 _atom_site_occupancy
  Ni  Ni0  1  0.87725200  0.36109600  0.60321400  1
  Ni  Ni1  1  0.12274800  0.86109600  0.89678600  1
  Ni  Ni2  1  0.12274800  0.63890400  0.39678600  1
  Ni  Ni3  1  0.87725200  0.13890400  0.10321400  1
  Cu  Cu4  1  0.97064300  0.59336800  0.68630400  1
  Cu  Cu5  1  0.02935700  0.09336800  0.81369600  1
  Cu  Cu6  1  0.02935700  0.40663200  0.31369600  1
  Cu  Cu7  1  0.97064300  0.90663200  0.18630400  1
  C  C8  1  0.67767900  0.73911300  0.67388300  1
  C  C9  1  0.32232100  0.23911300  0.82611700  1
  C  C10  1  0.32232100  0.26088700  0.32611700  1
  C  C11  1  0.67767900  0.76088700  0.17388300  1
  C  C12  1  0.82459400  0.21472500  0.55093800  1
  C  C13  1  0.17540600  0.71472500  0.94906200  1
  C  C14  1  0.17540600  0.78527500  0.44906200  1
  C  C15  1  0.82459400  0.28527500  0.05093800  1
