# generated using pymatgen
data_Cu2NiC11
_symmetry_space_group_name_H-M   'P 1'
_cell_length_a   2.98898312
_cell_length_b   2.98898312
_cell_length_c   34.58803026
_cell_angle_alpha   86.61564008
_cell_angle_beta   86.61564008
_cell_angle_gamma   57.60938003
_symmetry_Int_Tables_number   1
_chemical_formula_structural   Cu2NiC11
_chemical_formula_sum   'Cu4 Ni2 C22'
_cell_volume   260.34018995
_cell_formula_units_Z   2
loop_
 _symmetry_equiv_pos_site_id
 _symmetry_equiv_pos_as_xyz
  1  'x, y, z'
loop_
 _atom_site_type_symbol
 _atom_site_label
 _atom_site_symmetry_multiplicity
 _atom_site_fract_x
 _atom_site_fract_y
 _atom_site_fract_z
 _atom_site_occupancy
  C  C0  1  0.71442600  0.71442600  0.92912200  1
  C  C1  1  0.14770000  0.14770000  0.78138900  1
  C  C2  1  0.56845500  0.56845500  0.64369900  1
  C  C3  1  0.99976300  0.99976300  0.50036700  1
  C  C4  1  0.42729000  0.42729000  0.35735500  1
  C  C5  1  0.85840500  0.85840500  0.21437000  1
  C  C6  1  0.28071800  0.28071800  0.07407600  1
  C  C7  1  0.85712600  0.85712600  0.71351900  1
  Ni  Ni8  1  0.99732100  0.99732100  0.00063500  1
  Ni  Ni9  1  0.43239100  0.43239100  0.85738000  1
  Cu  Cu10  1  0.28701200  0.28701200  0.57071300  1
  Cu  Cu11  1  0.71351100  0.71351100  0.42890900  1
  Cu  Cu12  1  0.14279900  0.14279900  0.28576500  1
  Cu  Cu13  1  0.57102800  0.57102800  0.14332500  1
  C  C14  1  0.38144200  0.38144200  0.96720300  1
  C  C15  1  0.80286700  0.80286700  0.82630100  1
  C  C16  1  0.21772800  0.21772800  0.67702300  1
  C  C17  1  0.64388600  0.64388600  0.53849700  1
  C  C18  1  0.06649900  0.06649900  0.39645200  1
  C  C19  1  0.50467400  0.50467400  0.25306800  1
  C  C20  1  0.92411900  0.92411900  0.11044200  1
  C  C21  1  0.05427000  0.05427000  0.89042300  1
  C  C22  1  0.49782400  0.49782400  0.75006300  1
  C  C23  1  0.93067300  0.93067300  0.60153000  1
  C  C24  1  0.36098700  0.36098700  0.46117800  1
  C  C25  1  0.78094800  0.78094800  0.31836200  1
  C  C26  1  0.21943200  0.21943200  0.17550100  1
  C  C27  1  0.61670400  0.61670400  0.03333300  1
