# generated using pymatgen
data_Cu(Ni2C11)3
_symmetry_space_group_name_H-M   'P 1'
_cell_length_a   9.88336238
_cell_length_b   9.88336238
_cell_length_c   13.13314200
_cell_angle_alpha   90.00000000
_cell_angle_beta   90.00000000
_cell_angle_gamma   120.00000251
_symmetry_Int_Tables_number   1
_chemical_formula_structural   Cu(Ni2C11)3
_chemical_formula_sum   'Cu2 Ni12 C66'
_cell_volume   1110.98628846
_cell_formula_units_Z   2
loop_
 _symmetry_equiv_pos_site_id
 _symmetry_equiv_pos_as_xyz
  1  'x, y, z'
loop_
 _atom_site_type_symbol
 _atom_site_label
 _atom_site_symmetry_multiplicity
 _atom_site_fract_x
 _atom_site_fract_y
 _atom_site_fract_z
 _atom_site_occupancy
  C  C0  1  0.66666700  0.33333300  0.66260900  1
  C  C1  1  0.66666700  0.33333300  0.16260900  1
  C  C2  1  0.33333300  0.66666700  0.33739100  1
  C  C3  1  0.33333300  0.66666700  0.83739100  1
  C  C4  1  0.00000000  0.00000000  0.50000000  1
  C  C5  1  0.00000000  0.00000000  0.00000000  1
  Ni  Ni6  1  0.07621900  0.67664100  0.60194000  1
  Ni  Ni7  1  0.60042200  0.92378100  0.60194000  1
  Ni  Ni8  1  0.32335900  0.39957800  0.60194000  1
  Ni  Ni9  1  0.07621900  0.39957800  0.10194000  1
  Ni  Ni10  1  0.32335900  0.92378100  0.10194000  1
  Ni  Ni11  1  0.60042200  0.67664100  0.10194000  1
  Ni  Ni12  1  0.92378100  0.32335900  0.39806000  1
  Ni  Ni13  1  0.39957800  0.07621900  0.39806000  1
  Ni  Ni14  1  0.67664100  0.60042200  0.39806000  1
  Ni  Ni15  1  0.92378100  0.60042200  0.89806000  1
  Ni  Ni16  1  0.67664100  0.07621900  0.89806000  1
  Ni  Ni17  1  0.39957800  0.32335900  0.89806000  1
  Cu  Cu18  1  0.00000000  0.00000000  0.75000000  1
  Cu  Cu19  1  0.00000000  0.00000000  0.25000000  1
  C  C20  1  0.86952100  0.56606500  0.71547600  1
  C  C21  1  0.69654400  0.13047900  0.71547600  1
  C  C22  1  0.43393500  0.30345600  0.71547600  1
  C  C23  1  0.86952100  0.30345600  0.21547600  1
  C  C24  1  0.43393500  0.13047900  0.21547600  1
  C  C25  1  0.69654400  0.56606500  0.21547600  1
  C  C26  1  0.13047900  0.43393500  0.28452400  1
  C  C27  1  0.30345600  0.86952100  0.28452400  1
  C  C28  1  0.56606500  0.69654400  0.28452400  1
  C  C29  1  0.13047900  0.69654400  0.78452400  1
  C  C30  1  0.56606500  0.86952100  0.78452400  1
  C  C31  1  0.30345600  0.43393500  0.78452400  1
  C  C32  1  0.88441300  0.69145300  0.51995800  1
  C  C33  1  0.80703900  0.11558700  0.51995800  1
  C  C34  1  0.30854700  0.19296100  0.51995800  1
  C  C35  1  0.88441300  0.19296100  0.01995800  1
  C  C36  1  0.30854700  0.11558700  0.01995800  1
  C  C37  1  0.80703900  0.69145300  0.01995800  1
  C  C38  1  0.11558700  0.30854700  0.48004200  1
  C  C39  1  0.19296100  0.88441300  0.48004200  1
  C  C40  1  0.69145300  0.80703900  0.48004200  1
  C  C41  1  0.11558700  0.80703900  0.98004200  1
  C  C42  1  0.69145300  0.88441300  0.98004200  1
  C  C43  1  0.19296100  0.30854700  0.98004200  1
  C  C44  1  0.11957400  0.58754100  0.44991700  1
  C  C45  1  0.46796700  0.88042600  0.44991700  1
  C  C46  1  0.41245900  0.53203300  0.44991700  1
  C  C47  1  0.11957400  0.53203300  0.94991700  1
  C  C48  1  0.41245900  0.88042600  0.94991700  1
  C  C49  1  0.46796700  0.58754100  0.94991700  1
  C  C50  1  0.88042600  0.41245900  0.55008300  1
  C  C51  1  0.53203300  0.11957400  0.55008300  1
  C  C52  1  0.58754100  0.46796700  0.55008300  1
  C  C53  1  0.88042600  0.46796700  0.05008300  1
  C  C54  1  0.58754100  0.11957400  0.05008300  1
  C  C55  1  0.53203300  0.41245900  0.05008300  1
  C  C56  1  0.08560100  0.89546400  0.65760200  1
  C  C57  1  0.80986300  0.91439900  0.65760200  1
  C  C58  1  0.10453600  0.19013700  0.65760200  1
  C  C59  1  0.08560100  0.19013700  0.15760200  1
  C  C60  1  0.10453600  0.91439900  0.15760200  1
  C  C61  1  0.80986300  0.89546400  0.15760200  1
  C  C62  1  0.91439900  0.10453600  0.34239800  1
  C  C63  1  0.19013700  0.08560100  0.34239800  1
  C  C64  1  0.89546400  0.80986300  0.34239800  1
  C  C65  1  0.91439900  0.80986300  0.84239800  1
  C  C66  1  0.89546400  0.08560100  0.84239800  1
  C  C67  1  0.19013700  0.10453600  0.84239800  1
  C  C68  1  0.34023500  0.82820400  0.63669100  1
  C  C69  1  0.48796900  0.65976500  0.63669100  1
  C  C70  1  0.17179600  0.51203100  0.63669100  1
  C  C71  1  0.34023500  0.51203100  0.13669100  1
  C  C72  1  0.17179600  0.65976500  0.13669100  1
  C  C73  1  0.48796900  0.82820400  0.13669100  1
  C  C74  1  0.65976500  0.17179600  0.36330900  1
  C  C75  1  0.51203100  0.34023500  0.36330900  1
  C  C76  1  0.82820400  0.48796900  0.36330900  1
  C  C77  1  0.65976500  0.48796900  0.86330900  1
  C  C78  1  0.82820400  0.34023500  0.86330900  1
  C  C79  1  0.51203100  0.17179600  0.86330900  1
