# generated using pymatgen
data_CuNiC5
_symmetry_space_group_name_H-M   'P 1'
_cell_length_a   6.86815371
_cell_length_b   6.86815371
_cell_length_c   5.46850900
_cell_angle_alpha   90.00000000
_cell_angle_beta   90.00000000
_cell_angle_gamma   133.37284614
_symmetry_Int_Tables_number   1
_chemical_formula_structural   CuNiC5
_chemical_formula_sum   'Cu2 Ni2 C10'
_cell_volume   187.50970141
_cell_formula_units_Z   2
loop_
 _symmetry_equiv_pos_site_id
 _symmetry_equiv_pos_as_xyz
  1  'x, y, z'
loop_
 _atom_site_type_symbol
 _atom_site_label
 _atom_site_symmetry_multiplicity
 _atom_site_fract_x
 _atom_site_fract_y
 _atom_site_fract_z
 _atom_site_occupancy
  Ni  Ni0  1  0.85432900  0.14567100  0.50000000  1
  Ni  Ni1  1  0.64526300  0.35473700  0.00000000  1
  Cu  Cu2  1  0.36135900  0.63864100  0.00000000  1
  Cu  Cu3  1  0.13790700  0.86209300  0.50000000  1
  C  C4  1  0.50171600  0.49828400  0.50000000  1
  C  C5  1  0.99797600  0.00202400  0.00000000  1
  C  C6  1  0.74472400  0.74372800  0.74144000  1
  C  C7  1  0.25627200  0.25527600  0.25856000  1
  C  C8  1  0.25627200  0.25527600  0.74144000  1
  C  C9  1  0.74472400  0.74372800  0.25856000  1
  C  C10  1  0.17803100  0.82196900  0.00000000  1
  C  C11  1  0.65959700  0.34040300  0.50000000  1
  C  C12  1  0.32776400  0.67223600  0.50000000  1
  C  C13  1  0.83406500  0.16593500  0.00000000  1
