# generated using pymatgen
data_CuNiC
_symmetry_space_group_name_H-M   'P 1'
_cell_length_a   3.28348900
_cell_length_b   5.89064700
_cell_length_c   16.97716200
_cell_angle_alpha   90.00000000
_cell_angle_beta   90.00000000
_cell_angle_gamma   90.00000000
_symmetry_Int_Tables_number   1
_chemical_formula_structural   CuNiC
_chemical_formula_sum   'Cu10 Ni10 C10'
_cell_volume   328.37013893
_cell_formula_units_Z   10
loop_
 _symmetry_equiv_pos_site_id
 _symmetry_equiv_pos_as_xyz
  1  'x, y, z'
loop_
 _atom_site_type_symbol
 _atom_site_label
 _atom_site_symmetry_multiplicity
 _atom_site_fract_x
 _atom_site_fract_y
 _atom_site_fract_z
 _atom_site_occupancy
  Ni  Ni0  1  0.00000000  0.47161100  0.32068000  1
  Ni  Ni1  1  0.00000000  0.47161100  0.67932000  1
  Ni  Ni2  1  0.50000000  0.52838900  0.17932000  1
  Ni  Ni3  1  0.50000000  0.52838900  0.82068000  1
  Ni  Ni4  1  0.00000000  0.97808100  0.37504500  1
  Ni  Ni5  1  0.00000000  0.97808100  0.62495500  1
  Ni  Ni6  1  0.50000000  0.02191900  0.12495500  1
  Ni  Ni7  1  0.50000000  0.02191900  0.87504500  1
  Ni  Ni8  1  0.00000000  0.35633900  0.50000000  1
  Ni  Ni9  1  0.50000000  0.64366100  0.00000000  1
  Cu  Cu10  1  0.00000000  0.85547900  0.22620500  1
  Cu  Cu11  1  0.00000000  0.85547900  0.77379500  1
  Cu  Cu12  1  0.50000000  0.14452100  0.27379500  1
  Cu  Cu13  1  0.50000000  0.14452100  0.72620500  1
  Cu  Cu14  1  0.00000000  0.34990300  0.07113500  1
  Cu  Cu15  1  0.00000000  0.34990300  0.92886500  1
  Cu  Cu16  1  0.50000000  0.65009700  0.42886500  1
  Cu  Cu17  1  0.50000000  0.65009700  0.57113500  1
  Cu  Cu18  1  0.00000000  0.99401900  0.00000000  1
  Cu  Cu19  1  0.50000000  0.00598100  0.50000000  1
  C  C20  1  0.00000000  0.23234700  0.20141900  1
  C  C21  1  0.00000000  0.23234700  0.79858100  1
  C  C22  1  0.50000000  0.76765300  0.29858100  1
  C  C23  1  0.50000000  0.76765300  0.70141900  1
  C  C24  1  0.00000000  0.72906000  0.10032100  1
  C  C25  1  0.00000000  0.72906000  0.89967900  1
  C  C26  1  0.50000000  0.27094000  0.39967900  1
  C  C27  1  0.50000000  0.27094000  0.60032100  1
  C  C28  1  0.00000000  0.76883900  0.50000000  1
  C  C29  1  0.50000000  0.23116100  0.00000000  1
