# generated using pymatgen
data_CuNi11C8
_symmetry_space_group_name_H-M   'P 1'
_cell_length_a   8.28628400
_cell_length_b   10.03668910
_cell_length_c   11.69666578
_cell_angle_alpha   87.10398620
_cell_angle_beta   78.33206466
_cell_angle_gamma   82.26521441
_symmetry_Int_Tables_number   1
_chemical_formula_structural   CuNi11C8
_chemical_formula_sum   'Cu4 Ni44 C32'
_cell_volume   943.73365578
_cell_formula_units_Z   4
loop_
 _symmetry_equiv_pos_site_id
 _symmetry_equiv_pos_as_xyz
  1  'x, y, z'
loop_
 _atom_site_type_symbol
 _atom_site_label
 _atom_site_symmetry_multiplicity
 _atom_site_fract_x
 _atom_site_fract_y
 _atom_site_fract_z
 _atom_site_occupancy
  C  C0  1  0.74983000  0.27012200  0.20354400  1
  C  C1  1  0.47680100  0.22304900  0.55631700  1
  C  C2  1  0.25017000  0.72987800  0.79645600  1
  C  C3  1  0.52319900  0.77695100  0.44368300  1
  C  C4  1  0.89600400  0.73896600  0.73909300  1
  C  C5  1  0.07385800  0.77638100  0.04125300  1
  C  C6  1  0.42982500  0.88474200  0.11760000  1
  C  C7  1  0.10399600  0.26103400  0.26090700  1
  C  C8  1  0.80339700  0.01919200  0.47418500  1
  C  C9  1  0.19660300  0.98080800  0.52581500  1
  C  C10  1  0.57017500  0.11525800  0.88240000  1
  C  C11  1  0.92614200  0.22361900  0.95874700  1
  C  C12  1  0.84240600  0.29466400  0.70780600  1
  C  C13  1  0.42475900  0.32111600  0.05379000  1
  C  C14  1  0.57524100  0.67888400  0.94621000  1
  C  C15  1  0.15759400  0.70533600  0.29219400  1
  C  C16  1  0.20439900  0.07963700  0.02234600  1
  C  C17  1  0.51880800  0.95432800  0.69702800  1
  C  C18  1  0.86362000  0.02962700  0.68337200  1
  C  C19  1  0.20778500  0.10705900  0.74914600  1
  C  C20  1  0.79221500  0.89294100  0.25085400  1
  C  C21  1  0.13638000  0.97037300  0.31662800  1
  C  C22  1  0.76636400  0.53580000  0.57039600  1
  C  C23  1  0.48119200  0.04567200  0.30297200  1
  C  C24  1  0.03129900  0.48054800  0.10869200  1
  C  C25  1  0.79560100  0.92036300  0.97765400  1
  C  C26  1  0.48997600  0.56220300  0.20405900  1
  C  C27  1  0.81601300  0.58875300  0.29624100  1
  C  C28  1  0.18398700  0.41124700  0.70375900  1
  C  C29  1  0.51002400  0.43779700  0.79594100  1
  C  C30  1  0.96870100  0.51945200  0.89130800  1
  C  C31  1  0.23363600  0.46420000  0.42960400  1
  Ni  Ni32  1  0.79243100  0.66862500  0.62328200  1
  Ni  Ni33  1  0.14689500  0.12134100  0.89333700  1
  Ni  Ni34  1  0.23671200  0.91377600  0.02956500  1
  Ni  Ni35  1  0.95708400  0.84451600  0.88890200  1
  Ni  Ni36  1  0.85310500  0.87865900  0.10666300  1
  Ni  Ni37  1  0.00586800  0.62672900  0.19316600  1
  Ni  Ni38  1  0.39251800  0.06684200  0.43556300  1
  Ni  Ni39  1  0.65669800  0.61401100  0.22919900  1
  Ni  Ni40  1  0.38227200  0.13850500  0.01469600  1
  Ni  Ni41  1  0.02606000  0.09004400  0.39612600  1
  Ni  Ni42  1  0.22229500  0.84659000  0.39216400  1
  Ni  Ni43  1  0.27668300  0.96176100  0.67817200  1
  Ni  Ni44  1  0.72331700  0.03823900  0.32182800  1
  Ni  Ni45  1  0.77770500  0.15341000  0.60783600  1
  Ni  Ni46  1  0.97394000  0.90995600  0.60387400  1
  Ni  Ni47  1  0.61772800  0.86149500  0.98530400  1
  Ni  Ni48  1  0.29795800  0.03487200  0.23513100  1
  Ni  Ni49  1  0.34330200  0.38598900  0.77080100  1
  Ni  Ni50  1  0.79329600  0.75600200  0.33838200  1
  Ni  Ni51  1  0.63844600  0.44535200  0.66299300  1
  Ni  Ni52  1  0.60748200  0.93315800  0.56443700  1
  Ni  Ni53  1  0.99413200  0.37327100  0.80683400  1
  Ni  Ni54  1  0.04291600  0.15548400  0.11109800  1
  Ni  Ni55  1  0.26548300  0.46425600  0.56275100  1
  Ni  Ni56  1  0.20670400  0.24399800  0.66161800  1
  Ni  Ni57  1  0.42872400  0.09823900  0.75984600  1
  Ni  Ni58  1  0.80041700  0.61506300  0.87709800  1
  Ni  Ni59  1  0.76328800  0.08622400  0.97043500  1
  Ni  Ni60  1  0.97969500  0.11019000  0.74715000  1
  Ni  Ni61  1  0.20756900  0.33137500  0.37671800  1
  Ni  Ni62  1  0.09773600  0.57384200  0.75458300  1
  Ni  Ni63  1  0.45710000  0.57243700  0.86850200  1
  Ni  Ni64  1  0.61243700  0.31245700  0.86052300  1
  Ni  Ni65  1  0.91823100  0.41414100  0.01895900  1
  Ni  Ni66  1  0.08176900  0.58585900  0.98104100  1
  Ni  Ni67  1  0.38756300  0.68754300  0.13947700  1
  Ni  Ni68  1  0.54290000  0.42756300  0.13149800  1
  Ni  Ni69  1  0.90226400  0.42615800  0.24541700  1
  Ni  Ni70  1  0.02030500  0.88981000  0.25285000  1
  Ni  Ni71  1  0.19958300  0.38493700  0.12290200  1
  Ni  Ni72  1  0.57127600  0.90176100  0.24015400  1
  Ni  Ni73  1  0.73451700  0.53574400  0.43724900  1
  Ni  Ni74  1  0.36155400  0.55464800  0.33700700  1
  Ni  Ni75  1  0.70204200  0.96512800  0.76486900  1
  Cu  Cu76  1  0.48543800  0.81727500  0.77875600  1
  Cu  Cu77  1  0.51456200  0.18272500  0.22124400  1
  Cu  Cu78  1  0.92973200  0.41359800  0.57051800  1
  Cu  Cu79  1  0.07026800  0.58640200  0.42948200  1
