# generated using pymatgen
data_Cu(NiC18)2
_symmetry_space_group_name_H-M   'P 1'
_cell_length_a   7.56046459
_cell_length_b   7.82988100
_cell_length_c   16.03065697
_cell_angle_alpha   90.00000000
_cell_angle_beta   101.04470511
_cell_angle_gamma   90.00000000
_symmetry_Int_Tables_number   1
_chemical_formula_structural   Cu(NiC18)2
_chemical_formula_sum   'Cu2 Ni4 C72'
_cell_volume   931.39850812
_cell_formula_units_Z   2
loop_
 _symmetry_equiv_pos_site_id
 _symmetry_equiv_pos_as_xyz
  1  'x, y, z'
loop_
 _atom_site_type_symbol
 _atom_site_label
 _atom_site_symmetry_multiplicity
 _atom_site_fract_x
 _atom_site_fract_y
 _atom_site_fract_z
 _atom_site_occupancy
  C  C0  1  0.99734500  0.81133800  0.20043000  1
  C  C1  1  0.00265500  0.31133800  0.29957000  1
  C  C2  1  0.00265500  0.18866200  0.79957000  1
  C  C3  1  0.99734500  0.68866200  0.70043000  1
  Ni  Ni4  1  0.32041600  0.52176400  0.22859900  1
  Ni  Ni5  1  0.67958400  0.02176400  0.27140100  1
  Ni  Ni6  1  0.67958400  0.47823600  0.77140100  1
  Ni  Ni7  1  0.32041600  0.97823600  0.72859900  1
  C  C8  1  0.28701500  0.66923800  0.04367800  1
  C  C9  1  0.71298500  0.16923800  0.45632200  1
  C  C10  1  0.71298500  0.33076200  0.95632200  1
  C  C11  1  0.28701500  0.83076200  0.54367800  1
  C  C12  1  0.69366400  0.64525300  0.33356900  1
  C  C13  1  0.30633600  0.14525300  0.16643100  1
  C  C14  1  0.30633600  0.35474700  0.66643100  1
  C  C15  1  0.69366400  0.85474700  0.83356900  1
  C  C16  1  0.66762100  0.71629500  0.00698800  1
  C  C17  1  0.33237900  0.21629500  0.49301200  1
  C  C18  1  0.33237900  0.28370500  0.99301200  1
  C  C19  1  0.66762100  0.78370500  0.50698800  1
  Cu  Cu20  1  0.00000000  0.50000000  0.50000000  1
  Cu  Cu21  1  0.00000000  0.00000000  0.00000000  1
  C  C22  1  0.72547300  0.50956700  0.18844600  1
  C  C23  1  0.27452700  0.00956700  0.31155400  1
  C  C24  1  0.27452700  0.49043300  0.81155400  1
  C  C25  1  0.72547300  0.99043300  0.68844600  1
  C  C26  1  0.84715600  0.46799600  0.12141000  1
  C  C27  1  0.15284400  0.96799600  0.37859000  1
  C  C28  1  0.15284400  0.53200400  0.87859000  1
  C  C29  1  0.84715600  0.03200400  0.62141000  1
  C  C30  1  0.21593600  0.63189200  0.35665500  1
  C  C31  1  0.78406400  0.13189200  0.14334500  1
  C  C32  1  0.78406400  0.36810800  0.64334500  1
  C  C33  1  0.21593600  0.86810800  0.85665500  1
  C  C34  1  0.16328400  0.69841800  0.47972500  1
  C  C35  1  0.83671600  0.19841700  0.02027500  1
  C  C36  1  0.83671600  0.30158200  0.52027500  1
  C  C37  1  0.16328400  0.80158200  0.97972500  1
  C  C38  1  0.26510600  0.48391700  0.99259400  1
  C  C39  1  0.73489400  0.98391700  0.50740600  1
  C  C40  1  0.73489400  0.51608300  0.00740600  1
  C  C41  1  0.26510600  0.01608300  0.49259400  1
  C  C42  1  0.76297200  0.80945300  0.28472600  1
  C  C43  1  0.23702800  0.30945300  0.21527400  1
  C  C44  1  0.23702800  0.19054700  0.71527400  1
  C  C45  1  0.76297200  0.69054700  0.78472600  1
  C  C46  1  0.86198900  0.52228400  0.37545400  1
  C  C47  1  0.13801100  0.02228400  0.12454600  1
  C  C48  1  0.13801100  0.47771600  0.62454600  1
  C  C49  1  0.86198900  0.97771600  0.87545400  1
  C  C50  1  0.23398200  0.64407400  0.13666600  1
  C  C51  1  0.76601800  0.14407400  0.36333400  1
  C  C52  1  0.76601800  0.35592600  0.86333400  1
  C  C53  1  0.23398200  0.85592600  0.63666600  1
  C  C54  1  0.83541600  0.83232300  0.05473100  1
  C  C55  1  0.16458400  0.33232300  0.44526900  1
  C  C56  1  0.16458400  0.16767700  0.94526900  1
  C  C57  1  0.83541600  0.66767700  0.55473100  1
  C  C58  1  0.55351100  0.53393400  0.26456000  1
  C  C59  1  0.44648900  0.03393400  0.23544000  1
  C  C60  1  0.44648900  0.46606600  0.73544000  1
  C  C61  1  0.55351100  0.96606600  0.76456000  1
  C  C62  1  0.85224000  0.50327600  0.18109600  1
  C  C63  1  0.14776000  0.00327600  0.31890400  1
  C  C64  1  0.14776000  0.49672400  0.81890400  1
  C  C65  1  0.85224000  0.99672400  0.68109600  1
  C  C66  1  0.18146000  0.60523000  0.29631900  1
  C  C67  1  0.81854000  0.10523000  0.20368100  1
  C  C68  1  0.81854000  0.39477000  0.70368100  1
  C  C69  1  0.18146000  0.89477000  0.79631900  1
  C  C70  1  0.50178900  0.72409500  0.05869200  1
  C  C71  1  0.49821100  0.22409500  0.44130800  1
  C  C72  1  0.49821100  0.27590500  0.94130800  1
  C  C73  1  0.50178900  0.77590500  0.55869200  1
  C  C74  1  0.59351700  0.72337600  0.40835600  1
  C  C75  1  0.40648300  0.22337600  0.09164400  1
  C  C76  1  0.40648300  0.27662400  0.59164400  1
  C  C77  1  0.59351700  0.77662400  0.90835600  1
