# generated using pymatgen
data_Cu3Ni2C45
_symmetry_space_group_name_H-M   'P 1'
_cell_length_a   10.18883170
_cell_length_b   10.18883170
_cell_length_c   14.33817400
_cell_angle_alpha   90.00000000
_cell_angle_beta   90.00000000
_cell_angle_gamma   119.99999805
_symmetry_Int_Tables_number   1
_chemical_formula_structural   Cu3Ni2C45
_chemical_formula_sum   'Cu6 Ni4 C90'
_cell_volume   1289.06039034
_cell_formula_units_Z   2
loop_
 _symmetry_equiv_pos_site_id
 _symmetry_equiv_pos_as_xyz
  1  'x, y, z'
loop_
 _atom_site_type_symbol
 _atom_site_label
 _atom_site_symmetry_multiplicity
 _atom_site_fract_x
 _atom_site_fract_y
 _atom_site_fract_z
 _atom_site_occupancy
  C  C0  1  0.00000000  0.00000000  0.25000000  1
  C  C1  1  0.00000000  0.00000000  0.75000000  1
  Ni  Ni2  1  0.66666700  0.33333300  0.50000000  1
  Ni  Ni3  1  0.66666700  0.33333300  0.00000000  1
  Ni  Ni4  1  0.33333300  0.66666700  0.00000000  1
  Ni  Ni5  1  0.33333300  0.66666700  0.50000000  1
  Cu  Cu6  1  0.50000000  0.00000000  0.25000000  1
  Cu  Cu7  1  0.00000000  0.50000000  0.75000000  1
  Cu  Cu8  1  0.50000000  0.50000000  0.75000000  1
  Cu  Cu9  1  0.50000000  0.00000000  0.75000000  1
  Cu  Cu10  1  0.00000000  0.50000000  0.25000000  1
  Cu  Cu11  1  0.50000000  0.50000000  0.25000000  1
  C  C12  1  0.33333300  0.66666700  0.75000000  1
  C  C13  1  0.66666700  0.33333300  0.75000000  1
  C  C14  1  0.66666700  0.33333300  0.25000000  1
  C  C15  1  0.33333300  0.66666700  0.25000000  1
  C  C16  1  0.35543200  0.11897700  0.38840700  1
  C  C17  1  0.76354500  0.64456800  0.61159300  1
  C  C18  1  0.35543200  0.11897700  0.61159300  1
  C  C19  1  0.64456800  0.76354500  0.88840700  1
  C  C20  1  0.11897700  0.35543200  0.88840700  1
  C  C21  1  0.88102300  0.64456800  0.88840700  1
  C  C22  1  0.35543200  0.23645500  0.88840700  1
  C  C23  1  0.23645500  0.88102300  0.88840700  1
  C  C24  1  0.76354500  0.64456800  0.38840700  1
  C  C25  1  0.76354500  0.11897700  0.88840700  1
  C  C26  1  0.88102300  0.23645500  0.38840700  1
  C  C27  1  0.11897700  0.76354500  0.38840700  1
  C  C28  1  0.23645500  0.88102300  0.11159300  1
  C  C29  1  0.88102300  0.23645500  0.61159300  1
  C  C30  1  0.64456800  0.88102300  0.38840700  1
  C  C31  1  0.35543200  0.23645500  0.11159300  1
  C  C32  1  0.88102300  0.64456800  0.11159300  1
  C  C33  1  0.11897700  0.35543200  0.11159300  1
  C  C34  1  0.64456800  0.76354500  0.11159300  1
  C  C35  1  0.76354500  0.11897700  0.11159300  1
  C  C36  1  0.11897700  0.76354500  0.61159300  1
  C  C37  1  0.64456800  0.88102300  0.61159300  1
  C  C38  1  0.23645500  0.35543200  0.61159300  1
  C  C39  1  0.23645500  0.35543200  0.38840700  1
  C  C40  1  0.13938000  0.73787700  0.50000000  1
  C  C41  1  0.49435500  0.65802700  0.82975200  1
  C  C42  1  0.16367200  0.50564500  0.82975200  1
  C  C43  1  0.83632800  0.49435500  0.82975200  1
  C  C44  1  0.34197300  0.50564500  0.67024800  1
  C  C45  1  0.65802700  0.49435500  0.67024800  1
  C  C46  1  0.65802700  0.16367200  0.82975200  1
  C  C47  1  0.83632800  0.34197300  0.67024800  1
  C  C48  1  0.16367200  0.65802700  0.67024800  1
  C  C49  1  0.49435500  0.83632800  0.67024800  1
  C  C50  1  0.50564500  0.34197300  0.82975200  1
  C  C51  1  0.34197300  0.83632800  0.82975200  1
  C  C52  1  0.65802700  0.49435500  0.32975200  1
  C  C53  1  0.50564500  0.16367200  0.32975200  1
  C  C54  1  0.83632800  0.34197300  0.32975200  1
  C  C55  1  0.16367200  0.65802700  0.32975200  1
  C  C56  1  0.34197300  0.83632800  0.17024800  1
  C  C57  1  0.34197300  0.50564500  0.32975200  1
  C  C58  1  0.49435500  0.83632800  0.32975200  1
  C  C59  1  0.50564500  0.34197300  0.17024800  1
  C  C60  1  0.83632800  0.49435500  0.17024800  1
  C  C61  1  0.16367200  0.50564500  0.17024800  1
  C  C62  1  0.49435500  0.65802700  0.17024800  1
  C  C63  1  0.65802700  0.16367200  0.17024800  1
  C  C64  1  0.27581100  0.05469600  0.86583400  1
  C  C65  1  0.72418900  0.77888400  0.63416600  1
  C  C66  1  0.22111600  0.94530400  0.63416600  1
  C  C67  1  0.77888400  0.05469600  0.63416600  1
  C  C68  1  0.94530400  0.22111600  0.86583400  1
  C  C69  1  0.94530400  0.72418900  0.63416600  1
  C  C70  1  0.27581100  0.22111600  0.63416600  1
  C  C71  1  0.72418900  0.94530400  0.86583400  1
  C  C72  1  0.22111600  0.27581100  0.86583400  1
  C  C73  1  0.77888400  0.72418900  0.86583400  1
  C  C74  1  0.73787700  0.13938000  0.00000000  1
  C  C75  1  0.59849600  0.73787700  0.00000000  1
  C  C76  1  0.13938000  0.40150400  0.00000000  1
  C  C77  1  0.86062000  0.59849600  0.00000000  1
  C  C78  1  0.40150400  0.26212300  0.00000000  1
  C  C79  1  0.59849600  0.86062000  0.50000000  1
  C  C80  1  0.26212300  0.40150400  0.50000000  1
  C  C81  1  0.26212300  0.86062000  0.00000000  1
  C  C82  1  0.50564500  0.16367200  0.67024800  1
  C  C83  1  0.86062000  0.26212300  0.50000000  1
  C  C84  1  0.40150400  0.13938000  0.50000000  1
  C  C85  1  0.73787700  0.59849600  0.50000000  1
  C  C86  1  0.94530400  0.22111600  0.13416600  1
  C  C87  1  0.72418900  0.94530400  0.13416600  1
  C  C88  1  0.22111600  0.27581100  0.13416600  1
  C  C89  1  0.77888400  0.72418900  0.13416600  1
  C  C90  1  0.27581100  0.05469600  0.13416600  1
  C  C91  1  0.72418900  0.77888400  0.36583400  1
  C  C92  1  0.05469600  0.27581100  0.36583400  1
  C  C93  1  0.05469600  0.77888400  0.13416600  1
  C  C94  1  0.22111600  0.94530400  0.36583400  1
  C  C95  1  0.77888400  0.05469600  0.36583400  1
  C  C96  1  0.27581100  0.22111600  0.36583400  1
  C  C97  1  0.94530400  0.72418900  0.36583400  1
  C  C98  1  0.05469600  0.77888400  0.86583400  1
  C  C99  1  0.05469600  0.27581100  0.63416600  1
