# generated using pymatgen
data_CuNiC5
_symmetry_space_group_name_H-M   'P 1'
_cell_length_a   7.86773416
_cell_length_b   7.63690508
_cell_length_c   7.63903347
_cell_angle_alpha   60.16771570
_cell_angle_beta   58.96807018
_cell_angle_gamma   59.03113890
_symmetry_Int_Tables_number   1
_chemical_formula_structural   CuNiC5
_chemical_formula_sum   'Cu2 Ni2 C10'
_cell_volume   319.95218528
_cell_formula_units_Z   2
loop_
 _symmetry_equiv_pos_site_id
 _symmetry_equiv_pos_as_xyz
  1  'x, y, z'
loop_
 _atom_site_type_symbol
 _atom_site_label
 _atom_site_symmetry_multiplicity
 _atom_site_fract_x
 _atom_site_fract_y
 _atom_site_fract_z
 _atom_site_occupancy
  C  C0  1  0.50006300  0.49995400  0.49996400  1
  C  C1  1  0.00001300  0.49996500  0.50004100  1
  Ni  Ni2  1  0.87524300  0.87473300  0.87477400  1
  Ni  Ni3  1  0.12474300  0.12526000  0.12526300  1
  Cu  Cu4  1  0.49995400  0.50014300  0.99986600  1
  Cu  Cu5  1  0.49991500  0.00000500  0.49999100  1
  C  C6  1  0.71008300  0.75914300  0.75939800  1
  C  C7  1  0.27207400  0.22650200  0.72893200  1
  C  C8  1  0.27246900  0.72896900  0.22656700  1
  C  C9  1  0.72860900  0.24058600  0.24087800  1
  C  C10  1  0.72752700  0.27104200  0.77344500  1
  C  C11  1  0.27139300  0.75940900  0.75914200  1
  C  C12  1  0.28993800  0.24082700  0.24064000  1
  C  C13  1  0.72798100  0.77345800  0.27110100  1
