# generated using pymatgen
data_Cu2Ni2C9
_symmetry_space_group_name_H-M   'P 1'
_cell_length_a   6.49235400
_cell_length_b   10.57917600
_cell_length_c   10.91425281
_cell_angle_alpha   62.22403660
_cell_angle_beta   90.00000000
_cell_angle_gamma   90.00000000
_symmetry_Int_Tables_number   1
_chemical_formula_structural   Cu2Ni2C9
_chemical_formula_sum   'Cu8 Ni8 C36'
_cell_volume   663.25670580
_cell_formula_units_Z   4
loop_
 _symmetry_equiv_pos_site_id
 _symmetry_equiv_pos_as_xyz
  1  'x, y, z'
loop_
 _atom_site_type_symbol
 _atom_site_label
 _atom_site_symmetry_multiplicity
 _atom_site_fract_x
 _atom_site_fract_y
 _atom_site_fract_z
 _atom_site_occupancy
  Ni  Ni0  1  0.26342400  0.95413200  0.10889200  1
  Ni  Ni1  1  0.73657600  0.04586800  0.89110800  1
  Ni  Ni2  1  0.76342400  0.54586800  0.89110800  1
  Ni  Ni3  1  0.23657600  0.45413200  0.10889200  1
  Ni  Ni4  1  0.94260200  0.73756100  0.02261200  1
  Ni  Ni5  1  0.05739800  0.26243900  0.97738800  1
  Ni  Ni6  1  0.44260200  0.76243900  0.97738800  1
  Ni  Ni7  1  0.55739800  0.23756100  0.02261200  1
  Cu  Cu8  1  0.95981500  0.67959300  0.51865500  1
  Cu  Cu9  1  0.04018500  0.32040700  0.48134500  1
  Cu  Cu10  1  0.45981500  0.82040700  0.48134500  1
  Cu  Cu11  1  0.54018500  0.17959300  0.51865500  1
  Cu  Cu12  1  0.58235700  0.59000500  0.31311600  1
  Cu  Cu13  1  0.41764300  0.40999500  0.68688400  1
  Cu  Cu14  1  0.08235700  0.90999500  0.68688400  1
  Cu  Cu15  1  0.91764300  0.09000500  0.31311600  1
  C  C16  1  0.74861500  0.92103300  0.18065500  1
  C  C17  1  0.25138500  0.07896700  0.81934500  1
  C  C18  1  0.24861500  0.57896700  0.81934500  1
  C  C19  1  0.75138500  0.42103300  0.18065500  1
  C  C20  1  0.65280200  0.84975500  0.71066400  1
  C  C21  1  0.34719800  0.15024500  0.28933600  1
  C  C22  1  0.15280200  0.65024500  0.28933600  1
  C  C23  1  0.84719800  0.34975500  0.71066400  1
  C  C24  1  0.75560700  0.77260900  0.65362600  1
  C  C25  1  0.24439300  0.22739100  0.34637400  1
  C  C26  1  0.25560700  0.72739100  0.34637400  1
  C  C27  1  0.74439300  0.27260900  0.65362600  1
  C  C28  1  0.96363800  0.58860000  0.34735700  1
  C  C29  1  0.03636200  0.41140000  0.65264300  1
  C  C30  1  0.46363800  0.91140000  0.65264300  1
  C  C31  1  0.53636200  0.08860000  0.34735700  1
  C  C32  1  0.65026900  0.84284000  0.12612700  1
  C  C33  1  0.34973100  0.15716000  0.87387300  1
  C  C34  1  0.15026900  0.65716000  0.87387300  1
  C  C35  1  0.84973100  0.34284000  0.12612700  1
  C  C36  1  0.62286200  0.59718000  0.52693500  1
  C  C37  1  0.37713800  0.40282000  0.47306500  1
  C  C38  1  0.12286200  0.90282000  0.47306500  1
  C  C39  1  0.87713800  0.09718000  0.52693500  1
  C  C40  1  0.76202800  0.86662700  0.32636800  1
  C  C41  1  0.23797200  0.13337300  0.67363200  1
  C  C42  1  0.26202800  0.63337300  0.67363200  1
  C  C43  1  0.73797200  0.36662700  0.32636800  1
  C  C44  1  0.24135900  0.63631200  0.18257500  1
  C  C45  1  0.75864100  0.36368800  0.81742500  1
  C  C46  1  0.74135900  0.86368800  0.81742500  1
  C  C47  1  0.25864100  0.13631200  0.18257500  1
  C  C48  1  0.66526000  0.55436200  0.10092500  1
  C  C49  1  0.33474000  0.44563800  0.89907500  1
  C  C50  1  0.16526000  0.94563800  0.89907500  1
  C  C51  1  0.83474000  0.05436200  0.10092500  1
