# generated using pymatgen
data_CuNiC4
_symmetry_space_group_name_H-M   'P 1'
_cell_length_a   12.65531700
_cell_length_b   5.35878000
_cell_length_c   7.46402040
_cell_angle_alpha   56.59249185
_cell_angle_beta   90.00000000
_cell_angle_gamma   90.00000000
_symmetry_Int_Tables_number   1
_chemical_formula_structural   CuNiC4
_chemical_formula_sum   'Cu4 Ni4 C16'
_cell_volume   422.55338227
_cell_formula_units_Z   4
loop_
 _symmetry_equiv_pos_site_id
 _symmetry_equiv_pos_as_xyz
  1  'x, y, z'
loop_
 _atom_site_type_symbol
 _atom_site_label
 _atom_site_symmetry_multiplicity
 _atom_site_fract_x
 _atom_site_fract_y
 _atom_site_fract_z
 _atom_site_occupancy
  Ni  Ni0  1  0.99039200  0.18868400  0.74016800  1
  Ni  Ni1  1  0.50960800  0.18868400  0.24016800  1
  Ni  Ni2  1  0.00960800  0.81131600  0.25983200  1
  Ni  Ni3  1  0.49039200  0.81131600  0.75983200  1
  Cu  Cu4  1  0.85308000  0.40683700  0.01954100  1
  Cu  Cu5  1  0.64692000  0.40683700  0.51954100  1
  Cu  Cu6  1  0.14692000  0.59316300  0.98045900  1
  Cu  Cu7  1  0.35308000  0.59316300  0.48045900  1
  C  C8  1  0.90654900  0.70109800  0.01388600  1
  C  C9  1  0.59345100  0.70109800  0.51388600  1
  C  C10  1  0.09345100  0.29890200  0.98611400  1
  C  C11  1  0.40654900  0.29890200  0.48611400  1
  C  C12  1  0.88063900  0.45901000  0.76652500  1
  C  C13  1  0.61936100  0.45901000  0.26652500  1
  C  C14  1  0.11936100  0.54099000  0.23347500  1
  C  C15  1  0.38063900  0.54099000  0.73347500  1
  C  C16  1  0.88655400  0.07102700  0.25654700  1
  C  C17  1  0.61344600  0.07102700  0.75654700  1
  C  C18  1  0.11344600  0.92897300  0.74345300  1
  C  C19  1  0.38655400  0.92897300  0.24345300  1
  C  C20  1  0.71654300  0.41833500  0.99573900  1
  C  C21  1  0.78345700  0.41833500  0.49573900  1
  C  C22  1  0.28345700  0.58166500  0.00426100  1
  C  C23  1  0.21654300  0.58166500  0.50426100  1
