# generated using pymatgen
data_Cu2Ni3C14
_symmetry_space_group_name_H-M   'P 1'
_cell_length_a   10.11336100
_cell_length_b   10.11336100
_cell_length_c   10.11336100
_cell_angle_alpha   90.00000000
_cell_angle_beta   90.00000000
_cell_angle_gamma   90.00000000
_symmetry_Int_Tables_number   1
_chemical_formula_structural   Cu2Ni3C14
_chemical_formula_sum   'Cu8 Ni12 C56'
_cell_volume   1034.39527826
_cell_formula_units_Z   4
loop_
 _symmetry_equiv_pos_site_id
 _symmetry_equiv_pos_as_xyz
  1  'x, y, z'
loop_
 _atom_site_type_symbol
 _atom_site_label
 _atom_site_symmetry_multiplicity
 _atom_site_fract_x
 _atom_site_fract_y
 _atom_site_fract_z
 _atom_site_occupancy
  C  C0  1  0.04833100  0.04833100  0.04833100  1
  C  C1  1  0.45166900  0.95166900  0.54833100  1
  C  C2  1  0.95166900  0.54833100  0.45166900  1
  C  C3  1  0.54833100  0.45166900  0.95166900  1
  C  C4  1  0.81561300  0.81561300  0.81561300  1
  C  C5  1  0.68438700  0.18438700  0.31561300  1
  C  C6  1  0.18438700  0.31561300  0.68438700  1
  C  C7  1  0.31561300  0.68438700  0.18438700  1
  Ni  Ni8  1  0.02040800  0.21397700  0.37565400  1
  Ni  Ni9  1  0.47959200  0.78602300  0.87565400  1
  Ni  Ni10  1  0.97959200  0.71397700  0.12434600  1
  Ni  Ni11  1  0.37565400  0.02040800  0.21397700  1
  Ni  Ni12  1  0.52040800  0.28602300  0.62434600  1
  Ni  Ni13  1  0.87565400  0.47959200  0.78602300  1
  Ni  Ni14  1  0.12434600  0.97959200  0.71397700  1
  Ni  Ni15  1  0.62434600  0.52040800  0.28602300  1
  Ni  Ni16  1  0.21397700  0.37565400  0.02040800  1
  Ni  Ni17  1  0.71397700  0.12434600  0.97959200  1
  Ni  Ni18  1  0.28602300  0.62434600  0.52040800  1
  Ni  Ni19  1  0.78602300  0.87565400  0.47959200  1
  Cu  Cu20  1  0.33553200  0.33553200  0.33553200  1
  Cu  Cu21  1  0.16446800  0.66446800  0.83553200  1
  Cu  Cu22  1  0.66446800  0.83553200  0.16446800  1
  Cu  Cu23  1  0.83553200  0.16446800  0.66446800  1
  Cu  Cu24  1  0.59937300  0.59937300  0.59937300  1
  Cu  Cu25  1  0.90062700  0.40062700  0.09937300  1
  Cu  Cu26  1  0.40062700  0.09937300  0.90062700  1
  Cu  Cu27  1  0.09937300  0.90062700  0.40062700  1
  C  C28  1  0.01240300  0.06669900  0.33027800  1
  C  C29  1  0.48759700  0.93330100  0.83027800  1
  C  C30  1  0.98759700  0.56669900  0.16972200  1
  C  C31  1  0.33027800  0.01240300  0.06669900  1
  C  C32  1  0.51240300  0.43330100  0.66972200  1
  C  C33  1  0.83027800  0.48759700  0.93330100  1
  C  C34  1  0.16972200  0.98759700  0.56669900  1
  C  C35  1  0.66972200  0.51240300  0.43330100  1
  C  C36  1  0.06669900  0.33027800  0.01240300  1
  C  C37  1  0.56669900  0.16972200  0.98759700  1
  C  C38  1  0.43330100  0.66972200  0.51240300  1
  C  C39  1  0.93330100  0.83027800  0.48759700  1
  C  C40  1  0.26616900  0.49551600  0.43643700  1
  C  C41  1  0.23383100  0.50448400  0.93643700  1
  C  C42  1  0.73383100  0.99551600  0.06356300  1
  C  C43  1  0.43643700  0.26616900  0.49551600  1
  C  C44  1  0.76616900  0.00448400  0.56356300  1
  C  C45  1  0.93643700  0.23383100  0.50448400  1
  C  C46  1  0.06356300  0.73383100  0.99551600  1
  C  C47  1  0.56356300  0.76616900  0.00448400  1
  C  C48  1  0.49551600  0.43643700  0.26616900  1
  C  C49  1  0.99551600  0.06356300  0.73383100  1
  C  C50  1  0.00448400  0.56356300  0.76616900  1
  C  C51  1  0.50448400  0.93643700  0.23383100  1
  C  C52  1  0.04596400  0.80595700  0.23081500  1
  C  C53  1  0.45403600  0.19404300  0.73081500  1
  C  C54  1  0.95403600  0.30595700  0.26918500  1
  C  C55  1  0.23081500  0.04596400  0.80595700  1
  C  C56  1  0.54596400  0.69404300  0.76918500  1
  C  C57  1  0.73081500  0.45403600  0.19404300  1
  C  C58  1  0.26918500  0.95403600  0.30595700  1
  C  C59  1  0.76918500  0.54596400  0.69404300  1
  C  C60  1  0.80595700  0.23081500  0.04596400  1
  C  C61  1  0.30595700  0.26918500  0.95403600  1
  C  C62  1  0.69404300  0.76918500  0.54596400  1
  C  C63  1  0.19404300  0.73081500  0.45403600  1
  C  C64  1  0.16519400  0.25596300  0.40197200  1
  C  C65  1  0.33480600  0.74403700  0.90197200  1
  C  C66  1  0.83480600  0.75596300  0.09802800  1
  C  C67  1  0.40197200  0.16519400  0.25596300  1
  C  C68  1  0.66519400  0.24403700  0.59802800  1
  C  C69  1  0.90197200  0.33480600  0.74403700  1
  C  C70  1  0.09802800  0.83480600  0.75596300  1
  C  C71  1  0.59802800  0.66519400  0.24403700  1
  C  C72  1  0.25596300  0.40197200  0.16519400  1
  C  C73  1  0.75596300  0.09802800  0.83480600  1
  C  C74  1  0.24403700  0.59802800  0.66519400  1
  C  C75  1  0.74403700  0.90197200  0.33480600  1
