# generated using pymatgen
data_Cu8Ni2C3
_symmetry_space_group_name_H-M   'P 1'
_cell_length_a   13.52774700
_cell_length_b   7.73985200
_cell_length_c   9.22055459
_cell_angle_alpha   84.33129291
_cell_angle_beta   90.00000000
_cell_angle_gamma   90.00000000
_symmetry_Int_Tables_number   1
_chemical_formula_structural   Cu8Ni2C3
_chemical_formula_sum   'Cu32 Ni8 C12'
_cell_volume   960.69629738
_cell_formula_units_Z   4
loop_
 _symmetry_equiv_pos_site_id
 _symmetry_equiv_pos_as_xyz
  1  'x, y, z'
loop_
 _atom_site_type_symbol
 _atom_site_label
 _atom_site_symmetry_multiplicity
 _atom_site_fract_x
 _atom_site_fract_y
 _atom_site_fract_z
 _atom_site_occupancy
  C  C0  1  0.98569700  0.77423200  0.36630700  1
  C  C1  1  0.48569700  0.72576800  0.63369300  1
  C  C2  1  0.01430300  0.22576800  0.63369300  1
  C  C3  1  0.51430300  0.27423200  0.36630700  1
  C  C4  1  0.86394800  0.33474700  0.11030600  1
  C  C5  1  0.36394800  0.16525300  0.88969400  1
  C  C6  1  0.13605200  0.66525300  0.88969400  1
  C  C7  1  0.63605200  0.83474700  0.11030600  1
  C  C8  1  0.76443700  0.06135400  0.46074800  1
  C  C9  1  0.26443700  0.43864600  0.53925200  1
  C  C10  1  0.23556300  0.93864600  0.53925200  1
  C  C11  1  0.73556300  0.56135400  0.46074800  1
  Ni  Ni12  1  0.63805100  0.03435900  0.73956900  1
  Ni  Ni13  1  0.13805100  0.46564100  0.26043100  1
  Ni  Ni14  1  0.36194900  0.96564100  0.26043100  1
  Ni  Ni15  1  0.86194900  0.53435900  0.73956900  1
  Ni  Ni16  1  0.74571100  0.06646300  0.79297500  1
  Ni  Ni17  1  0.24571100  0.43353700  0.20702500  1
  Ni  Ni18  1  0.25428900  0.93353700  0.20702500  1
  Ni  Ni19  1  0.75428900  0.56646300  0.79297500  1
  Cu  Cu20  1  0.69311500  0.08796000  0.29959700  1
  Cu  Cu21  1  0.19311500  0.41204000  0.70040300  1
  Cu  Cu22  1  0.30688500  0.91204000  0.70040300  1
  Cu  Cu23  1  0.80688500  0.58796000  0.29959700  1
  Cu  Cu24  1  0.62877600  0.03423800  0.60018700  1
  Cu  Cu25  1  0.12877600  0.46576200  0.39981300  1
  Cu  Cu26  1  0.37122400  0.96576200  0.39981300  1
  Cu  Cu27  1  0.87122400  0.53423800  0.60018700  1
  Cu  Cu28  1  0.81081600  0.08248300  0.68961000  1
  Cu  Cu29  1  0.31081600  0.41751700  0.31039000  1
  Cu  Cu30  1  0.18918400  0.91751700  0.31039000  1
  Cu  Cu31  1  0.68918400  0.58248300  0.68961000  1
  Cu  Cu32  1  0.77665300  0.82585000  0.48918400  1
  Cu  Cu33  1  0.27665300  0.67415000  0.51081600  1
  Cu  Cu34  1  0.22334700  0.17415000  0.51081600  1
  Cu  Cu35  1  0.72334700  0.32585000  0.48918400  1
  Cu  Cu36  1  0.88566900  0.12293000  0.40292000  1
  Cu  Cu37  1  0.38566900  0.37707000  0.59708000  1
  Cu  Cu38  1  0.11433100  0.87707000  0.59708000  1
  Cu  Cu39  1  0.61433100  0.62293000  0.40292000  1
  Cu  Cu40  1  0.56939000  0.00662800  0.82918600  1
  Cu  Cu41  1  0.06939000  0.49337200  0.17081400  1
  Cu  Cu42  1  0.43061000  0.99337200  0.17081400  1
  Cu  Cu43  1  0.93061000  0.50662800  0.82918600  1
  Cu  Cu44  1  0.76295300  0.07261400  0.92465000  1
  Cu  Cu45  1  0.26295300  0.42738600  0.07535000  1
  Cu  Cu46  1  0.23704700  0.92738600  0.07535000  1
  Cu  Cu47  1  0.73704700  0.57261400  0.92465000  1
  Cu  Cu48  1  0.96520400  0.94780500  0.01053600  1
  Cu  Cu49  1  0.46520400  0.55219500  0.98946400  1
  Cu  Cu50  1  0.03479600  0.05219500  0.98946400  1
  Cu  Cu51  1  0.53479600  0.44780500  0.01053600  1
