# generated using pymatgen
data_CuNi
_symmetry_space_group_name_H-M   'P 1'
_cell_length_a   13.46586277
_cell_length_b   14.27182898
_cell_length_c   14.22523293
_cell_angle_alpha   89.34797498
_cell_angle_beta   92.82219116
_cell_angle_gamma   94.46264511
_symmetry_Int_Tables_number   1
_chemical_formula_structural   CuNi
_chemical_formula_sum   'Cu50 Ni50'
_cell_volume   2722.16850886
_cell_formula_units_Z   50
loop_
 _symmetry_equiv_pos_site_id
 _symmetry_equiv_pos_as_xyz
  1  'x, y, z'
loop_
 _atom_site_type_symbol
 _atom_site_label
 _atom_site_symmetry_multiplicity
 _atom_site_fract_x
 _atom_site_fract_y
 _atom_site_fract_z
 _atom_site_occupancy
  Ni  Ni0  1  0.00346328  0.21901262  0.15253735  1
  Ni  Ni1  1  0.55564173  0.40995636  0.08802098  1
  Ni  Ni2  1  0.47719452  0.09064465  0.09855621  1
  Ni  Ni3  1  0.78520154  0.81553856  0.89995284  1
  Ni  Ni4  1  0.16048920  0.31349958  0.20659399  1
  Ni  Ni5  1  0.98739167  0.52514944  0.60530632  1
  Ni  Ni6  1  0.85125383  0.64067003  0.93529547  1
  Ni  Ni7  1  0.88669448  0.66841232  0.54923425  1
  Ni  Ni8  1  0.81740122  0.31909659  0.79248564  1
  Ni  Ni9  1  0.68945328  0.24594380  0.47510999  1
  Ni  Ni10  1  0.35619391  0.56445304  0.97417360  1
  Ni  Ni11  1  0.34049054  0.05046961  0.70183605  1
  Ni  Ni12  1  0.17921028  0.54968679  0.55108959  1
  Ni  Ni13  1  0.32376183  0.93473915  0.10154394  1
  Ni  Ni14  1  0.97284534  0.63722168  0.32091081  1
  Ni  Ni15  1  0.29069474  0.76027070  0.93819752  1
  Ni  Ni16  1  0.61638838  0.15801331  0.62474461  1
  Ni  Ni17  1  0.33115134  0.17323687  0.42585147  1
  Ni  Ni18  1  0.36596834  0.89614624  0.79706396  1
  Ni  Ni19  1  0.00143244  0.92400024  0.74496121  1
  Ni  Ni20  1  0.18563453  0.63877031  0.05971002  1
  Ni  Ni21  1  0.05207592  0.79621539  0.61999150  1
  Ni  Ni22  1  0.27547342  0.43943312  0.84465050  1
  Ni  Ni23  1  0.19086492  0.29551434  0.00924232  1
  Ni  Ni24  1  0.20488658  0.29086871  0.37849785  1
  Ni  Ni25  1  0.54727034  0.97229333  0.60911924  1
  Ni  Ni26  1  0.75091367  0.40084127  0.08854048  1
  Ni  Ni27  1  0.14868056  0.87895208  0.29587603  1
  Ni  Ni28  1  0.73763076  0.33178865  0.27793546  1
  Ni  Ni29  1  0.11453877  0.36669384  0.56726202  1
  Ni  Ni30  1  0.08199019  0.54607068  0.76511873  1
  Ni  Ni31  1  0.29018275  0.54342969  0.31685177  1
  Ni  Ni32  1  0.68917183  0.94222840  0.98133661  1
  Ni  Ni33  1  0.28517437  0.07767009  0.25086142  1
  Ni  Ni34  1  0.74722766  0.11068494  0.93338968  1
  Ni  Ni35  1  0.78055111  0.17928742  0.18013693  1
  Ni  Ni36  1  0.27466690  0.77164815  0.17151837  1
  Ni  Ni37  1  0.97770655  0.85598191  0.93373888  1
  Ni  Ni38  1  0.24063223  0.46287718  0.10584527  1
  Ni  Ni39  1  0.86790614  0.33098168  0.42458847  1
  Ni  Ni40  1  0.98257193  0.02221513  0.49071843  1
  Ni  Ni41  1  0.85597986  0.51307677  0.40735722  1
  Ni  Ni42  1  0.25847403  0.08720235  0.01326640  1
  Ni  Ni43  1  0.19396821  0.76016324  0.75957575  1
  Ni  Ni44  1  0.07034728  0.14084391  0.97305423  1
  Ni  Ni45  1  0.67130839  0.50966381  0.55280213  1
  Ni  Ni46  1  0.51190232  0.06889913  0.43515655  1
  Ni  Ni47  1  0.33834642  0.23397349  0.14894490  1
  Ni  Ni48  1  0.69002401  0.01330119  0.75539452  1
  Ni  Ni49  1  0.25245067  0.82722250  0.57926596  1
  Cu  Cu50  1  0.09038854  0.03713860  0.15615081  1
  Cu  Cu51  1  0.61602071  0.80382514  0.24375873  1
  Cu  Cu52  1  0.27993423  0.59535187  0.71872577  1
  Cu  Cu53  1  0.65956547  0.00217362  0.16813360  1
  Cu  Cu54  1  0.16552106  0.70854801  0.44195277  1
  Cu  Cu55  1  0.63098498  0.49423583  0.30489523  1
  Cu  Cu56  1  0.17169649  0.93326670  0.89210197  1
  Cu  Cu57  1  0.41085721  0.14520961  0.88680698  1
  Cu  Cu58  1  0.05444834  0.67633821  0.90472324  1
  Cu  Cu59  1  0.03009518  0.48167007  0.02406049  1
  Cu  Cu60  1  0.72836422  0.06688645  0.39283330  1
  Cu  Cu61  1  0.48171484  0.91691588  0.96766123  1
  Cu  Cu62  1  0.97162050  0.82556884  0.42801388  1
  Cu  Cu63  1  0.67417930  0.76345004  0.73970258  1
  Cu  Cu64  1  0.45702493  0.94855167  0.27406337  1
  Cu  Cu65  1  0.31419275  0.43541036  0.47122987  1
  Cu  Cu66  1  0.70717266  0.66406186  0.41766917  1
  Cu  Cu67  1  0.43380916  0.52773050  0.18212751  1
  Cu  Cu68  1  0.74716768  0.47628703  0.88595952  1
  Cu  Cu69  1  0.02520373  0.22396071  0.44923602  1
  Cu  Cu70  1  0.07330730  0.36951856  0.84970009  1
  Cu  Cu71  1  0.50890839  0.65296331  0.50137849  1
  Cu  Cu72  1  0.63670459  0.21303657  0.80889701  1
  Cu  Cu73  1  0.27290833  0.31886412  0.68980313  1
  Cu  Cu74  1  0.39758448  0.32700110  0.97279943  1
  Cu  Cu75  1  0.74336012  0.73841368  0.08919778  1
  Cu  Cu76  1  0.46876252  0.73588693  0.09387041  1
  Cu  Cu77  1  0.82167488  0.07512621  0.59604584  1
  Cu  Cu78  1  0.19437928  0.15310343  0.79304491  1
  Cu  Cu79  1  0.92185281  0.07065054  0.84062882  1
  Cu  Cu80  1  0.62282154  0.56016409  0.73662397  1
  Cu  Cu81  1  0.64683643  0.88270550  0.46983965  1
  Cu  Cu82  1  0.35786833  0.72696163  0.35135361  1
  Cu  Cu83  1  0.86207157  0.57611006  0.13339957  1
  Cu  Cu84  1  0.15485180  0.99510592  0.60241964  1
  Cu  Cu85  1  0.93213874  0.08139268  0.29206998  1
  Cu  Cu86  1  0.29509775  0.97063351  0.42975572  1
  Cu  Cu87  1  0.48941229  0.22810606  0.30083646  1
  Cu  Cu88  1  0.96289399  0.21813867  0.70136722  1
  Cu  Cu89  1  0.44359479  0.79690261  0.64240427  1
  Cu  Cu90  1  0.10011053  0.49504171  0.25161511  1
  Cu  Cu91  1  0.48686932  0.68003192  0.83672152  1
  Cu  Cu92  1  0.92025984  0.89479412  0.11543444  1
  Cu  Cu93  1  0.53511991  0.37599361  0.44966710  1
  Cu  Cu94  1  0.04020290  0.73930370  0.16799871  1
  Cu  Cu95  1  0.86651139  0.26444672  0.01219368  1
  Cu  Cu96  1  0.82065193  0.84563125  0.59926939  1
  Cu  Cu97  1  0.59521935  0.59535825  0.99870774  1
  Cu  Cu98  1  0.41512286  0.20393540  0.60371103  1
  Cu  Cu99  1  0.82467785  0.39569789  0.60473179  1
