# generated using pymatgen
data_Cu20Ni3C2
_symmetry_space_group_name_H-M   'P 1'
_cell_length_a   7.47942384
_cell_length_b   7.47942384
_cell_length_c   18.40847028
_cell_angle_alpha   81.49880435
_cell_angle_beta   81.49880435
_cell_angle_gamma   51.99110881
_symmetry_Int_Tables_number   1
_chemical_formula_structural   Cu20Ni3C2
_chemical_formula_sum   'Cu40 Ni6 C4'
_cell_volume   800.34763149
_cell_formula_units_Z   2
loop_
 _symmetry_equiv_pos_site_id
 _symmetry_equiv_pos_as_xyz
  1  'x, y, z'
loop_
 _atom_site_type_symbol
 _atom_site_label
 _atom_site_symmetry_multiplicity
 _atom_site_fract_x
 _atom_site_fract_y
 _atom_site_fract_z
 _atom_site_occupancy
  C  C0  1  0.15087600  0.18242100  0.10458300  1
  C  C1  1  0.81757900  0.84912400  0.39541700  1
  C  C2  1  0.84912400  0.81757900  0.89541700  1
  C  C3  1  0.18242100  0.15087600  0.60458300  1
  Ni  Ni4  1  0.70794900  0.29205100  0.25000000  1
  Ni  Ni5  1  0.29205100  0.70794900  0.75000000  1
  Ni  Ni6  1  0.23943100  0.19060800  0.91035400  1
  Ni  Ni7  1  0.80939200  0.76056900  0.58964600  1
  Ni  Ni8  1  0.76056900  0.80939200  0.08964600  1
  Ni  Ni9  1  0.19060800  0.23943100  0.41035400  1
  Cu  Cu10  1  0.31615900  0.36758900  0.07091000  1
  Cu  Cu11  1  0.63241100  0.68384100  0.42909000  1
  Cu  Cu12  1  0.68384100  0.63241100  0.92909000  1
  Cu  Cu13  1  0.36758900  0.31615900  0.57091000  1
  Cu  Cu14  1  0.85830600  0.20455100  0.06726700  1
  Cu  Cu15  1  0.79544900  0.14169400  0.43273300  1
  Cu  Cu16  1  0.14169400  0.79544900  0.93273300  1
  Cu  Cu17  1  0.20455100  0.85830600  0.56726700  1
  Cu  Cu18  1  0.11502700  0.87824900  0.13117800  1
  Cu  Cu19  1  0.12175100  0.88497300  0.36882200  1
  Cu  Cu20  1  0.88497300  0.12175100  0.86882200  1
  Cu  Cu21  1  0.87824900  0.11502700  0.63117800  1
  Cu  Cu22  1  0.34411400  0.25539900  0.18351500  1
  Cu  Cu23  1  0.74460100  0.65588600  0.31648500  1
  Cu  Cu24  1  0.65588600  0.74460100  0.81648500  1
  Cu  Cu25  1  0.25539900  0.34411400  0.68351500  1
  Cu  Cu26  1  0.52633600  0.38735800  0.19825500  1
  Cu  Cu27  1  0.61264200  0.47366400  0.30174500  1
  Cu  Cu28  1  0.47366400  0.61264200  0.80174500  1
  Cu  Cu29  1  0.38735800  0.52633600  0.69825500  1
  Cu  Cu30  1  0.92132800  0.23861800  0.20923600  1
  Cu  Cu31  1  0.76138200  0.07867200  0.29076400  1
  Cu  Cu32  1  0.07867200  0.76138200  0.79076400  1
  Cu  Cu33  1  0.23861800  0.92132800  0.70923600  1
  Cu  Cu34  1  0.22928000  0.09306800  0.98559900  1
  Cu  Cu35  1  0.90693200  0.77072000  0.51440100  1
  Cu  Cu36  1  0.77072000  0.90693200  0.01440100  1
  Cu  Cu37  1  0.09306800  0.22928000  0.48559900  1
  Cu  Cu38  1  0.91504600  0.55707800  0.08930700  1
  Cu  Cu39  1  0.44292200  0.08495400  0.41069300  1
  Cu  Cu40  1  0.08495400  0.44292200  0.91069300  1
  Cu  Cu41  1  0.55707800  0.91504600  0.58930700  1
  Cu  Cu42  1  0.52635000  0.88087100  0.11235200  1
  Cu  Cu43  1  0.11912900  0.47365000  0.38764800  1
  Cu  Cu44  1  0.47365000  0.11912900  0.88764800  1
  Cu  Cu45  1  0.88087100  0.52635000  0.61235200  1
  Cu  Cu46  1  0.18259000  0.11310300  0.85351900  1
  Cu  Cu47  1  0.88689700  0.81741000  0.64648100  1
  Cu  Cu48  1  0.81741000  0.88689700  0.14648100  1
  Cu  Cu49  1  0.11310300  0.18259000  0.35351900  1
