# generated using pymatgen
data_Cu2(Ni2C7)3
_symmetry_space_group_name_H-M   'P 1'
_cell_length_a   6.06662667
_cell_length_b   6.06662667
_cell_length_c   30.48331700
_cell_angle_alpha   90.00000000
_cell_angle_beta   90.00000000
_cell_angle_gamma   120.00000726
_symmetry_Int_Tables_number   1
_chemical_formula_structural   Cu2(Ni2C7)3
_chemical_formula_sum   'Cu4 Ni12 C42'
_cell_volume   971.59967696
_cell_formula_units_Z   2
loop_
 _symmetry_equiv_pos_site_id
 _symmetry_equiv_pos_as_xyz
  1  'x, y, z'
loop_
 _atom_site_type_symbol
 _atom_site_label
 _atom_site_symmetry_multiplicity
 _atom_site_fract_x
 _atom_site_fract_y
 _atom_site_fract_z
 _atom_site_occupancy
  Ni  Ni0  1  0.00000000  0.00000000  0.75000000  1
  Ni  Ni1  1  0.00000000  0.00000000  0.25000000  1
  Ni  Ni2  1  0.33333300  0.66666700  0.31321500  1
  Ni  Ni3  1  0.66666700  0.33333300  0.81321500  1
  Ni  Ni4  1  0.66666700  0.33333300  0.68678500  1
  Ni  Ni5  1  0.33333300  0.66666700  0.18678500  1
  Ni  Ni6  1  0.66666700  0.33333300  0.41123800  1
  Ni  Ni7  1  0.33333300  0.66666700  0.91123800  1
  Ni  Ni8  1  0.33333300  0.66666700  0.58876200  1
  Ni  Ni9  1  0.66666700  0.33333300  0.08876200  1
  Ni  Ni10  1  0.00000000  0.00000000  0.50000000  1
  Ni  Ni11  1  0.00000000  0.00000000  0.00000000  1
  Cu  Cu12  1  0.00000000  0.00000000  0.37357400  1
  Cu  Cu13  1  0.00000000  0.00000000  0.87357400  1
  Cu  Cu14  1  0.00000000  0.00000000  0.62642600  1
  Cu  Cu15  1  0.00000000  0.00000000  0.12642600  1
  C  C16  1  0.66666700  0.33333300  0.29575800  1
  C  C17  1  0.33333300  0.66666700  0.79575800  1
  C  C18  1  0.33333300  0.66666700  0.70424200  1
  C  C19  1  0.66666700  0.33333300  0.20424200  1
  C  C20  1  0.33333300  0.66666700  0.44740900  1
  C  C21  1  0.66666700  0.33333300  0.94740900  1
  C  C22  1  0.66666700  0.33333300  0.55259100  1
  C  C23  1  0.33333300  0.66666700  0.05259100  1
  C  C24  1  0.48148400  0.96296800  0.75000000  1
  C  C25  1  0.51851600  0.48148400  0.25000000  1
  C  C26  1  0.96296800  0.48148400  0.25000000  1
  C  C27  1  0.03703200  0.51851600  0.75000000  1
  C  C28  1  0.48148400  0.51851600  0.75000000  1
  C  C29  1  0.51851600  0.03703200  0.25000000  1
  C  C30  1  0.35642800  0.17821400  0.32904200  1
  C  C31  1  0.82178600  0.17821400  0.32904200  1
  C  C32  1  0.82178600  0.64357200  0.32904200  1
  C  C33  1  0.17821400  0.35642800  0.82904200  1
  C  C34  1  0.64357200  0.82178600  0.67095800  1
  C  C35  1  0.64357200  0.82178600  0.82904200  1
  C  C36  1  0.17821400  0.82178600  0.82904200  1
  C  C37  1  0.82178600  0.64357200  0.17095800  1
  C  C38  1  0.82178600  0.17821400  0.17095800  1
  C  C39  1  0.17821400  0.82178600  0.67095800  1
  C  C40  1  0.17821400  0.35642800  0.67095800  1
  C  C41  1  0.35642800  0.17821400  0.17095800  1
  C  C42  1  0.66018300  0.83009100  0.42511100  1
  C  C43  1  0.16990900  0.83009100  0.42511100  1
  C  C44  1  0.16990900  0.33981700  0.42511100  1
  C  C45  1  0.83009100  0.66018300  0.92511100  1
  C  C46  1  0.33981700  0.16990900  0.57488900  1
  C  C47  1  0.33981700  0.16990900  0.92511100  1
  C  C48  1  0.33333300  0.66666700  0.99423200  1
  C  C49  1  0.66666700  0.33333300  0.49423200  1
  C  C50  1  0.66666700  0.33333300  0.00576800  1
  C  C51  1  0.33333300  0.66666700  0.50576800  1
  C  C52  1  0.66018300  0.83009100  0.07488900  1
  C  C53  1  0.83009100  0.66018300  0.57488900  1
  C  C54  1  0.83009100  0.16990900  0.57488900  1
  C  C55  1  0.16990900  0.83009100  0.07488900  1
  C  C56  1  0.16990900  0.33981700  0.07488900  1
  C  C57  1  0.83009100  0.16990900  0.92511100  1
