# generated using pymatgen
data_Cu9Ni2C3
_symmetry_space_group_name_H-M   'P 1'
_cell_length_a   8.11189800
_cell_length_b   14.00482500
_cell_length_c   23.57456113
_cell_angle_alpha   54.53243605
_cell_angle_beta   90.00000000
_cell_angle_gamma   90.00000000
_symmetry_Int_Tables_number   1
_chemical_formula_structural   Cu9Ni2C3
_chemical_formula_sum   'Cu36 Ni8 C12'
_cell_volume   2181.24818636
_cell_formula_units_Z   4
loop_
 _symmetry_equiv_pos_site_id
 _symmetry_equiv_pos_as_xyz
  1  'x, y, z'
loop_
 _atom_site_type_symbol
 _atom_site_label
 _atom_site_symmetry_multiplicity
 _atom_site_fract_x
 _atom_site_fract_y
 _atom_site_fract_z
 _atom_site_occupancy
  Ni  Ni0  1  0.99419500  0.51303600  0.65562300  1
  Ni  Ni1  1  0.50580500  0.51303600  0.15562300  1
  Ni  Ni2  1  0.00580500  0.48696400  0.34437700  1
  Ni  Ni3  1  0.49419500  0.48696400  0.84437700  1
  Ni  Ni4  1  0.98086600  0.99110800  0.84511700  1
  Ni  Ni5  1  0.51913400  0.99110800  0.34511700  1
  Ni  Ni6  1  0.01913400  0.00889200  0.15488300  1
  Ni  Ni7  1  0.48086600  0.00889200  0.65488300  1
  Cu  Cu8  1  0.79316800  0.46557400  0.57560800  1
  Cu  Cu9  1  0.70683200  0.46557400  0.07560800  1
  Cu  Cu10  1  0.20683200  0.53442600  0.42439200  1
  Cu  Cu11  1  0.29316800  0.53442600  0.92439200  1
  Cu  Cu12  1  0.29171100  0.54119900  0.58474400  1
  Cu  Cu13  1  0.20828900  0.54119900  0.08474400  1
  Cu  Cu14  1  0.70828900  0.45880100  0.41525600  1
  Cu  Cu15  1  0.79171100  0.45880100  0.91525600  1
  Cu  Cu16  1  0.17227800  0.55405900  0.75433800  1
  Cu  Cu17  1  0.32772200  0.55405900  0.25433800  1
  Cu  Cu18  1  0.82772200  0.44594100  0.24566200  1
  Cu  Cu19  1  0.67227800  0.44594100  0.74566200  1
  Cu  Cu20  1  0.10077700  0.25156000  0.75039200  1
  Cu  Cu21  1  0.39922300  0.25156000  0.25039200  1
  Cu  Cu22  1  0.89922300  0.74844000  0.24960800  1
  Cu  Cu23  1  0.60077700  0.74844000  0.74960800  1
  Cu  Cu24  1  0.91001800  0.75255500  0.57790000  1
  Cu  Cu25  1  0.58998200  0.75255500  0.07790000  1
  Cu  Cu26  1  0.08998200  0.24744500  0.42210000  1
  Cu  Cu27  1  0.41001800  0.24744500  0.92210000  1
  Cu  Cu28  1  0.81487700  0.04470800  0.71358400  1
  Cu  Cu29  1  0.68512300  0.04470800  0.21358400  1
  Cu  Cu30  1  0.18512300  0.95529200  0.28641600  1
  Cu  Cu31  1  0.31487700  0.95529200  0.78641600  1
  Cu  Cu32  1  0.69305200  0.04242600  0.88903200  1
  Cu  Cu33  1  0.80694800  0.04242600  0.38903200  1
  Cu  Cu34  1  0.30694800  0.95757400  0.11096800  1
  Cu  Cu35  1  0.19305200  0.95757400  0.61096800  1
  Cu  Cu36  1  0.19734100  0.96517500  0.94805100  1
  Cu  Cu37  1  0.30265900  0.96517500  0.44805100  1
  Cu  Cu38  1  0.80265900  0.03482500  0.05194900  1
  Cu  Cu39  1  0.69734100  0.03482500  0.55194900  1
  Cu  Cu40  1  0.91583100  0.74835700  0.92150600  1
  Cu  Cu41  1  0.58416900  0.74835700  0.42150600  1
  Cu  Cu42  1  0.08416900  0.25164300  0.07849400  1
  Cu  Cu43  1  0.41583100  0.25164300  0.57849400  1
  C  C44  1  0.02447800  0.75853400  0.77508900  1
  C  C45  1  0.47552200  0.75853400  0.27508900  1
  C  C46  1  0.97552200  0.24146600  0.22491100  1
  C  C47  1  0.52447800  0.24146600  0.72491100  1
  C  C48  1  0.96925700  0.25843000  0.88975700  1
  C  C49  1  0.53074300  0.25843000  0.38975700  1
  C  C50  1  0.03074300  0.74157000  0.11024300  1
  C  C51  1  0.46925700  0.74157000  0.61024300  1
  C  C52  1  0.01964500  0.75228500  0.43556100  1
  C  C53  1  0.48035500  0.75228500  0.93556100  1
  C  C54  1  0.98035500  0.24771500  0.56443900  1
  C  C55  1  0.51964500  0.24771500  0.06443900  1
