# generated using pymatgen
data_Cu2NiC6
_symmetry_space_group_name_H-M   'P 1'
_cell_length_a   6.67963560
_cell_length_b   6.67963560
_cell_length_c   6.67963560
_cell_angle_alpha   146.18145529
_cell_angle_beta   131.09314879
_cell_angle_gamma   60.78491259
_symmetry_Int_Tables_number   1
_chemical_formula_structural   Cu2NiC6
_chemical_formula_sum   'Cu2 Ni1 C6'
_cell_volume   123.80804870
_cell_formula_units_Z   1
loop_
 _symmetry_equiv_pos_site_id
 _symmetry_equiv_pos_as_xyz
  1  'x, y, z'
loop_
 _atom_site_type_symbol
 _atom_site_label
 _atom_site_symmetry_multiplicity
 _atom_site_fract_x
 _atom_site_fract_y
 _atom_site_fract_z
 _atom_site_occupancy
  Ni  Ni0  1  0.00000000  0.00000000  0.00000000  1
  Cu  Cu1  1  0.66658400  0.66658400  0.00000000  1
  Cu  Cu2  1  0.33341600  0.33341600  0.00000000  1
  C  C3  1  0.72853000  0.50000000  0.22853000  1
  C  C4  1  0.43514300  0.17469000  0.26045300  1
  C  C5  1  0.08576300  0.82531000  0.26045300  1
  C  C6  1  0.27147000  0.50000000  0.77147000  1
  C  C7  1  0.91423700  0.17469000  0.73954700  1
  C  C8  1  0.56485700  0.82531000  0.73954700  1
