# generated using pymatgen
data_Cu2NiC10
_symmetry_space_group_name_H-M   'P 1'
_cell_length_a   8.59988352
_cell_length_b   8.59988352
_cell_length_c   17.45491131
_cell_angle_alpha   63.26745658
_cell_angle_beta   63.26745658
_cell_angle_gamma   32.97437628
_symmetry_Int_Tables_number   1
_chemical_formula_structural   Cu2NiC10
_chemical_formula_sum   'Cu8 Ni4 C40'
_cell_volume   620.49814620
_cell_formula_units_Z   4
loop_
 _symmetry_equiv_pos_site_id
 _symmetry_equiv_pos_as_xyz
  1  'x, y, z'
loop_
 _atom_site_type_symbol
 _atom_site_label
 _atom_site_symmetry_multiplicity
 _atom_site_fract_x
 _atom_site_fract_y
 _atom_site_fract_z
 _atom_site_occupancy
  Ni  Ni0  1  0.48936500  0.84094300  0.85101200  1
  Ni  Ni1  1  0.15905700  0.51063500  0.64898800  1
  Ni  Ni2  1  0.84094300  0.48936500  0.35101200  1
  Ni  Ni3  1  0.51063500  0.15905700  0.14898800  1
  Cu  Cu4  1  0.19245600  0.61138500  0.96403200  1
  Cu  Cu5  1  0.38861500  0.80754400  0.53596800  1
  Cu  Cu6  1  0.80754400  0.38861500  0.03596800  1
  Cu  Cu7  1  0.50000000  0.00000000  0.00000000  1
  Cu  Cu8  1  0.61138500  0.19245600  0.46403200  1
  Cu  Cu9  1  0.61549500  0.38450500  0.25000000  1
  Cu  Cu10  1  0.38450500  0.61549500  0.75000000  1
  Cu  Cu11  1  0.00000000  0.50000000  0.50000000  1
  C  C12  1  0.05370100  0.51264200  0.85627800  1
  C  C13  1  0.78578700  0.17688600  0.61333700  1
  C  C14  1  0.94629900  0.48735800  0.14372300  1
  C  C15  1  0.17688600  0.78578700  0.11333700  1
  C  C16  1  0.51264200  0.05370100  0.35627800  1
  C  C17  1  0.48735800  0.94629900  0.64372200  1
  C  C18  1  0.21421300  0.82311400  0.38666300  1
  C  C19  1  0.82311400  0.21421300  0.88666300  1
  C  C20  1  0.69723600  0.81686700  0.11378700  1
  C  C21  1  0.72814700  0.42025700  0.92537000  1
  C  C22  1  0.81686700  0.69723600  0.61378700  1
  C  C23  1  0.86013700  0.31449300  0.55027300  1
  C  C24  1  0.21500800  0.33873300  0.07066300  1
  C  C25  1  0.63712600  0.26491900  0.70378800  1
  C  C26  1  0.68550700  0.13986300  0.94972700  1
  C  C27  1  0.84069200  0.08261400  0.11922000  1
  C  C28  1  0.13986300  0.68550700  0.44972700  1
  C  C29  1  0.57974300  0.27185300  0.57463000  1
  C  C30  1  0.86949800  0.36835000  0.15087300  1
  C  C31  1  0.60020100  0.96176300  0.27340200  1
  C  C32  1  0.27185300  0.57974300  0.07463000  1
  C  C33  1  0.08261400  0.84069200  0.61922000  1
  C  C34  1  0.30276400  0.18313300  0.88621300  1
  C  C35  1  0.13050200  0.63165000  0.84912700  1
  C  C36  1  0.96176300  0.60020100  0.77340200  1
  C  C37  1  0.31449300  0.86013700  0.05027300  1
  C  C38  1  0.36835000  0.86949800  0.65087300  1
  C  C39  1  0.39979900  0.03823700  0.72659800  1
  C  C40  1  0.91738600  0.15930800  0.38078000  1
  C  C41  1  0.33873300  0.21500800  0.57066300  1
  C  C42  1  0.15930800  0.91738600  0.88078000  1
  C  C43  1  0.26491900  0.63712600  0.20378800  1
  C  C44  1  0.42025700  0.72814700  0.42537000  1
  C  C45  1  0.18313300  0.30276400  0.38621300  1
  C  C46  1  0.03823700  0.39979900  0.22659800  1
  C  C47  1  0.66126700  0.78499200  0.42933700  1
  C  C48  1  0.78499200  0.66126700  0.92933700  1
  C  C49  1  0.73508100  0.36287400  0.79621200  1
  C  C50  1  0.36287400  0.73508100  0.29621200  1
  C  C51  1  0.63165000  0.13050200  0.34912700  1
