# generated using pymatgen
data_Cu2NiC14
_symmetry_space_group_name_H-M   'P 1'
_cell_length_a   6.43722818
_cell_length_b   6.56268362
_cell_length_c   8.94800011
_cell_angle_alpha   86.77589763
_cell_angle_beta   37.55398179
_cell_angle_gamma   99.27953307
_symmetry_Int_Tables_number   1
_chemical_formula_structural   Cu2NiC14
_chemical_formula_sum   'Cu2 Ni1 C14'
_cell_volume   216.47825948
_cell_formula_units_Z   1
loop_
 _symmetry_equiv_pos_site_id
 _symmetry_equiv_pos_as_xyz
  1  'x, y, z'
loop_
 _atom_site_type_symbol
 _atom_site_label
 _atom_site_symmetry_multiplicity
 _atom_site_fract_x
 _atom_site_fract_y
 _atom_site_fract_z
 _atom_site_occupancy
  Ni  Ni0  1  0.05483300  0.67290400  0.62563000  1
  Cu  Cu1  1  0.57654500  0.47618500  0.51079100  1
  Cu  Cu2  1  0.67214800  0.02675900  0.47608800  1
  C  C3  1  0.41129500  0.22500700  0.27364800  1
  C  C4  1  0.14797100  0.80943400  0.97144700  1
  C  C5  1  0.60437700  0.26241700  0.82446300  1
  C  C6  1  0.40970500  0.72648600  0.15983700  1
  C  C7  1  0.82004100  0.15126300  0.60352000  1
  C  C8  1  0.60195100  0.46868000  0.73085400  1
  C  C9  1  0.29592400  0.89204700  0.31554500  1
  C  C10  1  0.39798700  0.54224100  0.28785200  1
  C  C11  1  0.11361600  0.62575300  0.20932000  1
  C  C12  1  0.77108700  0.82882100  0.87380600  1
  C  C13  1  0.80887700  0.34546600  0.85540600  1
  C  C14  1  0.21679000  0.11235000  0.09085200  1
  C  C15  1  0.49683800  0.74056800  0.50497500  1
  C  C16  1  0.55432200  0.22856100  0.41183500  1
