# generated using pymatgen
data_Cu4Ni2C
_symmetry_space_group_name_H-M   'P 1'
_cell_length_a   5.27896500
_cell_length_b   10.61940100
_cell_length_c   23.12241300
_cell_angle_alpha   90.00000000
_cell_angle_beta   90.00000000
_cell_angle_gamma   90.00000000
_symmetry_Int_Tables_number   1
_chemical_formula_structural   Cu4Ni2C
_chemical_formula_sum   'Cu32 Ni16 C8'
_cell_volume   1296.22966759
_cell_formula_units_Z   8
loop_
 _symmetry_equiv_pos_site_id
 _symmetry_equiv_pos_as_xyz
  1  'x, y, z'
loop_
 _atom_site_type_symbol
 _atom_site_label
 _atom_site_symmetry_multiplicity
 _atom_site_fract_x
 _atom_site_fract_y
 _atom_site_fract_z
 _atom_site_occupancy
  C  C0  1  0.71818100  0.25000000  0.54344200  1
  C  C1  1  0.21818100  0.25000000  0.95655800  1
  C  C2  1  0.28181900  0.75000000  0.45655800  1
  C  C3  1  0.78181900  0.75000000  0.04344200  1
  C  C4  1  0.04024200  0.25000000  0.32684900  1
  C  C5  1  0.54024200  0.25000000  0.17315100  1
  C  C6  1  0.95975800  0.75000000  0.67315100  1
  C  C7  1  0.45975800  0.75000000  0.82684900  1
  Ni  Ni8  1  0.79234200  0.08447300  0.32193300  1
  Ni  Ni9  1  0.29234200  0.41552700  0.17806700  1
  Ni  Ni10  1  0.20765800  0.58447300  0.67806700  1
  Ni  Ni11  1  0.70765800  0.91552700  0.82193300  1
  Ni  Ni12  1  0.20765800  0.91552700  0.67806700  1
  Ni  Ni13  1  0.70765800  0.58447300  0.82193300  1
  Ni  Ni14  1  0.79234200  0.41552700  0.32193300  1
  Ni  Ni15  1  0.29234200  0.08447300  0.17806700  1
  Ni  Ni16  1  0.81400900  0.01049100  0.41015900  1
  Ni  Ni17  1  0.31400900  0.48950900  0.08984100  1
  Ni  Ni18  1  0.18599100  0.51049100  0.58984100  1
  Ni  Ni19  1  0.68599100  0.98950900  0.91015900  1
  Ni  Ni20  1  0.18599100  0.98950900  0.58984100  1
  Ni  Ni21  1  0.68599100  0.51049100  0.91015900  1
  Ni  Ni22  1  0.81400900  0.48950900  0.41015900  1
  Ni  Ni23  1  0.31400900  0.01049100  0.08984100  1
  Cu  Cu24  1  0.08284400  0.99499100  0.42341700  1
  Cu  Cu25  1  0.58284400  0.50500900  0.07658300  1
  Cu  Cu26  1  0.91715600  0.49499100  0.57658300  1
  Cu  Cu27  1  0.41715600  0.00500900  0.92341700  1
  Cu  Cu28  1  0.91715600  0.00500900  0.57658300  1
  Cu  Cu29  1  0.41715600  0.49499100  0.92341700  1
  Cu  Cu30  1  0.08284400  0.50500900  0.42341700  1
  Cu  Cu31  1  0.58284400  0.99499100  0.07658300  1
  Cu  Cu32  1  0.67861400  0.89079400  0.40177200  1
  Cu  Cu33  1  0.17861400  0.60920600  0.09822800  1
  Cu  Cu34  1  0.32138600  0.39079400  0.59822800  1
  Cu  Cu35  1  0.82138600  0.10920600  0.90177200  1
  Cu  Cu36  1  0.32138600  0.10920600  0.59822800  1
  Cu  Cu37  1  0.82138600  0.39079400  0.90177200  1
  Cu  Cu38  1  0.67861400  0.60920600  0.40177200  1
  Cu  Cu39  1  0.17861400  0.89079400  0.09822800  1
  Cu  Cu40  1  0.68243600  0.10099300  0.44676100  1
  Cu  Cu41  1  0.18243600  0.39900700  0.05323900  1
  Cu  Cu42  1  0.31756400  0.60099300  0.55323900  1
  Cu  Cu43  1  0.81756400  0.89900700  0.94676100  1
  Cu  Cu44  1  0.31756400  0.89900700  0.55323900  1
  Cu  Cu45  1  0.81756400  0.60099300  0.94676100  1
  Cu  Cu46  1  0.68243600  0.39900700  0.44676100  1
  Cu  Cu47  1  0.18243600  0.10099300  0.05323900  1
  Cu  Cu48  1  0.22514700  0.25000000  0.49700400  1
  Cu  Cu49  1  0.72514700  0.25000000  0.00299600  1
  Cu  Cu50  1  0.77485300  0.75000000  0.50299600  1
  Cu  Cu51  1  0.27485300  0.75000000  0.99700400  1
  Cu  Cu52  1  0.82849000  0.25000000  0.66489200  1
  Cu  Cu53  1  0.32849000  0.25000000  0.83510800  1
  Cu  Cu54  1  0.17151000  0.75000000  0.33510800  1
  Cu  Cu55  1  0.67151000  0.75000000  0.16489200  1
