# generated using pymatgen
data_CuNiC7
_symmetry_space_group_name_H-M   'P 1'
_cell_length_a   7.52718641
_cell_length_b   7.52718641
_cell_length_c   7.52718641
_cell_angle_alpha   120.64953581
_cell_angle_beta   120.08738620
_cell_angle_gamma   89.36367999
_symmetry_Int_Tables_number   1
_chemical_formula_structural   CuNiC7
_chemical_formula_sum   'Cu2 Ni2 C14'
_cell_volume   299.85774326
_cell_formula_units_Z   2
loop_
 _symmetry_equiv_pos_site_id
 _symmetry_equiv_pos_as_xyz
  1  'x, y, z'
loop_
 _atom_site_type_symbol
 _atom_site_label
 _atom_site_symmetry_multiplicity
 _atom_site_fract_x
 _atom_site_fract_y
 _atom_site_fract_z
 _atom_site_occupancy
  C  C0  1  0.37167000  0.62167000  0.75000000  1
  C  C1  1  0.62833000  0.37833000  0.25000000  1
  Ni  Ni2  1  0.00000000  0.00000000  0.50000000  1
  Ni  Ni3  1  0.00000000  0.50000000  0.00000000  1
  Cu  Cu4  1  0.00000000  0.00000000  0.00000000  1
  Cu  Cu5  1  0.50000000  0.00000000  0.50000000  1
  C  C6  1  0.31477700  0.06477700  0.25000000  1
  C  C7  1  0.92893300  0.67893300  0.25000000  1
  C  C8  1  0.32901500  0.69076200  0.26114600  1
  C  C9  1  0.92961600  0.06786900  0.23885400  1
  C  C10  1  0.32901500  0.06786900  0.63825400  1
  C  C11  1  0.92961600  0.69076200  0.86174600  1
  C  C12  1  0.68522300  0.93522300  0.75000000  1
  C  C13  1  0.07106700  0.32106700  0.75000000  1
  C  C14  1  0.67098500  0.30923800  0.73885400  1
  C  C15  1  0.07038400  0.93213100  0.76114600  1
  C  C16  1  0.67098500  0.93213100  0.36174600  1
  C  C17  1  0.07038400  0.30923800  0.13825400  1
