# generated using pymatgen
data_Cu4NiC
_symmetry_space_group_name_H-M   'P 1'
_cell_length_a   4.80481092
_cell_length_b   4.80481092
_cell_length_c   7.51359625
_cell_angle_alpha   87.04419025
_cell_angle_beta   87.04419025
_cell_angle_gamma   65.49035749
_symmetry_Int_Tables_number   1
_chemical_formula_structural   Cu4NiC
_chemical_formula_sum   'Cu8 Ni2 C2'
_cell_volume   157.53327862
_cell_formula_units_Z   2
loop_
 _symmetry_equiv_pos_site_id
 _symmetry_equiv_pos_as_xyz
  1  'x, y, z'
loop_
 _atom_site_type_symbol
 _atom_site_label
 _atom_site_symmetry_multiplicity
 _atom_site_fract_x
 _atom_site_fract_y
 _atom_site_fract_z
 _atom_site_occupancy
  C  C0  1  0.00000000  0.00000000  0.50000000  1
  C  C1  1  0.00000000  0.00000000  0.00000000  1
  Ni  Ni2  1  0.36634600  0.36634600  0.78847300  1
  Ni  Ni3  1  0.63365400  0.63365400  0.21152700  1
  Cu  Cu4  1  0.29232200  0.29232200  0.61732400  1
  Cu  Cu5  1  0.70767800  0.70767800  0.38267600  1
  Cu  Cu6  1  0.71433900  0.24083500  0.79621800  1
  Cu  Cu7  1  0.28566100  0.75916500  0.20378200  1
  Cu  Cu8  1  0.75916500  0.28566100  0.20378200  1
  Cu  Cu9  1  0.24083500  0.71433900  0.79621800  1
  Cu  Cu10  1  0.25208400  0.25208400  0.95182000  1
  Cu  Cu11  1  0.74791600  0.74791600  0.04818000  1
