# generated using pymatgen
data_CuNiC8
_symmetry_space_group_name_H-M   'P 1'
_cell_length_a   5.32219654
_cell_length_b   7.76460344
_cell_length_c   5.65111475
_cell_angle_alpha   94.75778469
_cell_angle_beta   90.02632860
_cell_angle_gamma   89.96679707
_symmetry_Int_Tables_number   1
_chemical_formula_structural   CuNiC8
_chemical_formula_sum   'Cu2 Ni2 C16'
_cell_volume   232.72612920
_cell_formula_units_Z   2
loop_
 _symmetry_equiv_pos_site_id
 _symmetry_equiv_pos_as_xyz
  1  'x, y, z'
loop_
 _atom_site_type_symbol
 _atom_site_label
 _atom_site_symmetry_multiplicity
 _atom_site_fract_x
 _atom_site_fract_y
 _atom_site_fract_z
 _atom_site_occupancy
  Ni  Ni0  1  0.50856300  0.99353600  0.50552400  1
  Ni  Ni1  1  0.00867200  0.49350600  0.00548200  1
  C  C2  1  0.50822300  0.28168300  0.92937400  1
  C  C3  1  0.00809900  0.78171000  0.42934000  1
  C  C4  1  0.00831100  0.24951500  0.49300800  1
  C  C5  1  0.50837700  0.74946400  0.99309500  1
  Cu  Cu6  1  0.50817600  0.49429600  0.50338400  1
  Cu  Cu7  1  0.00821100  0.99428300  0.00339500  1
  C  C8  1  0.22007400  0.40379300  0.69284900  1
  C  C9  1  0.72002300  0.90383700  0.19291200  1
  C  C10  1  0.15721400  0.04434700  0.33244900  1
  C  C11  1  0.65718500  0.54435500  0.83243800  1
  C  C12  1  0.64793200  0.25571300  0.54386300  1
  C  C13  1  0.14793400  0.75570000  0.04383100  1
  C  C14  1  0.31499800  0.05524100  0.85793700  1
  C  C15  1  0.81499700  0.55525200  0.35794900  1
  C  C16  1  0.86555100  0.22039400  0.02352700  1
  C  C17  1  0.36545800  0.72039700  0.52354900  1
  C  C18  1  0.34386800  0.41362700  0.21527800  1
  C  C19  1  0.84389000  0.91364500  0.71528000  1
