# generated using pymatgen
data_CuNi2C37
_symmetry_space_group_name_H-M   'P 1'
_cell_length_a   10.11725900
_cell_length_b   10.51512271
_cell_length_c   10.51588918
_cell_angle_alpha   75.03529406
_cell_angle_beta   70.44303898
_cell_angle_gamma   70.31066630
_symmetry_Int_Tables_number   1
_chemical_formula_structural   CuNi2C37
_chemical_formula_sum   'Cu2 Ni4 C74'
_cell_volume   979.12240060
_cell_formula_units_Z   2
loop_
 _symmetry_equiv_pos_site_id
 _symmetry_equiv_pos_as_xyz
  1  'x, y, z'
loop_
 _atom_site_type_symbol
 _atom_site_label
 _atom_site_symmetry_multiplicity
 _atom_site_fract_x
 _atom_site_fract_y
 _atom_site_fract_z
 _atom_site_occupancy
  C  C0  1  0.24982100  0.43155500  0.56809700  1
  C  C1  1  0.75028500  0.56779600  0.43204700  1
  Ni  Ni2  1  0.69803200  0.05142200  0.47252400  1
  Ni  Ni3  1  0.80203200  0.52743500  0.94847000  1
  Ni  Ni4  1  0.30197400  0.94871200  0.52718100  1
  Ni  Ni5  1  0.19820800  0.47245900  0.05169300  1
  Cu  Cu6  1  0.24881800  0.92697000  0.07544600  1
  Cu  Cu7  1  0.75012500  0.07311600  0.92641200  1
  C  C8  1  0.37964600  0.14373600  0.03540800  1
  C  C9  1  0.11967800  0.96571800  0.85581500  1
  C  C10  1  0.61978000  0.85591100  0.96526700  1
  C  C11  1  0.88096700  0.03396100  0.14428600  1
  C  C12  1  0.40200300  0.65507500  0.02666100  1
  C  C13  1  0.90376400  0.02689100  0.65269100  1
  C  C14  1  0.59800300  0.34537000  0.97295000  1
  C  C15  1  0.09701100  0.97113500  0.34581400  1
  C  C16  1  0.10747800  0.70695500  0.75630700  1
  C  C17  1  0.39241500  0.24405600  0.29317700  1
  C  C18  1  0.89267700  0.29257800  0.24425400  1
  C  C19  1  0.60783500  0.75605900  0.70675000  1
  C  C20  1  0.93559400  0.74263100  0.54989100  1
  C  C21  1  0.56404700  0.45019400  0.25785900  1
  C  C22  1  0.06539100  0.25578600  0.44883400  1
  C  C23  1  0.43551300  0.55032300  0.74239200  1
  C  C24  1  0.08117300  0.25166000  0.95587000  1
  C  C25  1  0.41856600  0.04432800  0.74836500  1
  C  C26  1  0.91867200  0.74848100  0.04435900  1
  C  C27  1  0.58145200  0.95582500  0.25186300  1
  C  C28  1  0.41803400  0.75066100  0.29633300  1
  C  C29  1  0.08098800  0.70385400  0.25119000  1
  C  C30  1  0.58130100  0.25051400  0.70316600  1
  C  C31  1  0.91909100  0.29620400  0.74900800  1
  C  C32  1  0.01988400  0.66788400  0.67186600  1
  C  C33  1  0.47950100  0.32873300  0.33267200  1
  C  C34  1  0.98004600  0.33279900  0.32778500  1
  C  C35  1  0.52012200  0.67187000  0.66749400  1
  C  C36  1  0.90518500  0.12901300  0.27404900  1
  C  C37  1  0.59821500  0.72673000  0.86917500  1
  C  C38  1  0.09786500  0.86924600  0.72701400  1
  C  C39  1  0.40194800  0.27317600  0.13090200  1
  C  C40  1  0.26100400  0.81227700  0.39598100  1
  C  C41  1  0.23706500  0.60237900  0.19313100  1
  C  C42  1  0.73676500  0.19263600  0.60115400  1
  C  C43  1  0.76345700  0.39853900  0.80650200  1
  C  C44  1  0.06306100  0.86916800  0.21317400  1
  C  C45  1  0.43590000  0.78820200  0.13143500  1
  C  C46  1  0.93615000  0.13091800  0.78785700  1
  C  C47  1  0.56415900  0.21222800  0.86837600  1
  C  C48  1  0.25636500  0.07265200  0.16834300  1
  C  C49  1  0.24294900  0.83215900  0.92753400  1
  C  C50  1  0.74332400  0.92661600  0.83224900  1
  C  C51  1  0.75695300  0.16822600  0.07381300  1
  C  C52  1  0.24098800  0.26847600  0.93999500  1
  C  C53  1  0.25861400  0.06030200  0.73157800  1
  C  C54  1  0.75873300  0.73156300  0.06069300  1
  C  C55  1  0.74155800  0.93944000  0.26837500  1
  C  C56  1  0.06930400  0.09226900  0.99722900  1
  C  C57  1  0.43060500  0.00265700  0.90774300  1
  C  C58  1  0.93039000  0.90791500  0.00299300  1
  C  C59  1  0.56947700  0.99717400  0.09250100  1
  C  C60  1  0.77360600  0.71271300  0.60976200  1
  C  C61  1  0.72623400  0.38916500  0.28828000  1
  C  C62  1  0.22672000  0.28722400  0.39008500  1
  C  C63  1  0.27357500  0.61022300  0.71182900  1
  C  C64  1  0.92015700  0.90374300  0.51198800  1
  C  C65  1  0.58079200  0.48670300  0.09663400  1
  C  C66  1  0.08118200  0.09494000  0.48412300  1
  C  C67  1  0.41906900  0.51378400  0.90355800  1
  C  C68  1  0.03592500  0.65893000  0.92172600  1
  C  C69  1  0.46467300  0.07853400  0.34128200  1
  C  C70  1  0.96351400  0.34077100  0.07872600  1
  C  C71  1  0.53585400  0.92164100  0.65886600  1
  C  C72  1  0.96530000  0.67203000  0.18566900  1
  C  C73  1  0.53396900  0.81479200  0.32926500  1
  C  C74  1  0.03482000  0.32845900  0.81437700  1
  C  C75  1  0.46495500  0.18560500  0.67140700  1
  C  C76  1  0.01785500  0.65866000  0.42052800  1
  C  C77  1  0.48099400  0.58102300  0.34101700  1
  C  C78  1  0.98343900  0.33824300  0.57964400  1
  C  C79  1  0.51740700  0.42019800  0.65923500  1
