# generated using pymatgen
data_CuNiC8
_symmetry_space_group_name_H-M   'P 1'
_cell_length_a   5.92354355
_cell_length_b   5.92354355
_cell_length_c   8.60661742
_cell_angle_alpha   90.00000000
_cell_angle_beta   90.00000000
_cell_angle_gamma   90.00000000
_symmetry_Int_Tables_number   1
_chemical_formula_structural   CuNiC8
_chemical_formula_sum   'Cu2 Ni2 C16'
_cell_volume   301.99216089
_cell_formula_units_Z   2
loop_
 _symmetry_equiv_pos_site_id
 _symmetry_equiv_pos_as_xyz
  1  'x, y, z'
loop_
 _atom_site_type_symbol
 _atom_site_label
 _atom_site_symmetry_multiplicity
 _atom_site_fract_x
 _atom_site_fract_y
 _atom_site_fract_z
 _atom_site_occupancy
  Ni  Ni0  1  0.50000000  0.50000000  0.50000000  1
  Ni  Ni1  1  0.00000000  -0.00000000  0.50000000  1
  Cu  Cu2  1  0.50000000  0.50000000  0.00000000  1
  Cu  Cu3  1  -0.00000000  0.00000000  0.00000000  1
  C  C4  1  0.50000000  0.00000000  0.75240174  1
  C  C5  1  0.00000000  0.50000000  0.24759826  1
  C  C6  1  0.50000000  -0.00000000  0.24524310  1
  C  C7  1  0.00000000  0.50000000  0.75475690  1
  C  C8  1  0.50000000  0.00000000  0.01480634  1
  C  C9  1  -0.00000000  0.50000000  0.98519366  1
  C  C10  1  0.50000000  -0.00000000  0.48036934  1
  C  C11  1  -0.00000000  0.50000000  0.51963066  1
  C  C12  1  0.69520964  0.65160776  0.75728558  1
  C  C13  1  0.30479036  0.34839224  0.75728558  1
  C  C14  1  0.84839224  0.19520964  0.75728558  1
  C  C15  1  0.15160776  0.80479036  0.75728558  1
  C  C16  1  0.80479036  0.15160776  0.24271442  1
  C  C17  1  0.19520964  0.84839224  0.24271442  1
  C  C18  1  0.65160776  0.69520964  0.24271442  1
  C  C19  1  0.34839224  0.30479036  0.24271442  1
