# generated using pymatgen
data_Cu24Ni6C17
_symmetry_space_group_name_H-M   'P 1'
_cell_length_a   7.64343000
_cell_length_b   10.73889209
_cell_length_c   14.64910436
_cell_angle_alpha   87.32145309
_cell_angle_beta   82.50643345
_cell_angle_gamma   69.15113368
_symmetry_Int_Tables_number   1
_chemical_formula_structural   Cu24Ni6C17
_chemical_formula_sum   'Cu48 Ni12 C34'
_cell_volume   1114.09840315
_cell_formula_units_Z   2
loop_
 _symmetry_equiv_pos_site_id
 _symmetry_equiv_pos_as_xyz
  1  'x, y, z'
loop_
 _atom_site_type_symbol
 _atom_site_label
 _atom_site_symmetry_multiplicity
 _atom_site_fract_x
 _atom_site_fract_y
 _atom_site_fract_z
 _atom_site_occupancy
  C  C0  1  0.92932200  0.07018500  0.42398700  1
  C  C1  1  0.08857500  0.05684100  0.75933000  1
  C  C2  1  0.27240200  0.42567200  0.76171400  1
  C  C3  1  0.59272300  0.75001600  0.13047500  1
  C  C4  1  0.25895900  0.07612500  0.09345600  1
  C  C5  1  0.23911500  0.24964900  0.53610400  1
  C  C6  1  0.56783200  0.57619500  0.90656900  1
  C  C7  1  0.40727700  0.24998400  0.86952500  1
  C  C8  1  0.43216800  0.42380500  0.09343100  1
  C  C9  1  0.91142500  0.94315900  0.24067000  1
  C  C10  1  0.76088500  0.75035100  0.46389600  1
  C  C11  1  0.60797500  0.42788100  0.42510100  1
  C  C12  1  0.72759800  0.57432800  0.23828600  1
  C  C13  1  0.78156300  0.44290100  0.75930000  1
  C  C14  1  0.42954300  0.07216900  0.42511200  1
  C  C15  1  0.59678500  0.07449800  0.76169800  1
  C  C16  1  0.57502300  0.25004700  0.19994600  1
  C  C17  1  0.89133600  0.57021500  0.57604000  1
  C  C18  1  0.05513400  0.57618600  0.90655600  1
  C  C19  1  0.94486600  0.42381400  0.09344400  1
  C  C20  1  0.74292300  0.25038500  0.53608200  1
  C  C21  1  0.09209200  0.74998600  0.13046900  1
  C  C22  1  0.22951100  0.92383200  0.90653700  1
  C  C23  1  0.07067800  0.92981500  0.57601300  1
  C  C24  1  0.77048900  0.07616800  0.09346300  1
  C  C25  1  0.90790800  0.25001400  0.86953100  1
  C  C26  1  0.21843700  0.55709900  0.24070000  1
  C  C27  1  0.25707700  0.74961500  0.46391800  1
  C  C28  1  0.40321500  0.92550200  0.23830200  1
  C  C29  1  0.42497700  0.74995300  0.80005400  1
  C  C30  1  0.10866400  0.42978500  0.42396000  1
  C  C31  1  0.39202500  0.57211900  0.57489900  1
  C  C32  1  0.57045700  0.92783100  0.57488800  1
  C  C33  1  0.74104100  0.92387500  0.90654400  1
  Ni  Ni34  1  0.16963200  0.24975000  0.82084700  1
  Ni  Ni35  1  0.35706500  0.24997900  0.14490500  1
  Ni  Ni36  1  0.64293500  0.75002100  0.85509500  1
  Ni  Ni37  1  0.66977400  0.25005800  0.82098100  1
  Ni  Ni38  1  0.83036800  0.75025000  0.17915300  1
  Ni  Ni39  1  0.50329000  0.25001200  0.48709900  1
  Ni  Ni40  1  0.17949400  0.74996700  0.85505600  1
  Ni  Ni41  1  0.99721700  0.75003500  0.51111400  1
  Ni  Ni42  1  0.82050600  0.25003300  0.14494400  1
  Ni  Ni43  1  0.00278300  0.24996500  0.48888600  1
  Ni  Ni44  1  0.33022600  0.74994200  0.17901900  1
  Ni  Ni45  1  0.49671000  0.74998800  0.51290100  1
  Cu  Cu46  1  0.99515100  0.04931300  0.11806500  1
  Cu  Cu47  1  0.97784300  0.10897500  0.30433400  1
  Cu  Cu48  1  0.33350600  0.06448400  0.79186300  1
  Cu  Cu49  1  0.32085700  0.11971700  0.96810500  1
  Cu  Cu50  1  0.35336700  0.43562900  0.45929100  1
  Cu  Cu51  1  0.15278300  0.12288200  0.63410700  1
  Cu  Cu52  1  0.16932300  0.06677000  0.45778200  1
  Cu  Cu53  1  0.47956100  0.56455600  0.20812800  1
  Cu  Cu54  1  0.55691100  0.61974700  0.03192300  1
  Cu  Cu55  1  0.52043900  0.43544400  0.79187200  1
  Cu  Cu56  1  0.44308900  0.38025300  0.96807700  1
  Cu  Cu57  1  0.28257200  0.38243600  0.63477000  1
  Cu  Cu58  1  0.64663300  0.56437100  0.54070900  1
  Cu  Cu59  1  0.68816100  0.44040500  0.12802600  1
  Cu  Cu60  1  0.00484900  0.95068700  0.88193500  1
  Cu  Cu61  1  0.02215700  0.89102500  0.69566600  1
  Cu  Cu62  1  0.48437600  0.11892000  0.30214100  1
  Cu  Cu63  1  0.49766500  0.05936200  0.12823000  1
  Cu  Cu64  1  0.84721800  0.87711800  0.36589300  1
  Cu  Cu65  1  0.83067700  0.93323000  0.54221800  1
  Cu  Cu66  1  0.80402600  0.54882600  0.88164200  1
  Cu  Cu67  1  0.71742800  0.61756400  0.36523000  1
  Cu  Cu68  1  0.88008000  0.60890000  0.69567000  1
  Cu  Cu69  1  0.61451700  0.38114900  0.30210100  1
  Cu  Cu70  1  0.65000800  0.11758700  0.63474300  1
  Cu  Cu71  1  0.81488300  0.11972400  0.96810100  1
  Cu  Cu72  1  0.78013100  0.37715300  0.63401800  1
  Cu  Cu73  1  0.85185800  0.43329700  0.45772700  1
  Cu  Cu74  1  0.66700600  0.06435500  0.45930400  1
  Cu  Cu75  1  0.16502000  0.93556800  0.20818100  1
  Cu  Cu76  1  0.04694600  0.61977800  0.03191600  1
  Cu  Cu77  1  0.83498000  0.06443200  0.79181900  1
  Cu  Cu78  1  0.98091100  0.56449800  0.20817700  1
  Cu  Cu79  1  0.95305400  0.38022200  0.96808400  1
  Cu  Cu80  1  0.01908900  0.43550200  0.79182300  1
  Cu  Cu81  1  0.18511700  0.88027600  0.03189900  1
  Cu  Cu82  1  0.11992000  0.39110000  0.30433000  1
  Cu  Cu83  1  0.51562400  0.88108000  0.69785900  1
  Cu  Cu84  1  0.14814200  0.56670300  0.54227300  1
  Cu  Cu85  1  0.33299400  0.93564500  0.54069600  1
  Cu  Cu86  1  0.19597400  0.45117400  0.11835800  1
  Cu  Cu87  1  0.50233500  0.94063800  0.87177000  1
  Cu  Cu88  1  0.38548300  0.61885100  0.69789900  1
  Cu  Cu89  1  0.31183900  0.55959500  0.87197400  1
  Cu  Cu90  1  0.34999200  0.88241300  0.36525700  1
  Cu  Cu91  1  0.21986900  0.62284700  0.36598200  1
  Cu  Cu92  1  0.67914300  0.88028300  0.03189500  1
  Cu  Cu93  1  0.66649400  0.93551600  0.20813700  1
