# generated using pymatgen
data_CuNiC4
_symmetry_space_group_name_H-M   'P 1'
_cell_length_a   6.74435900
_cell_length_b   10.97055400
_cell_length_c   13.08054400
_cell_angle_alpha   90.00000000
_cell_angle_beta   90.00000000
_cell_angle_gamma   90.00000000
_symmetry_Int_Tables_number   1
_chemical_formula_structural   CuNiC4
_chemical_formula_sum   'Cu8 Ni8 C32'
_cell_volume   967.82100844
_cell_formula_units_Z   8
loop_
 _symmetry_equiv_pos_site_id
 _symmetry_equiv_pos_as_xyz
  1  'x, y, z'
loop_
 _atom_site_type_symbol
 _atom_site_label
 _atom_site_symmetry_multiplicity
 _atom_site_fract_x
 _atom_site_fract_y
 _atom_site_fract_z
 _atom_site_occupancy
  C  C0  1  0.79449100  0.55453900  0.14134600  1
  C  C1  1  0.70550900  0.05453900  0.35865400  1
  C  C2  1  0.70550900  0.44546100  0.64134600  1
  C  C3  1  0.79449100  0.94546100  0.85865400  1
  C  C4  1  0.20550900  0.44546100  0.85865400  1
  C  C5  1  0.29449100  0.94546100  0.64134600  1
  C  C6  1  0.29449100  0.55453900  0.35865400  1
  C  C7  1  0.20550900  0.05453900  0.14134600  1
  C  C8  1  0.48187700  0.62613100  0.97572200  1
  C  C9  1  0.01812300  0.12613100  0.52427800  1
  C  C10  1  0.01812300  0.37386900  0.47572200  1
  C  C11  1  0.48187700  0.87386900  0.02427800  1
  C  C12  1  0.51812300  0.37386900  0.02427800  1
  C  C13  1  0.98187700  0.87386900  0.47572200  1
  C  C14  1  0.98187700  0.62613100  0.52427800  1
  C  C15  1  0.51812300  0.12613100  0.97572200  1
  Ni  Ni16  1  0.28560100  0.65362100  0.09592400  1
  Ni  Ni17  1  0.21439900  0.15362100  0.40407600  1
  Ni  Ni18  1  0.21439900  0.34637900  0.59592400  1
  Ni  Ni19  1  0.28560100  0.84637900  0.90407600  1
  Ni  Ni20  1  0.71439900  0.34637900  0.90407600  1
  Ni  Ni21  1  0.78560100  0.84637900  0.59592400  1
  Ni  Ni22  1  0.78560100  0.65362100  0.40407600  1
  Ni  Ni23  1  0.71439900  0.15362100  0.09592400  1
  C  C24  1  0.28491700  0.49815100  0.11698800  1
  C  C25  1  0.21508300  0.99815100  0.38301200  1
  C  C26  1  0.21508300  0.50184900  0.61698800  1
  C  C27  1  0.28491700  0.00184900  0.88301200  1
  C  C28  1  0.71508300  0.50184900  0.88301200  1
  C  C29  1  0.78491700  0.00184900  0.61698800  1
  C  C30  1  0.78491700  0.49815100  0.38301200  1
  C  C31  1  0.71508300  0.99815100  0.11698800  1
  C  C32  1  0.14853200  0.75273100  0.16465200  1
  C  C33  1  0.35146800  0.25273100  0.33534800  1
  C  C34  1  0.35146800  0.24726900  0.66465200  1
  C  C35  1  0.14853200  0.74726900  0.83534800  1
  C  C36  1  0.85146800  0.24726900  0.83534800  1
  C  C37  1  0.64853200  0.74726900  0.66465200  1
  C  C38  1  0.64853200  0.75273100  0.33534800  1
  C  C39  1  0.85146800  0.25273100  0.16465200  1
  Cu  Cu40  1  0.41051500  0.69137800  0.01911100  1
  Cu  Cu41  1  0.08948500  0.19137800  0.48088900  1
  Cu  Cu42  1  0.08948500  0.30862200  0.51911100  1
  Cu  Cu43  1  0.41051500  0.80862200  0.98088900  1
  Cu  Cu44  1  0.58948500  0.30862200  0.98088900  1
  Cu  Cu45  1  0.91051500  0.80862200  0.51911100  1
  Cu  Cu46  1  0.91051500  0.69137800  0.48088900  1
  Cu  Cu47  1  0.58948500  0.19137800  0.01911100  1
