# generated using pymatgen
data_Cu2Ni4C13
_symmetry_space_group_name_H-M   'P 1'
_cell_length_a   6.00673757
_cell_length_b   6.00673757
_cell_length_c   8.70984600
_cell_angle_alpha   90.00000000
_cell_angle_beta   90.00000000
_cell_angle_gamma   91.13507371
_symmetry_Int_Tables_number   1
_chemical_formula_structural   Cu2Ni4C13
_chemical_formula_sum   'Cu2 Ni4 C13'
_cell_volume   314.19738371
_cell_formula_units_Z   1
loop_
 _symmetry_equiv_pos_site_id
 _symmetry_equiv_pos_as_xyz
  1  'x, y, z'
loop_
 _atom_site_type_symbol
 _atom_site_label
 _atom_site_symmetry_multiplicity
 _atom_site_fract_x
 _atom_site_fract_y
 _atom_site_fract_z
 _atom_site_occupancy
  Ni  Ni0  1  0.02152500  0.47560100  0.27896000  1
  Ni  Ni1  1  0.02152500  0.47560100  0.72104000  1
  Ni  Ni2  1  0.52439900  0.97847500  0.27896000  1
  Ni  Ni3  1  0.52439900  0.97847500  0.72104000  1
  Cu  Cu4  1  0.51610200  0.48389800  0.50000000  1
  Cu  Cu5  1  0.97850600  0.02149400  0.00000000  1
  C  C6  1  0.50114800  0.49885200  0.00000000  1
  C  C7  1  0.02019100  0.97980900  0.50000000  1
  C  C8  1  0.24603100  0.75396800  0.50000000  1
  C  C9  1  0.78942200  0.21057800  0.50000000  1
  C  C10  1  0.78160200  0.75570500  0.50000000  1
  C  C11  1  0.24429500  0.21839800  0.50000000  1
  C  C12  1  0.02327600  0.97672400  0.27141700  1
  C  C13  1  0.02327600  0.97672400  0.72858300  1
  C  C14  1  0.49271200  0.50728800  0.77743900  1
  C  C15  1  0.49271200  0.50728800  0.22256100  1
  C  C16  1  0.71675900  0.28324100  0.00000000  1
  C  C17  1  0.59730000  0.80144300  0.00000000  1
  C  C18  1  0.19855700  0.40270000  0.00000000  1
