# generated using pymatgen
data_Cu16Ni4C7
_symmetry_space_group_name_H-M   'P 1'
_cell_length_a   5.13529900
_cell_length_b   15.50720600
_cell_length_c   8.59220098
_cell_angle_alpha   90.00000000
_cell_angle_beta   102.32832605
_cell_angle_gamma   90.00000000
_symmetry_Int_Tables_number   1
_chemical_formula_structural   Cu16Ni4C7
_chemical_formula_sum   'Cu32 Ni8 C14'
_cell_volume   668.45422252
_cell_formula_units_Z   2
loop_
 _symmetry_equiv_pos_site_id
 _symmetry_equiv_pos_as_xyz
  1  'x, y, z'
loop_
 _atom_site_type_symbol
 _atom_site_label
 _atom_site_symmetry_multiplicity
 _atom_site_fract_x
 _atom_site_fract_y
 _atom_site_fract_z
 _atom_site_occupancy
  C  C0  1  0.00000000  0.00000000  0.00000000  1
  C  C1  1  0.00000000  0.50000000  0.50000000  1
  C  C2  1  0.30291700  0.98062300  0.62823700  1
  C  C3  1  0.69708300  0.48062300  0.87176300  1
  C  C4  1  0.69708300  0.01937700  0.37176300  1
  C  C5  1  0.30291700  0.51937700  0.12823700  1
  C  C6  1  0.41220600  0.73725900  0.83652200  1
  C  C7  1  0.58779400  0.23725900  0.66347800  1
  C  C8  1  0.58779400  0.26274100  0.16347800  1
  C  C9  1  0.41220600  0.76274100  0.33652200  1
  C  C10  1  0.81138100  0.73947500  0.69195200  1
  C  C11  1  0.18861900  0.23947500  0.80804800  1
  C  C12  1  0.18861900  0.26052500  0.30804800  1
  C  C13  1  0.81138100  0.76052500  0.19195200  1
  Ni  Ni14  1  0.43257100  0.08794000  0.78223100  1
  Ni  Ni15  1  0.56742900  0.58794000  0.71776900  1
  Ni  Ni16  1  0.56742900  0.91206000  0.21776900  1
  Ni  Ni17  1  0.43257100  0.41206000  0.28223100  1
  Ni  Ni18  1  0.12358700  0.83744300  0.75527500  1
  Ni  Ni19  1  0.87641300  0.33744300  0.74472500  1
  Ni  Ni20  1  0.87641300  0.16255700  0.24472500  1
  Ni  Ni21  1  0.12358700  0.66255700  0.25527500  1
  Cu  Cu22  1  0.39930800  0.18132400  0.74581300  1
  Cu  Cu23  1  0.60069200  0.68132400  0.75418700  1
  Cu  Cu24  1  0.60069200  0.81867600  0.25418700  1
  Cu  Cu25  1  0.39930800  0.31867600  0.24581300  1
  Cu  Cu26  1  0.28674600  0.06219600  0.90331500  1
  Cu  Cu27  1  0.71325400  0.56219600  0.59668500  1
  Cu  Cu28  1  0.71325400  0.93780400  0.09668500  1
  Cu  Cu29  1  0.28674600  0.43780400  0.40331500  1
  Cu  Cu30  1  0.71443700  0.06326600  0.82296000  1
  Cu  Cu31  1  0.28556300  0.56326600  0.67704000  1
  Cu  Cu32  1  0.28556300  0.93673400  0.17704000  1
  Cu  Cu33  1  0.71443700  0.43673400  0.32296000  1
  Cu  Cu34  1  0.30387900  0.04576900  0.61864600  1
  Cu  Cu35  1  0.69612100  0.54576900  0.88135400  1
  Cu  Cu36  1  0.69612100  0.95423100  0.38135400  1
  Cu  Cu37  1  0.30387900  0.45423100  0.11864600  1
  Cu  Cu38  1  0.97224000  0.89243800  0.84009700  1
  Cu  Cu39  1  0.02776000  0.39243800  0.65990300  1
  Cu  Cu40  1  0.02776000  0.10756200  0.15990300  1
  Cu  Cu41  1  0.97224000  0.60756200  0.34009700  1
  Cu  Cu42  1  0.28768600  0.87837900  0.65940700  1
  Cu  Cu43  1  0.71231400  0.37837900  0.84059300  1
  Cu  Cu44  1  0.71231400  0.12162100  0.34059300  1
  Cu  Cu45  1  0.28768600  0.62162100  0.15940700  1
  Cu  Cu46  1  0.29382200  0.77875400  0.88399000  1
  Cu  Cu47  1  0.70617800  0.27875400  0.61601000  1
  Cu  Cu48  1  0.70617800  0.22124600  0.11601000  1
  Cu  Cu49  1  0.29382200  0.72124600  0.38399000  1
  Cu  Cu50  1  0.93399900  0.77706500  0.64048800  1
  Cu  Cu51  1  0.06600100  0.27706500  0.85951200  1
  Cu  Cu52  1  0.06600100  0.22293500  0.35951200  1
  Cu  Cu53  1  0.93399900  0.72293500  0.14048800  1
