# generated using pymatgen
data_CuNi3C8
_symmetry_space_group_name_H-M   'P 1'
_cell_length_a   3.36116228
_cell_length_b   3.36116228
_cell_length_c   41.19133100
_cell_angle_alpha   90.00000000
_cell_angle_beta   90.00000000
_cell_angle_gamma   120.00000548
_symmetry_Int_Tables_number   1
_chemical_formula_structural   CuNi3C8
_chemical_formula_sum   'Cu1 Ni3 C8'
_cell_volume   403.00960320
_cell_formula_units_Z   1
loop_
 _symmetry_equiv_pos_site_id
 _symmetry_equiv_pos_as_xyz
  1  'x, y, z'
loop_
 _atom_site_type_symbol
 _atom_site_label
 _atom_site_symmetry_multiplicity
 _atom_site_fract_x
 _atom_site_fract_y
 _atom_site_fract_z
 _atom_site_occupancy
  C  C0  1  0.33333300  0.66666700  0.33067500  1
  C  C1  1  0.66666700  0.33333300  0.04486700  1
  C  C2  1  0.66666700  0.33333300  0.13663400  1
  C  C3  1  0.33333300  0.66666700  0.23886300  1
  Ni  Ni4  1  0.33333300  0.66666700  0.09073900  1
  Ni  Ni5  1  0.33333300  0.66666700  0.46992100  1
  Ni  Ni6  1  0.66666700  0.33333300  0.28476200  1
  Cu  Cu7  1  0.66666700  0.33333300  0.65747300  1
  C  C8  1  0.33333300  0.66666700  0.69434200  1
  C  C9  1  0.66666700  0.33333300  0.43317400  1
  C  C10  1  0.66666700  0.33333300  0.50669400  1
  C  C11  1  0.33333300  0.66666700  0.62060400  1
