# generated using pymatgen
data_Cu3Ni2C13
_symmetry_space_group_name_H-M   'P 1'
_cell_length_a   5.76011464
_cell_length_b   5.76011464
_cell_length_c   18.89277909
_cell_angle_alpha   84.62882765
_cell_angle_beta   84.62882765
_cell_angle_gamma   59.33950642
_symmetry_Int_Tables_number   1
_chemical_formula_structural   Cu3Ni2C13
_chemical_formula_sum   'Cu6 Ni4 C26'
_cell_volume   536.07385472
_cell_formula_units_Z   2
loop_
 _symmetry_equiv_pos_site_id
 _symmetry_equiv_pos_as_xyz
  1  'x, y, z'
loop_
 _atom_site_type_symbol
 _atom_site_label
 _atom_site_symmetry_multiplicity
 _atom_site_fract_x
 _atom_site_fract_y
 _atom_site_fract_z
 _atom_site_occupancy
  Ni  Ni0  1  0.17762400  0.63343100  0.57738000  1
  Ni  Ni1  1  0.36656900  0.82237600  0.92262000  1
  Ni  Ni2  1  0.82237600  0.36656900  0.42262000  1
  Ni  Ni3  1  0.63343100  0.17762400  0.07738000  1
  Cu  Cu4  1  0.47360000  0.08984100  0.32773100  1
  Cu  Cu5  1  0.91015900  0.52640000  0.17226900  1
  Cu  Cu6  1  0.52640000  0.91015900  0.67226900  1
  Cu  Cu7  1  0.08984100  0.47360000  0.82773100  1
  Cu  Cu8  1  0.50000000  0.00000000  0.50000000  1
  Cu  Cu9  1  0.00000000  0.50000000  0.00000000  1
  C  C10  1  0.16134000  0.70297800  0.39868800  1
  C  C11  1  0.29702200  0.83866000  0.10131200  1
  C  C12  1  0.83866000  0.29702200  0.60131200  1
  C  C13  1  0.70297800  0.16134000  0.89868800  1
  C  C14  1  0.09562900  0.90437100  0.25000000  1
  C  C15  1  0.90437100  0.09562900  0.75000000  1
  C  C16  1  0.29730300  0.84865200  0.42312800  1
  C  C17  1  0.15134800  0.70269700  0.07687200  1
  C  C18  1  0.70269700  0.15134800  0.57687200  1
  C  C19  1  0.84865200  0.29730300  0.92312800  1
  C  C20  1  0.28989300  0.40797700  0.42660700  1
  C  C21  1  0.59202300  0.71010700  0.07339300  1
  C  C22  1  0.71010700  0.59202300  0.57339300  1
  C  C23  1  0.40797700  0.28989300  0.92660700  1
  C  C24  1  0.85276300  0.86226900  0.40634700  1
  C  C25  1  0.13773100  0.14723700  0.09365300  1
  C  C26  1  0.14723700  0.13773100  0.59365300  1
  C  C27  1  0.86226900  0.85276300  0.90634700  1
  C  C28  1  0.24129100  0.66834700  0.31126500  1
  C  C29  1  0.33165300  0.75870900  0.18873500  1
  C  C30  1  0.75870900  0.33165300  0.68873500  1
  C  C31  1  0.66834700  0.24129100  0.81126500  1
  C  C32  1  0.07827600  0.16275700  0.26918400  1
  C  C33  1  0.83724300  0.92172400  0.23081600  1
  C  C34  1  0.92172400  0.83724300  0.73081600  1
  C  C35  1  0.16275700  0.07827600  0.76918400  1
