# generated using pymatgen
data_Cu9Ni2C7
_symmetry_space_group_name_H-M   'P 1'
_cell_length_a   8.08577100
_cell_length_b   9.83472000
_cell_length_c   14.61249700
_cell_angle_alpha   90.00000000
_cell_angle_beta   90.00000000
_cell_angle_gamma   90.00000000
_symmetry_Int_Tables_number   1
_chemical_formula_structural   Cu9Ni2C7
_chemical_formula_sum   'Cu36 Ni8 C28'
_cell_volume   1162.00466664
_cell_formula_units_Z   4
loop_
 _symmetry_equiv_pos_site_id
 _symmetry_equiv_pos_as_xyz
  1  'x, y, z'
loop_
 _atom_site_type_symbol
 _atom_site_label
 _atom_site_symmetry_multiplicity
 _atom_site_fract_x
 _atom_site_fract_y
 _atom_site_fract_z
 _atom_site_occupancy
  C  C0  1  0.03329000  0.26524900  0.87301800  1
  C  C1  1  0.53329000  0.23475100  0.62698200  1
  C  C2  1  0.96671000  0.73475100  0.37301800  1
  C  C3  1  0.46671000  0.76524900  0.12698200  1
  C  C4  1  0.96671000  0.73475100  0.12698200  1
  C  C5  1  0.46671000  0.76524900  0.37301800  1
  C  C6  1  0.03329000  0.26524900  0.62698200  1
  C  C7  1  0.53329000  0.23475100  0.87301800  1
  C  C8  1  0.79627500  0.49891700  0.97761400  1
  C  C9  1  0.29627500  0.00108300  0.52238600  1
  C  C10  1  0.20372500  0.50108300  0.47761400  1
  C  C11  1  0.70372500  0.99891700  0.02238600  1
  C  C12  1  0.20372500  0.50108300  0.02238600  1
  C  C13  1  0.70372500  0.99891700  0.47761400  1
  C  C14  1  0.79627500  0.49891700  0.52238600  1
  C  C15  1  0.29627500  0.00108300  0.97761400  1
  C  C16  1  0.02815100  0.21239100  0.07810700  1
  C  C17  1  0.52815100  0.28760900  0.42189300  1
  C  C18  1  0.97184900  0.78760900  0.57810700  1
  C  C19  1  0.47184900  0.71239100  0.92189300  1
  C  C20  1  0.97184900  0.78760900  0.92189300  1
  C  C21  1  0.47184900  0.71239100  0.57810700  1
  C  C22  1  0.02815100  0.21239100  0.42189300  1
  C  C23  1  0.52815100  0.28760900  0.07810700  1
  C  C24  1  0.74341900  0.45782100  0.75000000  1
  C  C25  1  0.24341900  0.04217900  0.75000000  1
  C  C26  1  0.25658100  0.54217900  0.25000000  1
  C  C27  1  0.75658100  0.95782100  0.25000000  1
  Ni  Ni28  1  0.27010900  0.41315900  0.86954700  1
  Ni  Ni29  1  0.77010900  0.08684100  0.63045300  1
  Ni  Ni30  1  0.72989100  0.58684100  0.36954700  1
  Ni  Ni31  1  0.22989100  0.91315900  0.13045300  1
  Ni  Ni32  1  0.72989100  0.58684100  0.13045300  1
  Ni  Ni33  1  0.22989100  0.91315900  0.36954700  1
  Ni  Ni34  1  0.27010900  0.41315900  0.63045300  1
  Ni  Ni35  1  0.77010900  0.08684100  0.86954700  1
  Cu  Cu36  1  0.83493800  0.14600700  0.09129400  1
  Cu  Cu37  1  0.33493800  0.35399300  0.40870600  1
  Cu  Cu38  1  0.16506200  0.85399300  0.59129400  1
  Cu  Cu39  1  0.66506200  0.64600700  0.90870600  1
  Cu  Cu40  1  0.16506200  0.85399300  0.90870600  1
  Cu  Cu41  1  0.66506200  0.64600700  0.59129400  1
  Cu  Cu42  1  0.83493800  0.14600700  0.40870600  1
  Cu  Cu43  1  0.33493800  0.35399300  0.09129400  1
  Cu  Cu44  1  0.86470100  0.41289200  0.84339300  1
  Cu  Cu45  1  0.36470100  0.08710800  0.65660700  1
  Cu  Cu46  1  0.13529900  0.58710800  0.34339300  1
  Cu  Cu47  1  0.63529900  0.91289200  0.15660700  1
  Cu  Cu48  1  0.13529900  0.58710800  0.15660700  1
  Cu  Cu49  1  0.63529900  0.91289200  0.34339300  1
  Cu  Cu50  1  0.86470100  0.41289200  0.65660700  1
  Cu  Cu51  1  0.36470100  0.08710800  0.84339300  1
  Cu  Cu52  1  0.59489700  0.32686300  0.75000000  1
  Cu  Cu53  1  0.09489700  0.17313700  0.75000000  1
  Cu  Cu54  1  0.40510300  0.67313700  0.25000000  1
  Cu  Cu55  1  0.90510300  0.82686300  0.25000000  1
  Cu  Cu56  1  0.99146500  0.36775000  0.01995600  1
  Cu  Cu57  1  0.49146500  0.13225000  0.48004400  1
  Cu  Cu58  1  0.00853500  0.63225000  0.51995600  1
  Cu  Cu59  1  0.50853500  0.86775000  0.98004400  1
  Cu  Cu60  1  0.00853500  0.63225000  0.98004400  1
  Cu  Cu61  1  0.50853500  0.86775000  0.51995600  1
  Cu  Cu62  1  0.99146500  0.36775000  0.48004400  1
  Cu  Cu63  1  0.49146500  0.13225000  0.01995600  1
  Cu  Cu64  1  0.10381900  0.13579800  0.97770000  1
  Cu  Cu65  1  0.60381900  0.36420200  0.52230000  1
  Cu  Cu66  1  0.89618100  0.86420200  0.47770000  1
  Cu  Cu67  1  0.39618100  0.63579800  0.02230000  1
  Cu  Cu68  1  0.89618100  0.86420200  0.02230000  1
  Cu  Cu69  1  0.39618100  0.63579800  0.47770000  1
  Cu  Cu70  1  0.10381900  0.13579800  0.52230000  1
  Cu  Cu71  1  0.60381900  0.36420200  0.97770000  1
