# generated using pymatgen
data_Cu3NiC40
_symmetry_space_group_name_H-M   'P 1'
_cell_length_a   4.85989900
_cell_length_b   10.82047526
_cell_length_c   10.93805012
_cell_angle_alpha   99.30039445
_cell_angle_beta   102.37004343
_cell_angle_gamma   101.78386697
_symmetry_Int_Tables_number   1
_chemical_formula_structural   Cu3NiC40
_chemical_formula_sum   'Cu3 Ni1 C40'
_cell_volume   537.16460739
_cell_formula_units_Z   1
loop_
 _symmetry_equiv_pos_site_id
 _symmetry_equiv_pos_as_xyz
  1  'x, y, z'
loop_
 _atom_site_type_symbol
 _atom_site_label
 _atom_site_symmetry_multiplicity
 _atom_site_fract_x
 _atom_site_fract_y
 _atom_site_fract_z
 _atom_site_occupancy
  C  C0  1  0.17638100  0.76948200  0.90627400  1
  C  C1  1  0.17433100  0.26845200  0.40643700  1
  C  C2  1  0.82326300  0.34207300  0.98034600  1
  C  C3  1  0.82333900  0.84340800  0.48146800  1
  Ni  Ni4  1  0.78427500  0.13404100  0.13459100  1
  Cu  Cu5  1  0.21484100  0.11348700  0.61424200  1
  Cu  Cu6  1  0.21586000  0.61394900  0.11476700  1
  Cu  Cu7  1  0.78388700  0.63568300  0.63615000  1
  C  C8  1  0.40045900  0.85142200  0.67135600  1
  C  C9  1  0.21261200  0.43480000  0.65090700  1
  C  C10  1  0.21301200  0.93669600  0.15155500  1
  C  C11  1  0.59996600  0.57939300  0.89862300  1
  C  C12  1  0.40102800  0.34912500  0.17169700  1
  C  C13  1  0.79019100  0.10013500  0.81430700  1
  C  C14  1  0.78859500  0.59908600  0.31530900  1
  C  C15  1  0.60132200  0.08114100  0.40022700  1
  C  C16  1  0.18800700  0.75994200  0.72226900  1
  C  C17  1  0.24571400  0.92377700  0.58089600  1
  C  C18  1  0.39638400  0.64168600  0.96380100  1
  C  C19  1  0.05099700  0.08635600  0.76238400  1
  C  C20  1  0.05110800  0.58747600  0.26346400  1
  C  C21  1  0.13161000  0.29063900  0.59426100  1
  C  C22  1  0.12854700  0.79160000  0.09517600  1
  C  C23  1  0.59594500  0.95363800  0.79981800  1
  C  C24  1  0.40580800  0.45002700  0.79649800  1
  C  C25  1  0.40438800  0.95164500  0.29615000  1
  C  C26  1  0.39692900  0.50896700  0.57534300  1
  C  C27  1  0.60320600  0.78616100  0.60858100  1
  C  C28  1  0.18897600  0.25890400  0.22318000  1
  C  C29  1  0.25022200  0.42354400  0.08147600  1
  C  C30  1  0.75314900  0.66919100  0.82602400  1
  C  C31  1  0.81354400  0.52754100  0.99001500  1
  C  C32  1  0.39342000  0.14092300  0.46421300  1
  C  C33  1  0.60175000  0.17577400  0.74020700  1
  C  C34  1  0.60170800  0.67551600  0.24107600  1
  C  C35  1  0.59638700  0.45256200  0.29970000  1
  C  C36  1  0.87324700  0.15821700  0.95703400  1
  C  C37  1  0.86823900  0.65563400  0.45854500  1
  C  C38  1  0.39604200  0.00888200  0.07470600  1
  C  C39  1  0.94913100  0.48640800  0.66279300  1
  C  C40  1  0.94246100  0.98640500  0.16012600  1
  C  C41  1  0.60376300  0.28306800  0.10833200  1
  C  C42  1  0.75490200  0.17237100  0.33012000  1
  C  C43  1  0.81105100  0.02635600  0.48997000  1
