# generated using pymatgen
data_Cu2Ni9C13
_symmetry_space_group_name_H-M   'P 1'
_cell_length_a   5.55984700
_cell_length_b   9.76487400
_cell_length_c   18.36930800
_cell_angle_alpha   90.00000000
_cell_angle_beta   90.00000000
_cell_angle_gamma   90.00000000
_symmetry_Int_Tables_number   1
_chemical_formula_structural   Cu2Ni9C13
_chemical_formula_sum   'Cu8 Ni36 C52'
_cell_volume   997.29187395
_cell_formula_units_Z   4
loop_
 _symmetry_equiv_pos_site_id
 _symmetry_equiv_pos_as_xyz
  1  'x, y, z'
loop_
 _atom_site_type_symbol
 _atom_site_label
 _atom_site_symmetry_multiplicity
 _atom_site_fract_x
 _atom_site_fract_y
 _atom_site_fract_z
 _atom_site_occupancy
  C  C0  1  0.50000000  0.50000000  0.00000000  1
  C  C1  1  0.00000000  0.00000000  0.50000000  1
  C  C2  1  0.50000000  0.50000000  0.50000000  1
  C  C3  1  0.00000000  0.00000000  0.00000000  1
  Ni  Ni4  1  0.93585100  0.99467100  0.25000000  1
  Ni  Ni5  1  0.56414900  0.49467100  0.25000000  1
  Ni  Ni6  1  0.06414900  0.00532900  0.75000000  1
  Ni  Ni7  1  0.43585100  0.50532900  0.75000000  1
  Ni  Ni8  1  0.66393400  0.91310800  0.09730000  1
  Ni  Ni9  1  0.83606600  0.41310800  0.40270000  1
  Ni  Ni10  1  0.33606600  0.08689200  0.59730000  1
  Ni  Ni11  1  0.16393400  0.58689200  0.90270000  1
  Ni  Ni12  1  0.33606600  0.08689200  0.90270000  1
  Ni  Ni13  1  0.16393400  0.58689200  0.59730000  1
  Ni  Ni14  1  0.66393400  0.91310800  0.40270000  1
  Ni  Ni15  1  0.83606600  0.41310800  0.09730000  1
  Ni  Ni16  1  0.94696600  0.83098100  0.20499500  1
  Ni  Ni17  1  0.55303400  0.33098100  0.29500500  1
  Ni  Ni18  1  0.05303400  0.16901900  0.70499500  1
  Ni  Ni19  1  0.44696600  0.66901900  0.79500500  1
  Ni  Ni20  1  0.05303400  0.16901900  0.79500500  1
  Ni  Ni21  1  0.44696600  0.66901900  0.70499500  1
  Ni  Ni22  1  0.94696600  0.83098100  0.29500500  1
  Ni  Ni23  1  0.55303400  0.33098100  0.20499500  1
  Ni  Ni24  1  0.68460600  0.07474500  0.10264200  1
  Ni  Ni25  1  0.81539400  0.57474500  0.39735800  1
  Ni  Ni26  1  0.31539400  0.92525500  0.60264200  1
  Ni  Ni27  1  0.18460600  0.42525500  0.89735800  1
  Ni  Ni28  1  0.31539400  0.92525500  0.89735800  1
  Ni  Ni29  1  0.18460600  0.42525500  0.60264200  1
  Ni  Ni30  1  0.68460600  0.07474500  0.39735800  1
  Ni  Ni31  1  0.81539400  0.57474500  0.10264200  1
  Ni  Ni32  1  0.99749200  0.18676500  0.20631000  1
  Ni  Ni33  1  0.50250800  0.68676500  0.29369000  1
  Ni  Ni34  1  0.00250800  0.81323500  0.70631000  1
  Ni  Ni35  1  0.49749200  0.31323500  0.79369000  1
  Ni  Ni36  1  0.00250800  0.81323500  0.79369000  1
  Ni  Ni37  1  0.49749200  0.31323500  0.70631000  1
  Ni  Ni38  1  0.99749200  0.18676500  0.29369000  1
  Ni  Ni39  1  0.50250800  0.68676500  0.20631000  1
  Cu  Cu40  1  0.21198000  0.73615700  0.08870300  1
  Cu  Cu41  1  0.28802000  0.23615700  0.41129700  1
  Cu  Cu42  1  0.78802000  0.26384300  0.58870300  1
  Cu  Cu43  1  0.71198000  0.76384300  0.91129700  1
  Cu  Cu44  1  0.78802000  0.26384300  0.91129700  1
  Cu  Cu45  1  0.71198000  0.76384300  0.58870300  1
  Cu  Cu46  1  0.21198000  0.73615700  0.41129700  1
  Cu  Cu47  1  0.28802000  0.23615700  0.08870300  1
  C  C48  1  0.95084600  0.13359200  0.25000000  1
  C  C49  1  0.54915400  0.63359200  0.25000000  1
  C  C50  1  0.04915400  0.86640800  0.75000000  1
  C  C51  1  0.45084600  0.36640800  0.75000000  1
  C  C52  1  0.16419400  0.82368600  0.02298400  1
  C  C53  1  0.33580600  0.32368600  0.47701600  1
  C  C54  1  0.83580600  0.17631400  0.52298400  1
  C  C55  1  0.66419400  0.67631400  0.97701600  1
  C  C56  1  0.83580600  0.17631400  0.97701600  1
  C  C57  1  0.66419400  0.67631400  0.52298400  1
  C  C58  1  0.16419400  0.82368600  0.47701600  1
  C  C59  1  0.33580600  0.32368600  0.02298400  1
  C  C60  1  0.77771500  0.99040000  0.09196000  1
  C  C61  1  0.72228500  0.49040000  0.40804000  1
  C  C62  1  0.22228500  0.00960000  0.59196000  1
  C  C63  1  0.27771500  0.50960000  0.90804000  1
  C  C64  1  0.22228500  0.00960000  0.90804000  1
  C  C65  1  0.27771500  0.50960000  0.59196000  1
  C  C66  1  0.77771500  0.99040000  0.40804000  1
  C  C67  1  0.72228500  0.49040000  0.09196000  1
  C  C68  1  0.42390600  0.78746600  0.12842000  1
  C  C69  1  0.07609400  0.28746600  0.37158000  1
  C  C70  1  0.57609400  0.21253400  0.62842000  1
  C  C71  1  0.92390600  0.71253400  0.87158000  1
  C  C72  1  0.57609400  0.21253400  0.87158000  1
  C  C73  1  0.92390600  0.71253400  0.62842000  1
  C  C74  1  0.42390600  0.78746600  0.37158000  1
  C  C75  1  0.07609400  0.28746600  0.12842000  1
  C  C76  1  0.25322100  0.59349200  0.06081800  1
  C  C77  1  0.24677900  0.09349200  0.43918200  1
  C  C78  1  0.74677900  0.40650800  0.56081800  1
  C  C79  1  0.75322100  0.90650800  0.93918200  1
  C  C80  1  0.74677900  0.40650800  0.93918200  1
  C  C81  1  0.75322100  0.90650800  0.56081800  1
  C  C82  1  0.25322100  0.59349200  0.43918200  1
  C  C83  1  0.24677900  0.09349200  0.06081800  1
  C  C84  1  0.99548900  0.72807600  0.13558800  1
  C  C85  1  0.50451100  0.22807600  0.36441200  1
  C  C86  1  0.00451100  0.27192400  0.63558800  1
  C  C87  1  0.49548900  0.77192400  0.86441200  1
  C  C88  1  0.00451100  0.27192400  0.86441200  1
  C  C89  1  0.49548900  0.77192400  0.63558800  1
  C  C90  1  0.99548900  0.72807600  0.36441200  1
  C  C91  1  0.50451100  0.22807600  0.13558800  1
  C  C92  1  0.90084200  0.88385300  0.25000000  1
  C  C93  1  0.59915800  0.38385300  0.25000000  1
  C  C94  1  0.09915800  0.11614700  0.75000000  1
  C  C95  1  0.40084200  0.61614700  0.75000000  1
