# generated using pymatgen
data_Cu2NiC12
_symmetry_space_group_name_H-M   'P 1'
_cell_length_a   7.36818600
_cell_length_b   8.27311400
_cell_length_c   13.68754711
_cell_angle_alpha   73.46819023
_cell_angle_beta   90.00000000
_cell_angle_gamma   90.00000000
_symmetry_Int_Tables_number   1
_chemical_formula_structural   Cu2NiC12
_chemical_formula_sum   'Cu8 Ni4 C48'
_cell_volume   799.87235396
_cell_formula_units_Z   4
loop_
 _symmetry_equiv_pos_site_id
 _symmetry_equiv_pos_as_xyz
  1  'x, y, z'
loop_
 _atom_site_type_symbol
 _atom_site_label
 _atom_site_symmetry_multiplicity
 _atom_site_fract_x
 _atom_site_fract_y
 _atom_site_fract_z
 _atom_site_occupancy
  C  C0  1  0.66564900  0.86821400  0.42249300  1
  C  C1  1  0.83435100  0.86821400  0.92249300  1
  C  C2  1  0.33435100  0.13178600  0.57750700  1
  C  C3  1  0.16564900  0.13178600  0.07750700  1
  C  C4  1  0.67020800  0.32827400  0.94508900  1
  C  C5  1  0.82979200  0.32827400  0.44508900  1
  C  C6  1  0.32979200  0.67172600  0.05491100  1
  C  C7  1  0.17020800  0.67172600  0.55491100  1
  Ni  Ni8  1  0.50276200  0.26908000  0.21166800  1
  Ni  Ni9  1  0.99723800  0.26908000  0.71166800  1
  Ni  Ni10  1  0.49723800  0.73092000  0.78833200  1
  Ni  Ni11  1  0.00276200  0.73092000  0.28833200  1
  Cu  Cu12  1  0.69747000  0.96049100  0.12996300  1
  Cu  Cu13  1  0.80253000  0.96049100  0.62996300  1
  Cu  Cu14  1  0.30253000  0.03950900  0.87003700  1
  Cu  Cu15  1  0.19747000  0.03950900  0.37003700  1
  Cu  Cu16  1  0.60505300  0.48297100  0.65453800  1
  Cu  Cu17  1  0.89494700  0.48297100  0.15453800  1
  Cu  Cu18  1  0.39494700  0.51702900  0.34546200  1
  Cu  Cu19  1  0.10505300  0.51702900  0.84546200  1
  C  C20  1  0.56019900  0.09687200  0.14213000  1
  C  C21  1  0.93980100  0.09687200  0.64213000  1
  C  C22  1  0.43980100  0.90312800  0.85787000  1
  C  C23  1  0.06019900  0.90312800  0.35787000  1
  C  C24  1  0.83961400  0.05399300  0.04998200  1
  C  C25  1  0.66038600  0.05399300  0.54998200  1
  C  C26  1  0.16038600  0.94600700  0.95001800  1
  C  C27  1  0.33961400  0.94600700  0.45001800  1
  C  C28  1  0.99779200  0.31375900  0.17189700  1
  C  C29  1  0.50220800  0.31375900  0.67189700  1
  C  C30  1  0.00220800  0.68624100  0.82810300  1
  C  C31  1  0.49779200  0.68624100  0.32810300  1
  C  C32  1  0.52895400  0.62417800  0.56722300  1
  C  C33  1  0.97104600  0.62417800  0.06722300  1
  C  C34  1  0.47104600  0.37582200  0.43277700  1
  C  C35  1  0.02895400  0.37582200  0.93277700  1
  C  C36  1  0.79305200  0.87952300  0.23436200  1
  C  C37  1  0.70694800  0.87952300  0.73436200  1
  C  C38  1  0.20694800  0.12047700  0.76563800  1
  C  C39  1  0.29305200  0.12047700  0.26563800  1
  C  C40  1  0.60727100  0.53456300  0.75586200  1
  C  C41  1  0.89272900  0.53456300  0.25586200  1
  C  C42  1  0.39272900  0.46543700  0.24413800  1
  C  C43  1  0.10727100  0.46543700  0.74413800  1
  C  C44  1  0.10046600  0.16799800  0.41277900  1
  C  C45  1  0.39953400  0.16799800  0.91277900  1
  C  C46  1  0.89953400  0.83200200  0.58722100  1
  C  C47  1  0.60046600  0.83200200  0.08722100  1
  C  C48  1  0.70100600  0.42617100  0.13036600  1
  C  C49  1  0.79899400  0.42617100  0.63036600  1
  C  C50  1  0.29899400  0.57382900  0.86963400  1
  C  C51  1  0.20100600  0.57382900  0.36963400  1
  C  C52  1  0.87617300  0.63372700  0.42095700  1
  C  C53  1  0.62382700  0.63372700  0.92095700  1
  C  C54  1  0.12382700  0.36627300  0.57904300  1
  C  C55  1  0.37617300  0.36627300  0.07904300  1
  C  C56  1  0.66364000  0.18410300  0.32300100  1
  C  C57  1  0.83636000  0.18410300  0.82300100  1
  C  C58  1  0.33636000  0.81589700  0.67699900  1
  C  C59  1  0.16364000  0.81589700  0.17699900  1
