# generated using pymatgen
data_Cu2Ni3C4
_symmetry_space_group_name_H-M   'P 1'
_cell_length_a   7.87511103
_cell_length_b   10.58687029
_cell_length_c   6.97340787
_cell_angle_alpha   90.00000168
_cell_angle_beta   91.47190007
_cell_angle_gamma   132.23498292
_symmetry_Int_Tables_number   1
_chemical_formula_structural   Cu2Ni3C4
_chemical_formula_sum   'Cu4 Ni6 C8'
_cell_volume   430.20049654
_cell_formula_units_Z   2
loop_
 _symmetry_equiv_pos_site_id
 _symmetry_equiv_pos_as_xyz
  1  'x, y, z'
loop_
 _atom_site_type_symbol
 _atom_site_label
 _atom_site_symmetry_multiplicity
 _atom_site_fract_x
 _atom_site_fract_y
 _atom_site_fract_z
 _atom_site_occupancy
  Ni  Ni0  1  0.22149700  0.91752700  0.08486100  1
  Ni  Ni1  1  0.77850300  0.69602900  0.41513900  1
  Ni  Ni2  1  0.77850300  0.08247300  0.91513900  1
  Ni  Ni3  1  0.22149700  0.30397100  0.58486100  1
  Ni  Ni4  1  0.00000000  0.57360500  0.75000000  1
  Ni  Ni5  1  0.00000000  0.42639500  0.25000000  1
  Cu  Cu6  1  0.51195000  0.15026900  0.57819600  1
  Cu  Cu7  1  0.48805000  0.63831900  0.92180400  1
  Cu  Cu8  1  0.48805000  0.84973100  0.42180400  1
  Cu  Cu9  1  0.51195000  0.36168100  0.07819600  1
  C  C10  1  0.22321400  0.86345100  0.49372600  1
  C  C11  1  0.77678600  0.64023700  0.00627400  1
  C  C12  1  0.77678600  0.13654900  0.50627400  1
  C  C13  1  0.22321400  0.35976300  0.99372600  1
  C  C14  1  0.59867600  0.22817100  0.90065900  1
  C  C15  1  0.40132400  0.62949500  0.59934100  1
  C  C16  1  0.40132400  0.77182900  0.09934100  1
  C  C17  1  0.59867600  0.37050500  0.40065900  1
