# generated using pymatgen
data_Cu27Ni19C3
_symmetry_space_group_name_H-M   'P 1'
_cell_length_a   16.12647634
_cell_length_b   16.12647634
_cell_length_c   16.12647607
_cell_angle_alpha   113.93674120
_cell_angle_beta   113.93674120
_cell_angle_gamma   113.93673584
_symmetry_Int_Tables_number   1
_chemical_formula_structural   Cu27Ni19C3
_chemical_formula_sum   'Cu54 Ni38 C6'
_cell_volume   2559.92125725
_cell_formula_units_Z   2
loop_
 _symmetry_equiv_pos_site_id
 _symmetry_equiv_pos_as_xyz
  1  'x, y, z'
loop_
 _atom_site_type_symbol
 _atom_site_label
 _atom_site_symmetry_multiplicity
 _atom_site_fract_x
 _atom_site_fract_y
 _atom_site_fract_z
 _atom_site_occupancy
  Ni  Ni0  1  0.36941900  0.88414600  0.49429200  1
  Ni  Ni1  1  0.70443400  0.22154500  0.83071600  1
  Ni  Ni2  1  0.03955400  0.55634600  0.16486500  1
  Ni  Ni3  1  0.22154500  0.83071600  0.70443400  1
  Ni  Ni4  1  0.55634600  0.16486500  0.03955400  1
  Ni  Ni5  1  0.88414600  0.49429200  0.36941900  1
  Ni  Ni6  1  0.16486500  0.03955400  0.55634600  1
  Ni  Ni7  1  0.49429200  0.36941900  0.88414600  1
  Ni  Ni8  1  0.83071600  0.70443400  0.22154500  1
  Ni  Ni9  1  0.96813500  0.45249700  0.84226100  1
  Ni  Ni10  1  0.29765200  0.78182600  0.17318200  1
  Ni  Ni11  1  0.63138600  0.11374600  0.50505300  1
  Ni  Ni12  1  0.11374600  0.50505300  0.63138600  1
  Ni  Ni13  1  0.45249700  0.84226100  0.96813500  1
  Ni  Ni14  1  0.78182600  0.17318200  0.29765200  1
  Ni  Ni15  1  0.17318200  0.29765200  0.78182600  1
  Ni  Ni16  1  0.50505300  0.63138600  0.11374600  1
  Ni  Ni17  1  0.84226100  0.96813500  0.45249700  1
  Ni  Ni18  1  0.15452300  0.15452300  0.15452300  1
  Ni  Ni19  1  0.64939300  0.64939300  0.64939300  1
  Ni  Ni20  1  0.69403800  0.93747300  0.64252900  1
  Ni  Ni21  1  0.35688500  0.59139600  0.30048400  1
  Ni  Ni22  1  0.01539700  0.26171400  0.96678900  1
  Ni  Ni23  1  0.59139600  0.30048400  0.35688500  1
  Ni  Ni24  1  0.26171400  0.96678900  0.01539700  1
  Ni  Ni25  1  0.93747300  0.64252900  0.69403800  1
  Ni  Ni26  1  0.96678900  0.01539700  0.26171400  1
  Ni  Ni27  1  0.64252900  0.69403800  0.93747300  1
  Ni  Ni28  1  0.30048400  0.35688500  0.59139600  1
  Ni  Ni29  1  0.97396400  0.73962300  0.03054300  1
  Ni  Ni30  1  0.64662100  0.40102800  0.69552800  1
  Ni  Ni31  1  0.32080500  0.07664900  0.37140900  1
  Ni  Ni32  1  0.07664900  0.37140900  0.32080500  1
  Ni  Ni33  1  0.73962300  0.03054300  0.97396400  1
  Ni  Ni34  1  0.40102800  0.69552800  0.64662100  1
  Ni  Ni35  1  0.69552800  0.64662100  0.40102800  1
  Ni  Ni36  1  0.37140900  0.32080500  0.07664900  1
  Ni  Ni37  1  0.03054300  0.97396400  0.73962300  1
  Cu  Cu38  1  0.23936500  0.63622900  0.37424600  1
  Cu  Cu39  1  0.57249100  0.97317200  0.70861000  1
  Cu  Cu40  1  0.90567000  0.30741700  0.04351200  1
  Cu  Cu41  1  0.97317200  0.70861000  0.57249100  1
  Cu  Cu42  1  0.30741700  0.04351200  0.90567000  1
  Cu  Cu43  1  0.63622900  0.37424600  0.23936500  1
  Cu  Cu44  1  0.04351200  0.90567000  0.30741700  1
  Cu  Cu45  1  0.37424600  0.23936500  0.63622900  1
  Cu  Cu46  1  0.70861000  0.57249100  0.97317200  1
  Cu  Cu47  1  0.09389100  0.69700700  0.95918800  1
  Cu  Cu48  1  0.43125000  0.03045500  0.29451600  1
  Cu  Cu49  1  0.76542600  0.36343100  0.62781500  1
  Cu  Cu50  1  0.36343100  0.62781500  0.76542600  1
  Cu  Cu51  1  0.69700700  0.95918800  0.09389100  1
  Cu  Cu52  1  0.03045500  0.29451600  0.43125000  1
  Cu  Cu53  1  0.29451600  0.43125000  0.03045500  1
  Cu  Cu54  1  0.62781500  0.76542600  0.36343100  1
  Cu  Cu55  1  0.95918800  0.09389100  0.69700700  1
  Cu  Cu56  1  0.14580100  0.53330900  0.08087100  1
  Cu  Cu57  1  0.47631500  0.86399900  0.41047100  1
  Cu  Cu58  1  0.81057200  0.19875000  0.74618800  1
  Cu  Cu59  1  0.19875000  0.74618800  0.81057200  1
  Cu  Cu60  1  0.53330900  0.08087100  0.14580100  1
  Cu  Cu61  1  0.86399900  0.41047100  0.47631500  1
  Cu  Cu62  1  0.41047100  0.47631500  0.86399900  1
  Cu  Cu63  1  0.74618800  0.81057200  0.19875000  1
  Cu  Cu64  1  0.08087100  0.14580100  0.53330900  1
  Cu  Cu65  1  0.19103700  0.80448500  0.25651300  1
  Cu  Cu66  1  0.52514500  0.13641000  0.58964100  1
  Cu  Cu67  1  0.85992600  0.47130700  0.92478600  1
  Cu  Cu68  1  0.13641000  0.58964100  0.52514500  1
  Cu  Cu69  1  0.47130700  0.92478600  0.85992600  1
  Cu  Cu70  1  0.80448500  0.25651300  0.19103700  1
  Cu  Cu71  1  0.92478600  0.85992600  0.47130700  1
  Cu  Cu72  1  0.25651300  0.19103700  0.80448500  1
  Cu  Cu73  1  0.58964100  0.52514500  0.13641000  1
  Cu  Cu74  1  0.51610600  0.70481000  0.53944200  1
  Cu  Cu75  1  0.85148400  0.03577700  0.87212000  1
  Cu  Cu76  1  0.18090200  0.36137100  0.20194300  1
  Cu  Cu77  1  0.03577700  0.87212000  0.85148400  1
  Cu  Cu78  1  0.36137100  0.20194300  0.18090200  1
  Cu  Cu79  1  0.70481000  0.53944200  0.51610600  1
  Cu  Cu80  1  0.20194300  0.18090200  0.36137100  1
  Cu  Cu81  1  0.53944200  0.51610600  0.70481000  1
  Cu  Cu82  1  0.87212000  0.85148400  0.03577700  1
  Cu  Cu83  1  0.81498000  0.63411200  0.79307000  1
  Cu  Cu84  1  0.15554600  0.96839000  0.13322900  1
  Cu  Cu85  1  0.48805400  0.30364400  0.46717600  1
  Cu  Cu86  1  0.30364400  0.46717600  0.48805400  1
  Cu  Cu87  1  0.63411200  0.79307000  0.81498000  1
  Cu  Cu88  1  0.96839000  0.13322900  0.15554600  1
  Cu  Cu89  1  0.13322900  0.15554600  0.96839000  1
  Cu  Cu90  1  0.46717600  0.48805400  0.30364400  1
  Cu  Cu91  1  0.79307000  0.81498000  0.63411200  1
  C  C92  1  0.25213600  0.58499500  0.91876600  1
  C  C93  1  0.58499500  0.91876600  0.25213600  1
  C  C94  1  0.91876600  0.25213600  0.58499500  1
  C  C95  1  0.08681300  0.75336300  0.42021900  1
  C  C96  1  0.42021900  0.08681300  0.75336300  1
  C  C97  1  0.75336300  0.42021900  0.08681300  1
