# generated using pymatgen
data_Cu(NiC3)2
_symmetry_space_group_name_H-M   'P 1'
_cell_length_a   4.44434699
_cell_length_b   7.21127198
_cell_length_c   23.37502999
_cell_angle_alpha   89.56541544
_cell_angle_beta   90.00000000
_cell_angle_gamma   90.00000000
_symmetry_Int_Tables_number   1
_chemical_formula_structural   Cu(NiC3)2
_chemical_formula_sum   'Cu4 Ni8 C24'
_cell_volume   749.13401773
_cell_formula_units_Z   4
loop_
 _symmetry_equiv_pos_site_id
 _symmetry_equiv_pos_as_xyz
  1  'x, y, z'
loop_
 _atom_site_type_symbol
 _atom_site_label
 _atom_site_symmetry_multiplicity
 _atom_site_fract_x
 _atom_site_fract_y
 _atom_site_fract_z
 _atom_site_occupancy
  C  C0  1  0.75000000  0.46953270  0.06026559  1
  C  C1  1  0.75000000  0.46844786  0.39328039  1
  C  C2  1  0.75000000  0.46917230  0.72663646  1
  C  C3  1  0.75000000  0.96856409  0.10669604  1
  C  C4  1  0.75000000  0.96689218  0.44001195  1
  C  C5  1  0.75000000  0.96772211  0.77375464  1
  C  C6  1  0.25000000  0.52803957  0.27436131  1
  C  C7  1  0.25000000  0.52763288  0.60772554  1
  C  C8  1  0.25000000  0.52745707  0.94088051  1
  C  C9  1  0.25000000  0.02858363  0.22603369  1
  C  C10  1  0.25000000  0.03222100  0.55956328  1
  C  C11  1  0.25000000  0.03187708  0.89260259  1
  C  C12  1  0.75000000  0.35239183  0.19039472  1
  C  C13  1  0.75000000  0.34992180  0.52315300  1
  C  C14  1  0.75000000  0.34947858  0.85641249  1
  C  C15  1  0.75000000  0.85264856  0.30960904  1
  C  C16  1  0.75000000  0.85436866  0.64359835  1
  C  C17  1  0.75000000  0.85428668  0.97654290  1
  C  C18  1  0.25000000  0.64915059  0.14491148  1
  C  C19  1  0.25000000  0.64747744  0.47775845  1
  C  C20  1  0.25000000  0.64839021  0.81098780  1
  C  C21  1  0.25000000  0.14972268  0.02194413  1
  C  C22  1  0.25000000  0.14916855  0.35524520  1
  C  C23  1  0.25000000  0.14918819  0.68897456  1
  Ni  Ni24  1  0.75000000  0.71325476  0.53700456  1
  Ni  Ni25  1  0.75000000  0.71331929  0.87022388  1
  Ni  Ni26  1  0.25000000  0.78504291  0.03700678  1
  Ni  Ni27  1  0.25000000  0.78471959  0.37027956  1
  Ni  Ni28  1  0.25000000  0.78531792  0.70375797  1
  Ni  Ni29  1  0.25000000  0.28546181  0.12945809  1
  Ni  Ni30  1  0.25000000  0.28534099  0.46264609  1
  Ni  Ni31  1  0.25000000  0.28527377  0.79599237  1
  Cu  Cu32  1  0.75000000  0.21683800  0.29641190  1
  Cu  Cu33  1  0.75000000  0.21821010  0.62943699  1
  Cu  Cu34  1  0.75000000  0.21852939  0.96253560  1
  Cu  Cu35  1  0.75000000  0.71635523  0.20390213  1
