# generated using pymatgen
data_Cu12Ni2C5
_symmetry_space_group_name_H-M   'P 1'
_cell_length_a   9.89335000
_cell_length_b   9.89335000
_cell_length_c   9.89335000
_cell_angle_alpha   90.00000000
_cell_angle_beta   90.00000000
_cell_angle_gamma   90.00000000
_symmetry_Int_Tables_number   1
_chemical_formula_structural   Cu12Ni2C5
_chemical_formula_sum   'Cu48 Ni8 C20'
_cell_volume   968.34501361
_cell_formula_units_Z   4
loop_
 _symmetry_equiv_pos_site_id
 _symmetry_equiv_pos_as_xyz
  1  'x, y, z'
loop_
 _atom_site_type_symbol
 _atom_site_label
 _atom_site_symmetry_multiplicity
 _atom_site_fract_x
 _atom_site_fract_y
 _atom_site_fract_z
 _atom_site_occupancy
  C  C0  1  0.33653700  0.33653700  0.33653700  1
  C  C1  1  0.16346300  0.66346300  0.83653700  1
  C  C2  1  0.66346300  0.83653700  0.16346300  1
  C  C3  1  0.83653700  0.16346300  0.66346300  1
  C  C4  1  0.60211000  0.60211000  0.60211000  1
  C  C5  1  0.89789000  0.39789000  0.10211000  1
  C  C6  1  0.39789000  0.10211000  0.89789000  1
  C  C7  1  0.10211000  0.89789000  0.39789000  1
  C  C8  1  0.01844900  0.21459200  0.37610200  1
  C  C9  1  0.48155100  0.78540800  0.87610200  1
  C  C10  1  0.98155100  0.71459200  0.12389800  1
  C  C11  1  0.37610200  0.01844900  0.21459200  1
  C  C12  1  0.51844900  0.28540800  0.62389800  1
  C  C13  1  0.87610200  0.48155100  0.78540800  1
  C  C14  1  0.12389800  0.98155100  0.71459200  1
  C  C15  1  0.62389800  0.51844900  0.28540800  1
  C  C16  1  0.21459200  0.37610200  0.01844900  1
  C  C17  1  0.71459200  0.12389800  0.98155100  1
  C  C18  1  0.28540800  0.62389800  0.51844900  1
  C  C19  1  0.78540800  0.87610200  0.48155100  1
  Ni  Ni20  1  0.04617800  0.04617800  0.04617800  1
  Ni  Ni21  1  0.45382200  0.95382200  0.54617800  1
  Ni  Ni22  1  0.95382200  0.54617800  0.45382200  1
  Ni  Ni23  1  0.54617800  0.45382200  0.95382200  1
  Ni  Ni24  1  0.81452400  0.81452400  0.81452400  1
  Ni  Ni25  1  0.68547600  0.18547600  0.31452400  1
  Ni  Ni26  1  0.18547600  0.31452400  0.68547600  1
  Ni  Ni27  1  0.31452400  0.68547600  0.18547600  1
  Cu  Cu28  1  0.01027000  0.06993300  0.33317100  1
  Cu  Cu29  1  0.48973000  0.93006700  0.83317100  1
  Cu  Cu30  1  0.98973000  0.56993300  0.16682900  1
  Cu  Cu31  1  0.33317100  0.01027000  0.06993300  1
  Cu  Cu32  1  0.51027000  0.43006700  0.66682900  1
  Cu  Cu33  1  0.83317100  0.48973000  0.93006700  1
  Cu  Cu34  1  0.16682900  0.98973000  0.56993300  1
  Cu  Cu35  1  0.66682900  0.51027000  0.43006700  1
  Cu  Cu36  1  0.06993300  0.33317100  0.01027000  1
  Cu  Cu37  1  0.56993300  0.16682900  0.98973000  1
  Cu  Cu38  1  0.43006700  0.66682900  0.51027000  1
  Cu  Cu39  1  0.93006700  0.83317100  0.48973000  1
  Cu  Cu40  1  0.26615400  0.49731900  0.44119900  1
  Cu  Cu41  1  0.23384600  0.50268100  0.94119900  1
  Cu  Cu42  1  0.73384600  0.99731900  0.05880100  1
  Cu  Cu43  1  0.44119900  0.26615400  0.49731900  1
  Cu  Cu44  1  0.76615400  0.00268100  0.55880100  1
  Cu  Cu45  1  0.94119900  0.23384600  0.50268100  1
  Cu  Cu46  1  0.05880100  0.73384600  0.99731900  1
  Cu  Cu47  1  0.55880100  0.76615400  0.00268100  1
  Cu  Cu48  1  0.49731900  0.44119900  0.26615400  1
  Cu  Cu49  1  0.99731900  0.05880100  0.73384600  1
  Cu  Cu50  1  0.00268100  0.55880100  0.76615400  1
  Cu  Cu51  1  0.50268100  0.94119900  0.23384600  1
  Cu  Cu52  1  0.04100100  0.80142400  0.22894200  1
  Cu  Cu53  1  0.45899900  0.19857600  0.72894200  1
  Cu  Cu54  1  0.95899900  0.30142400  0.27105800  1
  Cu  Cu55  1  0.22894200  0.04100100  0.80142400  1
  Cu  Cu56  1  0.54100100  0.69857600  0.77105800  1
  Cu  Cu57  1  0.72894200  0.45899900  0.19857600  1
  Cu  Cu58  1  0.27105800  0.95899900  0.30142400  1
  Cu  Cu59  1  0.77105800  0.54100100  0.69857600  1
  Cu  Cu60  1  0.80142400  0.22894200  0.04100100  1
  Cu  Cu61  1  0.30142400  0.27105800  0.95899900  1
  Cu  Cu62  1  0.69857600  0.77105800  0.54100100  1
  Cu  Cu63  1  0.19857600  0.72894200  0.45899900  1
  Cu  Cu64  1  0.16179500  0.25116600  0.39881500  1
  Cu  Cu65  1  0.33820500  0.74883400  0.89881500  1
  Cu  Cu66  1  0.83820500  0.75116600  0.10118500  1
  Cu  Cu67  1  0.39881500  0.16179500  0.25116600  1
  Cu  Cu68  1  0.66179500  0.24883400  0.60118500  1
  Cu  Cu69  1  0.89881500  0.33820500  0.74883400  1
  Cu  Cu70  1  0.10118500  0.83820500  0.75116600  1
  Cu  Cu71  1  0.60118500  0.66179500  0.24883400  1
  Cu  Cu72  1  0.25116600  0.39881500  0.16179500  1
  Cu  Cu73  1  0.75116600  0.10118500  0.83820500  1
  Cu  Cu74  1  0.24883400  0.60118500  0.66179500  1
  Cu  Cu75  1  0.74883400  0.89881500  0.33820500  1
