# generated using pymatgen
data_Cu3NiC4
_symmetry_space_group_name_H-M   'P 1'
_cell_length_a   6.18903500
_cell_length_b   5.82982737
_cell_length_c   5.82982651
_cell_angle_alpha   120.00001066
_cell_angle_beta   90.00000000
_cell_angle_gamma   90.00000000
_symmetry_Int_Tables_number   1
_chemical_formula_structural   Cu3NiC4
_chemical_formula_sum   'Cu6 Ni2 C8'
_cell_volume   182.16496271
_cell_formula_units_Z   2
loop_
 _symmetry_equiv_pos_site_id
 _symmetry_equiv_pos_as_xyz
  1  'x, y, z'
loop_
 _atom_site_type_symbol
 _atom_site_label
 _atom_site_symmetry_multiplicity
 _atom_site_fract_x
 _atom_site_fract_y
 _atom_site_fract_z
 _atom_site_occupancy
  C  C0  1  0.33891700  0.66666700  0.33333300  1
  C  C1  1  0.99059400  0.00000000  0.00000000  1
  C  C2  1  0.72592700  0.84144800  0.31633000  1
  C  C3  1  0.72592700  0.47488300  0.15855200  1
  C  C4  1  0.26472900  0.50993100  0.68291700  1
  C  C5  1  0.72592700  0.68367000  0.52511700  1
  C  C6  1  0.26472900  0.31708300  0.82701300  1
  C  C7  1  0.26472900  0.17298700  0.49006900  1
  Ni  Ni8  1  0.65995400  0.66666700  0.33333300  1
  Ni  Ni9  1  0.31103300  0.33333300  0.66666700  1
  Cu  Cu10  1  0.78794800  0.70157100  0.73350000  1
  Cu  Cu11  1  0.78794800  0.03192900  0.29842900  1
  Cu  Cu12  1  0.22886800  0.91671600  0.24236300  1
  Cu  Cu13  1  0.78794800  0.26650000  0.96807100  1
  Cu  Cu14  1  0.22886800  0.75763700  0.67435300  1
  Cu  Cu15  1  0.22886800  0.32564700  0.08328400  1
