# generated using pymatgen
data_Cu2Ni2C7
_symmetry_space_group_name_H-M   'P 1'
_cell_length_a   8.26188000
_cell_length_b   8.89727089
_cell_length_c   11.42324540
_cell_angle_alpha   112.43740396
_cell_angle_beta   90.00000000
_cell_angle_gamma   117.66447150
_symmetry_Int_Tables_number   1
_chemical_formula_structural   Cu2Ni2C7
_chemical_formula_sum   'Cu4 Ni4 C14'
_cell_volume   671.10903497
_cell_formula_units_Z   2
loop_
 _symmetry_equiv_pos_site_id
 _symmetry_equiv_pos_as_xyz
  1  'x, y, z'
loop_
 _atom_site_type_symbol
 _atom_site_label
 _atom_site_symmetry_multiplicity
 _atom_site_fract_x
 _atom_site_fract_y
 _atom_site_fract_z
 _atom_site_occupancy
  C  C0  1  0.09788300  0.00000000  0.75000000  1
  C  C1  1  0.90211700  0.00000000  0.25000000  1
  Ni  Ni2  1  0.23991500  0.73498200  0.46652700  1
  Ni  Ni3  1  0.50493400  0.26501800  0.03347300  1
  Ni  Ni4  1  0.76008500  0.26501800  0.53347300  1
  Ni  Ni5  1  0.49506600  0.73498200  0.96652700  1
  Cu  Cu6  1  0.26545900  0.76302200  0.61378700  1
  Cu  Cu7  1  0.50243700  0.23697800  0.88621300  1
  Cu  Cu8  1  0.73454100  0.23697800  0.38621300  1
  Cu  Cu9  1  0.49756300  0.76302200  0.11378700  1
  C  C10  1  0.76404800  0.74442500  0.55930900  1
  C  C11  1  0.01962300  0.25557500  0.94069100  1
  C  C12  1  0.23595200  0.25557500  0.44069100  1
  C  C13  1  0.98037700  0.74442500  0.05930900  1
  C  C14  1  0.22778100  0.63575200  0.33602000  1
  C  C15  1  0.59202900  0.36424800  0.16398000  1
  C  C16  1  0.77221900  0.36424800  0.66398000  1
  C  C17  1  0.40797100  0.63575200  0.83602000  1
  C  C18  1  0.21699700  0.78980200  0.37212100  1
  C  C19  1  0.42719500  0.21019800  0.12787900  1
  C  C20  1  0.78300300  0.21019800  0.62787900  1
  C  C21  1  0.57280500  0.78980200  0.87212100  1
