# generated using pymatgen
data_CuNiC30
_symmetry_space_group_name_H-M   'P 1'
_cell_length_a   7.77363856
_cell_length_b   9.33935862
_cell_length_c   12.43632635
_cell_angle_alpha   92.13527494
_cell_angle_beta   84.86361926
_cell_angle_gamma   114.59341292
_symmetry_Int_Tables_number   1
_chemical_formula_structural   CuNiC30
_chemical_formula_sum   'Cu2 Ni2 C60'
_cell_volume   817.68415488
_cell_formula_units_Z   2
loop_
 _symmetry_equiv_pos_site_id
 _symmetry_equiv_pos_as_xyz
  1  'x, y, z'
loop_
 _atom_site_type_symbol
 _atom_site_label
 _atom_site_symmetry_multiplicity
 _atom_site_fract_x
 _atom_site_fract_y
 _atom_site_fract_z
 _atom_site_occupancy
  C  C0  1  0.88679600  0.77347000  0.75049000  1
  C  C1  1  0.11332600  0.22653000  0.25049000  1
  C  C2  1  0.99985400  0.49877000  0.00032200  1
  C  C3  1  0.50108300  0.50123000  0.50032200  1
  C  C4  1  0.47210000  0.94515700  0.74970900  1
  C  C5  1  0.52694300  0.05484300  0.24970900  1
  Ni  Ni6  1  0.99413500  0.21391000  0.64239000  1
  Ni  Ni7  1  0.78022500  0.78609000  0.14239000  1
  Cu  Cu8  1  0.23191300  0.22037300  0.86458400  1
  Cu  Cu9  1  0.01154000  0.77962700  0.36458400  1
  C  C10  1  0.53888600  0.39159200  0.95559800  1
  C  C11  1  0.85348700  0.39239100  0.54352900  1
  C  C12  1  0.46109600  0.60760900  0.04352900  1
  C  C13  1  0.14729400  0.60840800  0.45559800  1
  C  C14  1  0.41384800  0.24366600  0.03264200  1
  C  C15  1  0.83128900  0.24670200  0.46649900  1
  C  C16  1  0.58458700  0.75329800  0.96649900  1
  C  C17  1  0.17018200  0.75633400  0.53264200  1
  C  C18  1  0.68077500  0.36139600  0.74949100  1
  C  C19  1  0.31937800  0.63860400  0.24949100  1
  C  C20  1  0.27303800  0.54727100  0.75042100  1
  C  C21  1  0.72576700  0.45272900  0.25042100  1
  C  C22  1  0.79878300  0.07414300  0.98886000  1
  C  C23  1  0.27568300  0.07411200  0.51036100  1
  C  C24  1  0.20157100  0.92588800  0.01036100  1
  C  C25  1  0.72463900  0.92585700  0.48886000  1
  C  C26  1  0.68762400  0.16636400  0.00308600  1
  C  C27  1  0.47773600  0.17279300  0.49998200  1
  C  C28  1  0.30494300  0.82720700  0.99998200  1
  C  C29  1  0.52126000  0.83363600  0.50308600  1
  C  C30  1  0.00747800  0.18457900  0.97435300  1
  C  C31  1  0.17118900  0.18269800  0.52748400  1
  C  C32  1  0.98849100  0.81730200  0.02748400  1
  C  C33  1  0.82289900  0.81542100  0.47435300  1
  C  C34  1  0.47254800  0.25155000  0.76325700  1
  C  C35  1  0.78510400  0.25454600  0.73423700  1
  C  C36  1  0.53055900  0.74545400  0.23423700  1
  C  C37  1  0.22099800  0.74845000  0.26325700  1
  C  C38  1  0.25183800  0.44293400  0.84536200  1
  C  C39  1  0.18328800  0.43783600  0.65665100  1
  C  C40  1  0.74545200  0.56216400  0.15665100  1
  C  C41  1  0.80890400  0.55706600  0.34536200  1
  C  C42  1  0.47341500  0.64066000  0.71713000  1
  C  C43  1  0.16855100  0.64423200  0.77871200  1
  C  C44  1  0.52431900  0.35576800  0.27871200  1
  C  C45  1  0.83275500  0.35934000  0.21713000  1
  C  C46  1  0.73542500  0.45663400  0.84798200  1
  C  C47  1  0.72331600  0.45938100  0.65238000  1
  C  C48  1  0.26393500  0.54061900  0.15238000  1
  C  C49  1  0.27879200  0.54336600  0.34798200  1
  C  C50  1  0.06735500  0.14198000  0.74778300  1
  C  C51  1  0.92537500  0.85802000  0.24778300  1
  C  C52  1  0.74354500  0.95557700  0.90232700  1
  C  C53  1  0.21221100  0.95505900  0.59647500  1
  C  C54  1  0.25715200  0.04494100  0.09647500  1
  C  C55  1  0.78796800  0.04442300  0.40232700  1
  C  C56  1  0.22157800  0.00573400  0.90222100  1
  C  C57  1  0.78941300  0.01066400  0.59680900  1
  C  C58  1  0.77875000  0.98933600  0.09680900  1
  C  C59  1  0.21584400  0.99426600  0.40222100  1
  C  C60  1  0.40883800  0.32713400  0.98823400  1
  C  C61  1  0.92036900  0.32950500  0.51063800  1
  C  C62  1  0.59086400  0.67049500  0.01063800  1
  C  C63  1  0.08170400  0.67286600  0.48823400  1
