# generated using pymatgen
data_Cu6NiC2
_symmetry_space_group_name_H-M   'P 1'
_cell_length_a   6.03626729
_cell_length_b   6.03626729
_cell_length_c   10.67514292
_cell_angle_alpha   81.91830453
_cell_angle_beta   81.91830453
_cell_angle_gamma   91.33126229
_symmetry_Int_Tables_number   1
_chemical_formula_structural   Cu6NiC2
_chemical_formula_sum   'Cu12 Ni2 C4'
_cell_volume   380.91056029
_cell_formula_units_Z   2
loop_
 _symmetry_equiv_pos_site_id
 _symmetry_equiv_pos_as_xyz
  1  'x, y, z'
loop_
 _atom_site_type_symbol
 _atom_site_label
 _atom_site_symmetry_multiplicity
 _atom_site_fract_x
 _atom_site_fract_y
 _atom_site_fract_z
 _atom_site_occupancy
  C  C0  1  0.83621300  0.33361200  0.66356700  1
  C  C1  1  0.33361200  0.83621300  0.66356700  1
  C  C2  1  0.16378700  0.66638800  0.33643300  1
  C  C3  1  0.66638800  0.16378700  0.33643300  1
  Ni  Ni4  1  0.80037800  0.80037800  0.80136500  1
  Ni  Ni5  1  0.19962200  0.19962200  0.19863500  1
  Cu  Cu6  1  0.14716900  0.14716900  0.43778100  1
  Cu  Cu7  1  0.85283100  0.85283100  0.56221900  1
  Cu  Cu8  1  0.36144200  0.36144200  0.58445800  1
  Cu  Cu9  1  0.63855800  0.63855800  0.41554200  1
  Cu  Cu10  1  0.06500900  0.49422200  0.88392800  1
  Cu  Cu11  1  0.49422200  0.06500900  0.88392800  1
  Cu  Cu12  1  0.93499100  0.50577800  0.11607200  1
  Cu  Cu13  1  0.50577800  0.93499100  0.11607200  1
  Cu  Cu14  1  0.06725700  0.06725700  0.88394100  1
  Cu  Cu15  1  0.93274300  0.93274300  0.11605900  1
  Cu  Cu16  1  0.49182700  0.49182700  0.88362900  1
  Cu  Cu17  1  0.50817300  0.50817300  0.11637100  1
