# generated using pymatgen
data_Cu6Ni2C13
_symmetry_space_group_name_H-M   'P 1'
_cell_length_a   8.35969180
_cell_length_b   8.35969180
_cell_length_c   8.69144003
_cell_angle_alpha   64.14910701
_cell_angle_beta   64.14910701
_cell_angle_gamma   62.80224919
_symmetry_Int_Tables_number   1
_chemical_formula_structural   Cu6Ni2C13
_chemical_formula_sum   'Cu12 Ni4 C26'
_cell_volume   464.42763561
_cell_formula_units_Z   2
loop_
 _symmetry_equiv_pos_site_id
 _symmetry_equiv_pos_as_xyz
  1  'x, y, z'
loop_
 _atom_site_type_symbol
 _atom_site_label
 _atom_site_symmetry_multiplicity
 _atom_site_fract_x
 _atom_site_fract_y
 _atom_site_fract_z
 _atom_site_occupancy
  C  C0  1  0.00000000  0.50000000  0.50000000  1
  C  C1  1  0.50000000  0.00000000  0.00000000  1
  C  C2  1  0.32192100  0.67807900  0.25000000  1
  C  C3  1  0.67807900  0.32192100  0.75000000  1
  C  C4  1  0.82507700  0.70415500  0.17672600  1
  C  C5  1  0.29584500  0.17492300  0.32327400  1
  C  C6  1  0.17492300  0.29584500  0.82327400  1
  C  C7  1  0.70415500  0.82507700  0.67672600  1
  C  C8  1  0.38429600  0.85861600  0.48650900  1
  C  C9  1  0.14138400  0.61570400  0.01349100  1
  C  C10  1  0.61570400  0.14138400  0.51349100  1
  C  C11  1  0.85861600  0.38429600  0.98650900  1
  C  C12  1  0.15902400  0.99335100  0.60202100  1
  C  C13  1  0.00664900  0.84097600  0.89797900  1
  C  C14  1  0.84097600  0.00664900  0.39797900  1
  C  C15  1  0.99335100  0.15902400  0.10202100  1
  C  C16  1  0.39803100  0.60196900  0.75000000  1
  C  C17  1  0.60196900  0.39803100  0.25000000  1
  C  C18  1  0.19435100  0.80564900  0.25000000  1
  C  C19  1  0.80564900  0.19435100  0.75000000  1
  C  C20  1  0.70374300  0.73205600  0.29555500  1
  C  C21  1  0.26794400  0.29625700  0.20444500  1
  C  C22  1  0.29625700  0.26794400  0.70444500  1
  C  C23  1  0.73205600  0.70374300  0.79555500  1
  C  C24  1  0.27215600  0.72784400  0.75000000  1
  C  C25  1  0.72784400  0.27215600  0.25000000  1
  Ni  Ni26  1  0.27171000  0.86909300  0.60200900  1
  Ni  Ni27  1  0.13090700  0.72829000  0.89799100  1
  Ni  Ni28  1  0.72829000  0.13090700  0.39799100  1
  Ni  Ni29  1  0.86909300  0.27171000  0.10200900  1
  Cu  Cu30  1  0.72738400  0.64317700  0.44919600  1
  Cu  Cu31  1  0.35682300  0.27261600  0.05080400  1
  Cu  Cu32  1  0.27261600  0.35682300  0.55080400  1
  Cu  Cu33  1  0.64317700  0.72738400  0.94919600  1
  Cu  Cu34  1  0.14918000  0.45167400  0.23194100  1
  Cu  Cu35  1  0.54832600  0.85082000  0.26805900  1
  Cu  Cu36  1  0.85082000  0.54832600  0.76805900  1
  Cu  Cu37  1  0.45167400  0.14918000  0.73194100  1
  Cu  Cu38  1  0.03734600  0.78447000  0.35485200  1
  Cu  Cu39  1  0.21553000  0.96265400  0.14514800  1
  Cu  Cu40  1  0.96265400  0.21553000  0.64514800  1
  Cu  Cu41  1  0.78447000  0.03734600  0.85485200  1
