# generated using pymatgen
data_Cu2NiC12
_symmetry_space_group_name_H-M   'P 1'
_cell_length_a   9.97171933
_cell_length_b   8.84943525
_cell_length_c   7.03804644
_cell_angle_alpha   76.81569352
_cell_angle_beta   59.77568871
_cell_angle_gamma   43.40861777
_symmetry_Int_Tables_number   1
_chemical_formula_structural   Cu2NiC12
_chemical_formula_sum   'Cu4 Ni2 C24'
_cell_volume   358.73635720
_cell_formula_units_Z   2
loop_
 _symmetry_equiv_pos_site_id
 _symmetry_equiv_pos_as_xyz
  1  'x, y, z'
loop_
 _atom_site_type_symbol
 _atom_site_label
 _atom_site_symmetry_multiplicity
 _atom_site_fract_x
 _atom_site_fract_y
 _atom_site_fract_z
 _atom_site_occupancy
  Ni  Ni0  1  0.51254900  0.98745100  0.98745100  1
  Ni  Ni1  1  0.26254900  0.73745100  0.73745100  1
  C  C2  1  0.87277600  0.37982600  0.37988000  1
  C  C3  1  0.36751800  0.37988000  0.37982600  1
  C  C4  1  0.87017400  0.37722400  0.88248200  1
  C  C5  1  0.87012000  0.88248200  0.37722400  1
  Cu  Cu6  1  0.03887600  0.55449800  0.95901200  1
  Cu  Cu7  1  0.69550200  0.21112400  0.80238600  1
  Cu  Cu8  1  0.44761400  0.95901200  0.55449800  1
  Cu  Cu9  1  0.29098800  0.80238600  0.21112400  1
  C  C10  1  0.56673500  0.72560700  0.46230200  1
  C  C11  1  0.66205900  0.17887000  0.33536800  1
  C  C12  1  0.30563000  0.67206300  0.40810200  1
  C  C13  1  0.78769800  0.00464400  0.68326500  1
  C  C14  1  0.21629600  0.07182900  0.75960100  1
  C  C15  1  0.43210100  0.09004200  0.35975000  1
  C  C16  1  0.07113000  0.58794100  0.42629600  1
  C  C17  1  0.82370400  0.33536800  0.17887000  1
  C  C18  1  0.91463200  0.42629600  0.58794100  1
  C  C19  1  0.17817100  0.03370400  0.29772600  1
  C  C20  1  0.24535600  0.46230200  0.72560700  1
  C  C21  1  0.49039900  0.29772600  0.03370400  1
  C  C22  1  0.95227400  0.75960100  0.07182900  1
  C  C23  1  0.15995800  0.81789900  0.13189300  1
  C  C24  1  0.11810700  0.35975000  0.09004200  1
  C  C25  1  0.89025000  0.13189300  0.81789900  1
  C  C26  1  0.84189800  0.63579400  0.94437000  1
  C  C27  1  0.61420600  0.40810200  0.67206300  1
  C  C28  1  0.52439300  0.68326500  0.00464400  1
  C  C29  1  0.57793700  0.94437000  0.63579400  1
