# generated using pymatgen
data_Cu15(NiC2)4
_symmetry_space_group_name_H-M   'P 1'
_cell_length_a   14.54142600
_cell_length_b   6.82410000
_cell_length_c   7.66285700
_cell_angle_alpha   85.18347243
_cell_angle_beta   90.00000000
_cell_angle_gamma   90.00000000
_symmetry_Int_Tables_number   1
_chemical_formula_structural   Cu15(NiC2)4
_chemical_formula_sum   'Cu30 Ni8 C16'
_cell_volume   757.71651637
_cell_formula_units_Z   2
loop_
 _symmetry_equiv_pos_site_id
 _symmetry_equiv_pos_as_xyz
  1  'x, y, z'
loop_
 _atom_site_type_symbol
 _atom_site_label
 _atom_site_symmetry_multiplicity
 _atom_site_fract_x
 _atom_site_fract_y
 _atom_site_fract_z
 _atom_site_occupancy
  C  C0  1  0.63772000  0.14000100  0.69280100  1
  C  C1  1  0.13772000  0.35999900  0.30719900  1
  C  C2  1  0.36228000  0.85999900  0.30719900  1
  C  C3  1  0.86228000  0.64000100  0.69280100  1
  C  C4  1  0.60684600  0.62512500  0.39602000  1
  C  C5  1  0.10684600  0.87487500  0.60398000  1
  C  C6  1  0.39315400  0.37487500  0.60398000  1
  C  C7  1  0.89315400  0.12512500  0.39602000  1
  C  C8  1  0.67865500  0.27206500  0.24307200  1
  C  C9  1  0.17865500  0.22793500  0.75692800  1
  C  C10  1  0.32134500  0.72793500  0.75692800  1
  C  C11  1  0.82134500  0.77206500  0.24307200  1
  C  C12  1  0.56826600  0.26089200  0.22269500  1
  C  C13  1  0.06826600  0.23910800  0.77730500  1
  C  C14  1  0.43173400  0.73910800  0.77730500  1
  C  C15  1  0.93173400  0.76089200  0.22269500  1
  Ni  Ni16  1  0.56979200  0.75302600  0.01427000  1
  Ni  Ni17  1  0.06979200  0.74697400  0.98573000  1
  Ni  Ni18  1  0.43020800  0.24697400  0.98573000  1
  Ni  Ni19  1  0.93020800  0.25302600  0.01427000  1
  Ni  Ni20  1  0.67585300  0.76147400  0.03660400  1
  Ni  Ni21  1  0.17585300  0.73852600  0.96339600  1
  Ni  Ni22  1  0.32414700  0.23852600  0.96339600  1
  Ni  Ni23  1  0.82414700  0.26147400  0.03660400  1
  Cu  Cu24  1  0.52747300  0.67664000  0.15164900  1
  Cu  Cu25  1  0.02747300  0.82336000  0.84835100  1
  Cu  Cu26  1  0.47252700  0.32336000  0.84835100  1
  Cu  Cu27  1  0.97252700  0.17664000  0.15164900  1
  Cu  Cu28  1  0.70390500  0.69672600  0.19426200  1
  Cu  Cu29  1  0.20390500  0.80327400  0.80573800  1
  Cu  Cu30  1  0.29609500  0.30327400  0.80573800  1
  Cu  Cu31  1  0.79609500  0.19672600  0.19426200  1
  Cu  Cu32  1  0.50000000  0.50000000  0.50000000  1
  Cu  Cu33  1  0.00000000  0.00000000  0.50000000  1
  Cu  Cu34  1  0.69531700  0.54385300  0.53722700  1
  Cu  Cu35  1  0.19531700  0.95614700  0.46277300  1
  Cu  Cu36  1  0.30468300  0.45614700  0.46277300  1
  Cu  Cu37  1  0.80468300  0.04385300  0.53722700  1
  Cu  Cu38  1  0.58917100  0.86560100  0.44346200  1
  Cu  Cu39  1  0.08917100  0.63439900  0.55653800  1
  Cu  Cu40  1  0.41082900  0.13439900  0.55653800  1
  Cu  Cu41  1  0.91082900  0.36560100  0.44346200  1
  Cu  Cu42  1  0.53426000  0.81888600  0.87353100  1
  Cu  Cu43  1  0.03426000  0.68111400  0.12646900  1
  Cu  Cu44  1  0.46574000  0.18111400  0.12646900  1
  Cu  Cu45  1  0.96574000  0.31888600  0.87353100  1
  Cu  Cu46  1  0.72719600  0.82511900  0.91703100  1
  Cu  Cu47  1  0.22719600  0.67488100  0.08296900  1
  Cu  Cu48  1  0.27280400  0.17488100  0.08296900  1
  Cu  Cu49  1  0.77280400  0.32511900  0.91703100  1
  Cu  Cu50  1  0.61939900  0.31639100  0.28952800  1
  Cu  Cu51  1  0.11939900  0.18360900  0.71047200  1
  Cu  Cu52  1  0.38060100  0.68360900  0.71047200  1
  Cu  Cu53  1  0.88060100  0.81639100  0.28952800  1
