# generated using pymatgen
data_Cu7Ni2C
_symmetry_space_group_name_H-M   'P 1'
_cell_length_a   7.93391800
_cell_length_b   11.92581800
_cell_length_c   13.39091700
_cell_angle_alpha   90.00000000
_cell_angle_beta   90.00000000
_cell_angle_gamma   90.00000000
_symmetry_Int_Tables_number   1
_chemical_formula_structural   Cu7Ni2C
_chemical_formula_sum   'Cu56 Ni16 C8'
_cell_volume   1267.02797258
_cell_formula_units_Z   8
loop_
 _symmetry_equiv_pos_site_id
 _symmetry_equiv_pos_as_xyz
  1  'x, y, z'
loop_
 _atom_site_type_symbol
 _atom_site_label
 _atom_site_symmetry_multiplicity
 _atom_site_fract_x
 _atom_site_fract_y
 _atom_site_fract_z
 _atom_site_occupancy
  C  C0  1  0.71446600  0.32839400  0.02012900  1
  C  C1  1  0.21446600  0.67160600  0.97987100  1
  C  C2  1  0.21446600  0.82839400  0.47987100  1
  C  C3  1  0.71446600  0.17160600  0.52012900  1
  C  C4  1  0.22934100  0.18816900  0.22967500  1
  C  C5  1  0.72934100  0.81183100  0.77032500  1
  C  C6  1  0.72934100  0.68816900  0.27032500  1
  C  C7  1  0.22934100  0.31183100  0.72967500  1
  Ni  Ni8  1  0.56465800  0.24344900  0.29451300  1
  Ni  Ni9  1  0.06465800  0.75655100  0.70548700  1
  Ni  Ni10  1  0.06465800  0.74344900  0.20548700  1
  Ni  Ni11  1  0.56465800  0.25655100  0.79451300  1
  Ni  Ni12  1  0.23343800  0.41845800  0.17760800  1
  Ni  Ni13  1  0.73343800  0.58154200  0.82239200  1
  Ni  Ni14  1  0.73343800  0.91845800  0.32239200  1
  Ni  Ni15  1  0.23343800  0.08154200  0.67760800  1
  Ni  Ni16  1  0.09407200  0.08430000  0.40191100  1
  Ni  Ni17  1  0.59407200  0.91570000  0.59808900  1
  Ni  Ni18  1  0.59407200  0.58430000  0.09808900  1
  Ni  Ni19  1  0.09407200  0.41570000  0.90191100  1
  Ni  Ni20  1  0.93957600  0.11779500  0.11780400  1
  Ni  Ni21  1  0.43957600  0.88220500  0.88219600  1
  Ni  Ni22  1  0.43957600  0.61779500  0.38219600  1
  Ni  Ni23  1  0.93957600  0.38220500  0.61780400  1
  Cu  Cu24  1  0.52003300  0.23774100  0.20163400  1
  Cu  Cu25  1  0.02003300  0.76225900  0.79836600  1
  Cu  Cu26  1  0.02003300  0.73774100  0.29836600  1
  Cu  Cu27  1  0.52003300  0.26225900  0.70163400  1
  Cu  Cu28  1  0.70299500  0.27874400  0.32034700  1
  Cu  Cu29  1  0.20299500  0.72125600  0.67965300  1
  Cu  Cu30  1  0.20299500  0.77874400  0.17965300  1
  Cu  Cu31  1  0.70299500  0.22125600  0.82034700  1
  Cu  Cu32  1  0.45241200  0.20959200  0.35753300  1
  Cu  Cu33  1  0.95241200  0.79040800  0.64246700  1
  Cu  Cu34  1  0.95241200  0.70959200  0.14246700  1
  Cu  Cu35  1  0.45241200  0.29040800  0.85753300  1
  Cu  Cu36  1  0.73804400  0.02046400  0.33529300  1
  Cu  Cu37  1  0.23804400  0.97953600  0.66470700  1
  Cu  Cu38  1  0.23804400  0.52046400  0.16470700  1
  Cu  Cu39  1  0.73804400  0.47953600  0.83529300  1
  Cu  Cu40  1  0.18990900  0.37665700  0.26381300  1
  Cu  Cu41  1  0.68990900  0.62334300  0.73618700  1
  Cu  Cu42  1  0.68990900  0.87665700  0.23618700  1
  Cu  Cu43  1  0.18990900  0.12334300  0.76381300  1
  Cu  Cu44  1  0.27074100  0.34722600  0.10972600  1
  Cu  Cu45  1  0.77074100  0.65277400  0.89027400  1
  Cu  Cu46  1  0.77074100  0.84722600  0.39027400  1
  Cu  Cu47  1  0.27074100  0.15277400  0.60972600  1
  Cu  Cu48  1  0.20146700  0.03116800  0.34739400  1
  Cu  Cu49  1  0.70146700  0.96883200  0.65260600  1
  Cu  Cu50  1  0.70146700  0.53116800  0.15260600  1
  Cu  Cu51  1  0.20146700  0.46883200  0.84739400  1
  Cu  Cu52  1  0.02712100  0.04077100  0.47519200  1
  Cu  Cu53  1  0.52712100  0.95922900  0.52480800  1
  Cu  Cu54  1  0.52712100  0.54077100  0.02480800  1
  Cu  Cu55  1  0.02712100  0.45922900  0.97519200  1
  Cu  Cu56  1  0.05922100  0.18569500  0.37468200  1
  Cu  Cu57  1  0.55922100  0.81430500  0.62531800  1
  Cu  Cu58  1  0.55922100  0.68569500  0.12531800  1
  Cu  Cu59  1  0.05922100  0.31430500  0.87468200  1
  Cu  Cu60  1  0.81091500  0.09077200  0.07323100  1
  Cu  Cu61  1  0.31091500  0.90922800  0.92676900  1
  Cu  Cu62  1  0.31091500  0.59077200  0.42676900  1
  Cu  Cu63  1  0.81091500  0.40922800  0.57323100  1
  Cu  Cu64  1  0.97964100  0.22220900  0.13071600  1
  Cu  Cu65  1  0.47964100  0.77779100  0.86928400  1
  Cu  Cu66  1  0.47964100  0.72220900  0.36928400  1
  Cu  Cu67  1  0.97964100  0.27779100  0.63071600  1
  Cu  Cu68  1  0.04449400  0.04641500  0.15473300  1
  Cu  Cu69  1  0.54449400  0.95358500  0.84526700  1
  Cu  Cu70  1  0.54449400  0.54641500  0.34526700  1
  Cu  Cu71  1  0.04449400  0.45358500  0.65473300  1
  Cu  Cu72  1  0.41487100  0.02369700  0.11248600  1
  Cu  Cu73  1  0.91487100  0.97630300  0.88751400  1
  Cu  Cu74  1  0.91487100  0.52369700  0.38751400  1
  Cu  Cu75  1  0.41487100  0.47630300  0.61248600  1
  Cu  Cu76  1  0.36918500  0.08920700  0.04614700  1
  Cu  Cu77  1  0.86918500  0.91079300  0.95385300  1
  Cu  Cu78  1  0.86918500  0.58920700  0.45385300  1
  Cu  Cu79  1  0.36918500  0.41079300  0.54614700  1
