# generated using pymatgen
data_Cu(NiC2)2
_symmetry_space_group_name_H-M   'P 1'
_cell_length_a   6.18838900
_cell_length_b   9.84028900
_cell_length_c   11.03585600
_cell_angle_alpha   90.00000000
_cell_angle_beta   90.00000000
_cell_angle_gamma   90.00000000
_symmetry_Int_Tables_number   1
_chemical_formula_structural   Cu(NiC2)2
_chemical_formula_sum   'Cu8 Ni16 C32'
_cell_volume   672.03436859
_cell_formula_units_Z   8
loop_
 _symmetry_equiv_pos_site_id
 _symmetry_equiv_pos_as_xyz
  1  'x, y, z'
loop_
 _atom_site_type_symbol
 _atom_site_label
 _atom_site_symmetry_multiplicity
 _atom_site_fract_x
 _atom_site_fract_y
 _atom_site_fract_z
 _atom_site_occupancy
  Ni  Ni0  1  0.84613600  0.41882900  0.06280100  1
  Ni  Ni1  1  0.15386400  0.08117100  0.56280100  1
  Ni  Ni2  1  0.65386400  0.91882900  0.93719900  1
  Ni  Ni3  1  0.34613600  0.58117100  0.43719900  1
  Ni  Ni4  1  0.15386400  0.58117100  0.93719900  1
  Ni  Ni5  1  0.84613600  0.91882900  0.43719900  1
  Ni  Ni6  1  0.34613600  0.08117100  0.06280100  1
  Ni  Ni7  1  0.65386400  0.41882900  0.56280100  1
  Ni  Ni8  1  0.55859100  0.68405200  0.16047800  1
  Ni  Ni9  1  0.44140900  0.81594800  0.66047800  1
  Ni  Ni10  1  0.94140900  0.18405200  0.83952200  1
  Ni  Ni11  1  0.05859100  0.31594800  0.33952200  1
  Ni  Ni12  1  0.44140900  0.31594800  0.83952200  1
  Ni  Ni13  1  0.55859100  0.18405200  0.33952200  1
  Ni  Ni14  1  0.05859100  0.81594800  0.16047800  1
  Ni  Ni15  1  0.94140900  0.68405200  0.66047800  1
  Cu  Cu16  1  0.13719100  0.88002300  0.87634800  1
  Cu  Cu17  1  0.86280900  0.61997700  0.37634800  1
  Cu  Cu18  1  0.36280900  0.38002300  0.12365200  1
  Cu  Cu19  1  0.63719100  0.11997700  0.62365200  1
  Cu  Cu20  1  0.86280900  0.11997700  0.12365200  1
  Cu  Cu21  1  0.13719100  0.38002300  0.62365200  1
  Cu  Cu22  1  0.63719100  0.61997700  0.87634800  1
  Cu  Cu23  1  0.36280900  0.88002300  0.37634800  1
  C  C24  1  0.16615900  0.78596500  0.75178400  1
  C  C25  1  0.83384100  0.71403500  0.25178400  1
  C  C26  1  0.33384100  0.28596500  0.24821600  1
  C  C27  1  0.66615900  0.21403500  0.74821600  1
  C  C28  1  0.83384100  0.21403500  0.24821600  1
  C  C29  1  0.16615900  0.28596500  0.74821600  1
  C  C30  1  0.66615900  0.71403500  0.75178400  1
  C  C31  1  0.33384100  0.78596500  0.25178400  1
  C  C32  1  0.35075600  0.97578500  0.90055200  1
  C  C33  1  0.64924400  0.52421500  0.40055200  1
  C  C34  1  0.14924400  0.47578500  0.09944800  1
  C  C35  1  0.85075600  0.02421500  0.59944800  1
  C  C36  1  0.64924400  0.02421500  0.09944800  1
  C  C37  1  0.35075600  0.47578500  0.59944800  1
  C  C38  1  0.85075600  0.52421500  0.90055200  1
  C  C39  1  0.14924400  0.97578500  0.40055200  1
  C  C40  1  0.09828500  0.76985700  0.98746200  1
  C  C41  1  0.90171500  0.73014300  0.48746200  1
  C  C42  1  0.40171500  0.26985700  0.01253800  1
  C  C43  1  0.59828500  0.23014300  0.51253800  1
  C  C44  1  0.90171500  0.23014300  0.01253800  1
  C  C45  1  0.09828500  0.26985700  0.51253800  1
  C  C46  1  0.59828500  0.73014300  0.98746200  1
  C  C47  1  0.40171500  0.76985700  0.48746200  1
  C  C48  1  0.92553500  0.98107400  0.86608700  1
  C  C49  1  0.07446500  0.51892600  0.36608700  1
  C  C50  1  0.57446500  0.48107400  0.13391300  1
  C  C51  1  0.42553500  0.01892600  0.63391300  1
  C  C52  1  0.07446500  0.01892600  0.13391300  1
  C  C53  1  0.92553500  0.48107400  0.63391300  1
  C  C54  1  0.42553500  0.51892600  0.86608700  1
  C  C55  1  0.57446500  0.98107400  0.36608700  1
