# generated using pymatgen
data_Cu12Ni3C5
_symmetry_space_group_name_H-M   'P 1'
_cell_length_a   9.22810474
_cell_length_b   9.22810474
_cell_length_c   4.01900500
_cell_angle_alpha   90.00000000
_cell_angle_beta   90.00000000
_cell_angle_gamma   120.24126504
_symmetry_Int_Tables_number   1
_chemical_formula_structural   Cu12Ni3C5
_chemical_formula_sum   'Cu12 Ni3 C5'
_cell_volume   295.67406557
_cell_formula_units_Z   1
loop_
 _symmetry_equiv_pos_site_id
 _symmetry_equiv_pos_as_xyz
  1  'x, y, z'
loop_
 _atom_site_type_symbol
 _atom_site_label
 _atom_site_symmetry_multiplicity
 _atom_site_fract_x
 _atom_site_fract_y
 _atom_site_fract_z
 _atom_site_occupancy
  C  C0  1  0.76394300  0.76394300  0.00000000  1
  C  C1  1  0.99965600  0.23836900  0.00000000  1
  C  C2  1  0.23836900  0.99965600  0.00000000  1
  C  C3  1  0.66694600  0.33407000  0.50000000  1
  C  C4  1  0.33407000  0.66694600  0.50000000  1
  Ni  Ni5  1  0.43157000  0.43157000  0.50000000  1
  Ni  Ni6  1  0.00195700  0.56905000  0.50000000  1
  Ni  Ni7  1  0.56905000  0.00195700  0.50000000  1
  Cu  Cu8  1  0.16754400  0.16754400  0.00000000  1
  Cu  Cu9  1  0.99688800  0.82710000  0.00000000  1
  Cu  Cu10  1  0.82710000  0.99688800  0.00000000  1
  Cu  Cu11  1  0.76007700  0.76007700  0.50000000  1
  Cu  Cu12  1  0.99831500  0.24017600  0.50000000  1
  Cu  Cu13  1  0.24017600  0.99831500  0.50000000  1
  Cu  Cu14  1  0.70727800  0.53697500  0.00000000  1
  Cu  Cu15  1  0.82383500  0.29148200  0.00000000  1
  Cu  Cu16  1  0.46863100  0.17603800  0.00000000  1
  Cu  Cu17  1  0.53697500  0.70727800  0.00000000  1
  Cu  Cu18  1  0.29148200  0.82383500  0.00000000  1
  Cu  Cu19  1  0.17603800  0.46863100  0.00000000  1
