# generated using pymatgen
data_Cu2NiC5
_symmetry_space_group_name_H-M   'P 1'
_cell_length_a   7.25009000
_cell_length_b   7.77357600
_cell_length_c   11.44948900
_cell_angle_alpha   90.00000000
_cell_angle_beta   90.00000000
_cell_angle_gamma   90.00000000
_symmetry_Int_Tables_number   1
_chemical_formula_structural   Cu2NiC5
_chemical_formula_sum   'Cu8 Ni4 C20'
_cell_volume   645.28318886
_cell_formula_units_Z   4
loop_
 _symmetry_equiv_pos_site_id
 _symmetry_equiv_pos_as_xyz
  1  'x, y, z'
loop_
 _atom_site_type_symbol
 _atom_site_label
 _atom_site_symmetry_multiplicity
 _atom_site_fract_x
 _atom_site_fract_y
 _atom_site_fract_z
 _atom_site_occupancy
  Ni  Ni0  1  0.08107000  0.75000000  0.49390300  1
  Ni  Ni1  1  0.41893000  0.75000000  0.99390300  1
  Ni  Ni2  1  0.91893000  0.25000000  0.50609700  1
  Ni  Ni3  1  0.58107000  0.25000000  0.00609700  1
  Cu  Cu4  1  0.52952200  0.49943600  0.32101300  1
  Cu  Cu5  1  0.97047800  0.00056400  0.82101300  1
  Cu  Cu6  1  0.47047800  0.99943600  0.67898700  1
  Cu  Cu7  1  0.02952200  0.50056400  0.17898700  1
  Cu  Cu8  1  0.47047800  0.50056400  0.67898700  1
  Cu  Cu9  1  0.02952200  0.99943600  0.17898700  1
  Cu  Cu10  1  0.52952200  0.00056400  0.32101300  1
  Cu  Cu11  1  0.97047800  0.49943600  0.82101300  1
  C  C12  1  0.83391000  0.95909500  0.59166300  1
  C  C13  1  0.66609000  0.54090500  0.09166300  1
  C  C14  1  0.16609000  0.45909500  0.40833700  1
  C  C15  1  0.33391000  0.04090500  0.90833700  1
  C  C16  1  0.16609000  0.04090500  0.40833700  1
  C  C17  1  0.33391000  0.45909500  0.90833700  1
  C  C18  1  0.83391000  0.54090500  0.59166300  1
  C  C19  1  0.66609000  0.95909500  0.09166300  1
  C  C20  1  0.83585300  0.75000000  0.31548600  1
  C  C21  1  0.66414700  0.75000000  0.81548600  1
  C  C22  1  0.16414700  0.25000000  0.68451400  1
  C  C23  1  0.33585300  0.25000000  0.18451400  1
  C  C24  1  0.45508500  0.75000000  0.49822300  1
  C  C25  1  0.04491500  0.75000000  0.99822300  1
  C  C26  1  0.54491500  0.25000000  0.50177700  1
  C  C27  1  0.95508500  0.25000000  0.00177700  1
  C  C28  1  0.18880300  0.75000000  0.71194300  1
  C  C29  1  0.31119700  0.75000000  0.21194300  1
  C  C30  1  0.81119700  0.25000000  0.28805700  1
  C  C31  1  0.68880300  0.25000000  0.78805700  1
