# generated using pymatgen
data_Cu6Ni8C
_symmetry_space_group_name_H-M   'P 1'
_cell_length_a   5.38970900
_cell_length_b   7.56969700
_cell_length_c   10.64035100
_cell_angle_alpha   90.00000000
_cell_angle_beta   90.00000000
_cell_angle_gamma   90.00000000
_symmetry_Int_Tables_number   1
_chemical_formula_structural   Cu6Ni8C
_chemical_formula_sum   'Cu12 Ni16 C2'
_cell_volume   434.10997773
_cell_formula_units_Z   2
loop_
 _symmetry_equiv_pos_site_id
 _symmetry_equiv_pos_as_xyz
  1  'x, y, z'
loop_
 _atom_site_type_symbol
 _atom_site_label
 _atom_site_symmetry_multiplicity
 _atom_site_fract_x
 _atom_site_fract_y
 _atom_site_fract_z
 _atom_site_occupancy
  C  C0  1  0.00000000  0.50000000  0.50000000  1
  C  C1  1  0.00000000  0.00000000  0.00000000  1
  Ni  Ni2  1  0.39216700  0.00000000  0.74991900  1
  Ni  Ni3  1  0.39216700  0.50000000  0.75008100  1
  Ni  Ni4  1  0.60783300  0.00000000  0.25008100  1
  Ni  Ni5  1  0.60783300  0.50000000  0.24991900  1
  Ni  Ni6  1  0.58318400  0.00000000  0.65978200  1
  Ni  Ni7  1  0.58318400  0.50000000  0.84021800  1
  Ni  Ni8  1  0.41681600  0.00000000  0.34021800  1
  Ni  Ni9  1  0.41681600  0.50000000  0.15978200  1
  Ni  Ni10  1  0.68951300  0.15776900  0.61671100  1
  Ni  Ni11  1  0.68951300  0.34223100  0.88328900  1
  Ni  Ni12  1  0.31048700  0.15776900  0.38328900  1
  Ni  Ni13  1  0.68951300  0.65776900  0.88328900  1
  Ni  Ni14  1  0.31048700  0.84223100  0.38328900  1
  Ni  Ni15  1  0.31048700  0.65776900  0.11671100  1
  Ni  Ni16  1  0.68951300  0.84223100  0.61671100  1
  Ni  Ni17  1  0.31048700  0.34223100  0.11671100  1
  Cu  Cu18  1  0.78282300  0.28659800  0.57858300  1
  Cu  Cu19  1  0.78282300  0.21340200  0.92141700  1
  Cu  Cu20  1  0.21717700  0.28659800  0.42141700  1
  Cu  Cu21  1  0.78282300  0.78659800  0.92141700  1
  Cu  Cu22  1  0.21717700  0.71340200  0.42141700  1
  Cu  Cu23  1  0.21717700  0.78659800  0.07858300  1
  Cu  Cu24  1  0.78282300  0.71340200  0.57858300  1
  Cu  Cu25  1  0.21717700  0.21340200  0.07858300  1
  Cu  Cu26  1  0.23617700  0.00000000  0.82656000  1
  Cu  Cu27  1  0.23617700  0.50000000  0.67344000  1
  Cu  Cu28  1  0.76382300  0.00000000  0.17344000  1
  Cu  Cu29  1  0.76382300  0.50000000  0.32656000  1
