# generated using pymatgen
data_Cu7Ni31C12
_symmetry_space_group_name_H-M   'P 1'
_cell_length_a   8.76121830
_cell_length_b   14.15370992
_cell_length_c   17.90859350
_cell_angle_alpha   89.06996663
_cell_angle_beta   89.26970161
_cell_angle_gamma   81.69558392
_symmetry_Int_Tables_number   1
_chemical_formula_structural   Cu7Ni31C12
_chemical_formula_sum   'Cu28 Ni124 C48'
_cell_volume   2197.03656717
_cell_formula_units_Z   4
loop_
 _symmetry_equiv_pos_site_id
 _symmetry_equiv_pos_as_xyz
  1  'x, y, z'
loop_
 _atom_site_type_symbol
 _atom_site_label
 _atom_site_symmetry_multiplicity
 _atom_site_fract_x
 _atom_site_fract_y
 _atom_site_fract_z
 _atom_site_occupancy
  C  C0  1  0.23554731  0.49562319  0.88905422  1
  C  C1  1  0.76445269  0.50437681  0.11094578  1
  C  C2  1  0.72135168  0.50542125  0.61960019  1
  C  C3  1  0.27864832  0.49457875  0.38039981  1
  C  C4  1  0.27558304  0.16268794  0.63905953  1
  C  C5  1  0.72441696  0.83731206  0.36094047  1
  C  C6  1  0.63796727  0.84691981  0.84583589  1
  C  C7  1  0.36203273  0.15308019  0.15416411  1
  C  C8  1  0.31991573  0.65331476  0.20954190  1
  C  C9  1  0.68008427  0.34668524  0.79045810  1
  C  C10  1  0.13276084  0.67268323  0.02337647  1
  C  C11  1  0.86723916  0.32731677  0.97662353  1
  C  C12  1  0.19168987  0.74208215  0.17137784  1
  C  C13  1  0.80831013  0.25791785  0.82862216  1
  C  C14  1  0.15144887  0.61922084  0.18168274  1
  C  C15  1  0.84855113  0.38077916  0.81831726  1
  C  C16  1  0.33690965  0.57607384  0.13738126  1
  C  C17  1  0.66309035  0.42392616  0.86261874  1
  C  C18  1  0.37714392  0.69863541  0.12735774  1
  C  C19  1  0.62285608  0.30136459  0.87264226  1
  C  C20  1  0.21658119  0.75375083  0.07147982  1
  C  C21  1  0.78341881  0.24624917  0.92852018  1
  C  C22  1  0.05728965  0.69733134  0.11004416  1
  C  C23  1  0.94271035  0.30266866  0.88995584  1
  C  C24  1  0.15999122  0.58015789  0.08564087  1
  C  C25  1  0.84000878  0.41984211  0.91435913  1
  C  C26  1  0.31916166  0.63642643  0.04701481  1
  C  C27  1  0.68083834  0.36357357  0.95298519  1
  C  C28  1  0.69897810  0.34359851  0.47352589  1
  C  C29  1  0.30102190  0.65640149  0.52647411  1
  C  C30  1  0.87790537  0.34854822  0.28401772  1
  C  C31  1  0.12209463  0.65145178  0.71598228  1
  C  C32  1  0.82127115  0.25904927  0.42775620  1
  C  C33  1  0.17872885  0.74095073  0.57224380  1
  C  C34  1  0.86885328  0.37803797  0.44536506  1
  C  C35  1  0.13114672  0.62196203  0.55463494  1
  C  C36  1  0.68408635  0.43131909  0.40719123  1
  C  C37  1  0.31591365  0.56868091  0.59280877  1
  C  C38  1  0.63584935  0.31241753  0.38964992  1
  C  C39  1  0.36415065  0.68758247  0.61035008  1
  C  C40  1  0.79128356  0.26294783  0.32796881  1
  C  C41  1  0.20871644  0.73705217  0.67203119  1
  C  C42  1  0.95613766  0.30964670  0.36730374  1
  C  C43  1  0.04386234  0.69035330  0.63269626  1
  C  C44  1  0.85909419  0.43135328  0.35255526  1
  C  C45  1  0.14090581  0.56864672  0.64744474  1
  C  C46  1  0.69403246  0.38486947  0.31298006  1
  C  C47  1  0.30596754  0.61513053  0.68701994  1
  Ni  Ni48  1  0.26437675  0.36415774  0.70257425  1
  Ni  Ni49  1  0.73562325  0.63584226  0.29742575  1
  Ni  Ni50  1  0.19048325  0.29770803  0.76594232  1
  Ni  Ni51  1  0.80951675  0.70229197  0.23405768  1
  Ni  Ni52  1  0.37976496  0.29455514  0.75870195  1
  Ni  Ni53  1  0.62023504  0.70544486  0.24129805  1
  Ni  Ni54  1  0.27842767  0.34598503  0.55232939  1
  Ni  Ni55  1  0.72157233  0.65401497  0.44767061  1
  Ni  Ni56  1  0.38823165  0.27081907  0.49866190  1
  Ni  Ni57  1  0.61176835  0.72918093  0.50133810  1
  Ni  Ni58  1  0.19860035  0.27831241  0.49466984  1
  Ni  Ni59  1  0.80139965  0.72168759  0.50533016  1
  Ni  Ni60  1  0.99800491  0.29505554  0.62116998  1
  Ni  Ni61  1  0.00199509  0.70494446  0.37883002  1
  Ni  Ni62  1  0.92071937  0.20555498  0.59067068  1
  Ni  Ni63  1  0.07928063  0.79444502  0.40932932  1
  Ni  Ni64  1  0.92579052  0.22486793  0.68135698  1
  Ni  Ni65  1  0.07420948  0.77513207  0.31864302  1
  Ni  Ni66  1  0.60672072  0.16413413  0.69377413  1
  Ni  Ni67  1  0.39327928  0.83586587  0.30622587  1
  Ni  Ni68  1  0.64029977  0.08383557  0.62780087  1
  Ni  Ni69  1  0.35970023  0.91616443  0.37219913  1
  Ni  Ni70  1  0.58911378  0.19691419  0.60620874  1
  Ni  Ni71  1  0.41088622  0.80308581  0.39379126  1
  Ni  Ni72  1  0.09875874  0.08917150  0.75798652  1
  Ni  Ni73  1  0.90124126  0.91082850  0.24201348  1
  Ni  Ni74  1  0.20768049  0.98863994  0.73677939  1
  Ni  Ni75  1  0.79231951  0.01136006  0.26322061  1
  Ni  Ni76  1  0.25993630  0.05720417  0.80190845  1
  Ni  Ni77  1  0.74006370  0.94279583  0.19809155  1
  Ni  Ni78  1  0.25270365  0.95678763  0.57500538  1
  Ni  Ni79  1  0.74729635  0.04321237  0.42499462  1
  Ni  Ni80  1  0.23932896  0.03028830  0.50276362  1
  Ni  Ni81  1  0.76067104  0.96971170  0.49723638  1
  Ni  Ni82  1  0.40468350  0.99961111  0.54440503  1
  Ni  Ni83  1  0.59531650  0.00038889  0.45559497  1
  Ni  Ni84  1  0.79615000  0.68831057  0.75003796  1
  Ni  Ni85  1  0.20385000  0.31168943  0.24996204  1
  Ni  Ni86  1  0.73951185  0.62586779  0.82068871  1
  Ni  Ni87  1  0.26048815  0.37413221  0.17931129  1
  Ni  Ni88  1  0.61276481  0.67176915  0.75848503  1
  Ni  Ni89  1  0.38723519  0.32823085  0.24151497  1
  Ni  Ni90  1  0.61962495  0.76393821  0.01421540  1
  Ni  Ni91  1  0.38037505  0.23606179  0.98578460  1
  Ni  Ni92  1  0.68671741  0.69071439  0.94789240  1
  Ni  Ni93  1  0.31328259  0.30928561  0.05210760  1
  Ni  Ni94  1  0.80614926  0.74488673  0.99547164  1
  Ni  Ni95  1  0.19385074  0.25511327  0.00452836  1
  Ni  Ni96  1  0.29723267  0.86714374  0.87791391  1
  Ni  Ni97  1  0.70276733  0.13285626  0.12208609  1
  Ni  Ni98  1  0.33033961  0.77587235  0.82163740  1
  Ni  Ni99  1  0.66966039  0.22412765  0.17836260  1
  Ni  Ni100  1  0.36277526  0.76146981  0.91186447  1
  Ni  Ni101  1  0.63722474  0.23853019  0.08813553  1
  Ni  Ni102  1  0.65612382  0.90289227  0.67585538  1
  Ni  Ni103  1  0.34387618  0.09710773  0.32414462  1
  Ni  Ni104  1  0.49989347  0.85340807  0.69085772  1
  Ni  Ni105  1  0.50010653  0.14659193  0.30914228  1
  Ni  Ni106  1  0.49863819  0.96730037  0.70677349  1
  Ni  Ni107  1  0.50136181  0.03269963  0.29322651  1
  Ni  Ni108  1  0.96377206  0.84297956  0.88790662  1
  Ni  Ni109  1  0.03622794  0.15702044  0.11209338  1
  Ni  Ni110  1  0.97248199  0.83260285  0.79716828  1
  Ni  Ni111  1  0.02751801  0.16739715  0.20283172  1
  Ni  Ni112  1  0.93414526  0.93919286  0.83471259  1
  Ni  Ni113  1  0.06585474  0.06080714  0.16528741  1
  Ni  Ni114  1  0.62094522  0.05328124  0.92271793  1
  Ni  Ni115  1  0.37905478  0.94671876  0.07728207  1
  Ni  Ni116  1  0.54151641  0.06443657  0.84146296  1
  Ni  Ni117  1  0.45848359  0.93556343  0.15853704  1
  Ni  Ni118  1  0.44636157  0.02574592  0.91184088  1
  Ni  Ni119  1  0.55363843  0.97425408  0.08815912  1
  Ni  Ni120  1  0.88629045  0.97054710  0.68036436  1
  Ni  Ni121  1  0.11370955  0.02945290  0.31963564  1
  Ni  Ni122  1  0.94404889  0.02206283  0.60530473  1
  Ni  Ni123  1  0.05595111  0.97793717  0.39469527  1
  Ni  Ni124  1  0.95488915  0.90523490  0.60968351  1
  Ni  Ni125  1  0.04511085  0.09476510  0.39031649  1
  Ni  Ni126  1  0.92022238  0.91118825  0.06770736  1
  Ni  Ni127  1  0.07977762  0.08881175  0.93229264  1
  Ni  Ni128  1  0.77888578  0.91680265  0.00762610  1
  Ni  Ni129  1  0.22111422  0.08319735  0.99237390  1
  Ni  Ni130  1  0.85580847  0.01281080  0.02565088  1
  Ni  Ni131  1  0.14419153  0.98718920  0.97434912  1
  Ni  Ni132  1  0.37982841  0.64735277  0.26931600  1
  Ni  Ni133  1  0.62017159  0.35264723  0.73068400  1
  Ni  Ni134  1  0.07272927  0.67926049  0.96353443  1
  Ni  Ni135  1  0.92727073  0.32073951  0.03646557  1
  Ni  Ni136  1  0.14769317  0.81368344  0.20618273  1
  Ni  Ni137  1  0.85230683  0.18631656  0.79381727  1
  Ni  Ni138  1  0.07199539  0.58213080  0.22554031  1
  Ni  Ni139  1  0.92800461  0.41786920  0.77445969  1
  Ni  Ni140  1  0.41998942  0.50061958  0.14220316  1
  Ni  Ni141  1  0.58001058  0.49938042  0.85779684  1
  Ni  Ni142  1  0.49668327  0.73122643  0.12286951  1
  Ni  Ni143  1  0.50331673  0.26877357  0.87713049  1
  Ni  Ni144  1  0.22135240  0.83234780  0.04495371  1
  Ni  Ni145  1  0.77864760  0.16765220  0.95504629  1
  Ni  Ni146  1  0.92155416  0.72611030  0.11763209  1
  Ni  Ni147  1  0.07844584  0.27388970  0.88236791  1
  Ni  Ni148  1  0.11616550  0.50530917  0.07208488  1
  Ni  Ni149  1  0.88383450  0.49469083  0.92791512  1
  Ni  Ni150  1  0.41576226  0.61111289  -0.00008083  1
  Ni  Ni151  1  0.58423774  0.38888711  0.00008083  1
  Ni  Ni152  1  0.64120586  0.34115899  0.53421802  1
  Ni  Ni153  1  0.35879414  0.65884101  0.46578198  1
  Ni  Ni154  1  0.93521636  0.34974095  0.22321019  1
  Ni  Ni155  1  0.06478364  0.65025905  0.77678981  1
  Ni  Ni156  1  0.86215569  0.18270430  0.45791385  1
  Ni  Ni157  1  0.13784431  0.81729570  0.54208615  1
  Ni  Ni158  1  0.95275674  0.40692337  0.48987808  1
  Ni  Ni159  1  0.04724326  0.59307663  0.51012192  1
  Ni  Ni160  1  0.60571077  0.50706617  0.41827732  1
  Ni  Ni161  1  0.39428923  0.49293383  0.58172268  1
  Ni  Ni162  1  0.51336421  0.28338574  0.38524294  1
  Ni  Ni163  1  0.48663579  0.71661426  0.61475706  1
  Ni  Ni164  1  0.78058624  0.18895682  0.29713486  1
  Ni  Ni165  1  0.21941376  0.81104318  0.70286514  1
  Ni  Ni166  1  0.09099799  0.27710879  0.37095978  1
  Ni  Ni167  1  0.90900201  0.72289121  0.62904022  1
  Ni  Ni168  1  0.90802194  0.50609030  0.34300904  1
  Ni  Ni169  1  0.09197806  0.49390970  0.65699096  1
  Ni  Ni170  1  0.59713065  0.41852480  0.26897265  1
  Ni  Ni171  1  0.40286935  0.58147520  0.73102735  1
  Cu  Cu172  1  0.28002574  0.29884983  0.72881871  1
  Cu  Cu173  1  0.71997426  0.70115017  0.27118129  1
  Cu  Cu174  1  0.28906490  0.27911257  0.53014743  1
  Cu  Cu175  1  0.71093510  0.72088743  0.46985257  1
  Cu  Cu176  1  0.98797593  0.22523772  0.63251235  1
  Cu  Cu177  1  0.01202407  0.77476228  0.36748765  1
  Cu  Cu178  1  0.56878533  0.14423615  0.64317539  1
  Cu  Cu179  1  0.43121467  0.85576385  0.35682461  1
  Cu  Cu180  1  0.21060598  0.05828883  0.75028592  1
  Cu  Cu181  1  0.78939402  0.94171117  0.24971408  1
  Cu  Cu182  1  0.28914430  0.01758343  0.55424282  1
  Cu  Cu183  1  0.71085570  0.98241657  0.44575718  1
  Cu  Cu184  1  0.70780950  0.68447044  0.78738052  1
  Cu  Cu185  1  0.29219050  0.31552956  0.21261948  1
  Cu  Cu186  1  0.69928235  0.75435870  0.97172737  1
  Cu  Cu187  1  0.30071765  0.24564130  0.02827263  1
  Cu  Cu188  1  0.37195490  0.80646599  0.86727489  1
  Cu  Cu189  1  0.62804510  0.19353401  0.13272511  1
  Cu  Cu190  1  0.56436704  0.90181722  0.71161756  1
  Cu  Cu191  1  0.43563296  0.09818278  0.28838244  1
  Cu  Cu192  1  0.91345121  0.87012266  0.83944884  1
  Cu  Cu193  1  0.08654879  0.12987734  0.16055116  1
  Cu  Cu194  1  0.55401701  0.02061536  0.88769205  1
  Cu  Cu195  1  0.44598299  0.97938464  0.11230795  1
  Cu  Cu196  1  0.88649826  0.96776463  0.62338138  1
  Cu  Cu197  1  0.11350174  0.03223537  0.37661862  1
  Cu  Cu198  1  0.82173446  0.95312015  0.04965412  1
  Cu  Cu199  1  0.17826554  0.04687985  0.95034588  1
