# generated using pymatgen
data_Cu6NiC26
_symmetry_space_group_name_H-M   'P 1'
_cell_length_a   11.37978900
_cell_length_b   10.31073700
_cell_length_c   10.42055650
_cell_angle_alpha   75.44160960
_cell_angle_beta   90.00000000
_cell_angle_gamma   90.00000000
_symmetry_Int_Tables_number   1
_chemical_formula_structural   Cu6NiC26
_chemical_formula_sum   'Cu24 Ni4 C104'
_cell_volume   1183.42767192
_cell_formula_units_Z   4
loop_
 _symmetry_equiv_pos_site_id
 _symmetry_equiv_pos_as_xyz
  1  'x, y, z'
loop_
 _atom_site_type_symbol
 _atom_site_label
 _atom_site_symmetry_multiplicity
 _atom_site_fract_x
 _atom_site_fract_y
 _atom_site_fract_z
 _atom_site_occupancy
  C  C0  1  0.58441600  0.88547400  0.98822800  1
  C  C1  1  0.08441600  0.61452600  0.01177200  1
  C  C2  1  0.41558400  0.11452600  0.01177200  1
  C  C3  1  0.91558400  0.38547400  0.98822800  1
  C  C4  1  0.57636500  0.79802300  0.14497700  1
  C  C5  1  0.07636500  0.70197700  0.85502300  1
  C  C6  1  0.42363500  0.20197700  0.85502300  1
  C  C7  1  0.92363500  0.29802300  0.14497700  1
  C  C8  1  0.59999700  0.96510500  0.11057600  1
  C  C9  1  0.09999700  0.53489500  0.88942400  1
  C  C10  1  0.40000300  0.03489500  0.88942400  1
  C  C11  1  0.90000300  0.46510500  0.11057600  1
  C  C12  1  0.70914600  0.86093000  0.08447700  1
  C  C13  1  0.20914600  0.63907000  0.91552300  1
  C  C14  1  0.29085400  0.13907000  0.91552300  1
  C  C15  1  0.79085400  0.36093000  0.08447700  1
  C  C16  1  0.69592000  0.06267300  0.64871800  1
  C  C17  1  0.19592000  0.43732700  0.35128200  1
  C  C18  1  0.30408000  0.93732700  0.35128200  1
  C  C19  1  0.80408000  0.56267300  0.64871800  1
  C  C20  1  0.56029200  0.13166800  0.61190200  1
  C  C21  1  0.06029200  0.36833200  0.38809800  1
  C  C22  1  0.43970800  0.86833200  0.38809800  1
  C  C23  1  0.93970800  0.63166800  0.61190200  1
  C  C24  1  0.57069400  0.97187400  0.70100900  1
  C  C25  1  0.07069400  0.52812600  0.29899100  1
  C  C26  1  0.42930600  0.02812600  0.29899100  1
  C  C27  1  0.92930600  0.47187400  0.70100900  1
  C  C28  1  0.61212200  0.01592500  0.53797100  1
  C  C29  1  0.11212200  0.48407500  0.46202900  1
  C  C30  1  0.38787800  0.98407500  0.46202900  1
  C  C31  1  0.88787800  0.51592500  0.53797100  1
  C  C32  1  0.67935000  0.51089400  0.30141700  1
  C  C33  1  0.17935000  0.98910600  0.69858300  1
  C  C34  1  0.32065000  0.48910600  0.69858300  1
  C  C35  1  0.82065000  0.01089400  0.30141700  1
  C  C36  1  0.53617400  0.47975800  0.34090600  1
  C  C37  1  0.03617400  0.02024200  0.65909400  1
  C  C38  1  0.46382600  0.52024200  0.65909400  1
  C  C39  1  0.96382600  0.97975800  0.34090600  1
  C  C40  1  0.63364000  0.47070200  0.46191400  1
  C  C41  1  0.13364000  0.02929800  0.53808600  1
  C  C42  1  0.36636000  0.52929800  0.53808600  1
  C  C43  1  0.86636000  0.97070200  0.46191400  1
  C  C44  1  0.63291400  0.35159700  0.37368000  1
  C  C45  1  0.13291400  0.14840300  0.62632000  1
  C  C46  1  0.36708600  0.64840300  0.62632000  1
  C  C47  1  0.86708600  0.85159700  0.37368000  1
  C  C48  1  0.83000700  0.19138600  0.86108700  1
  C  C49  1  0.33000700  0.30861400  0.13891300  1
  C  C50  1  0.16999300  0.80861400  0.13891300  1
  C  C51  1  0.66999300  0.69138600  0.86108700  1
  C  C52  1  0.86299000  0.02721600  0.88926000  1
  C  C53  1  0.36299000  0.47278400  0.11074000  1
  C  C54  1  0.13701000  0.97278400  0.11074000  1
  C  C55  1  0.63701000  0.52721600  0.88926000  1
  C  C56  1  0.96538000  0.13452400  0.92016100  1
  C  C57  1  0.46538000  0.36547600  0.07983900  1
  C  C58  1  0.03462000  0.86547600  0.07983900  1
  C  C59  1  0.53462000  0.63452400  0.92016100  1
  C  C60  1  0.84102800  0.09974300  0.01616200  1
  C  C61  1  0.34102800  0.40025700  0.98383800  1
  C  C62  1  0.15897200  0.90025700  0.98383800  1
  C  C63  1  0.65897200  0.59974300  0.01616200  1
  Ni  Ni64  1  0.62816800  0.18243300  0.20148500  1
  Ni  Ni65  1  0.12816800  0.31756700  0.79851500  1
  Ni  Ni66  1  0.37183200  0.81756700  0.79851500  1
  Ni  Ni67  1  0.87183200  0.68243300  0.20148500  1
  Cu  Cu68  1  0.61887400  0.87787400  0.08184500  1
  Cu  Cu69  1  0.11887400  0.62212600  0.91815500  1
  Cu  Cu70  1  0.38112600  0.12212600  0.91815500  1
  Cu  Cu71  1  0.88112600  0.37787400  0.08184500  1
  Cu  Cu72  1  0.60990300  0.04487500  0.62536100  1
  Cu  Cu73  1  0.10990300  0.45512500  0.37463900  1
  Cu  Cu74  1  0.39009700  0.95512500  0.37463900  1
  Cu  Cu75  1  0.89009700  0.54487500  0.62536100  1
  Cu  Cu76  1  0.62110000  0.45250300  0.36989700  1
  Cu  Cu77  1  0.12110000  0.04749700  0.63010300  1
  Cu  Cu78  1  0.37890000  0.54749700  0.63010300  1
  Cu  Cu79  1  0.87890000  0.95250300  0.36989700  1
  Cu  Cu80  1  0.87566800  0.11298200  0.92197500  1
  Cu  Cu81  1  0.37566800  0.38701800  0.07802500  1
  Cu  Cu82  1  0.12433200  0.88701800  0.07802500  1
  Cu  Cu83  1  0.62433200  0.61298200  0.92197500  1
  Cu  Cu84  1  0.86943000  0.80608800  0.83458200  1
  Cu  Cu85  1  0.36943000  0.69391200  0.16541800  1
  Cu  Cu86  1  0.13057000  0.19391200  0.16541800  1
  Cu  Cu87  1  0.63057000  0.30608800  0.83458200  1
  Cu  Cu88  1  0.62253800  0.71300500  0.51251600  1
  Cu  Cu89  1  0.12253800  0.78699500  0.48748400  1
  Cu  Cu90  1  0.37746200  0.28699500  0.48748400  1
  Cu  Cu91  1  0.87746200  0.21300500  0.51251600  1
  C  C92  1  0.62743900  0.32714200  0.12667600  1
  C  C93  1  0.12743900  0.17285800  0.87332400  1
  C  C94  1  0.37256100  0.67285800  0.87332400  1
  C  C95  1  0.87256100  0.82714200  0.12667600  1
  C  C96  1  0.73719000  0.11641300  0.16778900  1
  C  C97  1  0.23719000  0.38358700  0.83221100  1
  C  C98  1  0.26281000  0.88358700  0.83221100  1
  C  C99  1  0.76281000  0.61641300  0.16778900  1
  C  C100  1  0.52283400  0.11363400  0.15976900  1
  C  C101  1  0.02283400  0.38636600  0.84023100  1
  C  C102  1  0.47716600  0.88636600  0.84023100  1
  C  C103  1  0.97716600  0.61363400  0.15976900  1
  C  C104  1  0.62261600  0.17122000  0.34605600  1
  C  C105  1  0.12261600  0.32878000  0.65394400  1
  C  C106  1  0.37738400  0.82878000  0.65394400  1
  C  C107  1  0.87738400  0.67122000  0.34605600  1
  C  C108  1  0.77314000  0.86842700  0.83607100  1
  C  C109  1  0.27314000  0.63157300  0.16392900  1
  C  C110  1  0.22686000  0.13157300  0.16392900  1
  C  C111  1  0.72686000  0.36842700  0.83607100  1
  C  C112  1  0.96638200  0.86790500  0.83454500  1
  C  C113  1  0.46638200  0.63209500  0.16545500  1
  C  C114  1  0.03361800  0.13209500  0.16545500  1
  C  C115  1  0.53361800  0.36790500  0.83454500  1
  C  C116  1  0.86897500  0.68373900  0.83464400  1
  C  C117  1  0.36897500  0.81626100  0.16535600  1
  C  C118  1  0.13102500  0.31626100  0.16535600  1
  C  C119  1  0.63102500  0.18373900  0.83464400  1
  C  C120  1  0.64064700  0.59678700  0.59141200  1
  C  C121  1  0.14064700  0.90321300  0.40858800  1
  C  C122  1  0.35935300  0.40321300  0.40858800  1
  C  C123  1  0.85935300  0.09678700  0.59141200  1
  C  C124  1  0.67837600  0.81298300  0.52792200  1
  C  C125  1  0.17837600  0.68701700  0.47207800  1
  C  C126  1  0.32162400  0.18701700  0.47207800  1
  C  C127  1  0.82162400  0.31298300  0.52792200  1
  C  C128  1  0.54765900  0.72310100  0.42007500  1
  C  C129  1  0.04765900  0.77689900  0.57992500  1
  C  C130  1  0.45234100  0.27689900  0.57992500  1
  C  C131  1  0.95234100  0.22310100  0.42007500  1
