# generated using pymatgen
data_Cu24Ni3C2
_symmetry_space_group_name_H-M   'P 1'
_cell_length_a   14.74336620
_cell_length_b   15.67009406
_cell_length_c   15.67009406
_cell_angle_alpha   90.00000000
_cell_angle_beta   90.00000000
_cell_angle_gamma   90.00000000
_symmetry_Int_Tables_number   1
_chemical_formula_structural   Cu24Ni3C2
_chemical_formula_sum   'Cu96 Ni12 C8'
_cell_volume   3620.26081393
_cell_formula_units_Z   4
loop_
 _symmetry_equiv_pos_site_id
 _symmetry_equiv_pos_as_xyz
  1  'x, y, z'
loop_
 _atom_site_type_symbol
 _atom_site_label
 _atom_site_symmetry_multiplicity
 _atom_site_fract_x
 _atom_site_fract_y
 _atom_site_fract_z
 _atom_site_occupancy
  C  C0  1  0.00000000  0.12518133  0.25738399  1
  C  C1  1  -0.00000000  0.87481867  0.74261601  1
  C  C2  1  0.50000000  0.74261601  0.12518133  1
  C  C3  1  0.00000000  0.37481867  0.75738399  1
  C  C4  1  0.50000000  0.25738399  0.87481867  1
  C  C5  1  -0.00000000  0.62518133  0.24261601  1
  C  C6  1  0.50000000  0.75738399  0.62518133  1
  C  C7  1  0.50000000  0.24261601  0.37481867  1
  Ni  Ni8  1  0.25000000  -0.00000000  0.00000000  1
  Ni  Ni9  1  0.75000000  -0.00000000  0.00000000  1
  Ni  Ni10  1  0.75000000  0.50000000  0.50000000  1
  Ni  Ni11  1  0.25000000  0.50000000  0.50000000  1
  Ni  Ni12  1  0.25000000  0.12699511  0.62699511  1
  Ni  Ni13  1  0.75000000  0.87300489  0.37300489  1
  Ni  Ni14  1  0.25000000  0.87300489  0.37300489  1
  Ni  Ni15  1  0.75000000  0.37300489  0.12699511  1
  Ni  Ni16  1  0.75000000  0.12699511  0.62699511  1
  Ni  Ni17  1  0.25000000  0.62699511  0.87300489  1
  Ni  Ni18  1  0.75000000  0.62699511  0.87300489  1
  Ni  Ni19  1  0.25000000  0.37300489  0.12699511  1
  Cu  Cu20  1  0.00000000  0.21930746  0.13011205  1
  Cu  Cu21  1  -0.00000000  0.78069254  0.86988795  1
  Cu  Cu22  1  0.50000000  0.86988795  0.21930746  1
  Cu  Cu23  1  -0.00000000  0.28069254  0.63011205  1
  Cu  Cu24  1  0.50000000  0.13011205  0.78069254  1
  Cu  Cu25  1  0.00000000  0.71930746  0.36988795  1
  Cu  Cu26  1  0.50000000  0.63011205  0.71930746  1
  Cu  Cu27  1  0.50000000  0.36988795  0.28069254  1
  Cu  Cu28  1  0.17427471  0.37265611  0.02447291  1
  Cu  Cu29  1  0.82572529  0.62734389  0.97552709  1
  Cu  Cu30  1  0.17427471  0.62734389  0.97552709  1
  Cu  Cu31  1  0.67427471  0.97552709  0.37265611  1
  Cu  Cu32  1  0.82572529  0.12734389  0.52447291  1
  Cu  Cu33  1  0.82572529  0.37265611  0.02447291  1
  Cu  Cu34  1  0.32572529  0.02447291  0.62734389  1
  Cu  Cu35  1  0.17427471  0.87265611  0.47552709  1
  Cu  Cu36  1  0.67427471  0.02447291  0.62734389  1
  Cu  Cu37  1  0.82572529  0.87265611  0.47552709  1
  Cu  Cu38  1  0.32572529  0.97552709  0.37265611  1
  Cu  Cu39  1  0.17427471  0.12734389  0.52447291  1
  Cu  Cu40  1  0.32572529  0.52447291  0.87265611  1
  Cu  Cu41  1  0.67427471  0.47552709  0.12734389  1
  Cu  Cu42  1  0.32572529  0.47552709  0.12734389  1
  Cu  Cu43  1  0.67427471  0.52447291  0.87265611  1
  Cu  Cu44  1  0.32777474  0.00635730  0.10081671  1
  Cu  Cu45  1  0.67222526  0.99364270  0.89918329  1
  Cu  Cu46  1  0.32777474  0.99364270  0.89918329  1
  Cu  Cu47  1  0.82777474  0.89918329  0.00635730  1
  Cu  Cu48  1  0.67222526  0.49364270  0.60081671  1
  Cu  Cu49  1  0.67222526  0.00635730  0.10081671  1
  Cu  Cu50  1  0.17222526  0.10081671  0.99364270  1
  Cu  Cu51  1  0.32777474  0.50635730  0.39918329  1
  Cu  Cu52  1  0.82777474  0.10081671  0.99364270  1
  Cu  Cu53  1  0.67222526  0.50635730  0.39918329  1
  Cu  Cu54  1  0.17222526  0.89918329  0.00635730  1
  Cu  Cu55  1  0.32777474  0.49364270  0.60081671  1
  Cu  Cu56  1  0.17222526  0.60081671  0.50635730  1
  Cu  Cu57  1  0.82777474  0.39918329  0.49364270  1
  Cu  Cu58  1  0.17222526  0.39918329  0.49364270  1
  Cu  Cu59  1  0.82777474  0.60081671  0.50635730  1
  Cu  Cu60  1  0.32849380  0.27242764  0.12742173  1
  Cu  Cu61  1  0.67150620  0.72757236  0.87257827  1
  Cu  Cu62  1  0.32849380  0.72757236  0.87257827  1
  Cu  Cu63  1  0.82849380  0.87257827  0.27242764  1
  Cu  Cu64  1  0.67150620  0.22757236  0.62742173  1
  Cu  Cu65  1  0.67150620  0.27242764  0.12742173  1
  Cu  Cu66  1  0.17150620  0.12742173  0.72757236  1
  Cu  Cu67  1  0.32849380  0.77242764  0.37257827  1
  Cu  Cu68  1  0.82849380  0.12742173  0.72757236  1
  Cu  Cu69  1  0.67150620  0.77242764  0.37257827  1
  Cu  Cu70  1  0.17150620  0.87257827  0.27242764  1
  Cu  Cu71  1  0.32849380  0.22757236  0.62742173  1
  Cu  Cu72  1  0.17150620  0.62742173  0.77242764  1
  Cu  Cu73  1  0.82849380  0.37257827  0.22757236  1
  Cu  Cu74  1  0.17150620  0.37257827  0.22757236  1
  Cu  Cu75  1  0.82849380  0.62742173  0.77242764  1
  Cu  Cu76  1  0.00000000  0.99899219  0.16127128  1
  Cu  Cu77  1  -0.00000000  0.00100781  0.83872872  1
  Cu  Cu78  1  0.50000000  0.83872872  0.99899219  1
  Cu  Cu79  1  -0.00000000  0.50100781  0.66127128  1
  Cu  Cu80  1  0.50000000  0.16127128  0.00100781  1
  Cu  Cu81  1  0.00000000  0.49899219  0.33872872  1
  Cu  Cu82  1  0.50000000  0.66127128  0.49899219  1
  Cu  Cu83  1  0.50000000  0.33872872  0.50100781  1
  Cu  Cu84  1  -0.00000000  0.03059176  0.38377138  1
  Cu  Cu85  1  0.00000000  0.96940824  0.61622862  1
  Cu  Cu86  1  0.50000000  0.61622862  0.03059176  1
  Cu  Cu87  1  0.00000000  0.46940824  0.88377138  1
  Cu  Cu88  1  0.50000000  0.38377138  0.96940824  1
  Cu  Cu89  1  -0.00000000  0.53059176  0.11622862  1
  Cu  Cu90  1  0.50000000  0.88377138  0.53059176  1
  Cu  Cu91  1  0.50000000  0.11622862  0.46940824  1
  Cu  Cu92  1  0.16662082  0.12475006  0.25698357  1
  Cu  Cu93  1  0.83337918  0.87524994  0.74301643  1
  Cu  Cu94  1  0.16662082  0.87524994  0.74301643  1
  Cu  Cu95  1  0.66662082  0.74301643  0.12475006  1
  Cu  Cu96  1  0.83337918  0.37524994  0.75698357  1
  Cu  Cu97  1  0.83337918  0.12475006  0.25698357  1
  Cu  Cu98  1  0.33337918  0.25698357  0.87524994  1
  Cu  Cu99  1  0.16662082  0.62475006  0.24301643  1
  Cu  Cu100  1  0.66662082  0.25698357  0.87524994  1
  Cu  Cu101  1  0.83337918  0.62475006  0.24301643  1
  Cu  Cu102  1  0.33337918  0.74301643  0.12475006  1
  Cu  Cu103  1  0.16662082  0.37524994  0.75698357  1
  Cu  Cu104  1  0.33337918  0.75698357  0.62475006  1
  Cu  Cu105  1  0.66662082  0.24301643  0.37524994  1
  Cu  Cu106  1  0.33337918  0.24301643  0.37524994  1
  Cu  Cu107  1  0.66662082  0.75698357  0.62475006  1
  Cu  Cu108  1  -0.00000000  0.25021070  0.35449467  1
  Cu  Cu109  1  0.00000000  0.74978930  0.64550533  1
  Cu  Cu110  1  0.50000000  0.64550533  0.25021070  1
  Cu  Cu111  1  0.00000000  0.24978930  0.85449467  1
  Cu  Cu112  1  0.50000000  0.35449467  0.74978930  1
  Cu  Cu113  1  -0.00000000  0.75021070  0.14550533  1
  Cu  Cu114  1  0.50000000  0.85449467  0.75021070  1
  Cu  Cu115  1  0.50000000  0.14550533  0.24978930  1
