# generated using pymatgen
data_Cu6NiC20
_symmetry_space_group_name_H-M   'P 1'
_cell_length_a   9.28258438
_cell_length_b   9.28258438
_cell_length_c   17.69660600
_cell_angle_alpha   90.00000000
_cell_angle_beta   90.00000000
_cell_angle_gamma   120.00000274
_symmetry_Int_Tables_number   1
_chemical_formula_structural   Cu6NiC20
_chemical_formula_sum   'Cu12 Ni2 C40'
_cell_volume   1320.56083629
_cell_formula_units_Z   2
loop_
 _symmetry_equiv_pos_site_id
 _symmetry_equiv_pos_as_xyz
  1  'x, y, z'
loop_
 _atom_site_type_symbol
 _atom_site_label
 _atom_site_symmetry_multiplicity
 _atom_site_fract_x
 _atom_site_fract_y
 _atom_site_fract_z
 _atom_site_occupancy
  C  C0  1  0.33333300  0.66666700  0.95354600  1
  C  C1  1  0.66666700  0.33333300  0.45354600  1
  C  C2  1  0.66666700  0.33333300  0.04645400  1
  C  C3  1  0.33333300  0.66666700  0.54645400  1
  Ni  Ni4  1  0.33333300  0.66666700  0.25000000  1
  Ni  Ni5  1  0.66666700  0.33333300  0.75000000  1
  Cu  Cu6  1  0.18065900  0.19697500  0.31607300  1
  Cu  Cu7  1  0.01631600  0.81934100  0.31607300  1
  Cu  Cu8  1  0.80302500  0.98368400  0.31607300  1
  Cu  Cu9  1  0.98368400  0.80302500  0.81607300  1
  Cu  Cu10  1  0.81934100  0.01631600  0.81607300  1
  Cu  Cu11  1  0.19697500  0.18065900  0.81607300  1
  Cu  Cu12  1  0.81934100  0.80302500  0.68392700  1
  Cu  Cu13  1  0.98368400  0.18065900  0.68392700  1
  Cu  Cu14  1  0.19697500  0.01631600  0.68392700  1
  Cu  Cu15  1  0.01631600  0.19697500  0.18392700  1
  Cu  Cu16  1  0.18065900  0.98368400  0.18392700  1
  Cu  Cu17  1  0.80302500  0.81934100  0.18392700  1
  C  C18  1  0.39725100  0.47739900  0.38081800  1
  C  C19  1  0.08014800  0.60274900  0.38081800  1
  C  C20  1  0.52260100  0.91985200  0.38081800  1
  C  C21  1  0.91985200  0.52260100  0.88081800  1
  C  C22  1  0.60274900  0.08014800  0.88081800  1
  C  C23  1  0.47739900  0.39725100  0.88081800  1
  C  C24  1  0.60274900  0.52260100  0.61918200  1
  C  C25  1  0.91985200  0.39725100  0.61918200  1
  C  C26  1  0.47739900  0.08014800  0.61918200  1
  C  C27  1  0.08014800  0.47739900  0.11918200  1
  C  C28  1  0.39725100  0.91985200  0.11918200  1
  C  C29  1  0.52260100  0.60274900  0.11918200  1
  C  C30  1  0.57683500  0.78841800  0.75000000  1
  C  C31  1  0.21158200  0.42316500  0.75000000  1
  C  C32  1  0.21158200  0.78841800  0.75000000  1
  C  C33  1  0.78841800  0.21158200  0.25000000  1
  C  C34  1  0.42316500  0.21158200  0.25000000  1
  C  C35  1  0.78841800  0.57683500  0.25000000  1
  C  C36  1  0.78212800  0.80058900  0.91093400  1
  C  C37  1  0.01846100  0.21787200  0.91093400  1
  C  C38  1  0.19941100  0.98153900  0.91093400  1
  C  C39  1  0.98153900  0.19941100  0.41093400  1
  C  C40  1  0.21787200  0.01846100  0.41093400  1
  C  C41  1  0.80058900  0.78212800  0.41093400  1
  C  C42  1  0.21787200  0.19941100  0.08906600  1
  C  C43  1  0.98153900  0.78212800  0.08906600  1
  C  C44  1  0.80058900  0.01846100  0.08906600  1
  C  C45  1  0.01846100  0.80058900  0.58906600  1
  C  C46  1  0.78212800  0.98153900  0.58906600  1
  C  C47  1  0.19941100  0.21787200  0.58906600  1
  C  C48  1  0.81125800  0.18874200  0.75000000  1
  C  C49  1  0.37748400  0.18874200  0.75000000  1
  C  C50  1  0.81125800  0.62251600  0.75000000  1
  C  C51  1  0.62251600  0.81125800  0.25000000  1
  C  C52  1  0.18874200  0.37748400  0.25000000  1
  C  C53  1  0.18874200  0.81125800  0.25000000  1
