# generated using pymatgen
data_Cu8Ni4C3
_symmetry_space_group_name_H-M   'P 1'
_cell_length_a   11.60474819
_cell_length_b   12.54590903
_cell_length_c   12.48414946
_cell_angle_alpha   90.00000000
_cell_angle_beta   90.00000000
_cell_angle_gamma   90.00000000
_symmetry_Int_Tables_number   1
_chemical_formula_structural   Cu8Ni4C3
_chemical_formula_sum   'Cu96 Ni48 C36'
_cell_volume   1817.59372520
_cell_formula_units_Z   12
loop_
 _symmetry_equiv_pos_site_id
 _symmetry_equiv_pos_as_xyz
  1  'x, y, z'
loop_
 _atom_site_type_symbol
 _atom_site_label
 _atom_site_symmetry_multiplicity
 _atom_site_fract_x
 _atom_site_fract_y
 _atom_site_fract_z
 _atom_site_occupancy
  C  C0  1  0.59161866  0.38405062  0.42788500  1
  C  C1  1  0.09161866  0.61594938  0.07211500  1
  C  C2  1  0.40838134  0.11594938  0.92788500  1
  C  C3  1  0.90838134  0.88405062  0.57211500  1
  Ni  Ni4  1  0.78675197  0.11348815  0.10877279  1
  Ni  Ni5  1  0.28675197  0.88651185  0.39122721  1
  Ni  Ni6  1  0.21324803  0.38651185  0.60877279  1
  Ni  Ni7  1  0.71324803  0.61348815  0.89122721  1
  Ni  Ni8  1  0.87174712  0.07639879  0.22087631  1
  Ni  Ni9  1  0.37174712  0.92360121  0.27912369  1
  Ni  Ni10  1  0.12825288  0.42360121  0.72087631  1
  Ni  Ni11  1  0.62825288  0.57639879  0.77912369  1
  Ni  Ni12  1  0.88503377  0.20711481  0.16516470  1
  Ni  Ni13  1  0.38503377  0.79288519  0.33483530  1
  Ni  Ni14  1  0.11496623  0.29288519  0.66516470  1
  Ni  Ni15  1  0.61496623  0.70711481  0.83483530  1
  Ni  Ni16  1  0.87505522  0.19741458  0.02346434  1
  Ni  Ni17  1  0.37505522  0.80258542  0.47653566  1
  Ni  Ni18  1  0.12494478  0.30258542  0.52346434  1
  Ni  Ni19  1  0.62494478  0.69741458  0.97653566  1
  Ni  Ni20  1  0.85937985  0.06128628  0.99765183  1
  Ni  Ni21  1  0.35937985  0.93871372  0.50234817  1
  Ni  Ni22  1  0.14062015  0.43871372  0.49765183  1
  Ni  Ni23  1  0.64062015  0.56128628  0.00234817  1
  Ni  Ni24  1  0.85164454  0.98370967  0.11459108  1
  Ni  Ni25  1  0.35164454  0.01629033  0.38540892  1
  Ni  Ni26  1  0.14835546  0.51629033  0.61459108  1
  Ni  Ni27  1  0.64835546  0.48370967  0.88540892  1
  Ni  Ni28  1  0.01026410  0.13555874  0.20636322  1
  Ni  Ni29  1  0.51026410  0.86444126  0.29363678  1
  Ni  Ni30  1  0.98973590  0.36444126  0.70636322  1
  Ni  Ni31  1  0.48973590  0.63555874  0.79363678  1
  Ni  Ni32  1  0.01216108  0.20864170  0.08512264  1
  Ni  Ni33  1  0.51216108  0.79135830  0.41487736  1
  Ni  Ni34  1  0.98783892  0.29135830  0.58512264  1
  Ni  Ni35  1  0.48783892  0.70864170  0.91487736  1
  Ni  Ni36  1  0.99470692  0.11912393  0.97642490  1
  Ni  Ni37  1  0.49470692  0.88087607  0.52357510  1
  Ni  Ni38  1  0.00529308  0.38087607  0.47642490  1
  Ni  Ni39  1  0.50529308  0.61912393  0.02357510  1
  Ni  Ni40  1  0.98000626  0.98580728  0.03276630  1
  Ni  Ni41  1  0.48000626  0.01419272  0.46723370  1
  Ni  Ni42  1  0.01999374  0.51419272  0.53276630  1
  Ni  Ni43  1  0.51999374  0.48580728  0.96723370  1
  Ni  Ni44  1  0.98935610  0.99884960  0.17470409  1
  Ni  Ni45  1  0.48935610  0.00115040  0.32529591  1
  Ni  Ni46  1  0.01064390  0.50115040  0.67470409  1
  Ni  Ni47  1  0.51064390  0.49884960  0.82529591  1
  Ni  Ni48  1  0.07677551  0.08012603  0.09007002  1
  Ni  Ni49  1  0.57677551  0.91987397  0.40992998  1
  Ni  Ni50  1  0.92322449  0.41987397  0.59007002  1
  Ni  Ni51  1  0.42322449  0.58012603  0.90992998  1
  Cu  Cu52  1  0.50864925  0.60962266  0.47736629  1
  Cu  Cu53  1  0.00864925  0.39037734  0.02263371  1
  Cu  Cu54  1  0.49135075  0.89037734  0.97736629  1
  Cu  Cu55  1  0.99135075  0.10962266  0.52263371  1
  Cu  Cu56  1  0.26958875  0.39741095  0.18896403  1
  Cu  Cu57  1  0.76958875  0.60258905  0.31103597  1
  Cu  Cu58  1  0.73041125  0.10258905  0.68896403  1
  Cu  Cu59  1  0.23041125  0.89741095  0.81103597  1
  Cu  Cu60  1  0.67037196  0.51563845  0.09538845  1
  Cu  Cu61  1  0.17037196  0.48436155  0.40461155  1
  Cu  Cu62  1  0.32962804  0.98436155  0.59538845  1
  Cu  Cu63  1  0.82962804  0.01563845  0.90461155  1
  Cu  Cu64  1  0.76372509  0.19654816  0.33792327  1
  Cu  Cu65  1  0.26372509  0.80345184  0.16207673  1
  Cu  Cu66  1  0.23627491  0.30345184  0.83792327  1
  Cu  Cu67  1  0.73627491  0.69654816  0.66207673  1
  Cu  Cu68  1  0.75432506  0.53972483  0.44881653  1
  Cu  Cu69  1  0.25432506  0.46027517  0.05118347  1
  Cu  Cu70  1  0.24567494  0.96027517  0.94881653  1
  Cu  Cu71  1  0.74567494  0.03972483  0.55118347  1
  Cu  Cu72  1  0.79526558  0.20519591  0.73231584  1
  Cu  Cu73  1  0.29526558  0.79480409  0.76768416  1
  Cu  Cu74  1  0.20473442  0.29480409  0.23231584  1
  Cu  Cu75  1  0.70473442  0.70519591  0.26768416  1
  Cu  Cu76  1  0.61237012  0.20710121  0.22747315  1
  Cu  Cu77  1  0.11237012  0.79289879  0.27252685  1
  Cu  Cu78  1  0.38762988  0.29289879  0.72747315  1
  Cu  Cu79  1  0.88762988  0.70710121  0.77252685  1
  Cu  Cu80  1  0.35743895  0.28000544  0.45715922  1
  Cu  Cu81  1  0.85743895  0.71999456  0.04284078  1
  Cu  Cu82  1  0.64256105  0.21999456  0.95715922  1
  Cu  Cu83  1  0.14256105  0.78000544  0.54284078  1
  Cu  Cu84  1  0.35481212  0.32263812  0.33772005  1
  Cu  Cu85  1  0.85481212  0.67736188  0.16227995  1
  Cu  Cu86  1  0.64518788  0.17736188  0.83772005  1
  Cu  Cu87  1  0.14518788  0.82263812  0.66227995  1
  Cu  Cu88  1  0.57843097  0.38125867  0.66689884  1
  Cu  Cu89  1  0.07843097  0.61874133  0.83310116  1
  Cu  Cu90  1  0.42156903  0.11874133  0.16689884  1
  Cu  Cu91  1  0.92156903  0.88125867  0.33310116  1
  Cu  Cu92  1  0.41979644  0.53778258  0.53762144  1
  Cu  Cu93  1  0.91979644  0.46221742  0.96237856  1
  Cu  Cu94  1  0.58020356  0.96221742  0.03762144  1
  Cu  Cu95  1  0.08020356  0.03778258  0.46237856  1
  Cu  Cu96  1  0.63808874  0.27016474  0.64848251  1
  Cu  Cu97  1  0.13808874  0.72983526  0.85151749  1
  Cu  Cu98  1  0.36191126  0.22983526  0.14848251  1
  Cu  Cu99  1  0.86191126  0.77016474  0.35151749  1
  Cu  Cu100  1  0.68365286  0.12272051  0.11141722  1
  Cu  Cu101  1  0.18365286  0.87727949  0.38858278  1
  Cu  Cu102  1  0.31634714  0.37727949  0.61141722  1
  Cu  Cu103  1  0.81634714  0.62272051  0.88858278  1
  Cu  Cu104  1  0.82881520  0.05978301  0.30687206  1
  Cu  Cu105  1  0.32881520  0.94021699  0.19312794  1
  Cu  Cu106  1  0.17118480  0.44021699  0.80687206  1
  Cu  Cu107  1  0.67118480  0.55978301  0.69312794  1
  Cu  Cu108  1  0.85139800  0.28506274  0.21084400  1
  Cu  Cu109  1  0.35139800  0.71493726  0.28915600  1
  Cu  Cu110  1  0.14860200  0.21493726  0.71084400  1
  Cu  Cu111  1  0.64860200  0.78506274  0.78915600  1
  Cu  Cu112  1  0.83173853  0.26437749  0.96793704  1
  Cu  Cu113  1  0.33173853  0.73562251  0.53206296  1
  Cu  Cu114  1  0.16826147  0.23562251  0.46793704  1
  Cu  Cu115  1  0.66826147  0.76437749  0.03206296  1
  Cu  Cu116  1  0.77320676  0.05510132  0.92537217  1
  Cu  Cu117  1  0.27320676  0.94489868  0.57462783  1
  Cu  Cu118  1  0.22679324  0.44489868  0.42537217  1
  Cu  Cu119  1  0.72679324  0.55510132  0.07462783  1
  Cu  Cu120  1  0.79284840  0.90546480  0.12145566  1
  Cu  Cu121  1  0.29284840  0.09453520  0.37854434  1
  Cu  Cu122  1  0.20715160  0.59453520  0.62145566  1
  Cu  Cu123  1  0.70715160  0.40546480  0.87854434  1
  Cu  Cu124  1  0.06549089  0.16293008  0.28281011  1
  Cu  Cu125  1  0.56549089  0.83706992  0.21718989  1
  Cu  Cu126  1  0.93450911  0.33706992  0.78281011  1
  Cu  Cu127  1  0.43450911  0.66293008  0.71718989  1
  Cu  Cu128  1  0.07201941  0.28677826  0.07664971  1
  Cu  Cu129  1  0.57201941  0.71322174  0.42335029  1
  Cu  Cu130  1  0.92798059  0.21322174  0.57664971  1
  Cu  Cu131  1  0.42798059  0.78677826  0.92335029  1
  Cu  Cu132  1  0.03369220  0.13186276  0.88898802  1
  Cu  Cu133  1  0.53369220  0.86813724  0.61101198  1
  Cu  Cu134  1  0.96630780  0.36813724  0.38898802  1
  Cu  Cu135  1  0.46630780  0.63186276  0.11101198  1
  Cu  Cu136  1  0.01007558  0.90877727  0.98365638  1
  Cu  Cu137  1  0.51007558  0.09122273  0.51634362  1
  Cu  Cu138  1  0.98992442  0.59122273  0.48365638  1
  Cu  Cu139  1  0.48992442  0.40877727  0.01634362  1
  Cu  Cu140  1  0.03102644  0.92978534  0.22904308  1
  Cu  Cu141  1  0.53102644  0.07021466  0.27095692  1
  Cu  Cu142  1  0.96897356  0.57021466  0.72904308  1
  Cu  Cu143  1  0.46897356  0.42978534  0.77095692  1
  Cu  Cu144  1  0.17908905  0.06843216  0.08525905  1
  Cu  Cu145  1  0.67908905  0.93156784  0.41474095  1
  Cu  Cu146  1  0.82091095  0.43156784  0.58525905  1
  Cu  Cu147  1  0.32091095  0.56843216  0.91474095  1
  C  C148  1  0.39627286  0.32875406  0.40831377  1
  C  C149  1  0.89627286  0.67124594  0.09168623  1
  C  C150  1  0.60372714  0.17124594  0.90831377  1
  C  C151  1  0.10372714  0.82875406  0.59168623  1
  C  C152  1  0.59119251  0.32651420  0.61225623  1
  C  C153  1  0.09119251  0.67348580  0.88774377  1
  C  C154  1  0.40880749  0.17348580  0.11225623  1
  C  C155  1  0.90880749  0.82651420  0.38774377  1
  C  C156  1  0.49532930  0.53665259  0.50328903  1
  C  C157  1  0.99532930  0.46334741  0.99671097  1
  C  C158  1  0.50467070  0.96334741  0.00328903  1
  C  C159  1  0.00467070  0.03665259  0.49671097  1
  C  C160  1  0.57651734  0.51686168  0.29260890  1
  C  C161  1  0.07651734  0.48313832  0.20739110  1
  C  C162  1  0.42348266  0.98313832  0.79260890  1
  C  C163  1  0.92348266  0.01686168  0.70739110  1
  C  C164  1  0.63209905  0.26696188  0.27530276  1
  C  C165  1  0.13209905  0.73303812  0.22469724  1
  C  C166  1  0.36790095  0.23303812  0.77530276  1
  C  C167  1  0.86790095  0.76696188  0.72469724  1
  C  C168  1  0.68589413  0.21314611  0.36668106  1
  C  C169  1  0.18589413  0.78685389  0.13331894  1
  C  C170  1  0.31410587  0.28685389  0.86668106  1
  C  C171  1  0.81410587  0.71314611  0.63331894  1
  C  C172  1  0.74097230  0.50015825  0.38209568  1
  C  C173  1  0.24097230  0.49984175  0.11790432  1
  C  C174  1  0.25902770  0.99984175  0.88209568  1
  C  C175  1  0.75902770  0.00015825  0.61790432  1
  C  C176  1  0.28247318  0.32375680  0.22384118  1
  C  C177  1  0.78247318  0.67624320  0.27615882  1
  C  C178  1  0.71752682  0.17624320  0.72384118  1
  C  C179  1  0.21752682  0.82375680  0.77615882  1
