# generated using pymatgen
data_Cu2NiC6
_symmetry_space_group_name_H-M   'P 1'
_cell_length_a   3.86405804
_cell_length_b   5.98710184
_cell_length_c   6.89677969
_cell_angle_alpha   64.27895483
_cell_angle_beta   73.73117386
_cell_angle_gamma   90.00193309
_symmetry_Int_Tables_number   1
_chemical_formula_structural   Cu2NiC6
_chemical_formula_sum   'Cu2 Ni1 C6'
_cell_volume   136.61773150
_cell_formula_units_Z   1
loop_
 _symmetry_equiv_pos_site_id
 _symmetry_equiv_pos_as_xyz
  1  'x, y, z'
loop_
 _atom_site_type_symbol
 _atom_site_label
 _atom_site_symmetry_multiplicity
 _atom_site_fract_x
 _atom_site_fract_y
 _atom_site_fract_z
 _atom_site_occupancy
  Ni  Ni0  1  0.50000000  0.50000000  0.99999900  1
  Cu  Cu1  1  0.29729800  0.79727500  0.40548900  1
  Cu  Cu2  1  0.70269900  0.20272200  0.59451300  1
  C  C3  1  0.00000100  0.00000000  0.99999900  1
  C  C4  1  0.50000100  0.00000100  0.99999900  1
  C  C5  1  0.14505600  0.90353100  0.70990800  1
  C  C6  1  0.85494300  0.09646900  0.29009200  1
  C  C7  1  0.85494200  0.61343800  0.29009800  1
  C  C8  1  0.14505900  0.38656300  0.70990000  1
