# generated using pymatgen
data_Cu17(NiC)2
_symmetry_space_group_name_H-M   'P 1'
_cell_length_a   6.47855399
_cell_length_b   6.46155725
_cell_length_c   6.47855399
_cell_angle_alpha   83.51415131
_cell_angle_beta   84.39338382
_cell_angle_gamma   83.51415131
_symmetry_Int_Tables_number   1
_chemical_formula_structural   Cu17(NiC)2
_chemical_formula_sum   'Cu17 Ni2 C2'
_cell_volume   266.74911685
_cell_formula_units_Z   1
loop_
 _symmetry_equiv_pos_site_id
 _symmetry_equiv_pos_as_xyz
  1  'x, y, z'
loop_
 _atom_site_type_symbol
 _atom_site_label
 _atom_site_symmetry_multiplicity
 _atom_site_fract_x
 _atom_site_fract_y
 _atom_site_fract_z
 _atom_site_occupancy
  Ni  Ni0  1  0.64403100  0.66592600  0.64403100  1
  Ni  Ni1  1  0.35596900  0.33407400  0.35596900  1
  Cu  Cu2  1  0.34304700  0.86306000  0.34304700  1
  Cu  Cu3  1  0.86152400  0.33967100  0.34015000  1
  Cu  Cu4  1  0.34015000  0.33967100  0.86152400  1
  Cu  Cu5  1  0.65695300  0.13694000  0.65695300  1
  Cu  Cu6  1  0.13847600  0.66032900  0.65985000  1
  Cu  Cu7  1  0.65985000  0.66032900  0.13847600  1
  Cu  Cu8  1  0.00000000  0.50000000  0.00000000  1
  Cu  Cu9  1  0.50000000  0.00000000  0.00000000  1
  Cu  Cu10  1  0.00000000  0.00000000  0.50000000  1
  Cu  Cu11  1  0.73377600  0.00000000  0.26622400  1
  Cu  Cu12  1  0.99644900  0.27854800  0.72254100  1
  Cu  Cu13  1  0.27745900  0.72145200  0.00355100  1
  Cu  Cu14  1  0.00355100  0.72145200  0.27745900  1
  Cu  Cu15  1  0.72254100  0.27854800  0.99644900  1
  Cu  Cu16  1  0.26622400  0.00000000  0.73377600  1
  Cu  Cu17  1  0.90637900  0.90215100  0.90637900  1
  Cu  Cu18  1  0.09362100  0.09784900  0.09362100  1
  C  C19  1  0.00000000  0.50000000  0.50000000  1
  C  C20  1  0.50000000  0.50000000  0.00000000  1
