# generated using pymatgen
data_Cu3Ni9C76
_symmetry_space_group_name_H-M   'P 1'
_cell_length_a   5.69442100
_cell_length_b   8.99338600
_cell_length_c   18.59195259
_cell_angle_alpha   89.59233938
_cell_angle_beta   90.00000000
_cell_angle_gamma   90.00000000
_symmetry_Int_Tables_number   1
_chemical_formula_structural   Cu3Ni9C76
_chemical_formula_sum   'Cu3 Ni9 C76'
_cell_volume   952.10932056
_cell_formula_units_Z   1
loop_
 _symmetry_equiv_pos_site_id
 _symmetry_equiv_pos_as_xyz
  1  'x, y, z'
loop_
 _atom_site_type_symbol
 _atom_site_label
 _atom_site_symmetry_multiplicity
 _atom_site_fract_x
 _atom_site_fract_y
 _atom_site_fract_z
 _atom_site_occupancy
  C  C0  1  0.00000000  0.89585500  0.70975100  1
  C  C1  1  0.00000000  0.39454900  0.21054200  1
  C  C2  1  0.50000000  0.60502800  0.79015800  1
  C  C3  1  0.50000000  0.10528600  0.28989100  1
  C  C4  1  0.00000000  0.18125500  0.57684400  1
  C  C5  1  0.00000000  0.68168700  0.07690800  1
  C  C6  1  0.50000000  0.31818500  0.92327000  1
  C  C7  1  0.50000000  0.81833300  0.42422800  1
  Ni  Ni8  1  0.74945700  0.24925600  0.74957800  1
  Ni  Ni9  1  0.74990700  0.75002500  0.25015300  1
  Ni  Ni10  1  0.25054300  0.24925600  0.74957800  1
  Ni  Ni11  1  0.25009300  0.75002500  0.25015300  1
  Ni  Ni12  1  0.74947100  0.50282300  0.50103100  1
  Ni  Ni13  1  0.75007900  0.00006700  0.00007300  1
  Ni  Ni14  1  0.24992100  0.00006700  0.00007300  1
  Ni  Ni15  1  0.25052900  0.50282300  0.50103100  1
  Ni  Ni16  1  0.50000000  0.67638000  0.61457900  1
  Cu  Cu17  1  0.50000000  0.18103900  0.11182900  1
  Cu  Cu18  1  0.00000000  0.81887300  0.88833500  1
  Cu  Cu19  1  0.00000000  0.31991600  0.38877900  1
  C  C20  1  0.00000000  0.52657800  0.65816400  1
  C  C21  1  0.00000000  0.02432300  0.15947700  1
  C  C22  1  0.50000000  0.97570600  0.84061200  1
  C  C23  1  0.50000000  0.47565300  0.34096900  1
  C  C24  1  0.00000000  0.81472100  0.52359600  1
  C  C25  1  0.00000000  0.31447900  0.02298800  1
  C  C26  1  0.50000000  0.68561100  0.97702200  1
  C  C27  1  0.50000000  0.18585600  0.47726600  1
  C  C28  1  0.50000000  0.04118000  0.63655500  1
  C  C29  1  0.50000000  0.54856500  0.13753400  1
  C  C30  1  0.00000000  0.45125200  0.86233500  1
  C  C31  1  0.00000000  0.95156100  0.36268900  1
  C  C32  1  0.50000000  0.39320400  0.66341300  1
  C  C33  1  0.50000000  0.89272100  0.16360300  1
  C  C34  1  0.00000000  0.10760700  0.83613100  1
  C  C35  1  0.00000000  0.60725800  0.33638800  1
  C  C36  1  0.50000000  0.49684500  0.56640700  1
  C  C37  1  0.50000000  0.98581100  0.06411200  1
  C  C38  1  0.00000000  0.01414100  0.93577000  1
  C  C39  1  0.00000000  0.51496400  0.43643600  1
  C  C40  1  0.76379600  0.62677100  0.67511100  1
  C  C41  1  0.76878500  0.12582200  0.17873200  1
  C  C42  1  0.26901200  0.87404500  0.82098800  1
  C  C43  1  0.26873200  0.37434600  0.32133200  1
  C  C44  1  0.73098800  0.87404500  0.82098800  1
  C  C45  1  0.73126800  0.37434600  0.32133200  1
  C  C46  1  0.23620400  0.62677100  0.67511100  1
  C  C47  1  0.23121500  0.12582200  0.17873200  1
  C  C48  1  0.00000000  0.46885400  0.57256200  1
  C  C49  1  0.00000000  0.96944900  0.07296000  1
  C  C50  1  0.50000000  0.03048500  0.92701000  1
  C  C51  1  0.50000000  0.53062900  0.42755300  1
  C  C52  1  0.50000000  0.36802800  0.71507600  1
  C  C53  1  0.50000000  0.86844800  0.21531100  1
  C  C54  1  0.00000000  0.13195800  0.78439600  1
  C  C55  1  0.00000000  0.63140200  0.28465200  1
  C  C56  1  0.50000000  0.86358400  0.64800900  1
  C  C57  1  0.50000000  0.37290900  0.15380900  1
  C  C58  1  0.00000000  0.62703700  0.84564500  1
  C  C59  1  0.00000000  0.12748000  0.34648600  1
  C  C60  1  0.00000000  0.92640000  0.58922000  1
  C  C61  1  0.00000000  0.42478400  0.08915000  1
  C  C62  1  0.50000000  0.57537200  0.91074800  1
  C  C63  1  0.50000000  0.07581500  0.41093300  1
  C  C64  1  0.00000000  0.36464500  0.70279200  1
  C  C65  1  0.00000000  0.86230400  0.20293400  1
  C  C66  1  0.50000000  0.13779100  0.79721700  1
  C  C67  1  0.50000000  0.63738600  0.29711500  1
  C  C68  1  0.75433600  0.71387700  0.52109400  1
  C  C69  1  0.75549300  0.21238100  0.01931300  1
  C  C70  1  0.25534700  0.78759300  0.98047700  1
  C  C71  1  0.25729400  0.28930200  0.48173800  1
  C  C72  1  0.74465300  0.78759300  0.98047700  1
  C  C73  1  0.74270600  0.28930200  0.48173800  1
  C  C74  1  0.24566400  0.71387700  0.52109400  1
  C  C75  1  0.24450700  0.21238100  0.01931300  1
  C  C76  1  0.73482300  0.12007000  0.67077100  1
  C  C77  1  0.73714200  0.62553100  0.17015000  1
  C  C78  1  0.23731000  0.37446300  0.82964100  1
  C  C79  1  0.23716500  0.87467700  0.32985700  1
  C  C80  1  0.76269000  0.37446300  0.82964100  1
  C  C81  1  0.76283500  0.87467700  0.32985700  1
  C  C82  1  0.26517700  0.12007000  0.67077100  1
  C  C83  1  0.26285800  0.62553100  0.17015000  1
  C  C84  1  0.50000000  0.07994900  0.55005500  1
  C  C85  1  0.50000000  0.58059100  0.05020200  1
  C  C86  1  0.00000000  0.41953900  0.94965700  1
  C  C87  1  0.00000000  0.91864000  0.44984900  1
