# generated using pymatgen
data_Cu5Ni3C28
_symmetry_space_group_name_H-M   'P 1'
_cell_length_a   11.05294846
_cell_length_b   11.30016927
_cell_length_c   17.45693232
_cell_angle_alpha   108.83053603
_cell_angle_beta   108.44222253
_cell_angle_gamma   90.21113536
_symmetry_Int_Tables_number   1
_chemical_formula_structural   Cu5Ni3C28
_chemical_formula_sum   'Cu20 Ni12 C112'
_cell_volume   1944.05405746
_cell_formula_units_Z   4
loop_
 _symmetry_equiv_pos_site_id
 _symmetry_equiv_pos_as_xyz
  1  'x, y, z'
loop_
 _atom_site_type_symbol
 _atom_site_label
 _atom_site_symmetry_multiplicity
 _atom_site_fract_x
 _atom_site_fract_y
 _atom_site_fract_z
 _atom_site_occupancy
  C  C0  1  0.30540300  0.56083700  0.61341600  1
  C  C1  1  0.80933900  0.06147200  0.60929400  1
  C  C2  1  0.81266900  0.56322000  0.61287200  1
  C  C3  1  0.19111900  0.43379800  0.38484100  1
  C  C4  1  0.19523000  0.43908600  0.89099000  1
  C  C5  1  0.69625300  0.93277700  0.38365800  1
  C  C6  1  0.06117700  0.29895400  0.61083800  1
  C  C7  1  0.05804200  0.80191200  0.61365000  1
  C  C8  1  0.55799500  0.29913400  0.61297200  1
  C  C9  1  0.44272200  0.19850900  0.88617500  1
  C  C10  1  0.94667700  0.20130800  0.38583200  1
  C  C11  1  0.94931000  0.20381900  0.89084900  1
  C  C12  1  0.30202100  0.06938500  0.11211300  1
  C  C13  1  0.30141600  0.06587000  0.60748700  1
  C  C14  1  0.30136600  0.56487700  0.11467400  1
  C  C15  1  0.80278600  0.06723700  0.10774500  1
  C  C16  1  0.80563800  0.56793300  0.11241700  1
  C  C17  1  0.18833100  0.93347300  0.38687500  1
  C  C18  1  0.19619500  0.93508700  0.89372500  1
  C  C19  1  0.69999400  0.43354200  0.38816200  1
  C  C20  1  0.69601000  0.43835800  0.89124500  1
  C  C21  1  0.69161400  0.93295300  0.88846800  1
  C  C22  1  0.05676000  0.29285600  0.10993800  1
  C  C23  1  0.04978700  0.79716800  0.11277000  1
  C  C24  1  0.55059100  0.29189300  0.11042600  1
  C  C25  1  0.55791800  0.79368900  0.10999800  1
  C  C26  1  0.55749300  0.79607300  0.61047000  1
  C  C27  1  0.44456800  0.20566400  0.38773900  1
  C  C28  1  0.44496500  0.70454700  0.38738800  1
  C  C29  1  0.44416700  0.70667600  0.89107900  1
  C  C30  1  0.94076400  0.70300400  0.38722300  1
  C  C31  1  0.94454300  0.70656000  0.89410000  1
  Ni  Ni32  1  0.00285500  0.99954100  0.99918900  1
  Ni  Ni33  1  0.00439700  0.50031800  0.00403800  1
  Ni  Ni34  1  0.50392400  0.99937300  0.00211700  1
  Ni  Ni35  1  0.49958700  0.99802900  0.49770800  1
  Ni  Ni36  1  0.50401300  0.50259800  0.00265000  1
  Ni  Ni37  1  0.50287900  0.50025500  0.49674700  1
  Ni  Ni38  1  0.25599200  0.75307000  0.00792700  1
  Ni  Ni39  1  0.25377100  0.75123200  0.49882900  1
  Ni  Ni40  1  0.74977800  0.25235100  0.99958700  1
  Ni  Ni41  1  0.75191300  0.25082400  0.49706700  1
  Ni  Ni42  1  0.75442400  0.74950600  0.00030800  1
  Ni  Ni43  1  0.75339100  0.74705100  0.49632200  1
  Cu  Cu44  1  0.00470100  0.99593000  0.49643100  1
  Cu  Cu45  1  0.00143100  0.50040700  0.49684000  1
  Cu  Cu46  1  0.25774600  0.24963400  0.00316700  1
  Cu  Cu47  1  0.25393400  0.24693900  0.49839300  1
  Cu  Cu48  1  0.10961800  0.09207800  0.24682100  1
  Cu  Cu49  1  0.11436500  0.09288500  0.75526000  1
  Cu  Cu50  1  0.10878900  0.59696300  0.24872800  1
  Cu  Cu51  1  0.11376000  0.60467900  0.75710800  1
  Cu  Cu52  1  0.60263000  0.09704400  0.24667600  1
  Cu  Cu53  1  0.60644000  0.09395000  0.74836500  1
  Cu  Cu54  1  0.60703500  0.59000200  0.24731900  1
  Cu  Cu55  1  0.61257400  0.60357600  0.75309600  1
  Cu  Cu56  1  0.35886700  0.40395900  0.24837000  1
  Cu  Cu57  1  0.36875900  0.40733100  0.75330700  1
  Cu  Cu58  1  0.35702500  0.90496600  0.25058800  1
  Cu  Cu59  1  0.36753500  0.90271300  0.75049000  1
  Cu  Cu60  1  0.85125600  0.40309100  0.24424700  1
  Cu  Cu61  1  0.85969900  0.41014300  0.75382300  1
  Cu  Cu62  1  0.85897400  0.90381500  0.24465600  1
  Cu  Cu63  1  0.85674700  0.90028000  0.75104800  1
  C  C64  1  0.12673000  0.11432500  0.48950800  1
  C  C65  1  0.12486300  0.11302300  0.99078000  1
  C  C66  1  0.12264400  0.62566900  0.48831500  1
  C  C67  1  0.12626000  0.62663200  0.98963000  1
  C  C68  1  0.62242200  0.12193400  0.48506500  1
  C  C69  1  0.62907800  0.12032700  0.98808000  1
  C  C70  1  0.62304200  0.61595200  0.48291900  1
  C  C71  1  0.62730600  0.62135700  0.98549500  1
  C  C72  1  0.13587300  0.38918900  0.01976500  1
  C  C73  1  0.12605400  0.38190800  0.50428000  1
  C  C74  1  0.14285600  0.88063300  0.01742700  1
  C  C75  1  0.13779600  0.88142400  0.50943200  1
  C  C76  1  0.64138900  0.38107100  0.01751400  1
  C  C77  1  0.63483000  0.37793600  0.50798500  1
  C  C78  1  0.64290500  0.87960600  0.01710800  1
  C  C79  1  0.63312500  0.87026800  0.50767600  1
  C  C80  1  0.37493200  0.10643400  0.48317200  1
  C  C81  1  0.37692700  0.10683500  0.98619200  1
  C  C82  1  0.37689500  0.61980700  0.48503100  1
  C  C83  1  0.38048400  0.62098500  0.98902900  1
  C  C84  1  0.87700200  0.11600400  0.48998100  1
  C  C85  1  0.87541300  0.11567500  0.99109300  1
  C  C86  1  0.87291000  0.61653800  0.48688400  1
  C  C87  1  0.87458900  0.61671800  0.98584000  1
  C  C88  1  0.39230600  0.39116500  0.01719500  1
  C  C89  1  0.38514000  0.38130200  0.50626700  1
  C  C90  1  0.39146400  0.88245000  0.01520900  1
  C  C91  1  0.38864000  0.88184600  0.51379400  1
  C  C92  1  0.88840700  0.38776200  0.01792600  1
  C  C93  1  0.88106700  0.38029000  0.50583400  1
  C  C94  1  0.89352800  0.88510100  0.01790700  1
  C  C95  1  0.88493900  0.87570600  0.50681300  1
  C  C96  1  0.08401100  0.09271700  0.13133500  1
  C  C97  1  0.08410300  0.08303400  0.64041800  1
  C  C98  1  0.07865000  0.60285600  0.12781000  1
  C  C99  1  0.07496000  0.59170800  0.64172600  1
  C  C100  1  0.58342200  0.09592500  0.12513900  1
  C  C101  1  0.58049700  0.08488600  0.62442400  1
  C  C102  1  0.58870500  0.59713000  0.12702800  1
  C  C103  1  0.57487200  0.59133300  0.62492900  1
  C  C104  1  0.45056500  0.40518100  0.37053800  1
  C  C105  1  0.45854400  0.41132000  0.87695200  1
  C  C106  1  0.45016800  0.90185200  0.37155300  1
  C  C107  1  0.46331400  0.90635300  0.87532000  1
  C  C108  1  0.93309500  0.41223700  0.35756200  1
  C  C109  1  0.95240900  0.41388900  0.87688200  1
  C  C110  1  0.94841200  0.89768800  0.36289000  1
  C  C111  1  0.95406500  0.90556400  0.87622400  1
  C  C112  1  0.33416000  0.28091800  0.12704700  1
  C  C113  1  0.32413700  0.28843700  0.62811200  1
  C  C114  1  0.33419600  0.78028300  0.12811300  1
  C  C115  1  0.32904500  0.78697100  0.62530000  1
  C  C116  1  0.82869600  0.28698400  0.12864800  1
  C  C117  1  0.82345900  0.29669300  0.62725400  1
  C  C118  1  0.83462200  0.77736500  0.12528100  1
  C  C119  1  0.82271300  0.79031200  0.62577500  1
  C  C120  1  0.19186100  0.19786800  0.36500800  1
  C  C121  1  0.19331300  0.20882100  0.87320600  1
  C  C122  1  0.20454700  0.71556400  0.37253200  1
  C  C123  1  0.20498300  0.71582200  0.87430700  1
  C  C124  1  0.69616300  0.21305900  0.37135500  1
  C  C125  1  0.70013700  0.21927200  0.87572400  1
  C  C126  1  0.70329200  0.70557400  0.36985000  1
  C  C127  1  0.71158600  0.72427600  0.87659000  1
  C  C128  1  0.41430400  0.07921900  0.24854000  1
  C  C129  1  0.41701100  0.07421600  0.74210300  1
  C  C130  1  0.41967300  0.57828200  0.24875300  1
  C  C131  1  0.43021800  0.58326000  0.75916900  1
  C  C132  1  0.92567600  0.07212800  0.23918600  1
  C  C133  1  0.93458400  0.06973700  0.75145200  1
  C  C134  1  0.91974900  0.56843500  0.24822000  1
  C  C135  1  0.93650800  0.58590700  0.76154300  1
  C  C136  1  0.16806600  0.42113800  0.24050400  1
  C  C137  1  0.18456600  0.44331800  0.75287400  1
  C  C138  1  0.16831400  0.92329100  0.24838100  1
  C  C139  1  0.18629200  0.93476200  0.76177900  1
  C  C140  1  0.66968200  0.41311000  0.24601800  1
  C  C141  1  0.67601600  0.43230600  0.75863200  1
  C  C142  1  0.67161300  0.92551000  0.24024200  1
  C  C143  1  0.66953700  0.92141000  0.75197400  1
