# generated using pymatgen
data_Cu7Ni3C13
_symmetry_space_group_name_H-M   'P 1'
_cell_length_a   8.32434464
_cell_length_b   8.32434464
_cell_length_c   15.44555684
_cell_angle_alpha   97.55560612
_cell_angle_beta   97.55560612
_cell_angle_gamma   103.01180888
_symmetry_Int_Tables_number   1
_chemical_formula_structural   Cu7Ni3C13
_chemical_formula_sum   'Cu28 Ni12 C52'
_cell_volume   1019.28033177
_cell_formula_units_Z   4
loop_
 _symmetry_equiv_pos_site_id
 _symmetry_equiv_pos_as_xyz
  1  'x, y, z'
loop_
 _atom_site_type_symbol
 _atom_site_label
 _atom_site_symmetry_multiplicity
 _atom_site_fract_x
 _atom_site_fract_y
 _atom_site_fract_z
 _atom_site_occupancy
  C  C0  1  0.00000000  0.50000000  0.00000000  1
  C  C1  1  0.50000000  0.00000000  0.50000000  1
  C  C2  1  0.13685900  0.43260300  0.63966700  1
  C  C3  1  0.56739700  0.86314100  0.86033300  1
  C  C4  1  0.86314100  0.56739700  0.36033300  1
  C  C5  1  0.43260300  0.13685900  0.13966700  1
  C  C6  1  0.04249700  0.95750300  0.75000000  1
  C  C7  1  0.95750300  0.04249700  0.25000000  1
  C  C8  1  0.59145900  0.55956500  0.68209300  1
  C  C9  1  0.44043500  0.40854100  0.81790700  1
  C  C10  1  0.40854100  0.44043500  0.31790700  1
  C  C11  1  0.55956500  0.59145900  0.18209300  1
  C  C12  1  0.73271500  0.48763100  0.64477500  1
  C  C13  1  0.51236900  0.26728500  0.85522500  1
  C  C14  1  0.26728500  0.51236900  0.35522500  1
  C  C15  1  0.48763100  0.73271500  0.14477500  1
  C  C16  1  0.20026000  0.34518900  0.93952600  1
  C  C17  1  0.65481100  0.79974000  0.56047400  1
  C  C18  1  0.79974000  0.65481100  0.06047400  1
  C  C19  1  0.34518900  0.20026000  0.43952600  1
  C  C20  1  0.77620400  0.42218300  0.86023800  1
  C  C21  1  0.57781700  0.22379600  0.63976200  1
  C  C22  1  0.22379600  0.57781700  0.13976200  1
  C  C23  1  0.42218300  0.77620400  0.36023800  1
  C  C24  1  0.09599300  0.81538000  0.04489200  1
  C  C25  1  0.18462000  0.90400700  0.45510800  1
  C  C26  1  0.90400700  0.18462000  0.95510800  1
  C  C27  1  0.81538000  0.09599300  0.54489200  1
  C  C28  1  0.93124300  0.33113000  0.84536700  1
  C  C29  1  0.66887000  0.06875700  0.65463300  1
  C  C30  1  0.06875700  0.66887000  0.15463300  1
  C  C31  1  0.33113000  0.93124300  0.34536700  1
  C  C32  1  0.25652500  0.54173200  0.92451200  1
  C  C33  1  0.45826800  0.74347500  0.57548800  1
  C  C34  1  0.74347500  0.45826800  0.07548800  1
  C  C35  1  0.54173200  0.25652500  0.42451200  1
  C  C36  1  0.16568200  0.76268900  0.95248600  1
  C  C37  1  0.23731100  0.83431800  0.54751400  1
  C  C38  1  0.83431800  0.23731100  0.04751400  1
  C  C39  1  0.76268900  0.16568200  0.45248600  1
  C  C40  1  0.30728300  0.49228500  0.02277000  1
  C  C41  1  0.50771500  0.69271700  0.47723000  1
  C  C42  1  0.69271700  0.50771500  0.97723000  1
  C  C43  1  0.49228500  0.30728300  0.52277000  1
  C  C44  1  0.95287400  0.53089300  0.83685800  1
  C  C45  1  0.46910700  0.04712600  0.66314200  1
  C  C46  1  0.04712600  0.46910700  0.16314200  1
  C  C47  1  0.53089300  0.95287400  0.33685800  1
  C  C48  1  0.96640500  0.76877800  0.94986400  1
  C  C49  1  0.23122200  0.03359500  0.55013600  1
  C  C50  1  0.03359500  0.23122200  0.05013600  1
  C  C51  1  0.76877800  0.96640500  0.44986400  1
  Ni  Ni52  1  0.06498100  0.73679300  0.98504700  1
  Ni  Ni53  1  0.26320700  0.93501900  0.51495300  1
  Ni  Ni54  1  0.93501900  0.26320700  0.01495300  1
  Ni  Ni55  1  0.73679300  0.06498100  0.48504700  1
  Ni  Ni56  1  0.90458100  0.43993700  0.87199700  1
  Ni  Ni57  1  0.56006300  0.09541900  0.62800300  1
  Ni  Ni58  1  0.09541900  0.56006300  0.12800300  1
  Ni  Ni59  1  0.43993700  0.90458100  0.37199700  1
  Ni  Ni60  1  0.21378200  0.46660200  0.96852300  1
  Ni  Ni61  1  0.53339800  0.78621800  0.53147700  1
  Ni  Ni62  1  0.78621800  0.53339800  0.03147700  1
  Ni  Ni63  1  0.46660200  0.21378200  0.46852300  1
  Cu  Cu64  1  0.99614200  0.75622800  0.77757600  1
  Cu  Cu65  1  0.24377200  0.00385800  0.72242400  1
  Cu  Cu66  1  0.00385800  0.24377200  0.22242400  1
  Cu  Cu67  1  0.75622800  0.99614200  0.27757600  1
  Cu  Cu68  1  0.61100200  0.46995900  0.63961200  1
  Cu  Cu69  1  0.53004100  0.38899800  0.86038800  1
  Cu  Cu70  1  0.38899800  0.53004100  0.36038800  1
  Cu  Cu71  1  0.46995900  0.61100200  0.13961200  1
  Cu  Cu72  1  0.91846100  0.38746600  0.63401600  1
  Cu  Cu73  1  0.61253400  0.08153900  0.86598400  1
  Cu  Cu74  1  0.08153900  0.61253400  0.36598400  1
  Cu  Cu75  1  0.38746600  0.91846100  0.13401600  1
  Cu  Cu76  1  0.18679700  0.27090400  0.57191400  1
  Cu  Cu77  1  0.72909600  0.81320300  0.92808600  1
  Cu  Cu78  1  0.81320300  0.72909600  0.42808600  1
  Cu  Cu79  1  0.27090400  0.18679700  0.07191400  1
  Cu  Cu80  1  0.20817400  0.62218400  0.60229200  1
  Cu  Cu81  1  0.37781600  0.79182600  0.89770800  1
  Cu  Cu82  1  0.79182600  0.37781600  0.39770800  1
  Cu  Cu83  1  0.62218400  0.20817400  0.10229200  1
  Cu  Cu84  1  0.23193000  0.44262200  0.74923400  1
  Cu  Cu85  1  0.55737800  0.76807000  0.75076600  1
  Cu  Cu86  1  0.76807000  0.55737800  0.25076600  1
  Cu  Cu87  1  0.44262200  0.23193000  0.24923400  1
  Cu  Cu88  1  0.89543000  0.96730800  0.65916500  1
  Cu  Cu89  1  0.03269200  0.10457000  0.84083500  1
  Cu  Cu90  1  0.10457000  0.03269200  0.34083500  1
  Cu  Cu91  1  0.96730800  0.89543000  0.15916500  1
