# generated using pymatgen
data_Cu3NiC
_symmetry_space_group_name_H-M   'P 1'
_cell_length_a   6.01803500
_cell_length_b   10.55782400
_cell_length_c   13.89883900
_cell_angle_alpha   90.00000000
_cell_angle_beta   90.00000000
_cell_angle_gamma   90.00000000
_symmetry_Int_Tables_number   1
_chemical_formula_structural   Cu3NiC
_chemical_formula_sum   'Cu24 Ni8 C8'
_cell_volume   883.09545868
_cell_formula_units_Z   8
loop_
 _symmetry_equiv_pos_site_id
 _symmetry_equiv_pos_as_xyz
  1  'x, y, z'
loop_
 _atom_site_type_symbol
 _atom_site_label
 _atom_site_symmetry_multiplicity
 _atom_site_fract_x
 _atom_site_fract_y
 _atom_site_fract_z
 _atom_site_occupancy
  C  C0  1  0.91359500  0.66884200  0.21074000  1
  C  C1  1  0.58640500  0.66884200  0.28926000  1
  C  C2  1  0.41359500  0.83115800  0.78926000  1
  C  C3  1  0.08640500  0.83115800  0.71074000  1
  C  C4  1  0.08640500  0.33115800  0.78926000  1
  C  C5  1  0.41359500  0.33115800  0.71074000  1
  C  C6  1  0.58640500  0.16884200  0.21074000  1
  C  C7  1  0.91359500  0.16884200  0.28926000  1
  Ni  Ni8  1  0.07942900  0.92149300  0.98502000  1
  Ni  Ni9  1  0.42057100  0.92149300  0.51498000  1
  Ni  Ni10  1  0.57942900  0.57850700  0.01498000  1
  Ni  Ni11  1  0.92057100  0.57850700  0.48502000  1
  Ni  Ni12  1  0.92057100  0.07850700  0.01498000  1
  Ni  Ni13  1  0.57942900  0.07850700  0.48502000  1
  Ni  Ni14  1  0.42057100  0.42149300  0.98502000  1
  Ni  Ni15  1  0.07942900  0.42149300  0.51498000  1
  Cu  Cu16  1  0.98833400  0.79664000  0.18428300  1
  Cu  Cu17  1  0.51166600  0.79664000  0.31571700  1
  Cu  Cu18  1  0.48833400  0.70336000  0.81571700  1
  Cu  Cu19  1  0.01166600  0.70336000  0.68428300  1
  Cu  Cu20  1  0.01166600  0.20336000  0.81571700  1
  Cu  Cu21  1  0.48833400  0.20336000  0.68428300  1
  Cu  Cu22  1  0.51166600  0.29664000  0.18428300  1
  Cu  Cu23  1  0.98833400  0.29664000  0.31571700  1
  Cu  Cu24  1  0.02314600  0.65030700  0.43838900  1
  Cu  Cu25  1  0.47685400  0.65030700  0.06161100  1
  Cu  Cu26  1  0.52314600  0.84969300  0.56161100  1
  Cu  Cu27  1  0.97685400  0.84969300  0.93838900  1
  Cu  Cu28  1  0.97685400  0.34969300  0.56161100  1
  Cu  Cu29  1  0.52314600  0.34969300  0.93838900  1
  Cu  Cu30  1  0.47685400  0.15030700  0.43838900  1
  Cu  Cu31  1  0.02314600  0.15030700  0.06161100  1
  Cu  Cu32  1  0.99451200  0.53979700  0.19233300  1
  Cu  Cu33  1  0.50548800  0.53979700  0.30766700  1
  Cu  Cu34  1  0.49451200  0.96020300  0.80766700  1
  Cu  Cu35  1  0.00548800  0.96020300  0.69233300  1
  Cu  Cu36  1  0.00548800  0.46020300  0.80766700  1
  Cu  Cu37  1  0.49451200  0.46020300  0.69233300  1
  Cu  Cu38  1  0.50548800  0.03979700  0.19233300  1
  Cu  Cu39  1  0.99451200  0.03979700  0.30766700  1
