# generated using pymatgen
data_CuNiC6
_symmetry_space_group_name_H-M   'P 1'
_cell_length_a   7.35896100
_cell_length_b   7.85670000
_cell_length_c   8.59766300
_cell_angle_alpha   90.00000000
_cell_angle_beta   90.00000000
_cell_angle_gamma   90.00000000
_symmetry_Int_Tables_number   1
_chemical_formula_structural   CuNiC6
_chemical_formula_sum   'Cu4 Ni4 C24'
_cell_volume   497.09236177
_cell_formula_units_Z   4
loop_
 _symmetry_equiv_pos_site_id
 _symmetry_equiv_pos_as_xyz
  1  'x, y, z'
loop_
 _atom_site_type_symbol
 _atom_site_label
 _atom_site_symmetry_multiplicity
 _atom_site_fract_x
 _atom_site_fract_y
 _atom_site_fract_z
 _atom_site_occupancy
  C  C0  1  0.00862500  0.64233300  0.60640000  1
  C  C1  1  0.49137500  0.35766700  0.10640000  1
  C  C2  1  0.99137500  0.14233300  0.89360000  1
  C  C3  1  0.50862500  0.85766700  0.39360000  1
  Ni  Ni4  1  0.21061900  0.74231400  0.95527700  1
  Ni  Ni5  1  0.28938100  0.25768600  0.45527700  1
  Ni  Ni6  1  0.78938100  0.24231400  0.54472300  1
  Ni  Ni7  1  0.71061900  0.75768600  0.04472300  1
  Cu  Cu8  1  0.45797400  0.08269300  0.79783600  1
  Cu  Cu9  1  0.04202600  0.91730700  0.29783600  1
  Cu  Cu10  1  0.54202600  0.58269300  0.70216400  1
  Cu  Cu11  1  0.95797400  0.41730700  0.20216400  1
  C  C12  1  0.43742500  0.89421000  0.90457700  1
  C  C13  1  0.06257500  0.10579000  0.40457700  1
  C  C14  1  0.56257500  0.39421000  0.59542300  1
  C  C15  1  0.93742500  0.60579000  0.09542300  1
  C  C16  1  0.32937500  0.22901700  0.89515200  1
  C  C17  1  0.17062500  0.77098300  0.39515200  1
  C  C18  1  0.67062500  0.72901700  0.60484800  1
  C  C19  1  0.82937500  0.27098300  0.10484800  1
  C  C20  1  0.68624900  0.12397300  0.79372100  1
  C  C21  1  0.81375100  0.87602700  0.29372100  1
  C  C22  1  0.31375100  0.62397300  0.70627900  1
  C  C23  1  0.18624900  0.37602700  0.20627900  1
  C  C24  1  0.37495700  0.04912800  0.61140500  1
  C  C25  1  0.12504300  0.95087200  0.11140500  1
  C  C26  1  0.62504300  0.54912800  0.88859500  1
  C  C27  1  0.87495700  0.45087200  0.38859500  1
  C  C28  1  0.03753800  0.84645900  0.81400700  1
  C  C29  1  0.46246200  0.15354100  0.31400700  1
  C  C30  1  0.96246200  0.34645900  0.68599300  1
  C  C31  1  0.53753800  0.65354100  0.18599300  1
