# generated using pymatgen
data_Cu3Ni2C19
_symmetry_space_group_name_H-M   'P 1'
_cell_length_a   2.91327400
_cell_length_b   8.32225400
_cell_length_c   9.75794964
_cell_angle_alpha   64.92222903
_cell_angle_beta   90.00000000
_cell_angle_gamma   90.00000000
_symmetry_Int_Tables_number   1
_chemical_formula_structural   Cu3Ni2C19
_chemical_formula_sum   'Cu3 Ni2 C19'
_cell_volume   214.27978929
_cell_formula_units_Z   1
loop_
 _symmetry_equiv_pos_site_id
 _symmetry_equiv_pos_as_xyz
  1  'x, y, z'
loop_
 _atom_site_type_symbol
 _atom_site_label
 _atom_site_symmetry_multiplicity
 _atom_site_fract_x
 _atom_site_fract_y
 _atom_site_fract_z
 _atom_site_occupancy
  C  C0  1  0.00000000  0.31651500  0.33528300  1
  C  C1  1  0.00000000  0.68348500  0.66471700  1
  C  C2  1  0.00000000  0.00000000  0.00000000  1
  C  C3  1  0.50000000  0.83654900  0.82489700  1
  C  C4  1  0.50000000  0.16345100  0.17510300  1
  C  C5  1  0.50000000  0.50000000  0.50000000  1
  C  C6  1  0.50000000  0.00000000  0.50000000  1
  Ni  Ni7  1  0.00000000  0.15693000  0.66327800  1
  Ni  Ni8  1  0.00000000  0.84307000  0.33672200  1
  Cu  Cu9  1  0.00000000  0.50000000  0.00000000  1
  Cu  Cu10  1  0.50000000  0.66352400  0.16914900  1
  Cu  Cu11  1  0.50000000  0.33647600  0.83085100  1
  C  C12  1  0.00000000  0.93473300  0.66974500  1
  C  C13  1  0.00000000  0.26072300  0.98528600  1
  C  C14  1  0.00000000  0.60071700  0.32320200  1
  C  C15  1  0.50000000  0.42494700  0.15757600  1
  C  C16  1  0.50000000  0.75811900  0.48155500  1
  C  C17  1  0.50000000  0.09539200  0.81572500  1
  C  C18  1  0.00000000  0.73927700  0.01471400  1
  C  C19  1  0.00000000  0.06526700  0.33025500  1
  C  C20  1  0.00000000  0.39928300  0.67679800  1
  C  C21  1  0.50000000  0.24188100  0.51844500  1
  C  C22  1  0.50000000  0.57505300  0.84242400  1
  C  C23  1  0.50000000  0.90460800  0.18427500  1
