# generated using pymatgen
data_Cu6Ni5C28
_symmetry_space_group_name_H-M   'P 1'
_cell_length_a   11.78112445
_cell_length_b   11.78112445
_cell_length_c   11.73626551
_cell_angle_alpha   60.29602292
_cell_angle_beta   60.29602292
_cell_angle_gamma   90.55152774
_symmetry_Int_Tables_number   1
_chemical_formula_structural   Cu6Ni5C28
_chemical_formula_sum   'Cu12 Ni10 C56'
_cell_volume   1156.54549672
_cell_formula_units_Z   2
loop_
 _symmetry_equiv_pos_site_id
 _symmetry_equiv_pos_as_xyz
  1  'x, y, z'
loop_
 _atom_site_type_symbol
 _atom_site_label
 _atom_site_symmetry_multiplicity
 _atom_site_fract_x
 _atom_site_fract_y
 _atom_site_fract_z
 _atom_site_occupancy
  Ni  Ni0  1  0.86502900  0.13497100  0.75000000  1
  Ni  Ni1  1  0.61555900  0.38444100  0.25000000  1
  Ni  Ni2  1  0.13497100  0.86502900  0.25000000  1
  Ni  Ni3  1  0.38444100  0.61555900  0.75000000  1
  Ni  Ni4  1  0.62596400  0.37403600  0.75000000  1
  Ni  Ni5  1  0.37403600  0.62596400  0.25000000  1
  Ni  Ni6  1  0.61839700  0.84941300  0.22070400  1
  Ni  Ni7  1  0.15058700  0.38160300  0.27929600  1
  Ni  Ni8  1  0.38160300  0.15058700  0.77929600  1
  Ni  Ni9  1  0.84941300  0.61839700  0.72070400  1
  Cu  Cu10  1  0.23719400  0.80744700  0.51811300  1
  Cu  Cu11  1  0.19255300  0.76280600  0.98188700  1
  Cu  Cu12  1  0.17195100  0.24316200  0.06621900  1
  Cu  Cu13  1  0.75683800  0.82804900  0.43378100  1
  Cu  Cu14  1  0.76280600  0.19255300  0.48188700  1
  Cu  Cu15  1  0.80744700  0.23719400  0.01811300  1
  Cu  Cu16  1  0.82804900  0.75683800  0.93378100  1
  Cu  Cu17  1  0.24316200  0.17195100  0.56621900  1
  Cu  Cu18  1  0.43018400  0.16216700  0.18576700  1
  Cu  Cu19  1  0.83783300  0.56981600  0.31423300  1
  Cu  Cu20  1  0.56981600  0.83783300  0.81423300  1
  Cu  Cu21  1  0.16216700  0.43018400  0.68576700  1
  C  C22  1  0.50000000  0.00000000  0.50000000  1
  C  C23  1  0.00000000  0.50000000  0.00000000  1
  C  C24  1  0.00000000  0.00000000  0.50000000  1
  C  C25  1  0.00000000  0.00000000  0.00000000  1
  C  C26  1  0.00000000  0.50000000  0.50000000  1
  C  C27  1  0.50000000  0.00000000  0.00000000  1
  C  C28  1  0.50000000  0.50000000  0.50000000  1
  C  C29  1  0.50000000  0.50000000  0.00000000  1
  C  C30  1  0.10207100  0.64395600  0.49987800  1
  C  C31  1  0.35604400  0.89792900  0.00012200  1
  C  C32  1  0.35177800  0.40282100  0.74338200  1
  C  C33  1  0.59717900  0.64822200  0.75661800  1
  C  C34  1  0.89792900  0.35604400  0.50012200  1
  C  C35  1  0.64395600  0.10207100  0.99987800  1
  C  C36  1  0.64822200  0.59717900  0.25661800  1
  C  C37  1  0.40282100  0.35177800  0.24338200  1
  C  C38  1  0.41672400  0.15263300  0.97996400  1
  C  C39  1  0.84736700  0.58327600  0.52003600  1
  C  C40  1  0.37601000  0.61327900  0.03940900  1
  C  C41  1  0.38672100  0.62399000  0.46059100  1
  C  C42  1  0.58327600  0.84736700  0.02003600  1
  C  C43  1  0.15263300  0.41672400  0.47996400  1
  C  C44  1  0.62399000  0.38672100  0.96059100  1
  C  C45  1  0.61327900  0.37601000  0.53940900  1
  C  C46  1  0.39552000  0.84145800  0.74025000  1
  C  C47  1  0.15854200  0.60448000  0.75975000  1
  C  C48  1  0.92228300  0.87000500  0.46949500  1
  C  C49  1  0.12999500  0.07771700  0.03050500  1
  C  C50  1  0.60448000  0.15854200  0.25975000  1
  C  C51  1  0.84145800  0.39552000  0.24025000  1
  C  C52  1  0.07771700  0.12999500  0.53050500  1
  C  C53  1  0.87000500  0.92228300  0.96949500  1
  C  C54  1  0.38308400  0.89933500  0.23953400  1
  C  C55  1  0.10066500  0.61691600  0.26046600  1
  C  C56  1  0.36386600  0.37436800  0.02136200  1
  C  C57  1  0.62563200  0.63613400  0.47863800  1
  C  C58  1  0.61691600  0.10066500  0.76046600  1
  C  C59  1  0.89933500  0.38308400  0.73953400  1
  C  C60  1  0.63613400  0.62563200  0.97863800  1
  C  C61  1  0.37436800  0.36386600  0.52136200  1
  C  C62  1  0.98758900  0.67093300  0.00782100  1
  C  C63  1  0.32906700  0.01241100  0.49217900  1
  C  C64  1  0.82673800  0.00876700  0.16420400  1
  C  C65  1  0.99123300  0.17326200  0.33579600  1
  C  C66  1  0.01241100  0.32906700  0.99217900  1
  C  C67  1  0.67093300  0.98758900  0.50782100  1
  C  C68  1  0.17326200  0.99123300  0.83579600  1
  C  C69  1  0.00876700  0.82673800  0.66420400  1
  C  C70  1  0.85140100  0.50294000  0.96538800  1
  C  C71  1  0.49706000  0.14859900  0.53461200  1
  C  C72  1  0.03618000  0.18834600  0.81797400  1
  C  C73  1  0.81165400  0.96382000  0.68202600  1
  C  C74  1  0.14859900  0.49706000  0.03461200  1
  C  C75  1  0.50294000  0.85140100  0.46538800  1
  C  C76  1  0.96382000  0.81165400  0.18202600  1
  C  C77  1  0.18834600  0.03618000  0.31797400  1
