# generated using pymatgen
data_CuNi3C10
_symmetry_space_group_name_H-M   'P 1'
_cell_length_a   6.90133291
_cell_length_b   6.90133291
_cell_length_c   5.47622900
_cell_angle_alpha   90.00000000
_cell_angle_beta   90.00000000
_cell_angle_gamma   133.34641302
_symmetry_Int_Tables_number   1
_chemical_formula_structural   CuNi3C10
_chemical_formula_sum   'Cu1 Ni3 C10'
_cell_volume   189.67563990
_cell_formula_units_Z   1
loop_
 _symmetry_equiv_pos_site_id
 _symmetry_equiv_pos_as_xyz
  1  'x, y, z'
loop_
 _atom_site_type_symbol
 _atom_site_label
 _atom_site_symmetry_multiplicity
 _atom_site_fract_x
 _atom_site_fract_y
 _atom_site_fract_z
 _atom_site_occupancy
  Ni  Ni0  1  0.64644600  0.35355400  0.00000000  1
  Ni  Ni1  1  0.35491600  0.64508400  0.00000000  1
  Ni  Ni2  1  0.85439300  0.14560700  0.50000000  1
  Cu  Cu3  1  0.13978200  0.86021800  0.50000000  1
  C  C4  1  0.50376800  0.49623200  0.50000000  1
  C  C5  1  0.99761300  0.00238700  0.00000000  1
  C  C6  1  0.84239200  0.15760800  0.00000000  1
  C  C7  1  0.31787700  0.68212300  0.50000000  1
  C  C8  1  0.66468100  0.33531900  0.50000000  1
  C  C9  1  0.16051400  0.83948600  0.00000000  1
  C  C10  1  0.25385100  0.24504200  0.25958800  1
  C  C11  1  0.75495800  0.74614900  0.74041200  1
  C  C12  1  0.75495800  0.74614900  0.25958800  1
  C  C13  1  0.25385100  0.24504200  0.74041200  1
