# generated using pymatgen
data_CuNi4C3
_symmetry_space_group_name_H-M   'P 1'
_cell_length_a   9.76323461
_cell_length_b   9.76323461
_cell_length_c   9.76323461
_cell_angle_alpha   132.03720804
_cell_angle_beta   132.03720804
_cell_angle_gamma   70.17026719
_symmetry_Int_Tables_number   1
_chemical_formula_structural   CuNi4C3
_chemical_formula_sum   'Cu2 Ni8 C6'
_cell_volume   503.20621519
_cell_formula_units_Z   2
loop_
 _symmetry_equiv_pos_site_id
 _symmetry_equiv_pos_as_xyz
  1  'x, y, z'
loop_
 _atom_site_type_symbol
 _atom_site_label
 _atom_site_symmetry_multiplicity
 _atom_site_fract_x
 _atom_site_fract_y
 _atom_site_fract_z
 _atom_site_occupancy
  Ni  Ni0  1  0.82024800  0.32024800  0.86079400  1
  Ni  Ni1  1  0.17975200  0.67975200  0.13920600  1
  Ni  Ni2  1  0.45945500  0.95945500  0.13920600  1
  Ni  Ni3  1  0.32024800  0.45945500  0.50000000  1
  Ni  Ni4  1  0.04054500  0.17975200  0.50000000  1
  Ni  Ni5  1  0.54054500  0.04054500  0.86079400  1
  Ni  Ni6  1  0.67975200  0.54054500  0.50000000  1
  Ni  Ni7  1  0.95945500  0.82024800  0.50000000  1
  Cu  Cu8  1  0.00000000  0.00000000  0.00000000  1
  Cu  Cu9  1  0.50000000  0.50000000  0.00000000  1
  C  C10  1  0.11059500  0.61059500  0.72119100  1
  C  C11  1  0.88940500  0.38940500  0.27880900  1
  C  C12  1  0.61059500  0.88940500  0.50000000  1
  C  C13  1  0.38940500  0.11059500  0.50000000  1
  C  C14  1  0.25000000  0.25000000  0.00000000  1
  C  C15  1  0.75000000  0.75000000  0.00000000  1
