# generated using pymatgen
data_CuNiC7
_symmetry_space_group_name_H-M   'P 1'
_cell_length_a   4.70436200
_cell_length_b   9.40811500
_cell_length_c   9.08635200
_cell_angle_alpha   89.99991954
_cell_angle_beta   90.00079917
_cell_angle_gamma   89.99834965
_symmetry_Int_Tables_number   1
_chemical_formula_structural   CuNiC7
_chemical_formula_sum   'Cu4 Ni4 C28'
_cell_volume   402.15447677
_cell_formula_units_Z   4
loop_
 _symmetry_equiv_pos_site_id
 _symmetry_equiv_pos_as_xyz
  1  'x, y, z'
loop_
 _atom_site_type_symbol
 _atom_site_label
 _atom_site_symmetry_multiplicity
 _atom_site_fract_x
 _atom_site_fract_y
 _atom_site_fract_z
 _atom_site_occupancy
  Ni  Ni0  1  0.49998500  0.25001100  0.49817100  1
  Ni  Ni1  1  0.49998200  0.75000800  0.49816900  1
  Ni  Ni2  1  0.99998100  0.99999200  0.99815600  1
  Ni  Ni3  1  0.99997400  0.49998700  0.99815500  1
  Cu  Cu4  1  0.49999400  0.25000500  0.83430400  1
  Cu  Cu5  1  0.49998500  0.75001200  0.83430700  1
  Cu  Cu6  1  0.99999200  0.99999400  0.33428700  1
  Cu  Cu7  1  0.99998900  0.49998700  0.33428800  1
  C  C8  1  0.50000300  0.74999500  0.16721100  1
  C  C9  1  0.00000900  0.50001000  0.66721600  1
  C  C10  1  0.49998200  0.24998700  0.16721600  1
  C  C11  1  0.99999500  0.00001000  0.66720400  1
  C  C12  1  0.19425200  0.40264800  0.16490500  1
  C  C13  1  0.19425600  0.90265000  0.16490500  1
  C  C14  1  0.80575000  0.09735300  0.16490000  1
  C  C15  1  0.80574600  0.59735200  0.16490000  1
  C  C16  1  0.30580000  0.15291000  0.66484100  1
  C  C17  1  0.30579800  0.65291300  0.66484300  1
  C  C18  1  0.69420500  0.34708600  0.66484600  1
  C  C19  1  0.69420100  0.84708700  0.66484700  1
  C  C20  1  0.20035800  0.40026800  0.49810800  1
  C  C21  1  0.20036200  0.90026800  0.49810600  1
  C  C22  1  0.79965600  0.09972200  0.49810900  1
  C  C23  1  0.79965700  0.59972300  0.49811000  1
  C  C24  1  0.30047900  0.15023900  0.99813700  1
  C  C25  1  0.30048300  0.65024000  0.99813800  1
  C  C26  1  0.69953900  0.34977100  0.99813500  1
  C  C27  1  0.69953800  0.84977200  0.99813600  1
  C  C28  1  0.19361300  0.40312000  0.83722700  1
  C  C29  1  0.19361400  0.90312200  0.83722600  1
  C  C30  1  0.80640100  0.09687000  0.83722800  1
  C  C31  1  0.80639800  0.59687100  0.83722900  1
  C  C32  1  0.30611800  0.15319600  0.33711200  1
  C  C33  1  0.30612500  0.65319700  0.33711100  1
  C  C34  1  0.69389000  0.34681100  0.33710800  1
  C  C35  1  0.69389200  0.84681300  0.33710900  1
