# generated using pymatgen
data_CuNi3C16
_symmetry_space_group_name_H-M   'P 1'
_cell_length_a   7.97115200
_cell_length_b   7.97114800
_cell_length_c   7.97114500
_cell_angle_alpha   90.00011501
_cell_angle_beta   89.99995687
_cell_angle_gamma   89.99982749
_symmetry_Int_Tables_number   1
_chemical_formula_structural   CuNi3C16
_chemical_formula_sum   'Cu2 Ni6 C32'
_cell_volume   506.48043403
_cell_formula_units_Z   2
loop_
 _symmetry_equiv_pos_site_id
 _symmetry_equiv_pos_as_xyz
  1  'x, y, z'
loop_
 _atom_site_type_symbol
 _atom_site_label
 _atom_site_symmetry_multiplicity
 _atom_site_fract_x
 _atom_site_fract_y
 _atom_site_fract_z
 _atom_site_occupancy
  C  C0  1  0.75000100  0.24999900  0.74999800  1
  C  C1  1  0.24999900  0.75000000  0.25000100  1
  C  C2  1  0.24999900  0.74999700  0.74999900  1
  C  C3  1  0.75000100  0.25000000  0.25000100  1
  C  C4  1  0.25000000  0.25000100  0.24999800  1
  C  C5  1  0.75000100  0.75000000  0.74999900  1
  C  C6  1  0.24999800  0.25000200  0.75000000  1
  C  C7  1  0.75000300  0.74999800  0.25000100  1
  Ni  Ni8  1  0.00000100  0.50000000  0.50000100  1
  Ni  Ni9  1  0.49999900  0.50000000  0.00000000  1
  Ni  Ni10  1  0.50000000  0.00000000  0.50000000  1
  Ni  Ni11  1  0.50000000  0.00000000  0.00000000  1
  Ni  Ni12  1  0.00000000  0.00000000  0.50000000  1
  Ni  Ni13  1  0.00000100  0.50000100  0.99999900  1
  Cu  Cu14  1  0.00000100  0.00000400  0.00000300  1
  Cu  Cu15  1  0.49999700  0.49999500  0.50000100  1
  C  C16  1  0.75000100  0.50000000  0.99999800  1
  C  C17  1  0.24999900  0.00000100  0.50000000  1
  C  C18  1  0.75000100  0.99999900  0.50000000  1
  C  C19  1  0.24999900  0.50000000  0.00000100  1
  C  C20  1  0.50000000  0.99999900  0.75000200  1
  C  C21  1  0.00000100  0.50000000  0.24999800  1
  C  C22  1  0.00000000  0.50000100  0.75000200  1
  C  C23  1  0.50000000  0.00000100  0.24999800  1
  C  C24  1  0.50000000  0.24999700  0.99999900  1
  C  C25  1  0.00000100  0.75000400  0.50000000  1
  C  C26  1  0.00000100  0.24999600  0.50000000  1
  C  C27  1  0.50000000  0.75000300  0.99999900  1
  C  C28  1  0.23702000  0.00000000  0.00000100  1
  C  C29  1  0.73701800  0.49999900  0.50000000  1
  C  C30  1  0.76298000  0.00000000  0.00000000  1
  C  C31  1  0.26298200  0.50000000  0.50000000  1
  C  C32  1  0.49999900  0.49999900  0.73702100  1
  C  C33  1  0.00000100  0.00000100  0.23702100  1
  C  C34  1  0.49999900  0.50000000  0.26297900  1
  C  C35  1  0.99999900  0.99999900  0.76297800  1
  C  C36  1  0.50000000  0.26298300  0.50000000  1
  C  C37  1  0.00000000  0.76297900  0.99999900  1
  C  C38  1  0.49999900  0.73701800  0.50000000  1
  C  C39  1  0.00000000  0.23702300  0.00000000  1
