# generated using pymatgen
data_Cu(NiC10)2
_symmetry_space_group_name_H-M   'P 1'
_cell_length_a   12.64543700
_cell_length_b   12.64543700
_cell_length_c   4.14390300
_cell_angle_alpha   90.00000000
_cell_angle_beta   90.00000000
_cell_angle_gamma   90.00000000
_symmetry_Int_Tables_number   1
_chemical_formula_structural   Cu(NiC10)2
_chemical_formula_sum   'Cu2 Ni4 C40'
_cell_volume   662.63941577
_cell_formula_units_Z   2
loop_
 _symmetry_equiv_pos_site_id
 _symmetry_equiv_pos_as_xyz
  1  'x, y, z'
loop_
 _atom_site_type_symbol
 _atom_site_label
 _atom_site_symmetry_multiplicity
 _atom_site_fract_x
 _atom_site_fract_y
 _atom_site_fract_z
 _atom_site_occupancy
  Ni  Ni0  1  0.32943100  0.82943100  0.18301400  1
  Ni  Ni1  1  0.82943100  0.67056900  0.18301400  1
  Ni  Ni2  1  0.17056900  0.32943100  0.18301400  1
  Ni  Ni3  1  0.67056900  0.17056900  0.18301400  1
  Cu  Cu4  1  0.50000000  0.50000000  0.13578100  1
  Cu  Cu5  1  0.00000000  0.00000000  0.13578100  1
  C  C6  1  0.00000000  0.50000000  0.67161000  1
  C  C7  1  0.50000000  0.00000000  0.67161000  1
  C  C8  1  0.79173200  0.92422200  0.67733000  1
  C  C9  1  0.20826800  0.07577800  0.67733000  1
  C  C10  1  0.07577800  0.79173200  0.67733000  1
  C  C11  1  0.92422200  0.20826800  0.67733000  1
  C  C12  1  0.57577800  0.70826800  0.67733000  1
  C  C13  1  0.70826800  0.42422200  0.67733000  1
  C  C14  1  0.29173200  0.57577800  0.67733000  1
  C  C15  1  0.42422200  0.29173200  0.67733000  1
  C  C16  1  0.00000000  0.50000000  0.22498800  1
  C  C17  1  0.50000000  0.00000000  0.22498800  1
  C  C18  1  0.70423400  0.42208000  0.23126900  1
  C  C19  1  0.29576600  0.57792000  0.23126900  1
  C  C20  1  0.57792000  0.70423400  0.23126900  1
  C  C21  1  0.42208000  0.29576600  0.23126900  1
  C  C22  1  0.07792000  0.79576600  0.23126900  1
  C  C23  1  0.79576600  0.92208000  0.23126900  1
  C  C24  1  0.20423400  0.07792000  0.23126900  1
  C  C25  1  0.92208000  0.20423400  0.23126900  1
  C  C26  1  0.85861300  0.06834500  0.74202000  1
  C  C27  1  0.14138700  0.93165500  0.74202000  1
  C  C28  1  0.93165500  0.85861300  0.74202000  1
  C  C29  1  0.06834500  0.14138700  0.74202000  1
  C  C30  1  0.43165500  0.64138700  0.74202000  1
  C  C31  1  0.64138700  0.56834500  0.74202000  1
  C  C32  1  0.50598700  0.15676900  0.73127400  1
  C  C33  1  0.15676900  0.49401300  0.73127400  1
  C  C34  1  0.84323100  0.50598700  0.73127400  1
  C  C35  1  0.49401300  0.84323100  0.73127400  1
  C  C36  1  0.00598700  0.34323100  0.73127400  1
  C  C37  1  0.99401300  0.65676900  0.73127400  1
  C  C38  1  0.34323100  0.99401300  0.73127400  1
  C  C39  1  0.65676900  0.00598700  0.73127400  1
  C  C40  1  0.78119400  0.28119400  0.72356100  1
  C  C41  1  0.28119400  0.21880600  0.72356100  1
  C  C42  1  0.71880600  0.78119400  0.72356100  1
  C  C43  1  0.21880600  0.71880600  0.72356100  1
  C  C44  1  0.56834500  0.35861300  0.74202000  1
  C  C45  1  0.35861300  0.43165500  0.74202000  1
