# generated using pymatgen
data_CuNi3C11
_symmetry_space_group_name_H-M   'P 1'
_cell_length_a   5.79231100
_cell_length_b   9.99462400
_cell_length_c   14.12190690
_cell_angle_alpha   89.96325369
_cell_angle_beta   90.00000000
_cell_angle_gamma   90.00000000
_symmetry_Int_Tables_number   1
_chemical_formula_structural   CuNi3C11
_chemical_formula_sum   'Cu4 Ni12 C44'
_cell_volume   817.54485028
_cell_formula_units_Z   4
loop_
 _symmetry_equiv_pos_site_id
 _symmetry_equiv_pos_as_xyz
  1  'x, y, z'
loop_
 _atom_site_type_symbol
 _atom_site_label
 _atom_site_symmetry_multiplicity
 _atom_site_fract_x
 _atom_site_fract_y
 _atom_site_fract_z
 _atom_site_occupancy
  Ni  Ni0  1  0.96006100  0.00447400  0.25303000  1
  Ni  Ni1  1  0.46006100  0.49552600  0.74697000  1
  Ni  Ni2  1  0.03993900  0.99552600  0.74697000  1
  Ni  Ni3  1  0.53993900  0.50447400  0.25303000  1
  Ni  Ni4  1  0.46753500  0.16608500  0.41769300  1
  Ni  Ni5  1  0.96753500  0.33391500  0.58230700  1
  Ni  Ni6  1  0.53246500  0.83391500  0.58230700  1
  Ni  Ni7  1  0.03246500  0.66608500  0.41769300  1
  Ni  Ni8  1  0.96673800  0.67022600  0.92019100  1
  Ni  Ni9  1  0.46673800  0.82977400  0.07980900  1
  Ni  Ni10  1  0.03326200  0.32977400  0.07980900  1
  Ni  Ni11  1  0.53326200  0.17022600  0.92019100  1
  Cu  Cu12  1  0.00000000  0.00000000  0.00000000  1
  Cu  Cu13  1  0.50000000  0.50000000  0.00000000  1
  Cu  Cu14  1  0.50000000  0.50000000  0.50000000  1
  Cu  Cu15  1  0.00000000  0.00000000  0.50000000  1
  C  C16  1  0.50057400  0.16822400  0.17199600  1
  C  C17  1  0.00057400  0.33177600  0.82800400  1
  C  C18  1  0.49942600  0.83177600  0.82800400  1
  C  C19  1  0.99942600  0.66822400  0.17199600  1
  C  C20  1  0.00474200  0.33410100  0.32748400  1
  C  C21  1  0.50474200  0.16589900  0.67251600  1
  C  C22  1  0.99525800  0.66589900  0.67251600  1
  C  C23  1  0.49525800  0.83410100  0.32748400  1
  C  C24  1  0.48493800  0.70005900  0.42799500  1
  C  C25  1  0.98493800  0.79994100  0.57200500  1
  C  C26  1  0.51506200  0.29994100  0.57200500  1
  C  C27  1  0.01506200  0.20005900  0.42799500  1
  C  C28  1  0.51411200  0.65446500  0.88324100  1
  C  C29  1  0.01411200  0.84553500  0.11675900  1
  C  C30  1  0.48588800  0.34553500  0.11675900  1
  C  C31  1  0.98588800  0.15446500  0.88324100  1
  C  C32  1  0.76889700  0.12610700  0.09390800  1
  C  C33  1  0.26889700  0.37389300  0.90609200  1
  C  C34  1  0.23110300  0.87389300  0.90609200  1
  C  C35  1  0.73110300  0.62610700  0.09390800  1
  C  C36  1  0.19851800  0.60338000  0.07017300  1
  C  C37  1  0.69851800  0.89662000  0.92982700  1
  C  C38  1  0.80148200  0.39662000  0.92982700  1
  C  C39  1  0.30148200  0.10338000  0.07017300  1
  C  C40  1  0.69371200  0.94618700  0.40661600  1
  C  C41  1  0.19371200  0.55381300  0.59338400  1
  C  C42  1  0.30628800  0.05381300  0.59338400  1
  C  C43  1  0.80628800  0.44618700  0.40661600  1
  C  C44  1  0.71299700  0.28907500  0.75030200  1
  C  C45  1  0.21299700  0.21092500  0.24969800  1
  C  C46  1  0.28700300  0.71092500  0.24969800  1
  C  C47  1  0.78700300  0.78907500  0.75030200  1
  C  C48  1  0.28509600  0.76351200  0.72332400  1
  C  C49  1  0.78509600  0.73648800  0.27667600  1
  C  C50  1  0.71490400  0.23648800  0.27667600  1
  C  C51  1  0.21490400  0.26351200  0.72332400  1
  C  C52  1  0.27375800  0.41973900  0.38222500  1
  C  C53  1  0.77375800  0.08026100  0.61777500  1
  C  C54  1  0.72624200  0.58026100  0.61777500  1
  C  C55  1  0.22624200  0.91973900  0.38222500  1
  C  C56  1  0.98659600  0.47598100  0.22417800  1
  C  C57  1  0.48659600  0.02401900  0.77582200  1
  C  C58  1  0.01340400  0.52401900  0.77582200  1
  C  C59  1  0.51340400  0.97598100  0.22417800  1
