# generated using pymatgen
data_Cu(NiC)3
_symmetry_space_group_name_H-M   'P 1'
_cell_length_a   6.70828300
_cell_length_b   9.93666900
_cell_length_c   12.88819424
_cell_angle_alpha   88.61426863
_cell_angle_beta   90.00000000
_cell_angle_gamma   90.00000000
_symmetry_Int_Tables_number   1
_chemical_formula_structural   Cu(NiC)3
_chemical_formula_sum   'Cu8 Ni24 C24'
_cell_volume   858.84984355
_cell_formula_units_Z   8
loop_
 _symmetry_equiv_pos_site_id
 _symmetry_equiv_pos_as_xyz
  1  'x, y, z'
loop_
 _atom_site_type_symbol
 _atom_site_label
 _atom_site_symmetry_multiplicity
 _atom_site_fract_x
 _atom_site_fract_y
 _atom_site_fract_z
 _atom_site_occupancy
  C  C0  1  0.08455000  0.75078900  0.92041700  1
  C  C1  1  0.58455000  0.24921100  0.57958300  1
  C  C2  1  0.91545000  0.24921100  0.07958300  1
  C  C3  1  0.41545000  0.75078900  0.42041700  1
  Ni  Ni4  1  0.74793200  0.95682400  0.96846900  1
  Ni  Ni5  1  0.24793200  0.04317600  0.53153100  1
  Ni  Ni6  1  0.25206800  0.04317600  0.03153100  1
  Ni  Ni7  1  0.75206800  0.95682400  0.46846900  1
  Ni  Ni8  1  0.71191700  0.91578700  0.85306400  1
  Ni  Ni9  1  0.21191700  0.08421300  0.64693600  1
  Ni  Ni10  1  0.28808300  0.08421300  0.14693600  1
  Ni  Ni11  1  0.78808300  0.91578700  0.35306400  1
  Ni  Ni12  1  0.22292300  0.54696400  0.08382900  1
  Ni  Ni13  1  0.72292300  0.45303600  0.41617100  1
  Ni  Ni14  1  0.77707700  0.45303600  0.91617100  1
  Ni  Ni15  1  0.27707700  0.54696400  0.58382900  1
  Ni  Ni16  1  0.35160600  0.68060800  0.10795600  1
  Ni  Ni17  1  0.85160600  0.31939200  0.39204400  1
  Ni  Ni18  1  0.64839400  0.31939200  0.89204400  1
  Ni  Ni19  1  0.14839400  0.68060800  0.60795600  1
  Ni  Ni20  1  0.99388800  0.74320600  0.15842800  1
  Ni  Ni21  1  0.49388800  0.25679400  0.34157200  1
  Ni  Ni22  1  0.00611200  0.25679400  0.84157200  1
  Ni  Ni23  1  0.50611200  0.74320600  0.65842800  1
  Ni  Ni24  1  0.78885500  0.79667300  0.11487200  1
  Ni  Ni25  1  0.28885500  0.20332700  0.38512800  1
  Ni  Ni26  1  0.21114500  0.20332700  0.88512800  1
  Ni  Ni27  1  0.71114500  0.79667300  0.61487200  1
  Cu  Cu28  1  0.40520300  0.63662500  0.81019500  1
  Cu  Cu29  1  0.90520300  0.36337500  0.68980500  1
  Cu  Cu30  1  0.59479700  0.36337500  0.18980500  1
  Cu  Cu31  1  0.09479700  0.63662500  0.31019500  1
  Cu  Cu32  1  0.00413000  0.84908900  0.70707700  1
  Cu  Cu33  1  0.50413000  0.15091100  0.79292300  1
  Cu  Cu34  1  0.99587000  0.15091100  0.29292300  1
  Cu  Cu35  1  0.49587000  0.84908900  0.20707700  1
  C  C36  1  0.76420800  0.88218600  0.91974300  1
  C  C37  1  0.26420800  0.11781400  0.58025700  1
  C  C38  1  0.23579200  0.11781400  0.08025700  1
  C  C39  1  0.73579200  0.88218600  0.41974300  1
  C  C40  1  0.93834100  0.60034400  0.90327300  1
  C  C41  1  0.43834100  0.39965600  0.59672700  1
  C  C42  1  0.06165900  0.39965600  0.09672700  1
  C  C43  1  0.56165900  0.60034400  0.40327300  1
  C  C44  1  0.22830900  0.90093400  0.94668300  1
  C  C45  1  0.72830900  0.09906600  0.55331700  1
  C  C46  1  0.77169100  0.09906600  0.05331700  1
  C  C47  1  0.27169100  0.90093400  0.44668300  1
  C  C48  1  0.26909700  0.63522100  0.05550200  1
  C  C49  1  0.76909700  0.36477900  0.44449800  1
  C  C50  1  0.73090300  0.36477900  0.94449800  1
  C  C51  1  0.23090300  0.63522100  0.55550200  1
  C  C52  1  0.92915800  0.78161600  0.09522900  1
  C  C53  1  0.42915800  0.21838400  0.40477100  1
  C  C54  1  0.07084200  0.21838400  0.90477100  1
  C  C55  1  0.57084200  0.78161600  0.59522900  1
