# generated using pymatgen
data_Cu13NiC6
_symmetry_space_group_name_H-M   'P 1'
_cell_length_a   8.11746100
_cell_length_b   8.11746100
_cell_length_c   13.13292948
_cell_angle_alpha   108.00198449
_cell_angle_beta   108.00198449
_cell_angle_gamma   90.00000000
_symmetry_Int_Tables_number   1
_chemical_formula_structural   Cu13NiC6
_chemical_formula_sum   'Cu26 Ni2 C12'
_cell_volume   778.34103287
_cell_formula_units_Z   2
loop_
 _symmetry_equiv_pos_site_id
 _symmetry_equiv_pos_as_xyz
  1  'x, y, z'
loop_
 _atom_site_type_symbol
 _atom_site_label
 _atom_site_symmetry_multiplicity
 _atom_site_fract_x
 _atom_site_fract_y
 _atom_site_fract_z
 _atom_site_occupancy
  C  C0  1  0.97828600  0.47828600  0.63089900  1
  C  C1  1  0.65261200  0.15261200  0.63089900  1
  C  C2  1  0.15261200  0.97828600  0.63089900  1
  C  C3  1  0.47828600  0.65261200  0.63089900  1
  C  C4  1  0.02171400  0.52171400  0.36910100  1
  C  C5  1  0.34738800  0.84738800  0.36910100  1
  C  C6  1  0.84738800  0.02171400  0.36910100  1
  C  C7  1  0.52171400  0.34738800  0.36910100  1
  C  C8  1  0.60472100  0.60472100  0.20944200  1
  C  C9  1  0.10472100  0.10472100  0.20944200  1
  C  C10  1  0.39527900  0.39527900  0.79055800  1
  C  C11  1  0.89527900  0.89527900  0.79055800  1
  Ni  Ni12  1  0.25000000  0.25000000  0.50000000  1
  Ni  Ni13  1  0.75000000  0.75000000  0.50000000  1
  Cu  Cu14  1  0.12050800  0.62050800  0.88369200  1
  Cu  Cu15  1  0.76318400  0.26318400  0.88369200  1
  Cu  Cu16  1  0.26318400  0.12050800  0.88369200  1
  Cu  Cu17  1  0.62050800  0.76318400  0.88369200  1
  Cu  Cu18  1  0.87949200  0.37949200  0.11630800  1
  Cu  Cu19  1  0.23681600  0.73681600  0.11630800  1
  Cu  Cu20  1  0.73681600  0.87949200  0.11630800  1
  Cu  Cu21  1  0.37949200  0.23681600  0.11630800  1
  Cu  Cu22  1  0.71102900  0.56631200  0.00000000  1
  Cu  Cu23  1  0.28897100  0.43368800  0.00000000  1
  Cu  Cu24  1  0.78897100  0.06631200  0.00000000  1
  Cu  Cu25  1  0.21102900  0.93368800  0.00000000  1
  Cu  Cu26  1  0.56631200  0.28897100  0.00000000  1
  Cu  Cu27  1  0.43368800  0.71102900  0.00000000  1
  Cu  Cu28  1  0.06631200  0.21102900  0.00000000  1
  Cu  Cu29  1  0.93368800  0.78897100  0.00000000  1
  Cu  Cu30  1  0.29351300  0.79351300  0.81337000  1
  Cu  Cu31  1  0.51985700  0.01985700  0.81337000  1
  Cu  Cu32  1  0.01985700  0.29351300  0.81337000  1
  Cu  Cu33  1  0.79351300  0.51985700  0.81337000  1
  Cu  Cu34  1  0.70648700  0.20648700  0.18663000  1
  Cu  Cu35  1  0.48014300  0.98014300  0.18663000  1
  Cu  Cu36  1  0.98014300  0.70648700  0.18663000  1
  Cu  Cu37  1  0.20648700  0.48014300  0.18663000  1
  Cu  Cu38  1  0.00000000  0.50000000  0.00000000  1
  Cu  Cu39  1  0.50000000  0.00000000  0.00000000  1
