# generated using pymatgen
data_Cu11(Ni3C)2
_symmetry_space_group_name_H-M   'P 1'
_cell_length_a   3.88468800
_cell_length_b   9.36275000
_cell_length_c   13.26977808
_cell_angle_alpha   86.62829368
_cell_angle_beta   90.00000000
_cell_angle_gamma   90.00000000
_symmetry_Int_Tables_number   1
_chemical_formula_structural   Cu11(Ni3C)2
_chemical_formula_sum   'Cu11 Ni6 C2'
_cell_volume   481.80445669
_cell_formula_units_Z   1
loop_
 _symmetry_equiv_pos_site_id
 _symmetry_equiv_pos_as_xyz
  1  'x, y, z'
loop_
 _atom_site_type_symbol
 _atom_site_label
 _atom_site_symmetry_multiplicity
 _atom_site_fract_x
 _atom_site_fract_y
 _atom_site_fract_z
 _atom_site_occupancy
  C  C0  1  0.50000000  0.74849700  0.27540700  1
  C  C1  1  0.00000000  0.28103800  0.81088800  1
  Ni  Ni2  1  0.50000000  0.24599600  0.22187400  1
  Ni  Ni3  1  0.00000000  0.73524800  0.70489500  1
  Ni  Ni4  1  0.00000000  0.55543800  0.99759400  1
  Ni  Ni5  1  0.50000000  0.44498000  0.50708700  1
  Ni  Ni6  1  0.00000000  0.07602500  0.48064000  1
  Ni  Ni7  1  0.50000000  0.94375400  0.97851600  1
  Cu  Cu8  1  0.00000000  0.17548000  0.11127100  1
  Cu  Cu9  1  0.50000000  0.80567500  0.59074200  1
  Cu  Cu10  1  0.00000000  0.65409100  0.37755600  1
  Cu  Cu11  1  0.50000000  0.34476800  0.92574000  1
  Cu  Cu12  1  0.00000000  0.78088100  0.10529600  1
  Cu  Cu13  1  0.50000000  0.18958600  0.59440700  1
  Cu  Cu14  1  0.50000000  0.02412900  0.33355400  1
  Cu  Cu15  1  0.00000000  0.00051000  0.84437000  1
  Cu  Cu16  1  0.00000000  0.32174600  0.39387300  1
  Cu  Cu17  1  0.50000000  0.69298300  0.89766600  1
  Cu  Cu18  1  0.00000000  0.47217600  0.65642500  1
