# generated using pymatgen
data_Cu4Ni3C13
_symmetry_space_group_name_H-M   'P 1'
_cell_length_a   6.06376141
_cell_length_b   6.06376141
_cell_length_c   6.06376111
_cell_angle_alpha   104.01177330
_cell_angle_beta   104.01177330
_cell_angle_gamma   104.01178159
_symmetry_Int_Tables_number   1
_chemical_formula_structural   Cu4Ni3C13
_chemical_formula_sum   'Cu4 Ni3 C13'
_cell_volume   198.89003663
_cell_formula_units_Z   1
loop_
 _symmetry_equiv_pos_site_id
 _symmetry_equiv_pos_as_xyz
  1  'x, y, z'
loop_
 _atom_site_type_symbol
 _atom_site_label
 _atom_site_symmetry_multiplicity
 _atom_site_fract_x
 _atom_site_fract_y
 _atom_site_fract_z
 _atom_site_occupancy
  C  C0  1  0.50000000  0.50000000  0.50000000  1
  Ni  Ni1  1  0.04816100  0.95183900  0.50000000  1
  Ni  Ni2  1  0.95183900  0.50000000  0.04816100  1
  Ni  Ni3  1  0.50000000  0.04816100  0.95183900  1
  Cu  Cu4  1  0.44973500  0.55026500  0.00000000  1
  Cu  Cu5  1  0.55026500  0.00000000  0.44973500  1
  Cu  Cu6  1  0.00000000  0.44973500  0.55026500  1
  Cu  Cu7  1  0.00000000  0.00000000  0.00000000  1
  C  C8  1  0.29231900  0.52467400  0.12975400  1
  C  C9  1  0.52467400  0.12975400  0.29231900  1
  C  C10  1  0.70768100  0.87024600  0.47532600  1
  C  C11  1  0.12975400  0.29231900  0.52467400  1
  C  C12  1  0.47532600  0.70768100  0.87024600  1
  C  C13  1  0.87024600  0.47532600  0.70768100  1
  C  C14  1  0.85501200  0.14498800  0.00000000  1
  C  C15  1  0.14498800  0.00000000  0.85501200  1
  C  C16  1  0.00000000  0.85501200  0.14498800  1
  C  C17  1  0.59436300  0.40563700  0.00000000  1
  C  C18  1  0.40563700  0.00000000  0.59436300  1
  C  C19  1  0.00000000  0.59436300  0.40563700  1
