# generated using pymatgen
data_CuNi2C7
_symmetry_space_group_name_H-M   'P 1'
_cell_length_a   9.90805511
_cell_length_b   9.90805511
_cell_length_c   9.90805439
_cell_angle_alpha   33.52722989
_cell_angle_beta   33.52722989
_cell_angle_gamma   33.52723061
_symmetry_Int_Tables_number   1
_chemical_formula_structural   CuNi2C7
_chemical_formula_sum   'Cu2 Ni4 C14'
_cell_volume   264.29504100
_cell_formula_units_Z   2
loop_
 _symmetry_equiv_pos_site_id
 _symmetry_equiv_pos_as_xyz
  1  'x, y, z'
loop_
 _atom_site_type_symbol
 _atom_site_label
 _atom_site_symmetry_multiplicity
 _atom_site_fract_x
 _atom_site_fract_y
 _atom_site_fract_z
 _atom_site_occupancy
  Ni  Ni0  1  0.71950200  0.71950200  0.71950200  1
  Ni  Ni1  1  0.28049800  0.28049800  0.28049800  1
  Ni  Ni2  1  0.87212300  0.87212300  0.87212300  1
  Ni  Ni3  1  0.12787700  0.12787700  0.12787700  1
  Cu  Cu4  1  0.59699900  0.59699900  0.59699900  1
  Cu  Cu5  1  0.40300100  0.40300100  0.40300100  1
  C  C6  1  0.50000000  0.50000000  0.50000000  1
  C  C7  1  0.00000000  0.00000000  0.00000000  1
  C  C8  1  0.19048300  0.19048300  0.73193600  1
  C  C9  1  0.73193600  0.19048300  0.19048300  1
  C  C10  1  0.19048300  0.73193600  0.19048300  1
  C  C11  1  0.80951700  0.26806400  0.80951700  1
  C  C12  1  0.16498500  0.60885200  0.60885200  1
  C  C13  1  0.60885200  0.60885200  0.16498500  1
  C  C14  1  0.60885200  0.16498500  0.60885200  1
  C  C15  1  0.39114800  0.83501500  0.39114800  1
  C  C16  1  0.83501500  0.39114800  0.39114800  1
  C  C17  1  0.39114800  0.39114800  0.83501500  1
  C  C18  1  0.26806400  0.80951700  0.80951700  1
  C  C19  1  0.80951700  0.80951700  0.26806400  1
