# generated using pymatgen
data_CuNiC8
_symmetry_space_group_name_H-M   'P 1'
_cell_length_a   5.82351900
_cell_length_b   5.45895000
_cell_length_c   9.45446940
_cell_angle_alpha   55.89261687
_cell_angle_beta   90.00000000
_cell_angle_gamma   90.00000000
_symmetry_Int_Tables_number   1
_chemical_formula_structural   CuNiC8
_chemical_formula_sum   'Cu2 Ni2 C16'
_cell_volume   248.86043750
_cell_formula_units_Z   2
loop_
 _symmetry_equiv_pos_site_id
 _symmetry_equiv_pos_as_xyz
  1  'x, y, z'
loop_
 _atom_site_type_symbol
 _atom_site_label
 _atom_site_symmetry_multiplicity
 _atom_site_fract_x
 _atom_site_fract_y
 _atom_site_fract_z
 _atom_site_occupancy
  C  C0  1  0.57560000  0.72759800  0.75156800  1
  C  C1  1  0.07560000  0.27240200  0.74843200  1
  C  C2  1  0.42440000  0.27240200  0.24843200  1
  C  C3  1  0.92440000  0.72759800  0.25156800  1
  Ni  Ni4  1  0.00000000  0.00000000  0.50000000  1
  Ni  Ni5  1  0.50000000  0.00000000  0.00000000  1
  Cu  Cu6  1  0.00000000  0.50000000  0.00000000  1
  Cu  Cu7  1  0.50000000  0.50000000  0.50000000  1
  C  C8  1  0.95623900  0.87593700  0.74805600  1
  C  C9  1  0.45623900  0.12406300  0.75194400  1
  C  C10  1  0.04376100  0.12406300  0.25194400  1
  C  C11  1  0.54376100  0.87593700  0.24805600  1
  C  C12  1  0.80189000  0.24228500  0.93617400  1
  C  C13  1  0.30189000  0.75771500  0.56382600  1
  C  C14  1  0.17885200  0.36043900  0.44062100  1
  C  C15  1  0.67885200  0.63956100  0.05937900  1
  C  C16  1  0.19811000  0.75771500  0.06382600  1
  C  C17  1  0.69811000  0.24228500  0.43617400  1
  C  C18  1  0.82114800  0.63956100  0.55937900  1
  C  C19  1  0.32114800  0.36043900  0.94062100  1
