# generated using pymatgen
data_CuNiC6
_symmetry_space_group_name_H-M   'P 1'
_cell_length_a   9.01165900
_cell_length_b   10.72830900
_cell_length_c   10.89177800
_cell_angle_alpha   90.00000000
_cell_angle_beta   90.00000000
_cell_angle_gamma   90.00000000
_symmetry_Int_Tables_number   1
_chemical_formula_structural   CuNiC6
_chemical_formula_sum   'Cu8 Ni8 C48'
_cell_volume   1053.01559784
_cell_formula_units_Z   8
loop_
 _symmetry_equiv_pos_site_id
 _symmetry_equiv_pos_as_xyz
  1  'x, y, z'
loop_
 _atom_site_type_symbol
 _atom_site_label
 _atom_site_symmetry_multiplicity
 _atom_site_fract_x
 _atom_site_fract_y
 _atom_site_fract_z
 _atom_site_occupancy
  Ni  Ni0  1  0.35768200  0.62383900  0.67392100  1
  Ni  Ni1  1  0.64231800  0.37616100  0.32607900  1
  Ni  Ni2  1  0.14231800  0.12383900  0.32607900  1
  Ni  Ni3  1  0.64231800  0.87616100  0.17392100  1
  Ni  Ni4  1  0.85768200  0.87616100  0.67392100  1
  Ni  Ni5  1  0.35768200  0.12383900  0.82607900  1
  Ni  Ni6  1  0.85768200  0.37616100  0.82607900  1
  Ni  Ni7  1  0.14231800  0.62383900  0.17392100  1
  Cu  Cu8  1  0.04157200  0.66306400  0.86874700  1
  Cu  Cu9  1  0.95842800  0.33693600  0.13125300  1
  Cu  Cu10  1  0.45842800  0.16306400  0.13125300  1
  Cu  Cu11  1  0.95842800  0.83693600  0.36874700  1
  Cu  Cu12  1  0.54157200  0.83693600  0.86874700  1
  Cu  Cu13  1  0.04157200  0.16306400  0.63125300  1
  Cu  Cu14  1  0.54157200  0.33693600  0.63125300  1
  Cu  Cu15  1  0.45842800  0.66306400  0.36874700  1
  C  C16  1  0.51458300  0.67002700  0.51780100  1
  C  C17  1  0.48541700  0.32997300  0.48219900  1
  C  C18  1  0.98541700  0.17002700  0.48219900  1
  C  C19  1  0.48541700  0.82997300  0.01780100  1
  C  C20  1  0.01458300  0.82997300  0.51780100  1
  C  C21  1  0.51458300  0.17002700  0.98219900  1
  C  C22  1  0.01458300  0.32997300  0.98219900  1
  C  C23  1  0.98541700  0.67002700  0.01780100  1
  C  C24  1  0.22068600  0.60038900  0.85779200  1
  C  C25  1  0.77931400  0.39961100  0.14220800  1
  C  C26  1  0.27931400  0.10038900  0.14220800  1
  C  C27  1  0.77931400  0.89961100  0.35779200  1
  C  C28  1  0.72068600  0.89961100  0.85779200  1
  C  C29  1  0.22068600  0.10038900  0.64220800  1
  C  C30  1  0.72068600  0.39961100  0.64220800  1
  C  C31  1  0.27931400  0.60038900  0.35779200  1
  C  C32  1  0.42195400  0.92639200  0.78037500  1
  C  C33  1  0.57804600  0.07360800  0.21962500  1
  C  C34  1  0.07804600  0.42639200  0.21962500  1
  C  C35  1  0.57804600  0.57360800  0.28037500  1
  C  C36  1  0.92195400  0.57360800  0.78037500  1
  C  C37  1  0.42195400  0.42639200  0.71962500  1
  C  C38  1  0.92195400  0.07360800  0.71962500  1
  C  C39  1  0.07804600  0.92639200  0.28037500  1
  C  C40  1  0.18694000  0.55903800  0.52596600  1
  C  C41  1  0.81306000  0.44096200  0.47403400  1
  C  C42  1  0.31306000  0.05903800  0.47403400  1
  C  C43  1  0.81306000  0.94096200  0.02596600  1
  C  C44  1  0.68694000  0.94096200  0.52596600  1
  C  C45  1  0.18694000  0.05903800  0.97403400  1
  C  C46  1  0.68694000  0.44096200  0.97403400  1
  C  C47  1  0.31306000  0.55903800  0.02596600  1
  C  C48  1  0.23984200  0.81577300  0.67769300  1
  C  C49  1  0.76015800  0.18422700  0.32230700  1
  C  C50  1  0.26015800  0.31577300  0.32230700  1
  C  C51  1  0.76015800  0.68422700  0.17769300  1
  C  C52  1  0.73984200  0.68422700  0.67769300  1
  C  C53  1  0.23984200  0.31577300  0.82230700  1
  C  C54  1  0.73984200  0.18422700  0.82230700  1
  C  C55  1  0.26015800  0.81577300  0.17769300  1
  C  C56  1  0.04642600  0.81036300  0.80118200  1
  C  C57  1  0.95357400  0.18963700  0.19881800  1
  C  C58  1  0.45357400  0.31036300  0.19881800  1
  C  C59  1  0.95357400  0.68963700  0.30118200  1
  C  C60  1  0.54642600  0.68963700  0.80118200  1
  C  C61  1  0.04642600  0.31036300  0.69881800  1
  C  C62  1  0.54642600  0.18963700  0.69881800  1
  C  C63  1  0.45357400  0.81036300  0.30118200  1
