# generated using pymatgen
data_Cu2Ni2C
_symmetry_space_group_name_H-M   'P 1'
_cell_length_a   5.13155631
_cell_length_b   5.13155631
_cell_length_c   16.14810200
_cell_angle_alpha   90.00000000
_cell_angle_beta   90.00000000
_cell_angle_gamma   90.83471066
_symmetry_Int_Tables_number   1
_chemical_formula_structural   Cu2Ni2C
_chemical_formula_sum   'Cu8 Ni8 C4'
_cell_volume   425.18074929
_cell_formula_units_Z   4
loop_
 _symmetry_equiv_pos_site_id
 _symmetry_equiv_pos_as_xyz
  1  'x, y, z'
loop_
 _atom_site_type_symbol
 _atom_site_label
 _atom_site_symmetry_multiplicity
 _atom_site_fract_x
 _atom_site_fract_y
 _atom_site_fract_z
 _atom_site_occupancy
  C  C0  1  0.36850300  0.63149700  0.62354500  1
  C  C1  1  0.63149700  0.36850300  0.37645500  1
  C  C2  1  0.86850300  0.13149700  0.87645500  1
  C  C3  1  0.13149700  0.86850300  0.12354500  1
  Ni  Ni4  1  0.99094000  0.63668100  0.62357300  1
  Ni  Ni5  1  0.63668100  0.99094000  0.37642700  1
  Ni  Ni6  1  0.86331900  0.50906000  0.87642700  1
  Ni  Ni7  1  0.50906000  0.86331900  0.12357300  1
  Ni  Ni8  1  0.00906000  0.36331900  0.37642700  1
  Ni  Ni9  1  0.36331900  0.00906000  0.62357300  1
  Ni  Ni10  1  0.13668100  0.49094000  0.12357300  1
  Ni  Ni11  1  0.49094000  0.13668100  0.87642700  1
  Cu  Cu12  1  0.76365400  0.63662500  0.62356800  1
  Cu  Cu13  1  0.63662500  0.76365400  0.37643200  1
  Cu  Cu14  1  0.86337500  0.73634600  0.87643200  1
  Cu  Cu15  1  0.73634600  0.86337500  0.12356800  1
  Cu  Cu16  1  0.23634600  0.36337500  0.37643200  1
  Cu  Cu17  1  0.36337500  0.23634600  0.62356800  1
  Cu  Cu18  1  0.13662500  0.26365400  0.12356800  1
  Cu  Cu19  1  0.26365400  0.13662500  0.87643200  1
