# generated using pymatgen
data_CuNiC9
_symmetry_space_group_name_H-M   'P 1'
_cell_length_a   6.73585394
_cell_length_b   6.73585394
_cell_length_c   6.73585371
_cell_angle_alpha   92.58943907
_cell_angle_beta   92.58943907
_cell_angle_gamma   92.58943440
_symmetry_Int_Tables_number   1
_chemical_formula_structural   CuNiC9
_chemical_formula_sum   'Cu2 Ni2 C18'
_cell_volume   304.65191186
_cell_formula_units_Z   2
loop_
 _symmetry_equiv_pos_site_id
 _symmetry_equiv_pos_as_xyz
  1  'x, y, z'
loop_
 _atom_site_type_symbol
 _atom_site_label
 _atom_site_symmetry_multiplicity
 _atom_site_fract_x
 _atom_site_fract_y
 _atom_site_fract_z
 _atom_site_occupancy
  C  C0  1  0.61544600  0.25000000  0.88455400  1
  C  C1  1  0.88455400  0.61544600  0.25000000  1
  C  C2  1  0.75000000  0.11544600  0.38455400  1
  C  C3  1  0.38455400  0.75000000  0.11544600  1
  C  C4  1  0.11544600  0.38455400  0.75000000  1
  C  C5  1  0.25000000  0.88455400  0.61544600  1
  Ni  Ni6  1  0.25000000  0.25000000  0.25000000  1
  Ni  Ni7  1  0.75000000  0.75000000  0.75000000  1
  Cu  Cu8  1  0.00000000  0.00000000  0.00000000  1
  Cu  Cu9  1  0.50000000  0.50000000  0.50000000  1
  C  C10  1  0.59366800  0.78748700  0.46294800  1
  C  C11  1  0.46294800  0.59366800  0.78748700  1
  C  C12  1  0.78748700  0.46294800  0.59366800  1
  C  C13  1  0.90633200  0.03705200  0.71251300  1
  C  C14  1  0.71251300  0.90633200  0.03705200  1
  C  C15  1  0.03705200  0.71251300  0.90633200  1
  C  C16  1  0.40633200  0.21251300  0.53705200  1
  C  C17  1  0.53705200  0.40633200  0.21251300  1
  C  C18  1  0.21251300  0.53705200  0.40633200  1
  C  C19  1  0.09366800  0.96294800  0.28748700  1
  C  C20  1  0.96294800  0.28748700  0.09366800  1
  C  C21  1  0.28748700  0.09366800  0.96294800  1
