# generated using pymatgen
data_Cu7NiC5
_symmetry_space_group_name_H-M   'P 1'
_cell_length_a   8.92023000
_cell_length_b   8.31218500
_cell_length_c   12.66842519
_cell_angle_alpha   90.00000000
_cell_angle_beta   121.55099967
_cell_angle_gamma   90.00000000
_symmetry_Int_Tables_number   1
_chemical_formula_structural   Cu7NiC5
_chemical_formula_sum   'Cu28 Ni4 C20'
_cell_volume   800.46536100
_cell_formula_units_Z   4
loop_
 _symmetry_equiv_pos_site_id
 _symmetry_equiv_pos_as_xyz
  1  'x, y, z'
loop_
 _atom_site_type_symbol
 _atom_site_label
 _atom_site_symmetry_multiplicity
 _atom_site_fract_x
 _atom_site_fract_y
 _atom_site_fract_z
 _atom_site_occupancy
  C  C0  1  0.19782000  0.36991300  0.21798200  1
  C  C1  1  0.19782000  0.13008700  0.71798200  1
  C  C2  1  0.80218000  0.63008700  0.78201800  1
  C  C3  1  0.80218000  0.86991300  0.28201800  1
  C  C4  1  0.58956700  0.38122100  0.91763700  1
  C  C5  1  0.58956700  0.11877900  0.41763700  1
  C  C6  1  0.41043300  0.61877900  0.08236300  1
  C  C7  1  0.41043300  0.88122100  0.58236300  1
  C  C8  1  0.42113400  0.36547000  0.57782000  1
  C  C9  1  0.42113400  0.13453000  0.07782000  1
  C  C10  1  0.57886600  0.63453000  0.42218000  1
  C  C11  1  0.57886600  0.86547000  0.92218000  1
  C  C12  1  0.81824800  0.38572700  0.28097400  1
  C  C13  1  0.81824800  0.11427300  0.78097400  1
  C  C14  1  0.18175200  0.61427300  0.71902600  1
  C  C15  1  0.18175200  0.88572700  0.21902600  1
  C  C16  1  0.13234400  0.12854900  0.41371200  1
  C  C17  1  0.13234400  0.37145100  0.91371200  1
  C  C18  1  0.86765600  0.87145100  0.58628800  1
  C  C19  1  0.86765600  0.62854900  0.08628800  1
  Ni  Ni20  1  0.88252300  0.13593300  0.03623500  1
  Ni  Ni21  1  0.88252300  0.36406700  0.53623500  1
  Ni  Ni22  1  0.11747700  0.86406700  0.96376500  1
  Ni  Ni23  1  0.11747700  0.63593300  0.46376500  1
  Cu  Cu24  1  0.45923700  0.37700200  0.40507000  1
  Cu  Cu25  1  0.45923700  0.12299800  0.90507000  1
  Cu  Cu26  1  0.54076300  0.62299800  0.59493000  1
  Cu  Cu27  1  0.54076300  0.87700200  0.09493000  1
  Cu  Cu28  1  0.69218200  0.36450000  0.77705700  1
  Cu  Cu29  1  0.69218200  0.13550000  0.27705700  1
  Cu  Cu30  1  0.30781800  0.63550000  0.22294300  1
  Cu  Cu31  1  0.30781800  0.86450000  0.72294300  1
  Cu  Cu32  1  0.32757200  0.38330600  0.72117700  1
  Cu  Cu33  1  0.32757200  0.11669400  0.22117700  1
  Cu  Cu34  1  0.67242800  0.61669400  0.27882300  1
  Cu  Cu35  1  0.67242800  0.88330600  0.77882300  1
  Cu  Cu36  1  0.56474400  0.37620800  0.09024500  1
  Cu  Cu37  1  0.56474400  0.12379200  0.59024500  1
  Cu  Cu38  1  0.43525600  0.62379200  0.90975500  1
  Cu  Cu39  1  0.43525600  0.87620800  0.40975500  1
  Cu  Cu40  1  0.22015100  0.11989900  0.54138700  1
  Cu  Cu41  1  0.22015100  0.38010100  0.04138700  1
  Cu  Cu42  1  0.77984900  0.88010100  0.45861300  1
  Cu  Cu43  1  0.77984900  0.61989900  0.95861300  1
  Cu  Cu44  1  0.07948700  0.98927500  0.34595600  1
  Cu  Cu45  1  0.07948700  0.51072500  0.84595600  1
  Cu  Cu46  1  0.92051300  0.01072500  0.65404400  1
  Cu  Cu47  1  0.92051300  0.48927500  0.15404400  1
  Cu  Cu48  1  0.11037400  0.27691700  0.35997000  1
  Cu  Cu49  1  0.11037400  0.22308300  0.85997000  1
  Cu  Cu50  1  0.88962600  0.72308300  0.64003000  1
  Cu  Cu51  1  0.88962600  0.77691700  0.14003000  1
