# generated using pymatgen
data_Cu4Ni4C17
_symmetry_space_group_name_H-M   'P 1'
_cell_length_a   5.01705115
_cell_length_b   8.56239680
_cell_length_c   8.54424751
_cell_angle_alpha   94.67122279
_cell_angle_beta   90.00000000
_cell_angle_gamma   90.00000000
_symmetry_Int_Tables_number   1
_chemical_formula_structural   Cu4Ni4C17
_chemical_formula_sum   'Cu4 Ni4 C17'
_cell_volume   365.82447019
_cell_formula_units_Z   1
loop_
 _symmetry_equiv_pos_site_id
 _symmetry_equiv_pos_as_xyz
  1  'x, y, z'
loop_
 _atom_site_type_symbol
 _atom_site_label
 _atom_site_symmetry_multiplicity
 _atom_site_fract_x
 _atom_site_fract_y
 _atom_site_fract_z
 _atom_site_occupancy
  C  C0  1  0.75000000  0.06417424  0.45998387  1
  Ni  Ni1  1  0.25000000  0.63632230  0.69782580  1
  Ni  Ni2  1  0.75000000  0.31448637  0.29515792  1
  Ni  Ni3  1  0.75000000  0.13649324  0.82589360  1
  Ni  Ni4  1  0.25000000  0.83858652  0.23880652  1
  Cu  Cu5  1  0.25000000  0.28460687  0.62457280  1
  Cu  Cu6  1  0.75000000  0.72577295  0.38507884  1
  Cu  Cu7  1  0.75000000  0.80898502  0.87103242  1
  Cu  Cu8  1  0.25000000  0.17107747  0.09936317  1
  C  C9  1  0.25000000  0.33464533  0.46132806  1
  C  C10  1  0.75000000  0.64247490  0.53335792  1
  C  C11  1  0.75000000  0.90748401  0.02405111  1
  C  C12  1  0.25000000  0.09573772  0.93156902  1
  C  C13  1  0.25000000  0.42764825  0.75580425  1
  C  C14  1  0.75000000  0.64992360  0.22260298  1
  C  C15  1  0.75000000  0.93182758  0.73547398  1
  C  C16  1  0.25000000  0.04873396  0.23147042  1
  C  C17  1  0.99952236  0.27313689  0.12814523  1
  C  C18  1  0.50124486  0.69963482  0.84845160  1
  C  C19  1  0.99207794  0.85942606  0.40037740  1
  C  C20  1  0.50364539  0.17914557  0.65133942  1
  C  C21  1  0.99875514  0.69963482  0.84845160  1
  C  C22  1  0.50047764  0.27313689  0.12814523  1
  C  C23  1  0.99635461  0.17914557  0.65133942  1
  C  C24  1  0.50792206  0.85942606  0.40037740  1
