# generated using pymatgen
data_Cu2NiC6
_symmetry_space_group_name_H-M   'P 1'
_cell_length_a   7.01144886
_cell_length_b   8.45580800
_cell_length_c   13.93474556
_cell_angle_alpha   90.00000000
_cell_angle_beta   108.68884362
_cell_angle_gamma   90.00000000
_symmetry_Int_Tables_number   1
_chemical_formula_structural   Cu2NiC6
_chemical_formula_sum   'Cu16 Ni8 C48'
_cell_volume   782.59477265
_cell_formula_units_Z   8
loop_
 _symmetry_equiv_pos_site_id
 _symmetry_equiv_pos_as_xyz
  1  'x, y, z'
loop_
 _atom_site_type_symbol
 _atom_site_label
 _atom_site_symmetry_multiplicity
 _atom_site_fract_x
 _atom_site_fract_y
 _atom_site_fract_z
 _atom_site_occupancy
  C  C0  1  0.70993200  0.20684200  0.47211700  1
  C  C1  1  0.83088000  0.90172400  0.68469700  1
  C  C2  1  0.27356100  0.35400800  0.59576000  1
  C  C3  1  0.65195000  0.14506400  0.64339600  1
  C  C4  1  0.96731400  0.40876800  0.15966400  1
  C  C5  1  0.16680100  0.35120400  0.03408600  1
  C  C6  1  0.05997700  0.10320500  0.18785500  1
  C  C7  1  0.46160900  0.55083700  0.68278200  1
  C  C8  1  0.03268600  0.59123200  0.84033600  1
  C  C9  1  0.53839100  0.44916300  0.31721800  1
  C  C10  1  0.83319900  0.64879600  0.96591400  1
  C  C11  1  0.83319900  0.85120400  0.46591400  1
  C  C12  1  0.50841600  0.91855000  0.55971400  1
  C  C13  1  0.20011700  0.45845000  0.24277000  1
  C  C14  1  0.49116800  0.76137900  0.99623800  1
  C  C15  1  0.49158400  0.08145000  0.44028600  1
  C  C16  1  0.94267100  0.18572900  0.26261700  1
  C  C17  1  0.65195000  0.35493600  0.14339600  1
  C  C18  1  0.29006800  0.79315800  0.52788300  1
  C  C19  1  0.72643900  0.85400800  0.90424000  1
  C  C20  1  0.72643900  0.64599200  0.40424000  1
  C  C21  1  0.29006800  0.70684200  0.02788300  1
  C  C22  1  0.16680100  0.14879600  0.53408600  1
  C  C23  1  0.05997700  0.39679500  0.68785500  1
  C  C24  1  0.16912000  0.09827600  0.31530300  1
  C  C25  1  0.34805000  0.85493600  0.35660400  1
  C  C26  1  0.05732900  0.81427100  0.73738300  1
  C  C27  1  0.50883200  0.23862100  0.00376200  1
  C  C28  1  0.94002300  0.60320500  0.31214500  1
  C  C29  1  0.34805000  0.64506400  0.85660400  1
  C  C30  1  0.94002300  0.89679500  0.81214500  1
  C  C31  1  0.79988300  0.95845000  0.25723000  1
  C  C32  1  0.03268600  0.90876800  0.34033600  1
  C  C33  1  0.16912000  0.40172400  0.81530300  1
  C  C34  1  0.96731400  0.09123200  0.65966400  1
  C  C35  1  0.49158400  0.41855000  0.94028600  1
  C  C36  1  0.49116800  0.73862100  0.49623800  1
  C  C37  1  0.79988300  0.54155000  0.75723000  1
  C  C38  1  0.94267100  0.31427100  0.76261700  1
  C  C39  1  0.83088000  0.59827600  0.18469700  1
  C  C40  1  0.70993200  0.29315800  0.97211700  1
  C  C41  1  0.53839100  0.05083700  0.81721800  1
  C  C42  1  0.27356100  0.14599200  0.09576000  1
  C  C43  1  0.50841600  0.58145000  0.05971400  1
  C  C44  1  0.50883200  0.26137900  0.50376200  1
  C  C45  1  0.20011700  0.04155000  0.74277000  1
  C  C46  1  0.05732900  0.68572900  0.23738300  1
  C  C47  1  0.46160900  0.94916300  0.18278200  1
  Ni  Ni48  1  0.50176300  0.60459200  0.29666700  1
  Ni  Ni49  1  0.90967700  0.70417000  0.48855700  1
  Ni  Ni50  1  0.50176300  0.89540800  0.79666700  1
  Ni  Ni51  1  0.49823700  0.10459200  0.20333300  1
  Ni  Ni52  1  0.90967700  0.79583000  0.98855700  1
  Ni  Ni53  1  0.49823700  0.39540800  0.70333300  1
  Ni  Ni54  1  0.09032300  0.20417000  0.01144300  1
  Ni  Ni55  1  0.09032300  0.29583000  0.51144300  1
  Cu  Cu56  1  0.59309000  0.16486600  0.49522500  1
  Cu  Cu57  1  0.96698800  0.59213500  0.24379400  1
  Cu  Cu58  1  0.03301200  0.09213500  0.25620600  1
  Cu  Cu59  1  0.33746300  0.92982000  0.41230800  1
  Cu  Cu60  1  0.66253700  0.42982000  0.08769200  1
  Cu  Cu61  1  0.40691000  0.83513400  0.50477500  1
  Cu  Cu62  1  0.66253700  0.07018000  0.58769200  1
  Cu  Cu63  1  0.59309000  0.33513400  0.99522500  1
  Cu  Cu64  1  0.05019400  0.06132300  0.73401000  1
  Cu  Cu65  1  0.96698800  0.90786500  0.74379400  1
  Cu  Cu66  1  0.94980600  0.93867700  0.26599000  1
  Cu  Cu67  1  0.94980600  0.56132300  0.76599000  1
  Cu  Cu68  1  0.40691000  0.66486600  0.00477500  1
  Cu  Cu69  1  0.33746300  0.57018000  0.91230800  1
  Cu  Cu70  1  0.03301200  0.40786500  0.75620600  1
  Cu  Cu71  1  0.05019400  0.43867700  0.23401000  1
