# generated using pymatgen
data_Cu2NiC3
_symmetry_space_group_name_H-M   'P 1'
_cell_length_a   6.80775256
_cell_length_b   6.80775256
_cell_length_c   6.80775256
_cell_angle_alpha   60.00000000
_cell_angle_beta   60.00000000
_cell_angle_gamma   60.00000000
_symmetry_Int_Tables_number   1
_chemical_formula_structural   Cu2NiC3
_chemical_formula_sum   'Cu6 Ni3 C9'
_cell_volume   223.09831422
_cell_formula_units_Z   3
loop_
 _symmetry_equiv_pos_site_id
 _symmetry_equiv_pos_as_xyz
  1  'x, y, z'
loop_
 _atom_site_type_symbol
 _atom_site_label
 _atom_site_symmetry_multiplicity
 _atom_site_fract_x
 _atom_site_fract_y
 _atom_site_fract_z
 _atom_site_occupancy
  C  C0  1  0.00000000  0.00000000  0.00000000  1
  C  C1  1  0.81173400  0.81173400  0.81173400  1
  C  C2  1  0.18826600  0.18826600  0.18826600  1
  C  C3  1  0.56479700  0.81173400  0.81173400  1
  C  C4  1  0.81173400  0.56479700  0.81173400  1
  C  C5  1  0.43520300  0.18826600  0.18826600  1
  C  C6  1  0.18826600  0.43520300  0.18826600  1
  C  C7  1  0.81173400  0.81173400  0.56479700  1
  C  C8  1  0.18826600  0.18826600  0.43520300  1
  Ni  Ni9  1  0.75000000  0.75000000  0.75000000  1
  Ni  Ni10  1  0.25000000  0.25000000  0.25000000  1
  Ni  Ni11  1  0.50000000  0.50000000  0.50000000  1
  Cu  Cu12  1  0.79274600  0.79274600  0.20725400  1
  Cu  Cu13  1  0.20725400  0.20725400  0.79274600  1
  Cu  Cu14  1  0.79274600  0.20725400  0.79274600  1
  Cu  Cu15  1  0.20725400  0.79274600  0.20725400  1
  Cu  Cu16  1  0.20725400  0.79274600  0.79274600  1
  Cu  Cu17  1  0.79274600  0.20725400  0.20725400  1
