# generated using pymatgen
data_CuNi2C7
_symmetry_space_group_name_H-M   'P 1'
_cell_length_a   5.61691250
_cell_length_b   5.61691250
_cell_length_c   5.61691250
_cell_angle_alpha   56.82461765
_cell_angle_beta   56.82461765
_cell_angle_gamma   56.82461867
_symmetry_Int_Tables_number   1
_chemical_formula_structural   CuNi2C7
_chemical_formula_sum   'Cu1 Ni2 C7'
_cell_volume   116.12519819
_cell_formula_units_Z   1
loop_
 _symmetry_equiv_pos_site_id
 _symmetry_equiv_pos_as_xyz
  1  'x, y, z'
loop_
 _atom_site_type_symbol
 _atom_site_label
 _atom_site_symmetry_multiplicity
 _atom_site_fract_x
 _atom_site_fract_y
 _atom_site_fract_z
 _atom_site_occupancy
  Ni  Ni0  1  0.50482400  0.50482400  0.50482400  1
  Ni  Ni1  1  0.99790200  0.99790200  0.99790200  1
  Cu  Cu2  1  0.78107600  0.78107600  0.78107600  1
  C  C3  1  0.28038400  0.28038400  0.28038400  1
  C  C4  1  0.05541200  0.42412100  0.65966300  1
  C  C5  1  0.42412100  0.65966300  0.05541200  1
  C  C6  1  0.65966300  0.05541200  0.42412100  1
  C  C7  1  0.92143400  0.56227700  0.15486700  1
  C  C8  1  0.56227700  0.15486700  0.92143400  1
  C  C9  1  0.15486700  0.92143400  0.56227700  1
