# generated using pymatgen
data_Cu6Ni
_symmetry_space_group_name_H-M   'P 1'
_cell_length_a   4.19308500
_cell_length_b   4.19308500
_cell_length_c   4.19308500
_cell_angle_alpha   90.00000000
_cell_angle_beta   90.00000000
_cell_angle_gamma   90.00000000
_symmetry_Int_Tables_number   1
_chemical_formula_structural   Cu6Ni
_chemical_formula_sum   'Cu6 Ni1'
_cell_volume   73.72266037
_cell_formula_units_Z   1
loop_
 _symmetry_equiv_pos_site_id
 _symmetry_equiv_pos_as_xyz
  1  'x, y, z'
loop_
 _atom_site_type_symbol
 _atom_site_label
 _atom_site_symmetry_multiplicity
 _atom_site_fract_x
 _atom_site_fract_y
 _atom_site_fract_z
 _atom_site_occupancy
  Ni  Ni0  1  0.00000000  0.00000000  0.00000000  1
  Cu  Cu1  1  0.20013800  0.50000000  0.50000000  1
  Cu  Cu2  1  0.50000000  0.50000000  0.79986200  1
  Cu  Cu3  1  0.50000000  0.50000000  0.20013800  1
  Cu  Cu4  1  0.50000000  0.20013800  0.50000000  1
  Cu  Cu5  1  0.50000000  0.79986200  0.50000000  1
  Cu  Cu6  1  0.79986200  0.50000000  0.50000000  1
