# generated using pymatgen
data_CuNiC5
_symmetry_space_group_name_H-M   'P 1'
_cell_length_a   5.39346700
_cell_length_b   5.51555100
_cell_length_c   12.92454600
_cell_angle_alpha   90.00000000
_cell_angle_beta   90.00000000
_cell_angle_gamma   90.00000000
_symmetry_Int_Tables_number   1
_chemical_formula_structural   CuNiC5
_chemical_formula_sum   'Cu4 Ni4 C20'
_cell_volume   384.47864873
_cell_formula_units_Z   4
loop_
 _symmetry_equiv_pos_site_id
 _symmetry_equiv_pos_as_xyz
  1  'x, y, z'
loop_
 _atom_site_type_symbol
 _atom_site_label
 _atom_site_symmetry_multiplicity
 _atom_site_fract_x
 _atom_site_fract_y
 _atom_site_fract_z
 _atom_site_occupancy
  Ni  Ni0  1  0.25000000  0.47771100  0.59508600  1
  Ni  Ni1  1  0.75000000  0.52228900  0.40491400  1
  Ni  Ni2  1  0.25000000  0.97771100  0.40491400  1
  Ni  Ni3  1  0.75000000  0.02228900  0.59508600  1
  Cu  Cu4  1  0.25000000  0.97215700  0.10168200  1
  Cu  Cu5  1  0.75000000  0.02784300  0.89831800  1
  Cu  Cu6  1  0.25000000  0.47215700  0.89831800  1
  Cu  Cu7  1  0.75000000  0.52784300  0.10168200  1
  C  C8  1  0.25000000  0.49159800  0.24495600  1
  C  C9  1  0.75000000  0.50840200  0.75504400  1
  C  C10  1  0.25000000  0.99159800  0.75504400  1
  C  C11  1  0.75000000  0.00840200  0.24495600  1
  C  C12  1  0.25000000  0.96043100  0.61959000  1
  C  C13  1  0.75000000  0.03956900  0.38041000  1
  C  C14  1  0.25000000  0.46043100  0.38041000  1
  C  C15  1  0.75000000  0.53956900  0.61959000  1
  C  C16  1  0.00000000  0.75000000  0.80127700  1
  C  C17  1  0.00000000  0.25000000  0.19872300  1
  C  C18  1  0.50000000  0.25000000  0.19872300  1
  C  C19  1  0.50000000  0.75000000  0.80127700  1
  C  C20  1  0.00000000  0.75000000  0.22860200  1
  C  C21  1  0.00000000  0.25000000  0.77139800  1
  C  C22  1  0.50000000  0.25000000  0.77139800  1
  C  C23  1  0.50000000  0.75000000  0.22860200  1
  C  C24  1  0.25000000  0.57174700  0.06058600  1
  C  C25  1  0.75000000  0.42825300  0.93941400  1
  C  C26  1  0.25000000  0.07174700  0.93941400  1
  C  C27  1  0.75000000  0.92825300  0.06058600  1
