# generated using pymatgen
data_Cu2Ni4C7
_symmetry_space_group_name_H-M   'P 1'
_cell_length_a   5.77178200
_cell_length_b   11.63835500
_cell_length_c   16.48387400
_cell_angle_alpha   90.00000000
_cell_angle_beta   90.00000000
_cell_angle_gamma   90.00000000
_symmetry_Int_Tables_number   1
_chemical_formula_structural   Cu2Ni4C7
_chemical_formula_sum   'Cu8 Ni16 C28'
_cell_volume   1107.28854163
_cell_formula_units_Z   4
loop_
 _symmetry_equiv_pos_site_id
 _symmetry_equiv_pos_as_xyz
  1  'x, y, z'
loop_
 _atom_site_type_symbol
 _atom_site_label
 _atom_site_symmetry_multiplicity
 _atom_site_fract_x
 _atom_site_fract_y
 _atom_site_fract_z
 _atom_site_occupancy
  C  C0  1  0.75000000  0.24418300  0.66957300  1
  C  C1  1  0.75000000  0.25581700  0.16957300  1
  C  C2  1  0.25000000  0.75581700  0.33042700  1
  C  C3  1  0.25000000  0.74418300  0.83042700  1
  Ni  Ni4  1  0.25000000  0.95363400  0.60521100  1
  Ni  Ni5  1  0.25000000  0.54636600  0.10521100  1
  Ni  Ni6  1  0.75000000  0.04636600  0.39478900  1
  Ni  Ni7  1  0.75000000  0.45363400  0.89478900  1
  Ni  Ni8  1  0.75000000  0.08958000  0.92060700  1
  Ni  Ni9  1  0.75000000  0.41042000  0.42060700  1
  Ni  Ni10  1  0.25000000  0.91042000  0.07939300  1
  Ni  Ni11  1  0.25000000  0.58958000  0.57939300  1
  Ni  Ni12  1  0.25000000  0.25374800  0.78012300  1
  Ni  Ni13  1  0.25000000  0.24625200  0.28012300  1
  Ni  Ni14  1  0.75000000  0.74625200  0.21987700  1
  Ni  Ni15  1  0.75000000  0.75374800  0.71987700  1
  Ni  Ni16  1  0.25000000  0.23821000  0.51218000  1
  Ni  Ni17  1  0.25000000  0.26179000  0.01218000  1
  Ni  Ni18  1  0.75000000  0.76179000  0.48782000  1
  Ni  Ni19  1  0.75000000  0.73821000  0.98782000  1
  Cu  Cu20  1  0.75000000  0.43970200  0.64601000  1
  Cu  Cu21  1  0.75000000  0.06029800  0.14601000  1
  Cu  Cu22  1  0.25000000  0.56029800  0.35399000  1
  Cu  Cu23  1  0.25000000  0.93970200  0.85399000  1
  Cu  Cu24  1  0.75000000  0.04783300  0.69236700  1
  Cu  Cu25  1  0.75000000  0.45216700  0.19236700  1
  Cu  Cu26  1  0.25000000  0.95216700  0.30763300  1
  Cu  Cu27  1  0.25000000  0.54783300  0.80763300  1
  C  C28  1  0.25000000  0.24132600  0.70401400  1
  C  C29  1  0.25000000  0.25867400  0.20401400  1
  C  C30  1  0.75000000  0.75867400  0.29598600  1
  C  C31  1  0.75000000  0.74132600  0.79598600  1
  C  C32  1  0.06146300  0.26001300  0.81750800  1
  C  C33  1  0.43853700  0.23998700  0.31750800  1
  C  C34  1  0.56146300  0.73998700  0.18249200  1
  C  C35  1  0.93853700  0.76001300  0.68249200  1
  C  C36  1  0.93853700  0.73998700  0.18249200  1
  C  C37  1  0.56146300  0.76001300  0.68249200  1
  C  C38  1  0.43853700  0.26001300  0.81750800  1
  C  C39  1  0.06146300  0.23998700  0.31750800  1
  C  C40  1  0.06082800  0.18592000  0.51835100  1
  C  C41  1  0.43917200  0.31408000  0.01835100  1
  C  C42  1  0.56082800  0.81408000  0.48164900  1
  C  C43  1  0.93917200  0.68592000  0.98164900  1
  C  C44  1  0.93917200  0.81408000  0.48164900  1
  C  C45  1  0.56082800  0.68592000  0.98164900  1
  C  C46  1  0.43917200  0.18592000  0.51835100  1
  C  C47  1  0.06082800  0.31408000  0.01835100  1
  C  C48  1  0.25000000  0.34488000  0.49982400  1
  C  C49  1  0.25000000  0.15512000  0.99982400  1
  C  C50  1  0.75000000  0.65512000  0.50017600  1
  C  C51  1  0.75000000  0.84488000  0.00017600  1
