# generated using pymatgen
data_CuNi3C16
_symmetry_space_group_name_H-M   'P 1'
_cell_length_a   5.68882000
_cell_length_b   5.69275600
_cell_length_c   15.99215700
_cell_angle_alpha   90.00000000
_cell_angle_beta   90.00000000
_cell_angle_gamma   90.00000000
_symmetry_Int_Tables_number   1
_chemical_formula_structural   CuNi3C16
_chemical_formula_sum   'Cu2 Ni6 C32'
_cell_volume   517.90703095
_cell_formula_units_Z   2
loop_
 _symmetry_equiv_pos_site_id
 _symmetry_equiv_pos_as_xyz
  1  'x, y, z'
loop_
 _atom_site_type_symbol
 _atom_site_label
 _atom_site_symmetry_multiplicity
 _atom_site_fract_x
 _atom_site_fract_y
 _atom_site_fract_z
 _atom_site_occupancy
  Ni  Ni0  1  0.50000000  0.50000000  0.62479100  1
  Ni  Ni1  1  0.50000000  0.50000000  0.12652100  1
  Ni  Ni2  1  0.00000000  0.00000000  0.12936500  1
  Ni  Ni3  1  0.00000000  0.00000000  0.87407100  1
  Ni  Ni4  1  0.00000000  0.00000000  0.62291600  1
  Ni  Ni5  1  0.50000000  0.50000000  0.37543500  1
  Cu  Cu6  1  0.00000000  0.00000000  0.37115400  1
  Cu  Cu7  1  0.50000000  0.50000000  0.87627300  1
  C  C8  1  0.50000000  0.00000000  0.00330500  1
  C  C9  1  0.50000000  0.00000000  0.74945100  1
  C  C10  1  0.50000000  0.00000000  0.49635000  1
  C  C11  1  0.00000000  0.50000000  0.25019900  1
  C  C12  1  0.50000000  0.00000000  0.25051100  1
  C  C13  1  0.00000000  0.50000000  0.99572400  1
  C  C14  1  0.00000000  0.50000000  0.74898900  1
  C  C15  1  0.00000000  0.50000000  0.50294700  1
  C  C16  1  0.74109800  0.75141900  0.75281400  1
  C  C17  1  0.00000000  0.50000000  0.63473900  1
  C  C18  1  0.74946400  0.24258500  0.49971300  1
  C  C19  1  0.25053600  0.24258500  0.49971300  1
  C  C20  1  0.50000000  0.00000000  0.37628500  1
  C  C21  1  0.24154800  0.24793300  0.25482600  1
  C  C22  1  0.24154800  0.75206700  0.25482600  1
  C  C23  1  0.75845200  0.24793300  0.25482600  1
  C  C24  1  0.50000000  0.00000000  0.12301900  1
  C  C25  1  0.75845200  0.75206700  0.25482600  1
  C  C26  1  0.74091400  0.74922100  0.99298500  1
  C  C27  1  0.00000000  0.50000000  0.12705200  1
  C  C28  1  0.74091400  0.25077900  0.99298500  1
  C  C29  1  0.25908600  0.74922100  0.99298500  1
  C  C30  1  0.25908600  0.25077900  0.99298500  1
  C  C31  1  0.00000000  0.50000000  0.86490500  1
  C  C32  1  0.50000000  0.00000000  0.87400300  1
  C  C33  1  0.25890200  0.24858100  0.75281400  1
  C  C34  1  0.25890200  0.75141900  0.75281400  1
  C  C35  1  0.74109800  0.24858100  0.75281400  1
  C  C36  1  0.50000000  0.00000000  0.62545700  1
  C  C37  1  0.74946400  0.75741500  0.49971300  1
  C  C38  1  0.25053600  0.75741500  0.49971300  1
  C  C39  1  0.00000000  0.50000000  0.37518700  1
