# generated using pymatgen
data_Cu3NiC32
_symmetry_space_group_name_H-M   'P 1'
_cell_length_a   8.32878547
_cell_length_b   8.32878490
_cell_length_c   8.32878552
_cell_angle_alpha   63.33651833
_cell_angle_beta   63.33651453
_cell_angle_gamma   63.33651756
_symmetry_Int_Tables_number   1
_chemical_formula_structural   Cu3NiC32
_chemical_formula_sum   'Cu3 Ni1 C32'
_cell_volume   438.71729915
_cell_formula_units_Z   1
loop_
 _symmetry_equiv_pos_site_id
 _symmetry_equiv_pos_as_xyz
  1  'x, y, z'
loop_
 _atom_site_type_symbol
 _atom_site_label
 _atom_site_symmetry_multiplicity
 _atom_site_fract_x
 _atom_site_fract_y
 _atom_site_fract_z
 _atom_site_occupancy
  C  C0  1  0.00605200  0.00605200  0.00605200  1
  C  C1  1  0.49606200  0.49606200  0.49606200  1
  Ni  Ni2  1  0.85995800  0.85995800  0.85995800  1
  Cu  Cu3  1  0.14400900  0.14400900  0.14400900  1
  Cu  Cu4  1  0.35488100  0.35488100  0.35488100  1
  Cu  Cu5  1  0.64497700  0.64497700  0.64497700  1
  C  C6  1  0.04427600  0.74888600  0.45855500  1
  C  C7  1  0.45855500  0.04427600  0.74888600  1
  C  C8  1  0.74888600  0.45855500  0.04427600  1
  C  C9  1  0.24930200  0.54856900  0.94985400  1
  C  C10  1  0.54856900  0.94985400  0.24930200  1
  C  C11  1  0.94985400  0.24930200  0.54856900  1
  C  C12  1  0.09997900  0.32605000  0.51256700  1
  C  C13  1  0.32605000  0.51256700  0.09997900  1
  C  C14  1  0.05846100  0.89518600  0.25169700  1
  C  C15  1  0.51256700  0.09997900  0.32605000  1
  C  C16  1  0.00359400  0.82557600  0.61068400  1
  C  C17  1  0.25077800  0.60429200  0.43967200  1
  C  C18  1  0.25169700  0.05846100  0.89518600  1
  C  C19  1  0.43967200  0.25077800  0.60429200  1
  C  C20  1  0.17139300  0.39809000  0.98862900  1
  C  C21  1  0.60429200  0.43967200  0.25077800  1
  C  C22  1  0.09916900  0.75700600  0.93358100  1
  C  C23  1  0.39809000  0.98862900  0.17139300  1
  C  C24  1  0.61068400  0.00359400  0.82557600  1
  C  C25  1  0.89518600  0.25169700  0.05846100  1
  C  C26  1  0.39942100  0.56433700  0.74236600  1
  C  C27  1  0.82557600  0.61068400  0.00359400  1
  C  C28  1  0.56433700  0.74236600  0.39942100  1
  C  C29  1  0.75700600  0.93358100  0.09916900  1
  C  C30  1  0.74236600  0.39942100  0.56433700  1
  C  C31  1  0.98862900  0.17139300  0.39809000  1
  C  C32  1  0.49904800  0.89255100  0.67048900  1
  C  C33  1  0.93358100  0.09916900  0.75700600  1
  C  C34  1  0.67048900  0.49904800  0.89255100  1
  C  C35  1  0.89255100  0.67048900  0.49904800  1
