# generated using pymatgen
data_Cu3Ni2C7
_symmetry_space_group_name_H-M   'P 1'
_cell_length_a   6.10508000
_cell_length_b   6.54769283
_cell_length_c   7.84723859
_cell_angle_alpha   114.13507288
_cell_angle_beta   99.35138187
_cell_angle_gamma   103.79357723
_symmetry_Int_Tables_number   1
_chemical_formula_structural   Cu3Ni2C7
_chemical_formula_sum   'Cu6 Ni4 C14'
_cell_volume   265.77989613
_cell_formula_units_Z   2
loop_
 _symmetry_equiv_pos_site_id
 _symmetry_equiv_pos_as_xyz
  1  'x, y, z'
loop_
 _atom_site_type_symbol
 _atom_site_label
 _atom_site_symmetry_multiplicity
 _atom_site_fract_x
 _atom_site_fract_y
 _atom_site_fract_z
 _atom_site_occupancy
  Ni  Ni0  1  0.32219900  0.16395900  0.53130800  1
  Ni  Ni1  1  0.15819400  0.72657100  0.93134400  1
  Ni  Ni2  1  0.84180600  0.27342900  0.06865600  1
  Ni  Ni3  1  0.67780100  0.83604100  0.46869200  1
  Cu  Cu4  1  0.77518900  0.43018000  0.35575900  1
  Cu  Cu5  1  0.92043800  0.14533500  0.77397900  1
  Cu  Cu6  1  0.35941000  0.28198800  0.07863800  1
  Cu  Cu7  1  0.64059000  0.71801200  0.92136200  1
  Cu  Cu8  1  0.07956200  0.85466500  0.22602100  1
  Cu  Cu9  1  0.22481100  0.56982000  0.64424100  1
  C  C10  1  0.10019600  0.28740700  0.58969200  1
  C  C11  1  0.46357500  0.57156600  0.11339300  1
  C  C12  1  0.65135800  0.29755900  0.56947300  1
  C  C13  1  0.77343500  0.99537800  0.98345200  1
  C  C14  1  0.91538600  0.57605000  0.12461600  1
  C  C15  1  0.17013100  0.17135800  0.25675900  1
  C  C16  1  0.34648800  0.83612600  0.72727300  1
  C  C17  1  0.65351200  0.16387400  0.27272700  1
  C  C18  1  0.82986900  0.82864200  0.74324100  1
  C  C19  1  0.08461400  0.42395000  0.87538400  1
  C  C20  1  0.22656500  0.00462200  0.01654800  1
  C  C21  1  0.34864200  0.70244100  0.43052700  1
  C  C22  1  0.53642500  0.42843400  0.88660700  1
  C  C23  1  0.89980400  0.71259300  0.41030800  1
