# generated using pymatgen
data_Cu34Ni2C7
_symmetry_space_group_name_H-M   'P 1'
_cell_length_a   8.83900900
_cell_length_b   8.96096505
_cell_length_c   9.59792948
_cell_angle_alpha   71.03062471
_cell_angle_beta   72.23358368
_cell_angle_gamma   76.10818787
_symmetry_Int_Tables_number   1
_chemical_formula_structural   Cu34Ni2C7
_chemical_formula_sum   'Cu34 Ni2 C7'
_cell_volume   676.21073415
_cell_formula_units_Z   1
loop_
 _symmetry_equiv_pos_site_id
 _symmetry_equiv_pos_as_xyz
  1  'x, y, z'
loop_
 _atom_site_type_symbol
 _atom_site_label
 _atom_site_symmetry_multiplicity
 _atom_site_fract_x
 _atom_site_fract_y
 _atom_site_fract_z
 _atom_site_occupancy
  C  C0  1  0.56898300  0.66027400  0.53367900  1
  C  C1  1  0.43101700  0.33972600  0.46632100  1
  C  C2  1  0.91166100  0.32197700  0.53411600  1
  C  C3  1  0.08833900  0.67802300  0.46588400  1
  C  C4  1  0.50000000  0.00000000  0.00000000  1
  C  C5  1  0.02342000  0.84062800  0.02317200  1
  C  C6  1  0.97658000  0.15937200  0.97682800  1
  Ni  Ni7  1  0.25098100  0.99891900  0.49704300  1
  Ni  Ni8  1  0.74901900  0.00108100  0.50295700  1
  Cu  Cu9  1  0.39714100  0.86514100  0.95657100  1
  Cu  Cu10  1  0.60285900  0.13485900  0.04342900  1
  Cu  Cu11  1  0.64478400  0.41458400  0.50387800  1
  Cu  Cu12  1  0.35521600  0.58541600  0.49612200  1
  Cu  Cu13  1  0.12464100  0.00758600  0.90392000  1
  Cu  Cu14  1  0.87535900  0.99241400  0.09608000  1
  Cu  Cu15  1  0.76803400  0.79565000  0.89363700  1
  Cu  Cu16  1  0.23196600  0.20435000  0.10636300  1
  Cu  Cu17  1  0.85499100  0.58471000  0.50292500  1
  Cu  Cu18  1  0.14500900  0.41529000  0.49707500  1
  Cu  Cu19  1  0.51857600  0.57000900  0.73664500  1
  Cu  Cu20  1  0.48142400  0.42999100  0.26335500  1
  Cu  Cu21  1  0.73838400  0.65887500  0.92720100  1
  Cu  Cu22  1  0.26161600  0.34112500  0.07279900  1
  Cu  Cu23  1  0.61383900  0.77301000  0.33492400  1
  Cu  Cu24  1  0.38616100  0.22699000  0.66507600  1
  Cu  Cu25  1  0.58045500  0.19275700  0.90613900  1
  Cu  Cu26  1  0.41954500  0.80724300  0.09386100  1
  Cu  Cu27  1  0.11593100  0.64248700  0.98072600  1
  Cu  Cu28  1  0.88406900  0.35751300  0.01927400  1
  Cu  Cu29  1  0.86105700  0.29198400  0.73993200  1
  Cu  Cu30  1  0.13894300  0.70801600  0.26006800  1
  Cu  Cu31  1  0.33979500  0.86992900  0.59851900  1
  Cu  Cu32  1  0.66020500  0.13007100  0.40148100  1
  Cu  Cu33  1  0.98488500  0.62354900  0.08757300  1
  Cu  Cu34  1  0.01511500  0.37645100  0.91242700  1
  Cu  Cu35  1  0.96789400  0.32135100  0.33666500  1
  Cu  Cu36  1  0.03210600  0.67864900  0.66333500  1
  Cu  Cu37  1  0.21116000  0.92725900  0.39500900  1
  Cu  Cu38  1  0.78884000  0.07274100  0.60499100  1
  Cu  Cu39  1  0.34841500  0.12705600  0.40253700  1
  Cu  Cu40  1  0.65158500  0.87294400  0.59746300  1
  Cu  Cu41  1  0.10138300  0.07033100  0.59124000  1
  Cu  Cu42  1  0.89861700  0.92966900  0.40876000  1
