# generated using pymatgen
data_CuNiC8
_symmetry_space_group_name_H-M   'P 1'
_cell_length_a   5.81650321
_cell_length_b   5.81650321
_cell_length_c   8.46269898
_cell_angle_alpha   90.00000000
_cell_angle_beta   90.00000000
_cell_angle_gamma   90.00000000
_symmetry_Int_Tables_number   1
_chemical_formula_structural   CuNiC8
_chemical_formula_sum   'Cu2 Ni2 C16'
_cell_volume   286.30757426
_cell_formula_units_Z   2
loop_
 _symmetry_equiv_pos_site_id
 _symmetry_equiv_pos_as_xyz
  1  'x, y, z'
loop_
 _atom_site_type_symbol
 _atom_site_label
 _atom_site_symmetry_multiplicity
 _atom_site_fract_x
 _atom_site_fract_y
 _atom_site_fract_z
 _atom_site_occupancy
  C  C0  1  -0.00000000  0.50000000  0.25000000  1
  C  C1  1  0.50000000  0.00000000  0.75000000  1
  Ni  Ni2  1  -0.00000000  0.00000000  -0.00000000  1
  Ni  Ni3  1  0.50000000  0.50000000  0.50000000  1
  Cu  Cu4  1  0.50000000  0.00000000  0.25000000  1
  Cu  Cu5  1  -0.00000000  0.50000000  0.75000000  1
  C  C6  1  -0.00000000  0.00000000  0.50000000  1
  C  C7  1  0.50000000  0.50000000  0.00000000  1
  C  C8  1  -0.00000000  0.00000000  0.26371635  1
  C  C9  1  0.50000000  0.50000000  0.23628365  1
  C  C10  1  -0.00000000  0.00000000  0.73628365  1
  C  C11  1  0.50000000  0.50000000  0.76371635  1
  C  C12  1  0.34415159  0.19236840  0.01307812  1
  C  C13  1  0.65584841  0.80763160  0.01307812  1
  C  C14  1  0.80763160  0.34415159  0.98692188  1
  C  C15  1  0.19236840  0.65584841  0.98692188  1
  C  C16  1  0.84415159  0.30763160  0.51307812  1
  C  C17  1  0.15584841  0.69236840  0.51307812  1
  C  C18  1  0.30763160  0.15584841  0.48692188  1
  C  C19  1  0.69236840  0.84415159  0.48692188  1
