# generated using pymatgen
data_Cu3Ni2C
_symmetry_space_group_name_H-M   'P 1'
_cell_length_a   2.74691800
_cell_length_b   8.16202100
_cell_length_c   21.36780400
_cell_angle_alpha   90.00000000
_cell_angle_beta   90.00000000
_cell_angle_gamma   90.00000000
_symmetry_Int_Tables_number   1
_chemical_formula_structural   Cu3Ni2C
_chemical_formula_sum   'Cu12 Ni8 C4'
_cell_volume   479.07476411
_cell_formula_units_Z   4
loop_
 _symmetry_equiv_pos_site_id
 _symmetry_equiv_pos_as_xyz
  1  'x, y, z'
loop_
 _atom_site_type_symbol
 _atom_site_label
 _atom_site_symmetry_multiplicity
 _atom_site_fract_x
 _atom_site_fract_y
 _atom_site_fract_z
 _atom_site_occupancy
  C  C0  1  0.25000000  0.50180100  0.15319100  1
  C  C1  1  0.75000000  0.49819900  0.84680900  1
  C  C2  1  0.75000000  0.00180100  0.34680900  1
  C  C3  1  0.25000000  0.99819900  0.65319100  1
  Ni  Ni4  1  0.25000000  0.00536300  0.48237500  1
  Ni  Ni5  1  0.75000000  0.99463700  0.51762500  1
  Ni  Ni6  1  0.75000000  0.50536300  0.01762500  1
  Ni  Ni7  1  0.25000000  0.49463700  0.98237500  1
  Ni  Ni8  1  0.25000000  0.02357300  0.42036900  1
  Ni  Ni9  1  0.75000000  0.97642700  0.57963100  1
  Ni  Ni10  1  0.75000000  0.52357300  0.07963100  1
  Ni  Ni11  1  0.25000000  0.47642700  0.92036900  1
  Cu  Cu12  1  0.25000000  0.86999100  0.90958700  1
  Cu  Cu13  1  0.75000000  0.13000900  0.09041300  1
  Cu  Cu14  1  0.75000000  0.36999100  0.59041300  1
  Cu  Cu15  1  0.25000000  0.63000900  0.40958700  1
  Cu  Cu16  1  0.25000000  0.93782200  0.27714100  1
  Cu  Cu17  1  0.75000000  0.06217800  0.72285900  1
  Cu  Cu18  1  0.75000000  0.43782200  0.22285900  1
  Cu  Cu19  1  0.25000000  0.56217800  0.77714100  1
  Cu  Cu20  1  0.25000000  0.50874900  0.43339800  1
  Cu  Cu21  1  0.75000000  0.49125100  0.56660200  1
  Cu  Cu22  1  0.75000000  0.00874900  0.06660200  1
  Cu  Cu23  1  0.25000000  0.99125100  0.93339800  1
