# generated using pymatgen
data_CuNi7C2
_symmetry_space_group_name_H-M   'P 1'
_cell_length_a   10.05334400
_cell_length_b   10.05334400
_cell_length_c   10.05334400
_cell_angle_alpha   90.00000000
_cell_angle_beta   90.00000000
_cell_angle_gamma   90.00000000
_symmetry_Int_Tables_number   1
_chemical_formula_structural   CuNi7C2
_chemical_formula_sum   'Cu4 Ni28 C8'
_cell_volume   1016.08871926
_cell_formula_units_Z   4
loop_
 _symmetry_equiv_pos_site_id
 _symmetry_equiv_pos_as_xyz
  1  'x, y, z'
loop_
 _atom_site_type_symbol
 _atom_site_label
 _atom_site_symmetry_multiplicity
 _atom_site_fract_x
 _atom_site_fract_y
 _atom_site_fract_z
 _atom_site_occupancy
  C  C0  1  0.15399200  0.65399200  0.84600800  1
  C  C1  1  0.65399200  0.84600800  0.15399200  1
  C  C2  1  0.84600800  0.15399200  0.65399200  1
  C  C3  1  0.34600800  0.34600800  0.34600800  1
  C  C4  1  0.90191500  0.40191500  0.09808500  1
  C  C5  1  0.40191500  0.09808500  0.90191500  1
  C  C6  1  0.09808500  0.90191500  0.40191500  1
  C  C7  1  0.59808500  0.59808500  0.59808500  1
  Ni  Ni8  1  0.71953800  0.21953800  0.28046200  1
  Ni  Ni9  1  0.21953800  0.28046200  0.71953800  1
  Ni  Ni10  1  0.28046200  0.71953800  0.21953800  1
  Ni  Ni11  1  0.78046200  0.78046200  0.78046200  1
  Ni  Ni12  1  0.30820600  0.46436800  0.64270200  1
  Ni  Ni13  1  0.35729800  0.80820600  0.03563200  1
  Ni  Ni14  1  0.96436800  0.85729800  0.69179400  1
  Ni  Ni15  1  0.80820600  0.03563200  0.35729800  1
  Ni  Ni16  1  0.85729800  0.69179400  0.96436800  1
  Ni  Ni17  1  0.46436800  0.64270200  0.30820600  1
  Ni  Ni18  1  0.69179400  0.96436800  0.85729800  1
  Ni  Ni19  1  0.64270200  0.30820600  0.46436800  1
  Ni  Ni20  1  0.03563200  0.35729800  0.80820600  1
  Ni  Ni21  1  0.19179400  0.53563200  0.14270200  1
  Ni  Ni22  1  0.14270200  0.19179400  0.53563200  1
  Ni  Ni23  1  0.53563200  0.14270200  0.19179400  1
  Ni  Ni24  1  0.35793700  0.45733100  0.02923100  1
  Ni  Ni25  1  0.97076900  0.85793700  0.04266900  1
  Ni  Ni26  1  0.95733100  0.47076900  0.64206300  1
  Ni  Ni27  1  0.85793700  0.04266900  0.97076900  1
  Ni  Ni28  1  0.47076900  0.64206300  0.95733100  1
  Ni  Ni29  1  0.45733100  0.02923100  0.35793700  1
  Ni  Ni30  1  0.64206300  0.95733100  0.47076900  1
  Ni  Ni31  1  0.02923100  0.35793700  0.45733100  1
  Ni  Ni32  1  0.04266900  0.97076900  0.85793700  1
  Ni  Ni33  1  0.14206300  0.54266900  0.52923100  1
  Ni  Ni34  1  0.52923100  0.14206300  0.54266900  1
  Ni  Ni35  1  0.54266900  0.52923100  0.14206300  1
  Cu  Cu36  1  0.34881100  0.84881100  0.65118900  1
  Cu  Cu37  1  0.84881100  0.65118900  0.34881100  1
  Cu  Cu38  1  0.65118900  0.34881100  0.84881100  1
  Cu  Cu39  1  0.15118900  0.15118900  0.15118900  1
