# generated using pymatgen
data_Cu2NiC4
_symmetry_space_group_name_H-M   'P 1'
_cell_length_a   6.03777886
_cell_length_b   6.03617826
_cell_length_c   6.03777883
_cell_angle_alpha   119.99128166
_cell_angle_beta   89.96882239
_cell_angle_gamma   60.00872244
_symmetry_Int_Tables_number   1
_chemical_formula_structural   Cu2NiC4
_chemical_formula_sum   'Cu4 Ni2 C8'
_cell_volume   155.59574325
_cell_formula_units_Z   2
loop_
 _symmetry_equiv_pos_site_id
 _symmetry_equiv_pos_as_xyz
  1  'x, y, z'
loop_
 _atom_site_type_symbol
 _atom_site_label
 _atom_site_symmetry_multiplicity
 _atom_site_fract_x
 _atom_site_fract_y
 _atom_site_fract_z
 _atom_site_occupancy
  Ni  Ni0  1  0.87500000  0.75000000  0.87500000  1
  Ni  Ni1  1  0.12500000  0.25000000  0.12500000  1
  Cu  Cu2  1  0.00000000  0.00000000  0.50000000  1
  Cu  Cu3  1  0.50000000  0.50000000  0.00000000  1
  Cu  Cu4  1  0.50000000  0.00000000  0.50000000  1
  Cu  Cu5  1  0.50000000  0.50000000  0.50000000  1
  C  C6  1  0.73941100  0.02113900  0.73941100  1
  C  C7  1  0.73941100  0.47886100  0.73941100  1
  C  C8  1  0.26054600  0.97886400  0.71827300  1
  C  C9  1  0.26058900  0.97886100  0.26058900  1
  C  C10  1  0.26058900  0.52113900  0.26058900  1
  C  C11  1  0.73945400  0.02113600  0.28172700  1
  C  C12  1  0.28172700  0.47886400  0.73945400  1
  C  C13  1  0.71827300  0.52113600  0.26054600  1
