# generated using pymatgen
data_CuNiC12
_symmetry_space_group_name_H-M   'P 1'
_cell_length_a   3.86414402
_cell_length_b   3.86414402
_cell_length_c   38.19711416
_cell_angle_alpha   90.00000000
_cell_angle_beta   90.00000000
_cell_angle_gamma   90.00000000
_symmetry_Int_Tables_number   1
_chemical_formula_structural   CuNiC12
_chemical_formula_sum   'Cu3 Ni3 C36'
_cell_volume   570.34437384
_cell_formula_units_Z   3
loop_
 _symmetry_equiv_pos_site_id
 _symmetry_equiv_pos_as_xyz
  1  'x, y, z'
loop_
 _atom_site_type_symbol
 _atom_site_label
 _atom_site_symmetry_multiplicity
 _atom_site_fract_x
 _atom_site_fract_y
 _atom_site_fract_z
 _atom_site_occupancy
  C  C0  1  0.50000000  0.50000000  0.20646349  1
  C  C1  1  0.50000000  0.50000000  0.53557219  1
  C  C2  1  0.50000000  0.50000000  0.87019978  1
  C  C3  1  0.00000000  -0.00000000  0.13311667  1
  C  C4  1  0.00000000  -0.00000000  0.46405152  1
  C  C5  1  -0.00000000  -0.00000000  0.79866477  1
  C  C6  1  0.50000000  0.50000000  0.63313022  1
  C  C7  1  0.50000000  0.50000000  0.96661671  1
  C  C8  1  0.00000000  0.00000000  0.03320980  1
  C  C9  1  0.00000000  0.00000000  0.36342303  1
  C  C10  1  0.00000000  0.00000000  0.69942524  1
  C  C11  1  0.50000000  0.50000000  0.30225044  1
  Ni  Ni12  1  0.50000000  0.50000000  0.08617966  1
  Ni  Ni13  1  0.50000000  0.50000000  0.41903458  1
  Ni  Ni14  1  0.50000000  0.50000000  0.75252731  1
  Cu  Cu15  1  -0.00000000  -0.00000000  0.24914825  1
  Cu  Cu16  1  -0.00000000  -0.00000000  0.58246714  1
  Cu  Cu17  1  -0.00000000  0.00000000  0.91643280  1
  C  C18  1  -0.00000000  0.50000000  0.07359624  1
  C  C19  1  -0.00000000  0.50000000  0.40936232  1
  C  C20  1  0.00000000  0.50000000  0.74059762  1
  C  C21  1  0.50000000  0.00000000  0.07359624  1
  C  C22  1  0.50000000  0.00000000  0.40936232  1
  C  C23  1  0.50000000  -0.00000000  0.74059762  1
  C  C24  1  0.00000000  0.50000000  0.25680778  1
  C  C25  1  0.00000000  0.50000000  0.59298299  1
  C  C26  1  0.00000000  0.50000000  0.92600101  1
  C  C27  1  0.50000000  0.00000000  0.25680778  1
  C  C28  1  0.50000000  0.00000000  0.59298299  1
  C  C29  1  0.50000000  0.00000000  0.92600101  1
  C  C30  1  0.00000000  0.50000000  0.99962437  1
  C  C31  1  -0.00000000  0.50000000  0.33333666  1
  C  C32  1  0.00000000  0.50000000  0.66647868  1
  C  C33  1  0.50000000  0.00000000  0.99962437  1
  C  C34  1  0.50000000  0.00000000  0.33333666  1
  C  C35  1  0.50000000  -0.00000000  0.66647868  1
  C  C36  1  0.50000000  0.50000000  0.13579435  1
  C  C37  1  0.50000000  0.50000000  0.46930768  1
  C  C38  1  0.50000000  0.50000000  0.80241787  1
  C  C39  1  0.00000000  0.00000000  0.19395575  1
  C  C40  1  0.00000000  0.00000000  0.52703257  1
  C  C41  1  0.00000000  0.00000000  0.86000283  1
