# generated using pymatgen
data_Cu5Ni2C25
_symmetry_space_group_name_H-M   'P 1'
_cell_length_a   5.79892544
_cell_length_b   8.40505882
_cell_length_c   6.54554735
_cell_angle_alpha   90.60706453
_cell_angle_beta   116.29335481
_cell_angle_gamma   89.99999620
_symmetry_Int_Tables_number   1
_chemical_formula_structural   Cu5Ni2C25
_chemical_formula_sum   'Cu5 Ni2 C25'
_cell_volume   286.00428047
_cell_formula_units_Z   1
loop_
 _symmetry_equiv_pos_site_id
 _symmetry_equiv_pos_as_xyz
  1  'x, y, z'
loop_
 _atom_site_type_symbol
 _atom_site_label
 _atom_site_symmetry_multiplicity
 _atom_site_fract_x
 _atom_site_fract_y
 _atom_site_fract_z
 _atom_site_occupancy
  C  C0  1  0.62486900  0.25538900  0.74973900  1
  C  C1  1  0.37648600  0.74574100  0.25297100  1
  C  C2  1  0.12286000  0.25764000  0.74572000  1
  C  C3  1  0.50039100  0.50645700  0.99476800  1
  C  C4  1  0.25501700  0.99210900  0.50235900  1
  C  C5  1  0.99437800  0.50645700  0.99476800  1
  C  C6  1  0.87472000  0.74272000  0.24944100  1
  C  C7  1  0.74734200  0.99210900  0.50235900  1
  C  C8  1  0.62471800  0.74461600  0.74943700  1
  Ni  Ni9  1  0.99724600  0.99701000  0.99610800  1
  Ni  Ni10  1  0.49886200  0.99701000  0.99610800  1
  Cu  Cu11  1  0.75382200  0.51071400  0.51011800  1
  Cu  Cu12  1  0.25629600  0.51071400  0.51011800  1
  Cu  Cu13  1  0.37690000  0.25901200  0.25380000  1
  Cu  Cu14  1  0.12406000  0.74723300  0.74811900  1
  Cu  Cu15  1  0.87827400  0.25876200  0.25654800  1
  C  C16  1  0.63834100  0.00391100  0.77668300  1
  C  C17  1  0.37980800  0.49607400  0.25961600  1
  C  C18  1  0.13719000  0.00900200  0.77438100  1
  C  C19  1  0.50925200  0.23133300  0.01750900  1
  C  C20  1  0.24109600  0.74015900  0.51254700  1
  C  C21  1  0.00825700  0.23133300  0.01750900  1
  C  C22  1  0.87841400  0.49226900  0.25682900  1
  C  C23  1  0.77145100  0.74015900  0.51254700  1
  C  C24  1  0.61895500  0.49396500  0.73791100  1
  C  C25  1  0.36249600  0.00181000  0.22499200  1
  C  C26  1  0.12311000  0.49564100  0.74621900  1
  C  C27  1  0.47560200  0.77038800  0.98120300  1
  C  C28  1  0.24271900  0.25253200  0.48373600  1
  C  C29  1  0.00560100  0.77038800  0.98120300  1
  C  C30  1  0.86044900  0.99480700  0.22089800  1
  C  C31  1  0.74101700  0.25253200  0.48373600  1
