# generated using pymatgen
data_Cu9(Ni6C19)2
_symmetry_space_group_name_H-M   'P 1'
_cell_length_a   6.45079114
_cell_length_b   10.50974365
_cell_length_c   10.50974365
_cell_angle_alpha   120.00000000
_cell_angle_beta   90.00000000
_cell_angle_gamma   90.00000000
_symmetry_Int_Tables_number   1
_chemical_formula_structural   Cu9(Ni6C19)2
_chemical_formula_sum   'Cu9 Ni12 C38'
_cell_volume   617.06065800
_cell_formula_units_Z   1
loop_
 _symmetry_equiv_pos_site_id
 _symmetry_equiv_pos_as_xyz
  1  'x, y, z'
loop_
 _atom_site_type_symbol
 _atom_site_label
 _atom_site_symmetry_multiplicity
 _atom_site_fract_x
 _atom_site_fract_y
 _atom_site_fract_z
 _atom_site_occupancy
  C  C0  1  0.00468300  0.00000000  0.00000000  1
  C  C1  1  0.66198400  0.66666700  0.33333300  1
  Ni  Ni2  1  0.17046900  0.65286400  0.82507800  1
  Ni  Ni3  1  0.83333300  0.33333300  0.16666700  1
  Ni  Ni4  1  0.49619800  0.01380300  0.50825500  1
  Ni  Ni5  1  0.17393000  0.66666700  0.33333300  1
  Ni  Ni6  1  0.83333300  0.33333300  0.66666700  1
  Ni  Ni7  1  0.49273700  0.00000000  0.00000000  1
  Ni  Ni8  1  0.83333300  0.83333300  0.66666700  1
  Ni  Ni9  1  0.49619800  0.49445200  0.98619700  1
  Ni  Ni10  1  0.17046900  0.17221500  0.34713600  1
  Ni  Ni11  1  0.49619800  0.49174500  0.50554800  1
  Ni  Ni12  1  0.17046900  0.17492200  0.82778500  1
  Ni  Ni13  1  0.83333300  0.83333300  0.16666700  1
  Cu  Cu14  1  0.33333300  0.33333300  0.16666700  1
  Cu  Cu15  1  0.99468400  0.99629900  0.49834200  1
  Cu  Cu16  1  0.67198300  0.67036800  0.83499100  1
  Cu  Cu17  1  0.99468400  0.50165800  0.49795700  1
  Cu  Cu18  1  0.67198300  0.16500900  0.83537600  1
  Cu  Cu19  1  0.33333300  0.83333300  0.16666700  1
  Cu  Cu20  1  0.33333300  0.83333300  0.66666700  1
  Cu  Cu21  1  0.99468400  0.50204300  0.00370100  1
  Cu  Cu22  1  0.67198300  0.16462400  0.32963200  1
  C  C23  1  0.24429900  0.06345200  0.62219400  1
  C  C24  1  0.92028900  0.74520600  0.95965300  1
  C  C25  1  0.58379100  0.41021700  0.29217200  1
  C  C26  1  0.35160200  0.52632600  0.17667100  1
  C  C27  1  0.00292400  0.18487700  0.50165200  1
  C  C28  1  0.68776000  0.86074900  0.84348500  1
  C  C29  1  0.97890600  0.80591700  0.48984900  1
  C  C30  1  0.66374300  0.48179000  0.83168100  1
  C  C31  1  0.31506500  0.14034100  0.15666200  1
  C  C32  1  0.08287600  0.25645000  0.04116100  1
  C  C33  1  0.74637700  0.92146000  0.37368100  1
  C  C34  1  0.42236800  0.60321500  0.71113900  1
  C  C35  1  0.42236800  0.28886100  0.89207500  1
  C  C36  1  0.08287600  0.95883900  0.21528900  1
  C  C37  1  0.74637700  0.62631900  0.54778000  1
  C  C38  1  0.66374300  0.16831900  0.65010900  1
  C  C39  1  0.31506500  0.84333800  0.98367800  1
  C  C40  1  0.97890600  0.51015100  0.31606900  1
  C  C41  1  0.68776000  0.15651500  0.01726500  1
  C  C42  1  0.35160200  0.82332900  0.34965500  1
  C  C43  1  0.00292400  0.49834800  0.68322400  1
  C  C44  1  0.92028900  0.04034700  0.78555400  1
  C  C45  1  0.58379100  0.70782800  0.11804400  1
  C  C46  1  0.24429900  0.37780600  0.44125800  1
  C  C47  1  0.00292400  0.31677600  0.81512300  1
  C  C48  1  0.68776000  0.98273500  0.13925100  1
  C  C49  1  0.35160200  0.65034500  0.47367400  1
  C  C50  1  0.58379100  0.88195600  0.58978300  1
  C  C51  1  0.24429900  0.55874200  0.93654800  1
  C  C52  1  0.92028900  0.21444600  0.25479400  1
  C  C53  1  0.74637700  0.45222000  0.07854000  1
  C  C54  1  0.42236800  0.10792500  0.39678500  1
  C  C55  1  0.08287600  0.78471100  0.74355000  1
  C  C56  1  0.31506500  0.01632200  0.85965900  1
  C  C57  1  0.97890600  0.68393100  0.19408300  1
  C  C58  1  0.66374300  0.34989100  0.51821000  1
