# generated using pymatgen
data_Cu8Ni4C3
_symmetry_space_group_name_H-M   'P 1'
_cell_length_a   15.04286900
_cell_length_b   7.72003000
_cell_length_c   8.56586628
_cell_angle_alpha   56.71005135
_cell_angle_beta   90.00000000
_cell_angle_gamma   90.00000000
_symmetry_Int_Tables_number   1
_chemical_formula_structural   Cu8Ni4C3
_chemical_formula_sum   'Cu32 Ni16 C12'
_cell_volume   831.52857916
_cell_formula_units_Z   4
loop_
 _symmetry_equiv_pos_site_id
 _symmetry_equiv_pos_as_xyz
  1  'x, y, z'
loop_
 _atom_site_type_symbol
 _atom_site_label
 _atom_site_symmetry_multiplicity
 _atom_site_fract_x
 _atom_site_fract_y
 _atom_site_fract_z
 _atom_site_occupancy
  C  C0  1  0.83966700  0.15323800  0.92199800  1
  C  C1  1  0.66033300  0.15323800  0.42199800  1
  C  C2  1  0.16033300  0.84676200  0.07800200  1
  C  C3  1  0.33966700  0.84676200  0.57800200  1
  C  C4  1  0.92174800  0.72379300  0.77427400  1
  C  C5  1  0.57825200  0.72379300  0.27427400  1
  C  C6  1  0.07825200  0.27620700  0.22572600  1
  C  C7  1  0.42174800  0.27620700  0.72572600  1
  C  C8  1  0.86838000  0.70521700  0.33837200  1
  C  C9  1  0.63162000  0.70521700  0.83837200  1
  C  C10  1  0.13162000  0.29478300  0.66162800  1
  C  C11  1  0.36838000  0.29478300  0.16162800  1
  Ni  Ni12  1  0.77707700  0.47355000  0.41627200  1
  Ni  Ni13  1  0.72292300  0.47355000  0.91627200  1
  Ni  Ni14  1  0.22292300  0.52645000  0.58372800  1
  Ni  Ni15  1  0.27707700  0.52645000  0.08372800  1
  Ni  Ni16  1  0.96439600  0.92778500  0.27296300  1
  Ni  Ni17  1  0.53560400  0.92778500  0.77296300  1
  Ni  Ni18  1  0.03560400  0.07221500  0.72703700  1
  Ni  Ni19  1  0.46439600  0.07221500  0.22703700  1
  Ni  Ni20  1  0.95234300  0.55332200  0.25843600  1
  Ni  Ni21  1  0.54765700  0.55332200  0.75843600  1
  Ni  Ni22  1  0.04765700  0.44667800  0.74156400  1
  Ni  Ni23  1  0.45234300  0.44667800  0.24156400  1
  Ni  Ni24  1  0.78191600  0.86335600  0.40686000  1
  Ni  Ni25  1  0.71808400  0.86335600  0.90686000  1
  Ni  Ni26  1  0.21808400  0.13664400  0.59314000  1
  Ni  Ni27  1  0.28191600  0.13664400  0.09314000  1
  Cu  Cu28  1  0.69902700  0.86699100  0.38416800  1
  Cu  Cu29  1  0.80097300  0.86699100  0.88416800  1
  Cu  Cu30  1  0.30097300  0.13300900  0.61583200  1
  Cu  Cu31  1  0.19902700  0.13300900  0.11583200  1
  Cu  Cu32  1  0.81378300  0.96835800  0.46336500  1
  Cu  Cu33  1  0.68621700  0.96835800  0.96336500  1
  Cu  Cu34  1  0.18621700  0.03164200  0.53663500  1
  Cu  Cu35  1  0.31378300  0.03164200  0.03663500  1
  Cu  Cu36  1  0.92168800  0.46929000  0.18072000  1
  Cu  Cu37  1  0.57831200  0.46929000  0.68072000  1
  Cu  Cu38  1  0.07831200  0.53071000  0.81928000  1
  Cu  Cu39  1  0.42168800  0.53071000  0.31928000  1
  Cu  Cu40  1  0.71524800  0.50234600  0.30541300  1
  Cu  Cu41  1  0.78475200  0.50234600  0.80541300  1
  Cu  Cu42  1  0.28475200  0.49765400  0.69458700  1
  Cu  Cu43  1  0.21524800  0.49765400  0.19458700  1
  Cu  Cu44  1  0.78583800  0.30198800  0.56440300  1
  Cu  Cu45  1  0.71416200  0.30198800  0.06440300  1
  Cu  Cu46  1  0.21416200  0.69801200  0.43559700  1
  Cu  Cu47  1  0.28583800  0.69801200  0.93559700  1
  Cu  Cu48  1  0.03397100  0.53969300  0.29470800  1
  Cu  Cu49  1  0.46602900  0.53969300  0.79470800  1
  Cu  Cu50  1  0.96602900  0.46030700  0.70529200  1
  Cu  Cu51  1  0.53397100  0.46030700  0.20529200  1
  Cu  Cu52  1  0.01935000  0.90355800  0.39108000  1
  Cu  Cu53  1  0.48065000  0.90355800  0.89108000  1
  Cu  Cu54  1  0.98065000  0.09644200  0.60892000  1
  Cu  Cu55  1  0.51935000  0.09644200  0.10892000  1
  Cu  Cu56  1  0.96509500  0.09677600  0.11368000  1
  Cu  Cu57  1  0.53490500  0.09677600  0.61368000  1
  Cu  Cu58  1  0.03490500  0.90322400  0.88632000  1
  Cu  Cu59  1  0.46509500  0.90322400  0.38632000  1
