# generated using pymatgen
data_Cu4Ni4C23
_symmetry_space_group_name_H-M   'P 1'
_cell_length_a   11.64196545
_cell_length_b   11.64196545
_cell_length_c   9.29216392
_cell_angle_alpha   91.47774622
_cell_angle_beta   88.52225378
_cell_angle_gamma   134.72937721
_symmetry_Int_Tables_number   1
_chemical_formula_structural   Cu4Ni4C23
_chemical_formula_sum   'Cu8 Ni8 C46'
_cell_volume   894.38912947
_cell_formula_units_Z   2
loop_
 _symmetry_equiv_pos_site_id
 _symmetry_equiv_pos_as_xyz
  1  'x, y, z'
loop_
 _atom_site_type_symbol
 _atom_site_label
 _atom_site_symmetry_multiplicity
 _atom_site_fract_x
 _atom_site_fract_y
 _atom_site_fract_z
 _atom_site_occupancy
  C  C0  1  0.13155600  0.44441100  0.52678600  1
  C  C1  1  0.44441100  0.13155600  0.97321400  1
  C  C2  1  0.86844400  0.55558900  0.47321400  1
  C  C3  1  0.55558900  0.86844400  0.02678600  1
  Ni  Ni4  1  0.02498000  0.82301800  0.09272800  1
  Ni  Ni5  1  0.82301800  0.02498000  0.40727200  1
  Ni  Ni6  1  0.97502000  0.17698200  0.90727200  1
  Ni  Ni7  1  0.17698200  0.97502000  0.59272800  1
  Ni  Ni8  1  0.87523000  0.47266900  0.79374500  1
  Ni  Ni9  1  0.47266900  0.87523000  0.70625500  1
  Ni  Ni10  1  0.12477000  0.52733100  0.20625500  1
  Ni  Ni11  1  0.52733100  0.12477000  0.29374500  1
  Cu  Cu12  1  0.85503500  0.72574600  0.78376900  1
  Cu  Cu13  1  0.72574600  0.85503500  0.71623100  1
  Cu  Cu14  1  0.14496500  0.27425400  0.21623100  1
  Cu  Cu15  1  0.27425400  0.14496500  0.28376900  1
  Cu  Cu16  1  0.21760300  0.74183200  0.95794700  1
  Cu  Cu17  1  0.74183200  0.21760300  0.54205300  1
  Cu  Cu18  1  0.78239700  0.25816800  0.04205300  1
  Cu  Cu19  1  0.25816800  0.78239700  0.45794700  1
  C  C20  1  0.00126500  0.87664900  0.68552800  1
  C  C21  1  0.87664900  0.00126500  0.81447200  1
  C  C22  1  0.99873500  0.12335100  0.31447200  1
  C  C23  1  0.12335100  0.99873500  0.18552800  1
  C  C24  1  0.89157600  0.74726800  0.95483900  1
  C  C25  1  0.74726800  0.89157600  0.54516100  1
  C  C26  1  0.10842400  0.25273200  0.04516100  1
  C  C27  1  0.25273200  0.10842400  0.45483900  1
  C  C28  1  0.81527400  0.56407200  0.72464700  1
  C  C29  1  0.56407200  0.81527400  0.77535300  1
  C  C30  1  0.18472600  0.43592800  0.27535300  1
  C  C31  1  0.43592800  0.18472600  0.22464700  1
  C  C32  1  0.15366000  0.81231600  0.53661000  1
  C  C33  1  0.81231600  0.15366000  0.96339000  1
  C  C34  1  0.84634000  0.18768400  0.46339000  1
  C  C35  1  0.18768400  0.84634000  0.03661000  1
  C  C36  1  0.73510100  0.32301500  0.92311500  1
  C  C37  1  0.32301500  0.73510100  0.57688500  1
  C  C38  1  0.26489900  0.67698500  0.07688500  1
  C  C39  1  0.67698500  0.26489900  0.42311500  1
  C  C40  1  0.07088700  0.59882200  0.85704000  1
  C  C41  1  0.59882200  0.07088700  0.64296000  1
  C  C42  1  0.92911300  0.40117800  0.14296000  1
  C  C43  1  0.40117800  0.92911300  0.35704000  1
  C  C44  1  0.88015500  0.39158800  0.62967900  1
  C  C45  1  0.39158800  0.88015500  0.87032100  1
  C  C46  1  0.11984500  0.60841200  0.37032100  1
  C  C47  1  0.60841200  0.11984500  0.12967900  1
  C  C48  1  0.69838200  0.69838200  0.75000000  1
  C  C49  1  0.30161800  0.30161800  0.25000000  1
  C  C50  1  0.09250100  0.33055000  0.75532100  1
  C  C51  1  0.33055000  0.09250100  0.74467900  1
  C  C52  1  0.90749900  0.66945000  0.24467900  1
  C  C53  1  0.66945000  0.90749900  0.25532100  1
  C  C54  1  0.53892900  0.48394300  0.51234800  1
  C  C55  1  0.48394300  0.53892900  0.98765200  1
  C  C56  1  0.46107100  0.51605700  0.48765200  1
  C  C57  1  0.51605700  0.46107100  0.01234800  1
  C  C58  1  0.15478700  0.29262300  0.66303100  1
  C  C59  1  0.29262300  0.15478700  0.83696900  1
  C  C60  1  0.84521300  0.70737700  0.33696900  1
  C  C61  1  0.70737700  0.84521300  0.16303100  1
