# generated using pymatgen
data_Cu4(Ni4C)3
_symmetry_space_group_name_H-M   'P 1'
_cell_length_a   8.69099212
_cell_length_b   8.69099212
_cell_length_c   9.24189800
_cell_angle_alpha   90.00000000
_cell_angle_beta   90.00000000
_cell_angle_gamma   120.00000095
_symmetry_Int_Tables_number   1
_chemical_formula_structural   Cu4(Ni4C)3
_chemical_formula_sum   'Cu8 Ni24 C6'
_cell_volume   604.54761385
_cell_formula_units_Z   2
loop_
 _symmetry_equiv_pos_site_id
 _symmetry_equiv_pos_as_xyz
  1  'x, y, z'
loop_
 _atom_site_type_symbol
 _atom_site_label
 _atom_site_symmetry_multiplicity
 _atom_site_fract_x
 _atom_site_fract_y
 _atom_site_fract_z
 _atom_site_occupancy
  C  C0  1  0.79795800  0.20204200  0.75000000  1
  C  C1  1  0.20204200  0.79795800  0.25000000  1
  C  C2  1  0.40408400  0.20204200  0.75000000  1
  C  C3  1  0.59591600  0.79795800  0.25000000  1
  C  C4  1  0.79795800  0.59591600  0.75000000  1
  C  C5  1  0.20204200  0.40408400  0.25000000  1
  Ni  Ni6  1  0.66666700  0.33333300  0.99070500  1
  Ni  Ni7  1  0.33333300  0.66666700  0.00929500  1
  Ni  Ni8  1  0.33333300  0.66666700  0.49070500  1
  Ni  Ni9  1  0.66666700  0.33333300  0.50929500  1
  Ni  Ni10  1  0.84103000  0.15897000  0.42207700  1
  Ni  Ni11  1  0.15897000  0.84103000  0.57792300  1
  Ni  Ni12  1  0.31794000  0.15897000  0.42207700  1
  Ni  Ni13  1  0.15897000  0.84103000  0.92207700  1
  Ni  Ni14  1  0.68206000  0.84103000  0.57792300  1
  Ni  Ni15  1  0.84103000  0.15897000  0.07792300  1
  Ni  Ni16  1  0.84103000  0.68206000  0.42207700  1
  Ni  Ni17  1  0.68206000  0.84103000  0.92207700  1
  Ni  Ni18  1  0.15897000  0.31794000  0.57792300  1
  Ni  Ni19  1  0.31794000  0.15897000  0.07792300  1
  Ni  Ni20  1  0.15897000  0.31794000  0.92207700  1
  Ni  Ni21  1  0.84103000  0.68206000  0.07792300  1
  Ni  Ni22  1  0.43933600  0.56066400  0.75000000  1
  Ni  Ni23  1  0.56066400  0.43933600  0.25000000  1
  Ni  Ni24  1  0.12132800  0.56066400  0.75000000  1
  Ni  Ni25  1  0.87867200  0.43933600  0.25000000  1
  Ni  Ni26  1  0.43933600  0.87867200  0.75000000  1
  Ni  Ni27  1  0.56066400  0.12132800  0.25000000  1
  Ni  Ni28  1  0.00000000  0.00000000  0.75000000  1
  Ni  Ni29  1  0.00000000  0.00000000  0.25000000  1
  Cu  Cu30  1  0.50000000  0.50000000  0.00000000  1
  Cu  Cu31  1  0.00000000  0.50000000  0.00000000  1
  Cu  Cu32  1  0.50000000  0.50000000  0.50000000  1
  Cu  Cu33  1  0.50000000  0.00000000  0.00000000  1
  Cu  Cu34  1  0.00000000  0.50000000  0.50000000  1
  Cu  Cu35  1  0.50000000  0.00000000  0.50000000  1
  Cu  Cu36  1  0.00000000  0.00000000  0.00000000  1
  Cu  Cu37  1  0.00000000  0.00000000  0.50000000  1
