# generated using pymatgen
data_CuNiC2
_symmetry_space_group_name_H-M   'P 1'
_cell_length_a   5.17812300
_cell_length_b   11.27037400
_cell_length_c   13.38409600
_cell_angle_alpha   90.00000000
_cell_angle_beta   90.00000000
_cell_angle_gamma   90.00000000
_symmetry_Int_Tables_number   1
_chemical_formula_structural   CuNiC2
_chemical_formula_sum   'Cu16 Ni16 C32'
_cell_volume   781.08758227
_cell_formula_units_Z   16
loop_
 _symmetry_equiv_pos_site_id
 _symmetry_equiv_pos_as_xyz
  1  'x, y, z'
loop_
 _atom_site_type_symbol
 _atom_site_label
 _atom_site_symmetry_multiplicity
 _atom_site_fract_x
 _atom_site_fract_y
 _atom_site_fract_z
 _atom_site_occupancy
  Ni  Ni0  1  0.59186800  0.04902200  0.17779300  1
  Ni  Ni1  1  0.09186800  0.45097800  0.82220700  1
  Ni  Ni2  1  0.40813200  0.54902200  0.32220700  1
  Ni  Ni3  1  0.90813200  0.95097800  0.67779300  1
  Ni  Ni4  1  0.40813200  0.95097800  0.82220700  1
  Ni  Ni5  1  0.90813200  0.54902200  0.17779300  1
  Ni  Ni6  1  0.59186800  0.45097800  0.67779300  1
  Ni  Ni7  1  0.09186800  0.04902200  0.32220700  1
  Ni  Ni8  1  0.85560800  0.29612000  0.06646800  1
  Ni  Ni9  1  0.35560800  0.20388000  0.93353200  1
  Ni  Ni10  1  0.14439200  0.79612000  0.43353200  1
  Ni  Ni11  1  0.64439200  0.70388000  0.56646800  1
  Ni  Ni12  1  0.14439200  0.70388000  0.93353200  1
  Ni  Ni13  1  0.64439200  0.79612000  0.06646800  1
  Ni  Ni14  1  0.85560800  0.20388000  0.56646800  1
  Ni  Ni15  1  0.35560800  0.29612000  0.43353200  1
  Cu  Cu16  1  0.62335200  0.95044600  0.43749400  1
  Cu  Cu17  1  0.12335200  0.54955400  0.56250600  1
  Cu  Cu18  1  0.37664800  0.45044600  0.06250600  1
  Cu  Cu19  1  0.87664800  0.04955400  0.93749400  1
  Cu  Cu20  1  0.37664800  0.04955400  0.56250600  1
  Cu  Cu21  1  0.87664800  0.45044600  0.43749400  1
  Cu  Cu22  1  0.62335200  0.54955400  0.93749400  1
  Cu  Cu23  1  0.12335200  0.95044600  0.06250600  1
  Cu  Cu24  1  0.83414200  0.30421800  0.30055700  1
  Cu  Cu25  1  0.33414200  0.19578200  0.69944300  1
  Cu  Cu26  1  0.16585800  0.80421800  0.19944300  1
  Cu  Cu27  1  0.66585800  0.69578200  0.80055700  1
  Cu  Cu28  1  0.16585800  0.69578200  0.69944300  1
  Cu  Cu29  1  0.66585800  0.80421800  0.30055700  1
  Cu  Cu30  1  0.83414200  0.19578200  0.80055700  1
  Cu  Cu31  1  0.33414200  0.30421800  0.19944300  1
  C  C32  1  0.78504500  0.47390400  0.31037200  1
  C  C33  1  0.28504500  0.02609600  0.68962800  1
  C  C34  1  0.21495500  0.97390400  0.18962800  1
  C  C35  1  0.71495500  0.52609600  0.81037200  1
  C  C36  1  0.21495500  0.52609600  0.68962800  1
  C  C37  1  0.71495500  0.97390400  0.31037200  1
  C  C38  1  0.78504500  0.02609600  0.81037200  1
  C  C39  1  0.28504500  0.47390400  0.18962800  1
  C  C40  1  0.76882600  0.29734100  0.44009200  1
  C  C41  1  0.26882600  0.20265900  0.55990800  1
  C  C42  1  0.23117400  0.79734100  0.05990800  1
  C  C43  1  0.73117400  0.70265900  0.94009200  1
  C  C44  1  0.23117400  0.70265900  0.55990800  1
  C  C45  1  0.73117400  0.79734100  0.44009200  1
  C  C46  1  0.76882600  0.20265900  0.94009200  1
  C  C47  1  0.26882600  0.29734100  0.05990800  1
  C  C48  1  0.71868100  0.46952700  0.05129800  1
  C  C49  1  0.21868100  0.03047300  0.94870200  1
  C  C50  1  0.28131900  0.96952700  0.44870200  1
  C  C51  1  0.78131900  0.53047300  0.55129800  1
  C  C52  1  0.28131900  0.53047300  0.94870200  1
  C  C53  1  0.78131900  0.96952700  0.05129800  1
  C  C54  1  0.71868100  0.03047300  0.55129800  1
  C  C55  1  0.21868100  0.46952700  0.44870200  1
  C  C56  1  0.65959300  0.23372100  0.19800000  1
  C  C57  1  0.15959300  0.26627900  0.80200000  1
  C  C58  1  0.34040700  0.73372100  0.30200000  1
  C  C59  1  0.84040700  0.76627900  0.69800000  1
  C  C60  1  0.34040700  0.76627900  0.80200000  1
  C  C61  1  0.84040700  0.73372100  0.19800000  1
  C  C62  1  0.65959300  0.26627900  0.69800000  1
  C  C63  1  0.15959300  0.23372100  0.30200000  1
