# generated using pymatgen
data_Cu24Ni31C54
_symmetry_space_group_name_H-M   'P 1'
_cell_length_a   15.49360569
_cell_length_b   15.49360569
_cell_length_c   15.49360569
_cell_angle_alpha   90.00000000
_cell_angle_beta   90.00000000
_cell_angle_gamma   90.00000000
_symmetry_Int_Tables_number   1
_chemical_formula_structural   Cu24Ni31C54
_chemical_formula_sum   'Cu48 Ni62 C108'
_cell_volume   3719.26820206
_cell_formula_units_Z   2
loop_
 _symmetry_equiv_pos_site_id
 _symmetry_equiv_pos_as_xyz
  1  'x, y, z'
loop_
 _atom_site_type_symbol
 _atom_site_label
 _atom_site_symmetry_multiplicity
 _atom_site_fract_x
 _atom_site_fract_y
 _atom_site_fract_z
 _atom_site_occupancy
  C  C0  1  0.50000000  0.50000000  0.50000000  1
  C  C1  1  0.09410298  0.25608970  0.74391030  1
  C  C2  1  0.25608970  0.25608970  0.90589702  1
  C  C3  1  0.25608970  0.09410298  0.74391030  1
  C  C4  1  0.09410298  0.74391030  0.25608970  1
  C  C5  1  0.25608970  0.74391030  0.09410298  1
  C  C6  1  0.25608970  0.90589702  0.25608970  1
  C  C7  1  0.90589702  0.25608970  0.25608970  1
  C  C8  1  0.74391030  0.25608970  0.09410298  1
  C  C9  1  0.74391030  0.09410298  0.25608970  1
  C  C10  1  0.90589702  0.74391030  0.74391030  1
  C  C11  1  0.74391030  0.74391030  0.90589702  1
  C  C12  1  0.74391030  0.90589702  0.74391030  1
  C  C13  1  0.90589702  0.74391030  0.25608970  1
  C  C14  1  0.74391030  0.74391030  0.09410298  1
  C  C15  1  0.74391030  0.90589702  0.25608970  1
  C  C16  1  0.90589702  0.25608970  0.74391030  1
  C  C17  1  0.74391030  0.25608970  0.90589702  1
  C  C18  1  0.74391030  0.09410298  0.74391030  1
  C  C19  1  0.09410298  0.74391030  0.74391030  1
  C  C20  1  0.25608970  0.74391030  0.90589702  1
  C  C21  1  0.25608970  0.90589702  0.74391030  1
  C  C22  1  0.09410298  0.25608970  0.25608970  1
  C  C23  1  0.25608970  0.25608970  0.09410298  1
  C  C24  1  0.25608970  0.09410298  0.25608970  1
  C  C25  1  0.00000000  0.15492020  0.00000000  1
  C  C26  1  0.15492020  0.00000000  0.00000000  1
  C  C27  1  0.00000000  0.00000000  0.84507980  1
  C  C28  1  0.00000000  0.84507980  0.00000000  1
  C  C29  1  0.00000000  0.00000000  0.15492020  1
  C  C30  1  0.84507980  0.00000000  0.00000000  1
  C  C31  1  0.00000000  0.50000000  0.00000000  1
  C  C32  1  0.50000000  0.00000000  0.00000000  1
  C  C33  1  0.00000000  0.00000000  0.50000000  1
  C  C34  1  0.14814699  0.33516953  0.00000000  1
  C  C35  1  0.33516953  0.00000000  0.85185301  1
  C  C36  1  0.00000000  0.14814699  0.66483047  1
  C  C37  1  0.14814699  0.00000000  0.66483047  1
  C  C38  1  0.33516953  0.14814699  0.00000000  1
  C  C39  1  0.00000000  0.33516953  0.85185301  1
  C  C40  1  0.14814699  0.66483047  0.00000000  1
  C  C41  1  0.33516953  0.00000000  0.14814699  1
  C  C42  1  0.00000000  0.85185301  0.33516953  1
  C  C43  1  0.14814699  0.00000000  0.33516953  1
  C  C44  1  0.33516953  0.85185301  0.00000000  1
  C  C45  1  0.00000000  0.66483047  0.14814699  1
  C  C46  1  0.85185301  0.33516953  0.00000000  1
  C  C47  1  0.66483047  0.00000000  0.14814699  1
  C  C48  1  0.00000000  0.14814699  0.33516953  1
  C  C49  1  0.85185301  0.00000000  0.33516953  1
  C  C50  1  0.66483047  0.14814699  0.00000000  1
  C  C51  1  0.00000000  0.33516953  0.14814699  1
  C  C52  1  0.85185301  0.66483047  0.00000000  1
  C  C53  1  0.66483047  0.00000000  0.85185301  1
  C  C54  1  0.00000000  0.85185301  0.66483047  1
  C  C55  1  0.85185301  0.00000000  0.66483047  1
  C  C56  1  0.66483047  0.85185301  0.00000000  1
  C  C57  1  0.00000000  0.66483047  0.85185301  1
  C  C58  1  0.36717710  0.16652277  0.83347723  1
  C  C59  1  0.16652277  0.16652277  0.63282290  1
  C  C60  1  0.16652277  0.36717710  0.83347723  1
  C  C61  1  0.36717710  0.83347723  0.16652277  1
  C  C62  1  0.16652277  0.83347723  0.36717710  1
  C  C63  1  0.16652277  0.63282290  0.16652277  1
  C  C64  1  0.63282290  0.16652277  0.16652277  1
  C  C65  1  0.83347723  0.16652277  0.36717710  1
  C  C66  1  0.83347723  0.36717710  0.16652277  1
  C  C67  1  0.63282290  0.83347723  0.83347723  1
  C  C68  1  0.83347723  0.83347723  0.63282290  1
  C  C69  1  0.83347723  0.63282290  0.83347723  1
  C  C70  1  0.63282290  0.83347723  0.16652277  1
  C  C71  1  0.83347723  0.83347723  0.36717710  1
  C  C72  1  0.83347723  0.63282290  0.16652277  1
  C  C73  1  0.63282290  0.16652277  0.83347723  1
  C  C74  1  0.83347723  0.16652277  0.63282290  1
  C  C75  1  0.83347723  0.36717710  0.83347723  1
  C  C76  1  0.36717710  0.83347723  0.83347723  1
  C  C77  1  0.16652277  0.83347723  0.63282290  1
  C  C78  1  0.16652277  0.63282290  0.83347723  1
  C  C79  1  0.36717710  0.16652277  0.16652277  1
  C  C80  1  0.16652277  0.16652277  0.36717710  1
  C  C81  1  0.16652277  0.36717710  0.16652277  1
  C  C82  1  0.50000000  0.50000000  0.77618899  1
  C  C83  1  0.50000000  0.22381101  0.50000000  1
  C  C84  1  0.22381101  0.50000000  0.50000000  1
  C  C85  1  0.50000000  0.50000000  0.22381101  1
  C  C86  1  0.50000000  0.77618899  0.50000000  1
  C  C87  1  0.77618899  0.50000000  0.50000000  1
  C  C88  1  0.30383457  0.30383457  0.69616543  1
  C  C89  1  0.30383457  0.69616543  0.30383457  1
  C  C90  1  0.69616543  0.30383457  0.30383457  1
  C  C91  1  0.69616543  0.69616543  0.69616543  1
  C  C92  1  0.69616543  0.69616543  0.30383457  1
  C  C93  1  0.69616543  0.30383457  0.69616543  1
  C  C94  1  0.30383457  0.69616543  0.69616543  1
  C  C95  1  0.30383457  0.30383457  0.30383457  1
  C  C96  1  0.00000000  0.50000000  0.72483288  1
  C  C97  1  0.50000000  0.27516712  0.00000000  1
  C  C98  1  0.27516712  0.00000000  0.50000000  1
  C  C99  1  0.00000000  0.27516712  0.50000000  1
  C  C100  1  0.50000000  0.00000000  0.72483288  1
  C  C101  1  0.27516712  0.50000000  0.00000000  1
  C  C102  1  0.00000000  0.50000000  0.27516712  1
  C  C103  1  0.50000000  0.72483288  0.00000000  1
  C  C104  1  0.00000000  0.72483288  0.50000000  1
  C  C105  1  0.50000000  0.00000000  0.27516712  1
  C  C106  1  0.72483288  0.00000000  0.50000000  1
  C  C107  1  0.72483288  0.50000000  0.00000000  1
  Ni  Ni108  1  0.12082746  0.12082746  0.87917254  1
  Ni  Ni109  1  0.12082746  0.87917254  0.12082746  1
  Ni  Ni110  1  0.87917254  0.12082746  0.12082746  1
  Ni  Ni111  1  0.87917254  0.87917254  0.87917254  1
  Ni  Ni112  1  0.87917254  0.87917254  0.12082746  1
  Ni  Ni113  1  0.87917254  0.12082746  0.87917254  1
  Ni  Ni114  1  0.12082746  0.87917254  0.87917254  1
  Ni  Ni115  1  0.12082746  0.12082746  0.12082746  1
  Ni  Ni116  1  0.12126639  0.38568877  0.61431123  1
  Ni  Ni117  1  0.38568877  0.38568877  0.87873361  1
  Ni  Ni118  1  0.38568877  0.12126639  0.61431123  1
  Ni  Ni119  1  0.12126639  0.61431123  0.38568877  1
  Ni  Ni120  1  0.38568877  0.61431123  0.12126639  1
  Ni  Ni121  1  0.38568877  0.87873361  0.38568877  1
  Ni  Ni122  1  0.87873361  0.38568877  0.38568877  1
  Ni  Ni123  1  0.61431123  0.38568877  0.12126639  1
  Ni  Ni124  1  0.61431123  0.12126639  0.38568877  1
  Ni  Ni125  1  0.87873361  0.61431123  0.61431123  1
  Ni  Ni126  1  0.61431123  0.61431123  0.87873361  1
  Ni  Ni127  1  0.61431123  0.87873361  0.61431123  1
  Ni  Ni128  1  0.87873361  0.61431123  0.38568877  1
  Ni  Ni129  1  0.61431123  0.61431123  0.12126639  1
  Ni  Ni130  1  0.61431123  0.87873361  0.38568877  1
  Ni  Ni131  1  0.87873361  0.38568877  0.61431123  1
  Ni  Ni132  1  0.61431123  0.38568877  0.87873361  1
  Ni  Ni133  1  0.61431123  0.12126639  0.61431123  1
  Ni  Ni134  1  0.12126639  0.61431123  0.61431123  1
  Ni  Ni135  1  0.38568877  0.61431123  0.87873361  1
  Ni  Ni136  1  0.38568877  0.87873361  0.61431123  1
  Ni  Ni137  1  0.12126639  0.38568877  0.38568877  1
  Ni  Ni138  1  0.38568877  0.38568877  0.12126639  1
  Ni  Ni139  1  0.38568877  0.12126639  0.38568877  1
  Ni  Ni140  1  0.00000000  0.33227094  0.00000000  1
  Ni  Ni141  1  0.33227094  0.00000000  0.00000000  1
  Ni  Ni142  1  0.00000000  0.00000000  0.66772906  1
  Ni  Ni143  1  0.00000000  0.66772906  0.00000000  1
  Ni  Ni144  1  0.00000000  0.00000000  0.33227094  1
  Ni  Ni145  1  0.66772906  0.00000000  0.00000000  1
  Ni  Ni146  1  0.13278925  0.50000000  0.86721075  1
  Ni  Ni147  1  0.50000000  0.13278925  0.86721075  1
  Ni  Ni148  1  0.13278925  0.13278925  0.50000000  1
  Ni  Ni149  1  0.13278925  0.50000000  0.13278925  1
  Ni  Ni150  1  0.50000000  0.86721075  0.13278925  1
  Ni  Ni151  1  0.13278925  0.86721075  0.50000000  1
  Ni  Ni152  1  0.86721075  0.50000000  0.13278925  1
  Ni  Ni153  1  0.50000000  0.13278925  0.13278925  1
  Ni  Ni154  1  0.86721075  0.13278925  0.50000000  1
  Ni  Ni155  1  0.86721075  0.50000000  0.86721075  1
  Ni  Ni156  1  0.50000000  0.86721075  0.86721075  1
  Ni  Ni157  1  0.86721075  0.86721075  0.50000000  1
  Ni  Ni158  1  0.33170997  0.50000000  0.66829003  1
  Ni  Ni159  1  0.50000000  0.33170997  0.66829003  1
  Ni  Ni160  1  0.33170997  0.33170997  0.50000000  1
  Ni  Ni161  1  0.33170997  0.50000000  0.33170997  1
  Ni  Ni162  1  0.50000000  0.66829003  0.33170997  1
  Ni  Ni163  1  0.33170997  0.66829003  0.50000000  1
  Ni  Ni164  1  0.66829003  0.50000000  0.33170997  1
  Ni  Ni165  1  0.50000000  0.33170997  0.33170997  1
  Ni  Ni166  1  0.66829003  0.33170997  0.50000000  1
  Ni  Ni167  1  0.66829003  0.50000000  0.66829003  1
  Ni  Ni168  1  0.50000000  0.66829003  0.66829003  1
  Ni  Ni169  1  0.66829003  0.66829003  0.50000000  1
  Cu  Cu170  1  0.21176877  0.33079710  0.00000000  1
  Cu  Cu171  1  0.33079710  0.00000000  0.78823123  1
  Cu  Cu172  1  0.00000000  0.21176877  0.66920290  1
  Cu  Cu173  1  0.21176877  0.00000000  0.66920290  1
  Cu  Cu174  1  0.33079710  0.21176877  0.00000000  1
  Cu  Cu175  1  0.00000000  0.33079710  0.78823123  1
  Cu  Cu176  1  0.21176877  0.66920290  0.00000000  1
  Cu  Cu177  1  0.33079710  0.00000000  0.21176877  1
  Cu  Cu178  1  0.00000000  0.78823123  0.33079710  1
  Cu  Cu179  1  0.21176877  0.00000000  0.33079710  1
  Cu  Cu180  1  0.33079710  0.78823123  0.00000000  1
  Cu  Cu181  1  0.00000000  0.66920290  0.21176877  1
  Cu  Cu182  1  0.78823123  0.33079710  0.00000000  1
  Cu  Cu183  1  0.66920290  0.00000000  0.21176877  1
  Cu  Cu184  1  0.00000000  0.21176877  0.33079710  1
  Cu  Cu185  1  0.78823123  0.00000000  0.33079710  1
  Cu  Cu186  1  0.66920290  0.21176877  0.00000000  1
  Cu  Cu187  1  0.00000000  0.33079710  0.21176877  1
  Cu  Cu188  1  0.78823123  0.66920290  0.00000000  1
  Cu  Cu189  1  0.66920290  0.00000000  0.78823123  1
  Cu  Cu190  1  0.00000000  0.78823123  0.66920290  1
  Cu  Cu191  1  0.78823123  0.00000000  0.66920290  1
  Cu  Cu192  1  0.66920290  0.78823123  0.00000000  1
  Cu  Cu193  1  0.00000000  0.66920290  0.78823123  1
  Cu  Cu194  1  0.30960786  0.18619638  0.81380362  1
  Cu  Cu195  1  0.18619638  0.18619638  0.69039214  1
  Cu  Cu196  1  0.18619638  0.30960786  0.81380362  1
  Cu  Cu197  1  0.30960786  0.81380362  0.18619638  1
  Cu  Cu198  1  0.18619638  0.81380362  0.30960786  1
  Cu  Cu199  1  0.18619638  0.69039214  0.18619638  1
  Cu  Cu200  1  0.69039214  0.18619638  0.18619638  1
  Cu  Cu201  1  0.81380362  0.18619638  0.30960786  1
  Cu  Cu202  1  0.81380362  0.30960786  0.18619638  1
  Cu  Cu203  1  0.69039214  0.81380362  0.81380362  1
  Cu  Cu204  1  0.81380362  0.81380362  0.69039214  1
  Cu  Cu205  1  0.81380362  0.69039214  0.81380362  1
  Cu  Cu206  1  0.69039214  0.81380362  0.18619638  1
  Cu  Cu207  1  0.81380362  0.81380362  0.30960786  1
  Cu  Cu208  1  0.81380362  0.69039214  0.18619638  1
  Cu  Cu209  1  0.69039214  0.18619638  0.81380362  1
  Cu  Cu210  1  0.81380362  0.18619638  0.69039214  1
  Cu  Cu211  1  0.81380362  0.30960786  0.81380362  1
  Cu  Cu212  1  0.30960786  0.81380362  0.81380362  1
  Cu  Cu213  1  0.18619638  0.81380362  0.69039214  1
  Cu  Cu214  1  0.18619638  0.69039214  0.81380362  1
  Cu  Cu215  1  0.30960786  0.18619638  0.18619638  1
  Cu  Cu216  1  0.18619638  0.18619638  0.30960786  1
  Cu  Cu217  1  0.18619638  0.30960786  0.18619638  1
