# generated using pymatgen
data_Cu(NiC2)3
_symmetry_space_group_name_H-M   'P 1'
_cell_length_a   8.31616641
_cell_length_b   7.06175152
_cell_length_c   7.05679256
_cell_angle_alpha   80.78706396
_cell_angle_beta   106.87474494
_cell_angle_gamma   126.69137944
_symmetry_Int_Tables_number   1
_chemical_formula_structural   Cu(NiC2)3
_chemical_formula_sum   'Cu1 Ni3 C6'
_cell_volume   317.95402115
_cell_formula_units_Z   1
loop_
 _symmetry_equiv_pos_site_id
 _symmetry_equiv_pos_as_xyz
  1  'x, y, z'
loop_
 _atom_site_type_symbol
 _atom_site_label
 _atom_site_symmetry_multiplicity
 _atom_site_fract_x
 _atom_site_fract_y
 _atom_site_fract_z
 _atom_site_occupancy
  Ni  Ni0  1  0.00000000  0.00000000  0.50000000  1
  Ni  Ni1  1  0.50000000  0.50000000  0.00000000  1
  Ni  Ni2  1  0.00000000  0.50000000  0.00000000  1
  Cu  Cu3  1  0.00000000  0.00000000  0.00000000  1
  C  C4  1  0.03172200  0.25086300  0.78153800  1
  C  C5  1  0.96827800  0.74913700  0.21846200  1
  C  C6  1  0.80899900  0.72088900  0.78952900  1
  C  C7  1  0.19100100  0.27911100  0.21047100  1
  C  C8  1  0.75276500  0.96149200  0.05855100  1
  C  C9  1  0.24723500  0.03850800  0.94144900  1
