# generated using pymatgen
data_Cu4Ni4C17
_symmetry_space_group_name_H-M   'P 1'
_cell_length_a   9.38941900
_cell_length_b   9.40654131
_cell_length_c   12.38219629
_cell_angle_alpha   110.91211116
_cell_angle_beta   98.36328968
_cell_angle_gamma   108.20505700
_symmetry_Int_Tables_number   1
_chemical_formula_structural   Cu4Ni4C17
_chemical_formula_sum   'Cu8 Ni8 C34'
_cell_volume   928.86706706
_cell_formula_units_Z   2
loop_
 _symmetry_equiv_pos_site_id
 _symmetry_equiv_pos_as_xyz
  1  'x, y, z'
loop_
 _atom_site_type_symbol
 _atom_site_label
 _atom_site_symmetry_multiplicity
 _atom_site_fract_x
 _atom_site_fract_y
 _atom_site_fract_z
 _atom_site_occupancy
  C  C0  1  0.96317700  0.22578900  0.55823100  1
  C  C1  1  0.53241600  0.27094900  0.44880300  1
  C  C2  1  0.03682300  0.77421100  0.44176900  1
  C  C3  1  0.46758400  0.72905100  0.55119700  1
  Ni  Ni4  1  0.67320700  0.53693000  0.01736900  1
  Ni  Ni5  1  0.32679300  0.46307000  0.98263100  1
  Ni  Ni6  1  0.64336200  0.42989000  0.67070200  1
  Ni  Ni7  1  0.78225800  0.92056100  0.98497100  1
  Ni  Ni8  1  0.21774200  0.07943900  0.01502900  1
  Ni  Ni9  1  0.85819800  0.07124400  0.32939800  1
  Ni  Ni10  1  0.14180200  0.92875600  0.67060200  1
  Ni  Ni11  1  0.35663800  0.57011000  0.32929800  1
  Cu  Cu12  1  0.54054800  0.98020800  0.24121300  1
  Cu  Cu13  1  0.98973900  0.51595800  0.73884800  1
  Cu  Cu14  1  0.01026100  0.48404200  0.26115200  1
  Cu  Cu15  1  0.45945200  0.01979200  0.75878700  1
  Cu  Cu16  1  0.21645300  0.26683700  0.75791300  1
  Cu  Cu17  1  0.78354700  0.73316300  0.24208700  1
  Cu  Cu18  1  0.71211600  0.78714600  0.73638500  1
  Cu  Cu19  1  0.28788400  0.21285400  0.26361500  1
  C  C20  1  0.91913100  0.76706100  0.91849200  1
  C  C21  1  0.08086900  0.23293900  0.08150800  1
  C  C22  1  0.23014800  0.89774300  0.14155500  1
  C  C23  1  0.28187100  0.61533500  0.84752800  1
  C  C24  1  0.76985200  0.10225700  0.85844500  1
  C  C25  1  0.71812900  0.38466500  0.15247200  1
  C  C26  1  0.44809800  0.61673100  0.08262700  1
  C  C27  1  0.55190200  0.38326900  0.91737300  1
  C  C28  1  0.71088300  0.88779200  0.16187000  1
  C  C29  1  0.44106800  0.40827800  0.64643700  1
  C  C30  1  0.86617900  0.27310200  0.36247400  1
  C  C31  1  0.15114400  0.43753300  0.65503700  1
  C  C32  1  0.84885600  0.56246700  0.34496300  1
  C  C33  1  0.69476000  0.66061500  0.63446700  1
  C  C34  1  0.55893200  0.59172200  0.35356300  1
  C  C35  1  0.13382100  0.72689800  0.63752600  1
  C  C36  1  0.62597100  0.02857400  0.35290800  1
  C  C37  1  0.81586800  0.84586700  0.34987100  1
  C  C38  1  0.65370100  0.93528300  0.65459200  1
  C  C39  1  0.05455300  0.08983700  0.36225100  1
  C  C40  1  0.28911700  0.11220800  0.83813000  1
  C  C41  1  0.94544700  0.91016300  0.63774900  1
  C  C42  1  0.37402900  0.97142600  0.64709200  1
  C  C43  1  0.18413200  0.15413300  0.65012900  1
  C  C44  1  0.34629900  0.06471700  0.34540800  1
  C  C45  1  0.37292700  0.77874800  0.34992800  1
  C  C46  1  0.12038400  0.52520100  0.35973600  1
  C  C47  1  0.30524000  0.33938500  0.36553300  1
  C  C48  1  0.87961600  0.47479900  0.64026400  1
  C  C49  1  0.62707300  0.22125200  0.65007200  1
