# generated using pymatgen
data_Cu5Ni2C25
_symmetry_space_group_name_H-M   'P 1'
_cell_length_a   9.90902704
_cell_length_b   9.90902704
_cell_length_c   10.32815321
_cell_angle_alpha   83.60037618
_cell_angle_beta   83.60037618
_cell_angle_gamma   16.68795373
_symmetry_Int_Tables_number   1
_chemical_formula_structural   Cu5Ni2C25
_chemical_formula_sum   'Cu5 Ni2 C25'
_cell_volume   289.35690760
_cell_formula_units_Z   1
loop_
 _symmetry_equiv_pos_site_id
 _symmetry_equiv_pos_as_xyz
  1  'x, y, z'
loop_
 _atom_site_type_symbol
 _atom_site_label
 _atom_site_symmetry_multiplicity
 _atom_site_fract_x
 _atom_site_fract_y
 _atom_site_fract_z
 _atom_site_occupancy
  C  C0  1  0.38051700  0.38051700  0.93330000  1
  C  C1  1  0.11939700  0.11939700  0.80724700  1
  C  C2  1  0.87689200  0.87689200  0.68004100  1
  C  C3  1  0.61700500  0.61700500  0.55056300  1
  C  C4  1  0.38262100  0.38262100  0.43755900  1
  C  C5  1  0.12386800  0.12386800  0.32247500  1
  C  C6  1  0.87795400  0.87795400  0.20095300  1
  C  C7  1  0.62086100  0.62086100  0.06875200  1
  C  C8  1  0.00015900  0.00015900  0.49942000  1
  Ni  Ni9  1  0.00019400  0.00019400  0.99985200  1
  Ni  Ni10  1  0.74948400  0.74948400  0.87576200  1
  Cu  Cu11  1  0.49568900  0.49568900  0.72903000  1
  Cu  Cu12  1  0.24837100  0.24837100  0.62197600  1
  Cu  Cu13  1  0.75081800  0.75081800  0.37472500  1
  Cu  Cu14  1  0.50440900  0.50440900  0.26990000  1
  Cu  Cu15  1  0.25085600  0.25085600  0.12797300  1
  C  C16  1  0.44409400  0.44409400  0.08192100  1
  C  C17  1  0.19274800  0.19274800  0.95325100  1
  C  C18  1  0.94612600  0.94612600  0.85183800  1
  C  C19  1  0.69904300  0.69904300  0.72191000  1
  C  C20  1  0.43725500  0.43725500  0.60649400  1
  C  C21  1  0.19121600  0.19121600  0.46467400  1
  C  C22  1  0.94184100  0.94184100  0.33617600  1
  C  C23  1  0.69594500  0.69594500  0.20887400  1
  C  C24  1  0.30662700  0.30662700  0.79828700  1
  C  C25  1  0.05946200  0.05946200  0.66489500  1
  C  C26  1  0.80356800  0.80356800  0.54054600  1
  C  C27  1  0.56173200  0.56173200  0.39382600  1
  C  C28  1  0.31004200  0.31004200  0.28320400  1
  C  C29  1  0.05407600  0.05407600  0.14761100  1
  C  C30  1  0.80101000  0.80101000  0.02930000  1
  C  C31  1  0.55612200  0.55612200  0.91766400  1
