# generated using pymatgen
data_Cu2(NiC6)5
_symmetry_space_group_name_H-M   'P 1'
_cell_length_a   9.70608373
_cell_length_b   9.70608373
_cell_length_c   13.40520975
_cell_angle_alpha   68.77529463
_cell_angle_beta   68.77529463
_cell_angle_gamma   60.00000186
_symmetry_Int_Tables_number   1
_chemical_formula_structural   Cu2(NiC6)5
_chemical_formula_sum   'Cu4 Ni10 C60'
_cell_volume   993.53880305
_cell_formula_units_Z   2
loop_
 _symmetry_equiv_pos_site_id
 _symmetry_equiv_pos_as_xyz
  1  'x, y, z'
loop_
 _atom_site_type_symbol
 _atom_site_label
 _atom_site_symmetry_multiplicity
 _atom_site_fract_x
 _atom_site_fract_y
 _atom_site_fract_z
 _atom_site_occupancy
  C  C0  1  0.91972000  0.58028000  0.25000000  1
  C  C1  1  0.58028000  0.25000000  0.25000000  1
  C  C2  1  0.25000000  0.91972000  0.25000000  1
  C  C3  1  0.41972000  0.75000000  0.75000000  1
  C  C4  1  0.75000000  0.08028000  0.75000000  1
  C  C5  1  0.08028000  0.41972000  0.75000000  1
  C  C6  1  0.99429400  0.28527900  0.08399500  1
  C  C7  1  0.28527900  0.63643300  0.08399500  1
  C  C8  1  0.63643300  0.99429400  0.08399500  1
  C  C9  1  0.49429400  0.13643300  0.58399500  1
  C  C10  1  0.13643300  0.78527900  0.58399500  1
  C  C11  1  0.78527900  0.49429400  0.58399500  1
  C  C12  1  0.00570600  0.71472100  0.91600500  1
  C  C13  1  0.71472100  0.36356700  0.91600500  1
  C  C14  1  0.36356700  0.00570600  0.91600500  1
  C  C15  1  0.50570600  0.86356700  0.41600500  1
  C  C16  1  0.86356700  0.21472100  0.41600500  1
  C  C17  1  0.21472100  0.50570600  0.41600500  1
  Ni  Ni18  1  0.71436700  0.71436700  0.85689800  1
  Ni  Ni19  1  0.21436700  0.21436700  0.35689800  1
  Ni  Ni20  1  0.28563300  0.28563300  0.14310200  1
  Ni  Ni21  1  0.78563300  0.78563300  0.64310200  1
  Ni  Ni22  1  0.57066200  0.57066200  0.28801300  1
  Ni  Ni23  1  0.07066200  0.07066200  0.78801300  1
  Ni  Ni24  1  0.42933800  0.42933800  0.71198700  1
  Ni  Ni25  1  0.92933800  0.92933800  0.21198700  1
  Ni  Ni26  1  0.50000000  0.50000000  0.50000000  1
  Ni  Ni27  1  0.00000000  0.00000000  0.00000000  1
  Cu  Cu28  1  0.85794000  0.85794000  0.42618000  1
  Cu  Cu29  1  0.35794000  0.35794000  0.92618000  1
  Cu  Cu30  1  0.14206000  0.14206000  0.57382000  1
  Cu  Cu31  1  0.64206000  0.64206000  0.07382000  1
  C  C32  1  0.74872800  0.43665800  0.20052200  1
  C  C33  1  0.43665800  0.61409200  0.20052200  1
  C  C34  1  0.61409200  0.74872800  0.20052200  1
  C  C35  1  0.24872800  0.11409200  0.70052200  1
  C  C36  1  0.11409200  0.93665800  0.70052200  1
  C  C37  1  0.93665800  0.24872800  0.70052200  1
  C  C38  1  0.25127200  0.56334200  0.79947800  1
  C  C39  1  0.56334200  0.38590800  0.79947800  1
  C  C40  1  0.38590800  0.25127200  0.79947800  1
  C  C41  1  0.75127200  0.88590800  0.29947800  1
  C  C42  1  0.88590800  0.06334200  0.29947800  1
  C  C43  1  0.06334200  0.75127200  0.29947800  1
  C  C44  1  0.40353000  0.09647000  0.25000000  1
  C  C45  1  0.09647000  0.25000000  0.25000000  1
  C  C46  1  0.25000000  0.40353000  0.25000000  1
  C  C47  1  0.90353000  0.75000000  0.75000000  1
  C  C48  1  0.75000000  0.59647000  0.75000000  1
  C  C49  1  0.59647000  0.90353000  0.75000000  1
  C  C50  1  0.97119700  0.64937200  0.55308800  1
  C  C51  1  0.64937200  0.82634300  0.55308800  1
  C  C52  1  0.82634300  0.97119700  0.55308800  1
  C  C53  1  0.47119700  0.32634300  0.05308800  1
  C  C54  1  0.32634300  0.14937200  0.05308800  1
  C  C55  1  0.14937200  0.47119700  0.05308800  1
  C  C56  1  0.02880300  0.35062800  0.44691200  1
  C  C57  1  0.35062800  0.17365700  0.44691200  1
  C  C58  1  0.17365700  0.02880300  0.44691200  1
  C  C59  1  0.52880300  0.67365700  0.94691200  1
  C  C60  1  0.67365700  0.85062800  0.94691200  1
  C  C61  1  0.85062800  0.52880300  0.94691200  1
  C  C62  1  0.53518100  0.37677700  0.40105500  1
  C  C63  1  0.37677700  0.68698700  0.40105500  1
  C  C64  1  0.68698700  0.53518100  0.40105500  1
  C  C65  1  0.03518100  0.18698700  0.90105500  1
  C  C66  1  0.18698700  0.87677700  0.90105500  1
  C  C67  1  0.87677700  0.03518100  0.90105500  1
  C  C68  1  0.46481900  0.62322300  0.59894500  1
  C  C69  1  0.62322300  0.31301300  0.59894500  1
  C  C70  1  0.31301300  0.46481900  0.59894500  1
  C  C71  1  0.96481900  0.81301300  0.09894500  1
  C  C72  1  0.81301300  0.12322300  0.09894500  1
  C  C73  1  0.12322300  0.96481900  0.09894500  1
