# generated using pymatgen
data_Cu(NiC10)3
_symmetry_space_group_name_H-M   'P 1'
_cell_length_a   8.95661100
_cell_length_b   8.95661100
_cell_length_c   8.95661134
_cell_angle_alpha   58.16568983
_cell_angle_beta   58.16568983
_cell_angle_gamma   58.16568385
_symmetry_Int_Tables_number   1
_chemical_formula_structural   Cu(NiC10)3
_chemical_formula_sum   'Cu1 Ni3 C30'
_cell_volume   486.70284748
_cell_formula_units_Z   1
loop_
 _symmetry_equiv_pos_site_id
 _symmetry_equiv_pos_as_xyz
  1  'x, y, z'
loop_
 _atom_site_type_symbol
 _atom_site_label
 _atom_site_symmetry_multiplicity
 _atom_site_fract_x
 _atom_site_fract_y
 _atom_site_fract_z
 _atom_site_occupancy
  Ni  Ni0  1  0.35864100  0.35864100  0.35864100  1
  Ni  Ni1  1  0.14080200  0.14080200  0.14080200  1
  Ni  Ni2  1  0.63974100  0.63974100  0.63974100  1
  Cu  Cu3  1  0.85768200  0.85768200  0.85768200  1
  C  C4  1  0.54257500  0.96636900  0.23732700  1
  C  C5  1  0.96636900  0.23732700  0.54257500  1
  C  C6  1  0.23732700  0.54257500  0.96636900  1
  C  C7  1  0.75139800  0.47797100  0.02845300  1
  C  C8  1  0.47797100  0.02845300  0.75139800  1
  C  C9  1  0.02845300  0.75139800  0.47797100  1
  C  C10  1  0.50522700  0.13660100  0.27411100  1
  C  C11  1  0.13660100  0.27411100  0.50522700  1
  C  C12  1  0.27411100  0.50522700  0.13660100  1
  C  C13  1  0.77709600  0.64428900  0.00099500  1
  C  C14  1  0.64428900  0.00099500  0.77709600  1
  C  C15  1  0.00099500  0.77709600  0.64428900  1
  C  C16  1  0.49644300  0.86192900  0.72426200  1
  C  C17  1  0.86192900  0.72426200  0.49644300  1
  C  C18  1  0.72426200  0.49644300  0.86192900  1
  C  C19  1  0.22432100  0.36236000  0.99576200  1
  C  C20  1  0.36236000  0.99576200  0.22432100  1
  C  C21  1  0.99576200  0.22432100  0.36236000  1
  C  C22  1  0.71390500  0.93667900  0.06938100  1
  C  C23  1  0.93667900  0.06938100  0.71390500  1
  C  C24  1  0.06938100  0.71390500  0.93667900  1
  C  C25  1  0.57842700  0.44040300  0.20678900  1
  C  C26  1  0.44040300  0.20678900  0.57842700  1
  C  C27  1  0.20678900  0.57842700  0.44040300  1
  C  C28  1  0.29376800  0.06057300  0.92109200  1
  C  C29  1  0.06057300  0.92109200  0.29376800  1
  C  C30  1  0.92109200  0.29376800  0.06057300  1
  C  C31  1  0.41973900  0.56174100  0.79308000  1
  C  C32  1  0.56174100  0.79308000  0.41973900  1
  C  C33  1  0.79308000  0.41973900  0.56174100  1
