# generated using pymatgen
data_Cu5(Ni2C5)2
_symmetry_space_group_name_H-M   'P 1'
_cell_length_a   9.97127500
_cell_length_b   14.58248400
_cell_length_c   14.93272739
_cell_angle_alpha   60.66828021
_cell_angle_beta   90.00000000
_cell_angle_gamma   90.00000000
_symmetry_Int_Tables_number   1
_chemical_formula_structural   Cu5(Ni2C5)2
_chemical_formula_sum   'Cu30 Ni24 C60'
_cell_volume   1892.94202010
_cell_formula_units_Z   6
loop_
 _symmetry_equiv_pos_site_id
 _symmetry_equiv_pos_as_xyz
  1  'x, y, z'
loop_
 _atom_site_type_symbol
 _atom_site_label
 _atom_site_symmetry_multiplicity
 _atom_site_fract_x
 _atom_site_fract_y
 _atom_site_fract_z
 _atom_site_occupancy
  C  C0  1  0.51145300  0.17070200  0.07120300  1
  C  C1  1  0.00983000  0.82976300  0.42962900  1
  C  C2  1  0.99017000  0.82976300  0.92962900  1
  C  C3  1  0.48854700  0.17070200  0.57120300  1
  C  C4  1  0.24764100  0.32380200  0.92832300  1
  C  C5  1  0.74635800  0.67552100  0.57114400  1
  C  C6  1  0.25364200  0.67552100  0.07114400  1
  C  C7  1  0.75235900  0.32380200  0.42832300  1
  C  C8  1  0.36728200  0.42646900  0.72668700  1
  C  C9  1  0.86669700  0.57326000  0.77355300  1
  C  C10  1  0.13330300  0.57326000  0.27355300  1
  C  C11  1  0.63271800  0.42646900  0.22668700  1
  C  C12  1  0.28676400  0.10760200  0.00472600  1
  C  C13  1  0.81070000  0.88391700  0.52705300  1
  C  C14  1  0.18930000  0.88391700  0.02705300  1
  C  C15  1  0.71323600  0.10760200  0.50472600  1
  C  C16  1  0.96174800  0.09847400  0.10202600  1
  C  C17  1  0.46150600  0.90298900  0.39547600  1
  C  C18  1  0.53849400  0.90298900  0.89547600  1
  C  C19  1  0.03825200  0.09847400  0.60202600  1
  C  C20  1  0.28291700  0.14825900  0.19171900  1
  C  C21  1  0.78057700  0.85523400  0.30995400  1
  C  C22  1  0.21942300  0.85523400  0.80995400  1
  C  C23  1  0.71708300  0.14825900  0.69171900  1
  C  C24  1  0.59497800  0.50602100  0.00906200  1
  C  C25  1  0.09513000  0.49394600  0.49090400  1
  C  C26  1  0.90487000  0.49394600  0.99090400  1
  C  C27  1  0.40502200  0.50602100  0.50906200  1
  C  C28  1  0.52697700  0.55076800  0.90025300  1
  C  C29  1  0.02720300  0.44982200  0.59977500  1
  C  C30  1  0.97279700  0.44982200  0.09977500  1
  C  C31  1  0.47302300  0.55076800  0.40025300  1
  C  C32  1  0.47408400  0.38357100  0.99275500  1
  C  C33  1  0.97416700  0.61707600  0.50654800  1
  C  C34  1  0.02583300  0.61707600  0.00654800  1
  C  C35  1  0.52591600  0.38357100  0.49275500  1
  C  C36  1  0.39389700  0.06279400  0.27458500  1
  C  C37  1  0.89233100  0.93412000  0.22768100  1
  C  C38  1  0.10766900  0.93412000  0.72768100  1
  C  C39  1  0.60610300  0.06279400  0.77458500  1
  C  C40  1  0.23429000  0.52390000  0.59347900  1
  C  C41  1  0.73430600  0.47611800  0.90650700  1
  C  C42  1  0.26569400  0.47611800  0.40650700  1
  C  C43  1  0.76571000  0.52390000  0.09347900  1
  C  C44  1  0.88531400  0.04133000  0.05153700  1
  C  C45  1  0.40397800  0.96615900  0.44746600  1
  C  C46  1  0.59602200  0.96615900  0.94746600  1
  C  C47  1  0.11468600  0.04133000  0.55153700  1
  C  C48  1  0.45474600  0.32001000  0.80330800  1
  C  C49  1  0.95947400  0.67666100  0.69558200  1
  C  C50  1  0.04052600  0.67666100  0.19558200  1
  C  C51  1  0.54525400  0.32001000  0.30330800  1
  C  C52  1  0.35009600  0.58974000  0.60884100  1
  C  C53  1  0.84983900  0.41001700  0.89137300  1
  C  C54  1  0.15016100  0.41001700  0.39137300  1
  C  C55  1  0.64990400  0.58974000  0.10884100  1
  C  C56  1  0.10954100  0.99410000  0.07650600  1
  C  C57  1  0.89045900  0.99410000  0.57650600  1
  C  C58  1  0.24433100  0.94233400  0.13160400  1
  C  C59  1  0.75566900  0.94233400  0.63160400  1
  Ni  Ni60  1  0.66152000  0.22698700  0.90882700  1
  Ni  Ni61  1  0.15702900  0.77226600  0.59321100  1
  Ni  Ni62  1  0.84297100  0.77226600  0.09321100  1
  Ni  Ni63  1  0.33848000  0.22698700  0.40882700  1
  Ni  Ni64  1  0.21327400  0.52028500  0.85837500  1
  Ni  Ni65  1  0.71444100  0.47865200  0.64231300  1
  Ni  Ni66  1  0.28555900  0.47865200  0.14231300  1
  Ni  Ni67  1  0.78672600  0.52028500  0.35837500  1
  Ni  Ni68  1  0.54824200  0.97300400  0.13621000  1
  Ni  Ni69  1  0.04536000  0.02667000  0.36076200  1
  Ni  Ni70  1  0.95464000  0.02667000  0.86076200  1
  Ni  Ni71  1  0.45175800  0.97300400  0.63621000  1
  Ni  Ni72  1  0.06226200  0.29318500  0.82622500  1
  Ni  Ni73  1  0.56264200  0.70700300  0.67384700  1
  Ni  Ni74  1  0.43735800  0.70700300  0.17384700  1
  Ni  Ni75  1  0.93773800  0.29318500  0.32622500  1
  Ni  Ni76  1  0.69025800  0.20867700  0.17045600  1
  Ni  Ni77  1  0.19069900  0.78968700  0.33102700  1
  Ni  Ni78  1  0.80930100  0.78968700  0.83102700  1
  Ni  Ni79  1  0.30974200  0.20867700  0.67045600  1
  Ni  Ni80  1  0.09395800  0.25451300  0.09253700  1
  Ni  Ni81  1  0.59329100  0.74176000  0.40791900  1
  Ni  Ni82  1  0.40670900  0.74176000  0.90791900  1
  Ni  Ni83  1  0.90604200  0.25451300  0.59253700  1
  Cu  Cu84  1  0.33829900  0.17376300  0.98403100  1
  Cu  Cu85  1  0.83128900  0.82796100  0.50842900  1
  Cu  Cu86  1  0.16871100  0.82796100  0.00842900  1
  Cu  Cu87  1  0.66170100  0.17376300  0.48403100  1
  Cu  Cu88  1  0.94666100  0.02918700  0.10767900  1
  Cu  Cu89  1  0.43832600  0.97355500  0.38317000  1
  Cu  Cu90  1  0.56167400  0.97355500  0.88317000  1
  Cu  Cu91  1  0.05333900  0.02918700  0.60767900  1
  Cu  Cu92  1  0.37694400  0.12482400  0.20272400  1
  Cu  Cu93  1  0.87715100  0.86943000  0.29568800  1
  Cu  Cu94  1  0.12284900  0.86943000  0.79568800  1
  Cu  Cu95  1  0.62305600  0.12482400  0.70272400  1
  Cu  Cu96  1  0.38925700  0.37177200  0.80002100  1
  Cu  Cu97  1  0.88610300  0.62949900  0.70033200  1
  Cu  Cu98  1  0.11389700  0.62949900  0.20033200  1
  Cu  Cu99  1  0.61074300  0.37177200  0.30002100  1
  Cu  Cu100  1  0.41708900  0.31896800  0.01585300  1
  Cu  Cu101  1  0.91686500  0.68153900  0.48338000  1
  Cu  Cu102  1  0.08313500  0.68153900  0.98338000  1
  Cu  Cu103  1  0.58291100  0.31896800  0.51585300  1
  Cu  Cu104  1  0.57634400  0.49007300  0.95246600  1
  Cu  Cu105  1  0.07629700  0.51040500  0.54716800  1
  Cu  Cu106  1  0.92370300  0.51040500  0.04716800  1
  Cu  Cu107  1  0.42365600  0.49007300  0.45246600  1
  Cu  Cu108  1  0.33163000  0.52307700  0.61057400  1
  Cu  Cu109  1  0.83170000  0.47677200  0.88957400  1
  Cu  Cu110  1  0.16830000  0.47677200  0.38957400  1
  Cu  Cu111  1  0.66837000  0.52307700  0.11057400  1
  Cu  Cu112  1  0.20329100  0.98050800  0.06324200  1
  Cu  Cu113  1  0.79670900  0.98050800  0.56324200  1
