# generated using pymatgen
data_CuNiC6
_symmetry_space_group_name_H-M   'P 1'
_cell_length_a   10.58380164
_cell_length_b   10.58380164
_cell_length_c   16.97919863
_cell_angle_alpha   63.38580129
_cell_angle_beta   63.38580129
_cell_angle_gamma   31.26308984
_symmetry_Int_Tables_number   1
_chemical_formula_structural   CuNiC6
_chemical_formula_sum   'Cu8 Ni8 C48'
_cell_volume   873.75449170
_cell_formula_units_Z   8
loop_
 _symmetry_equiv_pos_site_id
 _symmetry_equiv_pos_as_xyz
  1  'x, y, z'
loop_
 _atom_site_type_symbol
 _atom_site_label
 _atom_site_symmetry_multiplicity
 _atom_site_fract_x
 _atom_site_fract_y
 _atom_site_fract_z
 _atom_site_occupancy
  C  C0  1  0.83541300  0.16458700  0.75000000  1
  C  C1  1  0.16458700  0.83541300  0.25000000  1
  C  C2  1  0.00000000  0.00000000  0.50000000  1
  C  C3  1  0.00000000  0.00000000  0.00000000  1
  C  C4  1  0.63819100  0.75284600  0.52596200  1
  C  C5  1  0.24715300  0.36180900  0.97403800  1
  C  C6  1  0.36180900  0.24715300  0.47403800  1
  C  C7  1  0.75284700  0.63819100  0.02596200  1
  C  C8  1  0.47781400  0.72418400  0.54978400  1
  C  C9  1  0.27581600  0.52218600  0.95021600  1
  C  C10  1  0.52218600  0.27581600  0.45021600  1
  C  C11  1  0.72418400  0.47781400  0.04978400  1
  C  C12  1  0.50079500  0.85187200  0.44013200  1
  C  C13  1  0.14812800  0.49920500  0.05986800  1
  C  C14  1  0.49920500  0.14812800  0.55986800  1
  C  C15  1  0.85187200  0.50079500  0.94013200  1
  C  C16  1  0.86968300  0.49450700  0.19006200  1
  C  C17  1  0.50549300  0.13031700  0.30993800  1
  C  C18  1  0.13031700  0.50549300  0.80993800  1
  C  C19  1  0.49450700  0.86968300  0.69006200  1
  C  C20  1  0.12470500  0.20730700  0.25259400  1
  C  C21  1  0.79269300  0.87529500  0.24740600  1
  C  C22  1  0.87529500  0.79269300  0.74740600  1
  C  C23  1  0.20730700  0.12470500  0.75259400  1
  C  C24  1  0.96945700  0.48713900  0.25625900  1
  C  C25  1  0.51286100  0.03054300  0.24374100  1
  C  C26  1  0.03054300  0.51286100  0.74374100  1
  C  C27  1  0.48713900  0.96945700  0.75625900  1
  Ni  Ni28  1  0.59141100  0.72003100  0.49934600  1
  Ni  Ni29  1  0.27996900  0.40858900  0.00065400  1
  Ni  Ni30  1  0.40858900  0.27996900  0.50065400  1
  Ni  Ni31  1  0.72003100  0.59141100  0.99934600  1
  Ni  Ni32  1  0.94822400  0.40708400  0.25063300  1
  Ni  Ni33  1  0.59291600  0.05177600  0.24936700  1
  Ni  Ni34  1  0.05177600  0.59291600  0.74936700  1
  Ni  Ni35  1  0.40708400  0.94822400  0.75063300  1
  Cu  Cu36  1  0.88182700  0.41923600  0.46978500  1
  Cu  Cu37  1  0.58076400  0.11817300  0.03021500  1
  Cu  Cu38  1  0.11817300  0.58076400  0.53021500  1
  Cu  Cu39  1  0.41923600  0.88182700  0.96978500  1
  Cu  Cu40  1  0.73014100  0.47324000  0.34037300  1
  Cu  Cu41  1  0.52676000  0.26985900  0.15962700  1
  Cu  Cu42  1  0.26985900  0.52676000  0.65962700  1
  Cu  Cu43  1  0.47324000  0.73014100  0.84037300  1
  C  C44  1  0.83749900  0.33879900  0.43390400  1
  C  C45  1  0.66120100  0.16250100  0.06609600  1
  C  C46  1  0.16250100  0.66120100  0.56609600  1
  C  C47  1  0.33879900  0.83749900  0.93390400  1
  C  C48  1  0.98721100  0.25172200  0.55161400  1
  C  C49  1  0.74827800  0.01278900  0.94838600  1
  C  C50  1  0.01278900  0.74827800  0.44838600  1
  C  C51  1  0.25172200  0.98721100  0.05161400  1
  C  C52  1  0.02120800  0.42645100  0.40055200  1
  C  C53  1  0.57354900  0.97879200  0.09944800  1
  C  C54  1  0.97879200  0.57354900  0.59944800  1
  C  C55  1  0.42645100  0.02120800  0.90055200  1
  C  C56  1  0.71845700  0.35269700  0.33105200  1
  C  C57  1  0.64730300  0.28154300  0.16894800  1
  C  C58  1  0.28154300  0.64730300  0.66894800  1
  C  C59  1  0.35269700  0.71845700  0.83105200  1
  C  C60  1  0.50109000  0.73977400  0.33748800  1
  C  C61  1  0.26022600  0.49891000  0.16251200  1
  C  C62  1  0.49891000  0.26022600  0.66251200  1
  C  C63  1  0.73977400  0.50109000  0.83748800  1
