# generated using pymatgen
data_CuNiC12
_symmetry_space_group_name_H-M   'P 1'
_cell_length_a   10.11227000
_cell_length_b   10.91008800
_cell_length_c   14.14223700
_cell_angle_alpha   90.00000000
_cell_angle_beta   90.00000000
_cell_angle_gamma   90.00000000
_symmetry_Int_Tables_number   1
_chemical_formula_structural   CuNiC12
_chemical_formula_sum   'Cu8 Ni8 C96'
_cell_volume   1560.25298261
_cell_formula_units_Z   8
loop_
 _symmetry_equiv_pos_site_id
 _symmetry_equiv_pos_as_xyz
  1  'x, y, z'
loop_
 _atom_site_type_symbol
 _atom_site_label
 _atom_site_symmetry_multiplicity
 _atom_site_fract_x
 _atom_site_fract_y
 _atom_site_fract_z
 _atom_site_occupancy
  Ni  Ni0  1  0.96787500  0.50000000  0.75000000  1
  Ni  Ni1  1  0.03212500  0.50000000  0.25000000  1
  Ni  Ni2  1  0.53212500  0.50000000  0.25000000  1
  Ni  Ni3  1  0.46787500  0.50000000  0.75000000  1
  Ni  Ni4  1  0.50000000  0.00000000  0.50000000  1
  Ni  Ni5  1  0.50000000  0.00000000  0.00000000  1
  Ni  Ni6  1  0.00000000  0.00000000  0.50000000  1
  Ni  Ni7  1  0.00000000  0.00000000  0.00000000  1
  Cu  Cu8  1  0.52415100  0.24849900  0.87686400  1
  Cu  Cu9  1  0.47584900  0.75150100  0.12313600  1
  Cu  Cu10  1  0.52415100  0.75150100  0.62313600  1
  Cu  Cu11  1  0.97584900  0.24849900  0.12313600  1
  Cu  Cu12  1  0.47584900  0.24849900  0.37686400  1
  Cu  Cu13  1  0.02415100  0.75150100  0.87686400  1
  Cu  Cu14  1  0.97584900  0.75150100  0.37686400  1
  Cu  Cu15  1  0.02415100  0.24849900  0.62313600  1
  C  C16  1  0.71413900  0.46947700  0.60105700  1
  C  C17  1  0.28586100  0.53052300  0.39894300  1
  C  C18  1  0.71413900  0.53052300  0.89894300  1
  C  C19  1  0.78586100  0.46947700  0.39894300  1
  C  C20  1  0.28586100  0.46947700  0.10105700  1
  C  C21  1  0.21413900  0.53052300  0.60105700  1
  C  C22  1  0.78586100  0.53052300  0.10105700  1
  C  C23  1  0.21413900  0.46947700  0.89894300  1
  C  C24  1  0.73798600  0.04604400  0.64874500  1
  C  C25  1  0.26201400  0.95395600  0.35125500  1
  C  C26  1  0.73798600  0.95395600  0.85125500  1
  C  C27  1  0.76201400  0.04604400  0.35125500  1
  C  C28  1  0.26201400  0.04604400  0.14874500  1
  C  C29  1  0.23798600  0.95395600  0.64874500  1
  C  C30  1  0.76201400  0.95395600  0.14874500  1
  C  C31  1  0.23798600  0.04604400  0.85125500  1
  C  C32  1  0.54924600  0.25079500  0.62658100  1
  C  C33  1  0.45075400  0.74920500  0.37341900  1
  C  C34  1  0.54924600  0.74920500  0.87341900  1
  C  C35  1  0.95075400  0.25079500  0.37341900  1
  C  C36  1  0.45075400  0.25079500  0.12658100  1
  C  C37  1  0.04924600  0.74920500  0.62658100  1
  C  C38  1  0.95075400  0.74920500  0.12658100  1
  C  C39  1  0.04924600  0.25079500  0.87341900  1
  C  C40  1  0.83843100  0.43196000  0.65047100  1
  C  C41  1  0.16156900  0.56804000  0.34952900  1
  C  C42  1  0.83843100  0.56804000  0.84952900  1
  C  C43  1  0.66156900  0.43196000  0.34952900  1
  C  C44  1  0.16156900  0.43196000  0.15047100  1
  C  C45  1  0.33843100  0.56804000  0.65047100  1
  C  C46  1  0.66156900  0.56804000  0.15047100  1
  C  C47  1  0.33843100  0.43196000  0.84952900  1
  C  C48  1  0.52480700  0.17477000  0.05554600  1
  C  C49  1  0.47519300  0.82523000  0.94445400  1
  C  C50  1  0.52480700  0.82523000  0.44445400  1
  C  C51  1  0.97519300  0.17477000  0.94445400  1
  C  C52  1  0.47519300  0.17477000  0.55554600  1
  C  C53  1  0.02480700  0.82523000  0.05554600  1
  C  C54  1  0.97519300  0.82523000  0.55554600  1
  C  C55  1  0.02480700  0.17477000  0.44445400  1
  C  C56  1  0.75000000  0.52931400  0.50000000  1
  C  C57  1  0.25000000  0.47068600  0.50000000  1
  C  C58  1  0.75000000  0.47068600  0.00000000  1
  C  C59  1  0.25000000  0.52931400  0.00000000  1
  C  C60  1  0.64115400  0.04391800  0.89318500  1
  C  C61  1  0.35884600  0.95608200  0.10681500  1
  C  C62  1  0.64115400  0.95608200  0.60681500  1
  C  C63  1  0.85884600  0.04391800  0.10681500  1
  C  C64  1  0.35884600  0.04391800  0.39318500  1
  C  C65  1  0.14115400  0.95608200  0.89318500  1
  C  C66  1  0.85884600  0.95608200  0.39318500  1
  C  C67  1  0.14115400  0.04391800  0.60681500  1
  C  C68  1  0.63612400  0.34759700  0.56629800  1
  C  C69  1  0.36387600  0.65240300  0.43370200  1
  C  C70  1  0.63612400  0.65240300  0.93370200  1
  C  C71  1  0.86387600  0.34759700  0.43370200  1
  C  C72  1  0.36387600  0.34759700  0.06629800  1
  C  C73  1  0.13612400  0.65240300  0.56629800  1
  C  C74  1  0.86387600  0.65240300  0.06629800  1
  C  C75  1  0.13612400  0.34759700  0.93370200  1
  C  C76  1  0.85824100  0.08284700  0.59287200  1
  C  C77  1  0.14175900  0.91715300  0.40712800  1
  C  C78  1  0.85824100  0.91715300  0.90712800  1
  C  C79  1  0.64175900  0.08284700  0.40712800  1
  C  C80  1  0.14175900  0.08284700  0.09287200  1
  C  C81  1  0.35824100  0.91715300  0.59287200  1
  C  C82  1  0.64175900  0.91715300  0.09287200  1
  C  C83  1  0.35824100  0.08284700  0.90712800  1
  C  C84  1  0.61908900  0.44481100  0.84962400  1
  C  C85  1  0.38091100  0.55518900  0.15037600  1
  C  C86  1  0.61908900  0.55518900  0.65037600  1
  C  C87  1  0.88091100  0.44481100  0.15037600  1
  C  C88  1  0.38091100  0.44481100  0.34962400  1
  C  C89  1  0.11908900  0.55518900  0.84962400  1
  C  C90  1  0.88091100  0.55518900  0.34962400  1
  C  C91  1  0.11908900  0.44481100  0.65037600  1
  C  C92  1  0.65964400  0.16914900  0.68061300  1
  C  C93  1  0.34035600  0.83085100  0.31938700  1
  C  C94  1  0.65964400  0.83085100  0.81938700  1
  C  C95  1  0.84035600  0.16914900  0.31938700  1
  C  C96  1  0.34035600  0.16914900  0.18061300  1
  C  C97  1  0.15964400  0.83085100  0.68061300  1
  C  C98  1  0.84035600  0.83085100  0.18061300  1
  C  C99  1  0.15964400  0.16914900  0.81938700  1
  C  C100  1  0.79098600  0.00000000  0.75000000  1
  C  C101  1  0.20901400  0.00000000  0.25000000  1
  C  C102  1  0.70901400  0.00000000  0.25000000  1
  C  C103  1  0.29098600  0.00000000  0.75000000  1
  C  C104  1  0.97387600  0.31711000  0.79786600  1
  C  C105  1  0.02612400  0.68289000  0.20213400  1
  C  C106  1  0.97387600  0.68289000  0.70213400  1
  C  C107  1  0.52612400  0.31711000  0.20213400  1
  C  C108  1  0.02612400  0.31711000  0.29786600  1
  C  C109  1  0.47387600  0.68289000  0.79786600  1
  C  C110  1  0.52612400  0.68289000  0.29786600  1
  C  C111  1  0.47387600  0.31711000  0.70213400  1
