# generated using pymatgen
data_CuNiC2
_symmetry_space_group_name_H-M   'P 1'
_cell_length_a   5.93236043
_cell_length_b   11.61341919
_cell_length_c   10.07857461
_cell_angle_alpha   90.00000000
_cell_angle_beta   90.00000000
_cell_angle_gamma   90.00000000
_symmetry_Int_Tables_number   1
_chemical_formula_structural   CuNiC2
_chemical_formula_sum   'Cu16 Ni16 C32'
_cell_volume   694.36328145
_cell_formula_units_Z   16
loop_
 _symmetry_equiv_pos_site_id
 _symmetry_equiv_pos_as_xyz
  1  'x, y, z'
loop_
 _atom_site_type_symbol
 _atom_site_label
 _atom_site_symmetry_multiplicity
 _atom_site_fract_x
 _atom_site_fract_y
 _atom_site_fract_z
 _atom_site_occupancy
  Ni  Ni0  1  0.76313329  0.09391253  0.31249423  1
  Ni  Ni1  1  0.26313329  0.40608747  0.68750577  1
  Ni  Ni2  1  0.23686671  0.59391253  0.18750577  1
  Ni  Ni3  1  0.73686671  0.90608747  0.81249423  1
  Ni  Ni4  1  0.23686671  0.90608747  0.68750577  1
  Ni  Ni5  1  0.73686671  0.59391253  0.31249423  1
  Ni  Ni6  1  0.76313329  0.40608747  0.81249423  1
  Ni  Ni7  1  0.26313329  0.09391253  0.18750577  1
  Ni  Ni8  1  0.86102247  0.32248635  0.47708892  1
  Ni  Ni9  1  0.36102247  0.17751365  0.52291108  1
  Ni  Ni10  1  0.13897753  0.82248635  0.02291108  1
  Ni  Ni11  1  0.63897753  0.67751365  0.97708892  1
  Ni  Ni12  1  0.13897753  0.67751365  0.52291108  1
  Ni  Ni13  1  0.63897753  0.82248635  0.47708892  1
  Ni  Ni14  1  0.86102247  0.17751365  0.97708892  1
  Ni  Ni15  1  0.36102247  0.32248635  0.02291108  1
  Cu  Cu16  1  0.14612126  0.99107285  0.41792554  1
  Cu  Cu17  1  0.64612126  0.50892715  0.58207446  1
  Cu  Cu18  1  0.85387874  0.49107285  0.08207446  1
  Cu  Cu19  1  0.35387874  0.00892715  0.91792554  1
  Cu  Cu20  1  0.85387874  0.00892715  0.58207446  1
  Cu  Cu21  1  0.35387874  0.49107285  0.41792554  1
  Cu  Cu22  1  0.14612126  0.50892715  0.91792554  1
  Cu  Cu23  1  0.64612126  0.99107285  0.08207446  1
  Cu  Cu24  1  0.20329372  0.33436105  0.27431183  1
  Cu  Cu25  1  0.70329372  0.16563895  0.72568817  1
  Cu  Cu26  1  0.79670628  0.83436105  0.22568817  1
  Cu  Cu27  1  0.29670628  0.66563895  0.77431183  1
  Cu  Cu28  1  0.79670628  0.66563895  0.72568817  1
  Cu  Cu29  1  0.29670628  0.83436105  0.27431183  1
  Cu  Cu30  1  0.20329372  0.16563895  0.77431183  1
  Cu  Cu31  1  0.70329372  0.33436105  0.22568817  1
  C  C32  1  0.22249177  0.32751501  0.47338535  1
  C  C33  1  0.72249177  0.17248499  0.52661465  1
  C  C34  1  0.77750823  0.82751501  0.02661465  1
  C  C35  1  0.27750823  0.67248499  0.97338535  1
  C  C36  1  0.77750823  0.67248499  0.52661465  1
  C  C37  1  0.27750823  0.82751501  0.47338535  1
  C  C38  1  0.22249177  0.17248499  0.97338535  1
  C  C39  1  0.72249177  0.32751501  0.02661465  1
  C  C40  1  0.64921864  0.43635402  0.38757885  1
  C  C41  1  0.14921864  0.06364598  0.61242115  1
  C  C42  1  0.35078136  0.93635402  0.11242115  1
  C  C43  1  0.85078136  0.56364598  0.88757885  1
  C  C44  1  0.35078136  0.56364598  0.61242115  1
  C  C45  1  0.85078136  0.93635402  0.38757885  1
  C  C46  1  0.64921864  0.06364598  0.88757885  1
  C  C47  1  0.14921864  0.43635402  0.11242115  1
  C  C48  1  0.94544457  0.24589977  0.29556171  1
  C  C49  1  0.44544457  0.25410023  0.70443829  1
  C  C50  1  0.05455543  0.74589977  0.20443829  1
  C  C51  1  0.55455543  0.75410023  0.79556171  1
  C  C52  1  0.05455543  0.75410023  0.70443829  1
  C  C53  1  0.55455543  0.74589977  0.29556171  1
  C  C54  1  0.94544457  0.25410023  0.79556171  1
  C  C55  1  0.44544457  0.24589977  0.20443829  1
  C  C56  1  0.57963798  0.56574923  0.13534813  1
  C  C57  1  0.07963798  0.93425077  0.86465187  1
  C  C58  1  0.42036202  0.06574923  0.36465187  1
  C  C59  1  0.92036202  0.43425077  0.63534813  1
  C  C60  1  0.42036202  0.43425077  0.86465187  1
  C  C61  1  0.92036202  0.06574923  0.13534813  1
  C  C62  1  0.57963798  0.93425077  0.63534813  1
  C  C63  1  0.07963798  0.56574923  0.36465187  1
