# generated using pymatgen
data_Cu4Ni2C7
_symmetry_space_group_name_H-M   'P 1'
_cell_length_a   5.88213700
_cell_length_b   6.25680022
_cell_length_c   6.25680022
_cell_angle_alpha   120.00000232
_cell_angle_beta   90.00000000
_cell_angle_gamma   90.00000000
_symmetry_Int_Tables_number   1
_chemical_formula_structural   Cu4Ni2C7
_chemical_formula_sum   'Cu4 Ni2 C7'
_cell_volume   199.42074445
_cell_formula_units_Z   1
loop_
 _symmetry_equiv_pos_site_id
 _symmetry_equiv_pos_as_xyz
  1  'x, y, z'
loop_
 _atom_site_type_symbol
 _atom_site_label
 _atom_site_symmetry_multiplicity
 _atom_site_fract_x
 _atom_site_fract_y
 _atom_site_fract_z
 _atom_site_occupancy
  Ni  Ni0  1  0.56615600  0.66666700  0.33333300  1
  Ni  Ni1  1  0.43384400  0.33333300  0.66666700  1
  Cu  Cu2  1  0.00000000  0.50000000  0.50000000  1
  Cu  Cu3  1  0.00000000  0.00000000  0.50000000  1
  Cu  Cu4  1  0.00000000  0.50000000  0.00000000  1
  Cu  Cu5  1  0.50000000  0.00000000  0.00000000  1
  C  C6  1  0.00000000  0.00000000  0.00000000  1
  C  C7  1  0.80410900  0.16131700  0.32263400  1
  C  C8  1  0.19589100  0.83868300  0.67736600  1
  C  C9  1  0.80410900  0.16131700  0.83868300  1
  C  C10  1  0.19589100  0.83868300  0.16131700  1
  C  C11  1  0.80410900  0.67736600  0.83868300  1
  C  C12  1  0.19589100  0.32263400  0.16131700  1
