# generated using pymatgen
data_Cu2NiC9
_symmetry_space_group_name_H-M   'P 1'
_cell_length_a   8.20647500
_cell_length_b   8.20647500
_cell_length_c   5.11143600
_cell_angle_alpha   90.00000000
_cell_angle_beta   90.00000000
_cell_angle_gamma   90.00000000
_symmetry_Int_Tables_number   1
_chemical_formula_structural   Cu2NiC9
_chemical_formula_sum   'Cu4 Ni2 C18'
_cell_volume   344.23595433
_cell_formula_units_Z   2
loop_
 _symmetry_equiv_pos_site_id
 _symmetry_equiv_pos_as_xyz
  1  'x, y, z'
loop_
 _atom_site_type_symbol
 _atom_site_label
 _atom_site_symmetry_multiplicity
 _atom_site_fract_x
 _atom_site_fract_y
 _atom_site_fract_z
 _atom_site_occupancy
  C  C0  1  0.66653400  0.16653400  0.99115400  1
  C  C1  1  0.83346600  0.66653400  0.00884600  1
  C  C2  1  0.16653400  0.33346600  0.00884600  1
  C  C3  1  0.33346600  0.83346600  0.99115400  1
  Ni  Ni4  1  0.50000000  0.50000000  0.50000000  1
  Ni  Ni5  1  0.00000000  0.00000000  0.50000000  1
  Cu  Cu6  1  0.86377700  0.36377700  0.53652900  1
  Cu  Cu7  1  0.63622300  0.86377700  0.46347100  1
  Cu  Cu8  1  0.36377700  0.13622300  0.46347100  1
  Cu  Cu9  1  0.13622300  0.63622300  0.53652900  1
  C  C10  1  0.69326000  0.41852200  0.67960500  1
  C  C11  1  0.30674000  0.58147800  0.67960500  1
  C  C12  1  0.41852200  0.30674000  0.32039500  1
  C  C13  1  0.58147800  0.69326000  0.32039500  1
  C  C14  1  0.91852200  0.19326000  0.67960500  1
  C  C15  1  0.80674000  0.91852200  0.32039500  1
  C  C16  1  0.19326000  0.08147800  0.32039500  1
  C  C17  1  0.08147800  0.80674000  0.67960500  1
  C  C18  1  0.86499900  0.36499900  0.22050300  1
  C  C19  1  0.63500100  0.86499900  0.77949700  1
  C  C20  1  0.00000000  0.50000000  0.65254200  1
  C  C21  1  0.50000000  0.00000000  0.34745800  1
  C  C22  1  0.13500100  0.63500100  0.22050300  1
  C  C23  1  0.36499900  0.13500100  0.77949700  1
