# generated using pymatgen
data_Cu2NiC7
_symmetry_space_group_name_H-M   'P 1'
_cell_length_a   5.50710474
_cell_length_b   6.85594672
_cell_length_c   6.85740133
_cell_angle_alpha   82.69147599
_cell_angle_beta   78.60880307
_cell_angle_gamma   78.54501011
_symmetry_Int_Tables_number   1
_chemical_formula_structural   Cu2NiC7
_chemical_formula_sum   'Cu4 Ni2 C14'
_cell_volume   247.70976542
_cell_formula_units_Z   2
loop_
 _symmetry_equiv_pos_site_id
 _symmetry_equiv_pos_as_xyz
  1  'x, y, z'
loop_
 _atom_site_type_symbol
 _atom_site_label
 _atom_site_symmetry_multiplicity
 _atom_site_fract_x
 _atom_site_fract_y
 _atom_site_fract_z
 _atom_site_occupancy
  C  C0  1  0.24886200  0.30305900  0.69661900  1
  C  C1  1  0.74995500  0.69684500  0.30317600  1
  Ni  Ni2  1  0.74904600  0.08974900  0.90901100  1
  Ni  Ni3  1  0.25001600  0.90795300  0.09234000  1
  Cu  Cu4  1  0.22521500  0.81452200  0.61682800  1
  Cu  Cu5  1  0.27492500  0.38309800  0.18562700  1
  Cu  Cu6  1  0.77429000  0.18566900  0.38344300  1
  Cu  Cu7  1  0.72631400  0.61676300  0.81398400  1
  C  C8  1  0.13333000  0.98447400  0.79912200  1
  C  C9  1  0.36688300  0.20063800  0.01583300  1
  C  C10  1  0.86430500  0.01593700  0.20146900  1
  C  C11  1  0.63596500  0.79926200  0.98349000  1
  C  C12  1  0.34421700  0.89800600  0.37325000  1
  C  C13  1  0.15596800  0.62683700  0.10210800  1
  C  C14  1  0.65492500  0.10238000  0.62669800  1
  C  C15  1  0.84575500  0.37388100  0.89772100  1
  C  C16  1  0.98307300  0.67146400  0.61035900  1
  C  C17  1  0.51685800  0.38915500  0.32917500  1
  C  C18  1  0.01707000  0.32896700  0.38857900  1
  C  C19  1  0.48302600  0.61134200  0.67116800  1
