# generated using pymatgen
data_CuNi4C21
_symmetry_space_group_name_H-M   'P 1'
_cell_length_a   3.90543200
_cell_length_b   3.97798100
_cell_length_c   23.85401900
_cell_angle_alpha   90.00000000
_cell_angle_beta   90.00000000
_cell_angle_gamma   90.00000000
_symmetry_Int_Tables_number   1
_chemical_formula_structural   CuNi4C21
_chemical_formula_sum   'Cu1 Ni4 C21'
_cell_volume   370.58970100
_cell_formula_units_Z   1
loop_
 _symmetry_equiv_pos_site_id
 _symmetry_equiv_pos_as_xyz
  1  'x, y, z'
loop_
 _atom_site_type_symbol
 _atom_site_label
 _atom_site_symmetry_multiplicity
 _atom_site_fract_x
 _atom_site_fract_y
 _atom_site_fract_z
 _atom_site_occupancy
  Ni  Ni0  1  0.50000000  0.50000000  0.83950300  1
  Ni  Ni1  1  0.50000000  0.50000000  0.33931200  1
  Ni  Ni2  1  0.50000000  0.50000000  0.16049700  1
  Ni  Ni3  1  0.50000000  0.50000000  0.66068800  1
  C  C4  1  0.50000000  0.50000000  0.50000000  1
  Cu  Cu5  1  0.50000000  0.50000000  0.00000000  1
  C  C6  1  0.00000000  0.00000000  0.92258300  1
  C  C7  1  0.00000000  0.00000000  0.42189700  1
  C  C8  1  0.00000000  0.00000000  0.07741700  1
  C  C9  1  0.00000000  0.00000000  0.57810300  1
  C  C10  1  0.00000000  0.00000000  0.75003500  1
  C  C11  1  0.00000000  0.00000000  0.24996500  1
  C  C12  1  0.00000000  0.00000000  0.82890900  1
  C  C13  1  0.00000000  0.00000000  0.32877800  1
  C  C14  1  0.00000000  0.00000000  0.17109100  1
  C  C15  1  0.00000000  0.00000000  0.67122200  1
  C  C16  1  0.00000000  0.50000000  0.75010700  1
  C  C17  1  0.00000000  0.50000000  0.24989300  1
  C  C18  1  0.50000000  0.00000000  0.93548800  1
  C  C19  1  0.50000000  0.00000000  0.43458800  1
  C  C20  1  0.50000000  0.00000000  0.06451200  1
  C  C21  1  0.50000000  0.00000000  0.56541200  1
  C  C22  1  0.00000000  0.50000000  0.93450400  1
  C  C23  1  0.00000000  0.50000000  0.43354000  1
  C  C24  1  0.00000000  0.50000000  0.06549600  1
  C  C25  1  0.00000000  0.50000000  0.56646000  1
