# generated using pymatgen
data_Cu3Ni2C
_symmetry_space_group_name_H-M   'P 1'
_cell_length_a   4.91795000
_cell_length_b   4.91794858
_cell_length_c   11.05716600
_cell_angle_alpha   90.00000000
_cell_angle_beta   90.00000000
_cell_angle_gamma   120.00000952
_symmetry_Int_Tables_number   1
_chemical_formula_structural   Cu3Ni2C
_chemical_formula_sum   'Cu9 Ni6 C3'
_cell_volume   231.60211055
_cell_formula_units_Z   3
loop_
 _symmetry_equiv_pos_site_id
 _symmetry_equiv_pos_as_xyz
  1  'x, y, z'
loop_
 _atom_site_type_symbol
 _atom_site_label
 _atom_site_symmetry_multiplicity
 _atom_site_fract_x
 _atom_site_fract_y
 _atom_site_fract_z
 _atom_site_occupancy
  C  C0  1  0.00000000  0.44506300  0.66666700  1
  C  C1  1  0.44506300  0.00000000  0.33333300  1
  C  C2  1  0.55493700  0.55493700  0.00000000  1
  Ni  Ni3  1  0.02752700  0.11247600  0.29502300  1
  Ni  Ni4  1  0.97247300  0.08494900  0.03831100  1
  Ni  Ni5  1  0.88752400  0.91505100  0.62835600  1
  Ni  Ni6  1  0.11247600  0.02752700  0.70497700  1
  Ni  Ni7  1  0.91505100  0.88752400  0.37164400  1
  Ni  Ni8  1  0.08494900  0.97247300  0.96168900  1
  Cu  Cu9  1  0.72274000  0.58981100  0.40814500  1
  Cu  Cu10  1  0.47122700  0.00000000  0.83333300  1
  Cu  Cu11  1  0.58981100  0.72274000  0.59185500  1
  Cu  Cu12  1  0.00000000  0.47122700  0.16666700  1
  Cu  Cu13  1  0.52877300  0.52877300  0.50000000  1
  Cu  Cu14  1  0.13292900  0.41018900  0.25852200  1
  Cu  Cu15  1  0.86707100  0.27726000  0.07481200  1
  Cu  Cu16  1  0.41018900  0.13292900  0.74147800  1
  Cu  Cu17  1  0.27726000  0.86707100  0.92518800  1
