# generated using pymatgen
data_Cu8Ni2C5
_symmetry_space_group_name_H-M   'P 1'
_cell_length_a   5.13723775
_cell_length_b   6.99254571
_cell_length_c   13.99510900
_cell_angle_alpha   90.00000000
_cell_angle_beta   90.00000000
_cell_angle_gamma   64.90231762
_symmetry_Int_Tables_number   1
_chemical_formula_structural   Cu8Ni2C5
_chemical_formula_sum   'Cu16 Ni4 C10'
_cell_volume   455.27200294
_cell_formula_units_Z   2
loop_
 _symmetry_equiv_pos_site_id
 _symmetry_equiv_pos_as_xyz
  1  'x, y, z'
loop_
 _atom_site_type_symbol
 _atom_site_label
 _atom_site_symmetry_multiplicity
 _atom_site_fract_x
 _atom_site_fract_y
 _atom_site_fract_z
 _atom_site_occupancy
  C  C0  1  0.71591900  0.08478800  0.35951900  1
  C  C1  1  0.28408100  0.91521200  0.64048100  1
  C  C2  1  0.28408100  0.41521200  0.85951900  1
  C  C3  1  0.71591900  0.58478800  0.14048100  1
  C  C4  1  0.00000000  0.00000000  0.00000000  1
  C  C5  1  0.00000000  0.50000000  0.50000000  1
  C  C6  1  0.99544900  0.58300000  0.60349600  1
  C  C7  1  0.00455100  0.41700000  0.39650400  1
  C  C8  1  0.00455100  0.91700000  0.10349600  1
  C  C9  1  0.99544900  0.08300000  0.89650400  1
  Ni  Ni10  1  0.57305100  0.79270400  0.89852000  1
  Ni  Ni11  1  0.42694900  0.20729600  0.10148000  1
  Ni  Ni12  1  0.42694900  0.70729600  0.39852000  1
  Ni  Ni13  1  0.57305100  0.29270400  0.60148000  1
  Cu  Cu14  1  0.42019700  0.98999000  0.84402400  1
  Cu  Cu15  1  0.57980300  0.01001000  0.15597600  1
  Cu  Cu16  1  0.57980300  0.51001000  0.34402400  1
  Cu  Cu17  1  0.42019700  0.48999000  0.65597600  1
  Cu  Cu18  1  0.82442600  0.79203200  0.95300100  1
  Cu  Cu19  1  0.17557400  0.20796800  0.04699900  1
  Cu  Cu20  1  0.17557400  0.70796800  0.45300100  1
  Cu  Cu21  1  0.82442600  0.29203200  0.54699900  1
  Cu  Cu22  1  0.36813700  0.77034000  0.97397900  1
  Cu  Cu23  1  0.63186300  0.22966000  0.02602100  1
  Cu  Cu24  1  0.63186300  0.72966000  0.47397900  1
  Cu  Cu25  1  0.36813700  0.27034000  0.52602100  1
  Cu  Cu26  1  0.67072900  0.60398600  0.83771700  1
  Cu  Cu27  1  0.32927100  0.39601400  0.16228300  1
  Cu  Cu28  1  0.32927100  0.89601400  0.33771700  1
  Cu  Cu29  1  0.67072900  0.10398600  0.66228300  1
