# generated using pymatgen
data_Cu2Ni2C21
_symmetry_space_group_name_H-M   'P 1'
_cell_length_a   4.45374200
_cell_length_b   12.24888900
_cell_length_c   11.56724432
_cell_angle_alpha   90.00000000
_cell_angle_beta   99.95015507
_cell_angle_gamma   90.00000000
_symmetry_Int_Tables_number   1
_chemical_formula_structural   Cu2Ni2C21
_chemical_formula_sum   'Cu4 Ni4 C42'
_cell_volume   621.54069925
_cell_formula_units_Z   2
loop_
 _symmetry_equiv_pos_site_id
 _symmetry_equiv_pos_as_xyz
  1  'x, y, z'
loop_
 _atom_site_type_symbol
 _atom_site_label
 _atom_site_symmetry_multiplicity
 _atom_site_fract_x
 _atom_site_fract_y
 _atom_site_fract_z
 _atom_site_occupancy
  C  C0  1  0.50000000  0.50000000  0.00000000  1
  C  C1  1  0.50000000  0.00000000  0.50000000  1
  C  C2  1  0.99445700  0.27918000  0.32716800  1
  C  C3  1  0.99445700  0.22082000  0.82716800  1
  C  C4  1  0.00554300  0.72082000  0.67283200  1
  C  C5  1  0.00554300  0.77918000  0.17283200  1
  C  C6  1  0.15171300  0.31144400  0.20172800  1
  C  C7  1  0.15171300  0.18855600  0.70172800  1
  C  C8  1  0.84828700  0.68855600  0.79827200  1
  C  C9  1  0.84828700  0.81144400  0.29827200  1
  C  C10  1  0.74023900  0.41420300  0.41636100  1
  C  C11  1  0.74023900  0.08579700  0.91636100  1
  C  C12  1  0.25976100  0.58579700  0.58363900  1
  C  C13  1  0.25976100  0.91420300  0.08363900  1
  C  C14  1  0.69858600  0.54444100  0.35399600  1
  C  C15  1  0.69858600  0.95555900  0.85399600  1
  C  C16  1  0.30141400  0.45555900  0.64600400  1
  C  C17  1  0.30141400  0.04444100  0.14600400  1
  Ni  Ni18  1  0.92167000  0.43558200  0.26563800  1
  Ni  Ni19  1  0.92167000  0.06441800  0.76563800  1
  Ni  Ni20  1  0.07833000  0.56441800  0.73436200  1
  Ni  Ni21  1  0.07833000  0.93558200  0.23436200  1
  Cu  Cu22  1  0.96970200  0.52941300  0.15652500  1
  Cu  Cu23  1  0.96970200  0.97058700  0.65652500  1
  Cu  Cu24  1  0.03029800  0.47058700  0.84347500  1
  Cu  Cu25  1  0.03029800  0.02941300  0.34347500  1
  C  C26  1  0.03520000  0.33482900  0.26604000  1
  C  C27  1  0.03520000  0.16517100  0.76604000  1
  C  C28  1  0.96480000  0.66517100  0.73396000  1
  C  C29  1  0.96480000  0.83482900  0.23396000  1
  C  C30  1  0.77861600  0.46683200  0.35148500  1
  C  C31  1  0.77861600  0.03316800  0.85148500  1
  C  C32  1  0.22138400  0.53316800  0.64851500  1
  C  C33  1  0.22138400  0.96683200  0.14851500  1
  C  C34  1  0.54367800  0.24970200  0.02704100  1
  C  C35  1  0.54367800  0.25029800  0.52704100  1
  C  C36  1  0.45632200  0.75029800  0.97295900  1
  C  C37  1  0.45632200  0.74970200  0.47295900  1
  C  C38  1  0.69417900  0.28489100  0.95182600  1
  C  C39  1  0.69417900  0.21510900  0.45182600  1
  C  C40  1  0.30582100  0.71510900  0.04817400  1
  C  C41  1  0.30582100  0.78489100  0.54817400  1
  C  C42  1  0.39799900  0.31854400  0.08033100  1
  C  C43  1  0.39799900  0.18145600  0.58033100  1
  C  C44  1  0.60200100  0.68145600  0.91966900  1
  C  C45  1  0.60200100  0.81854400  0.41966900  1
  C  C46  1  0.53365000  0.14925600  0.04953000  1
  C  C47  1  0.53365000  0.35074400  0.54953000  1
  C  C48  1  0.46635000  0.85074400  0.95047000  1
  C  C49  1  0.46635000  0.64925600  0.45047000  1
