# generated using pymatgen
data_Cu13Ni3C4
_symmetry_space_group_name_H-M   'P 1'
_cell_length_a   11.51929700
_cell_length_b   6.89332500
_cell_length_c   17.51653751
_cell_angle_alpha   71.51728620
_cell_angle_beta   90.00000000
_cell_angle_gamma   90.00000000
_symmetry_Int_Tables_number   1
_chemical_formula_structural   Cu13Ni3C4
_chemical_formula_sum   'Cu52 Ni12 C16'
_cell_volume   1319.17799037
_cell_formula_units_Z   4
loop_
 _symmetry_equiv_pos_site_id
 _symmetry_equiv_pos_as_xyz
  1  'x, y, z'
loop_
 _atom_site_type_symbol
 _atom_site_label
 _atom_site_symmetry_multiplicity
 _atom_site_fract_x
 _atom_site_fract_y
 _atom_site_fract_z
 _atom_site_occupancy
  C  C0  1  0.36964200  0.36815000  0.89467800  1
  C  C1  1  0.86964200  0.63185000  0.60532200  1
  C  C2  1  0.63035800  0.63185000  0.10532200  1
  C  C3  1  0.13035800  0.36815000  0.39467800  1
  C  C4  1  0.15955000  0.94752000  0.62645000  1
  C  C5  1  0.65955000  0.05248000  0.87355000  1
  C  C6  1  0.84045000  0.05248000  0.37355000  1
  C  C7  1  0.34045000  0.94752000  0.12645000  1
  C  C8  1  0.01808100  0.11982200  0.81901600  1
  C  C9  1  0.51808100  0.88017800  0.68098400  1
  C  C10  1  0.98191900  0.88017800  0.18098400  1
  C  C11  1  0.48191900  0.11982200  0.31901600  1
  C  C12  1  0.36145900  0.53849100  0.56518700  1
  C  C13  1  0.86145900  0.46150900  0.93481300  1
  C  C14  1  0.63854100  0.46150900  0.43481300  1
  C  C15  1  0.13854100  0.53849100  0.06518700  1
  Ni  Ni16  1  0.42838800  0.31227700  0.71187700  1
  Ni  Ni17  1  0.92838800  0.68772300  0.78812300  1
  Ni  Ni18  1  0.57161200  0.68772300  0.28812300  1
  Ni  Ni19  1  0.07161200  0.31227700  0.21187700  1
  Ni  Ni20  1  0.14060000  0.42036400  0.59917900  1
  Ni  Ni21  1  0.64060000  0.57963600  0.90082100  1
  Ni  Ni22  1  0.85940000  0.57963600  0.40082100  1
  Ni  Ni23  1  0.35940000  0.42036400  0.09917900  1
  Ni  Ni24  1  0.16972200  0.92690900  0.98115700  1
  Ni  Ni25  1  0.66972200  0.07309100  0.51884300  1
  Ni  Ni26  1  0.83027800  0.07309100  0.01884300  1
  Ni  Ni27  1  0.33027800  0.92690900  0.48115700  1
  Cu  Cu28  1  0.03516700  0.42796600  0.98340700  1
  Cu  Cu29  1  0.53516700  0.57203400  0.51659300  1
  Cu  Cu30  1  0.96483300  0.57203400  0.01659300  1
  Cu  Cu31  1  0.46483300  0.42796600  0.48340700  1
  Cu  Cu32  1  0.46367200  0.20537100  0.77993200  1
  Cu  Cu33  1  0.96367200  0.79462900  0.72006800  1
  Cu  Cu34  1  0.53632800  0.79462900  0.22006800  1
  Cu  Cu35  1  0.03632800  0.20537100  0.27993200  1
  Cu  Cu36  1  0.42822400  0.51590400  0.68629400  1
  Cu  Cu37  1  0.92822400  0.48409600  0.81370600  1
  Cu  Cu38  1  0.57177600  0.48409600  0.31370600  1
  Cu  Cu39  1  0.07177600  0.51590400  0.18629400  1
  Cu  Cu40  1  0.38790900  0.23349300  0.65714800  1
  Cu  Cu41  1  0.88790900  0.76650700  0.84285200  1
  Cu  Cu42  1  0.61209100  0.76650700  0.34285200  1
  Cu  Cu43  1  0.11209100  0.23349300  0.15714800  1
  Cu  Cu44  1  0.18952600  0.55642600  0.62624600  1
  Cu  Cu45  1  0.68952600  0.44357400  0.87375400  1
  Cu  Cu46  1  0.81047400  0.44357400  0.37375400  1
  Cu  Cu47  1  0.31047400  0.55642600  0.12624600  1
  Cu  Cu48  1  0.20051300  0.36970400  0.54442400  1
  Cu  Cu49  1  0.70051300  0.63029600  0.95557600  1
  Cu  Cu50  1  0.79948700  0.63029600  0.45557600  1
  Cu  Cu51  1  0.29948700  0.36970400  0.04442400  1
  Cu  Cu52  1  0.04466100  0.33465100  0.62761700  1
  Cu  Cu53  1  0.54466100  0.66534900  0.87238300  1
  Cu  Cu54  1  0.95533900  0.66534900  0.37238300  1
  Cu  Cu55  1  0.45533900  0.33465100  0.12761700  1
  Cu  Cu56  1  0.17985300  0.11006400  0.93919200  1
  Cu  Cu57  1  0.67985300  0.88993600  0.56080800  1
  Cu  Cu58  1  0.82014700  0.88993600  0.06080800  1
  Cu  Cu59  1  0.32014700  0.11006400  0.43919200  1
  Cu  Cu60  1  0.36578100  0.86391700  0.55803200  1
  Cu  Cu61  1  0.86578100  0.13608300  0.94196800  1
  Cu  Cu62  1  0.63421900  0.13608300  0.44196800  1
  Cu  Cu63  1  0.13421900  0.86391700  0.05803200  1
  Cu  Cu64  1  0.19330000  0.77100800  0.95479300  1
  Cu  Cu65  1  0.69330000  0.22899200  0.54520700  1
  Cu  Cu66  1  0.80670000  0.22899200  0.04520700  1
  Cu  Cu67  1  0.30670000  0.77100800  0.45479300  1
  Cu  Cu68  1  0.22880800  0.77162300  0.79428200  1
  Cu  Cu69  1  0.72880800  0.22837700  0.70571800  1
  Cu  Cu70  1  0.77119200  0.22837700  0.20571800  1
  Cu  Cu71  1  0.27119200  0.77162300  0.29428200  1
  Cu  Cu72  1  0.18412300  0.60469200  0.79759900  1
  Cu  Cu73  1  0.68412300  0.39530800  0.70240100  1
  Cu  Cu74  1  0.81587700  0.39530800  0.20240100  1
  Cu  Cu75  1  0.31587700  0.60469200  0.29759900  1
  Cu  Cu76  1  0.50398500  0.80878500  0.97099000  1
  Cu  Cu77  1  0.00398500  0.19121500  0.52901000  1
  Cu  Cu78  1  0.49601500  0.19121500  0.02901000  1
  Cu  Cu79  1  0.99601500  0.80878500  0.47099000  1
