# generated using pymatgen
data_CuNi5C2
_symmetry_space_group_name_H-M   'P 1'
_cell_length_a   5.00999702
_cell_length_b   5.00999698
_cell_length_c   6.68107057
_cell_angle_alpha   87.52403080
_cell_angle_beta   87.52403717
_cell_angle_gamma   111.93142689
_symmetry_Int_Tables_number   1
_chemical_formula_structural   CuNi5C2
_chemical_formula_sum   'Cu1 Ni5 C2'
_cell_volume   155.09540092
_cell_formula_units_Z   1
loop_
 _symmetry_equiv_pos_site_id
 _symmetry_equiv_pos_as_xyz
  1  'x, y, z'
loop_
 _atom_site_type_symbol
 _atom_site_label
 _atom_site_symmetry_multiplicity
 _atom_site_fract_x
 _atom_site_fract_y
 _atom_site_fract_z
 _atom_site_occupancy
  Ni  Ni0  1  0.24766900  0.75233100  0.00000000  1
  Ni  Ni1  1  0.57272100  0.39747900  0.76504300  1
  Ni  Ni2  1  0.91334600  0.08665400  0.50000000  1
  Ni  Ni3  1  0.26530800  0.73469200  0.50000000  1
  Ni  Ni4  1  0.60252100  0.42727900  0.23495700  1
  Cu  Cu5  1  0.88666500  0.11333500  0.00000000  1
  C  C6  1  0.07162900  0.38085900  0.76958900  1
  C  C7  1  0.61914100  0.92837100  0.23041100  1
