# generated using pymatgen
data_CuNiC12
_symmetry_space_group_name_H-M   'P 1'
_cell_length_a   4.83156993
_cell_length_b   6.13225600
_cell_length_c   10.57031803
_cell_angle_alpha   90.00000000
_cell_angle_beta   89.92884773
_cell_angle_gamma   90.00000000
_symmetry_Int_Tables_number   1
_chemical_formula_structural   CuNiC12
_chemical_formula_sum   'Cu2 Ni2 C24'
_cell_volume   313.18161999
_cell_formula_units_Z   2
loop_
 _symmetry_equiv_pos_site_id
 _symmetry_equiv_pos_as_xyz
  1  'x, y, z'
loop_
 _atom_site_type_symbol
 _atom_site_label
 _atom_site_symmetry_multiplicity
 _atom_site_fract_x
 _atom_site_fract_y
 _atom_site_fract_z
 _atom_site_occupancy
  C  C0  1  0.50000000  0.00000000  0.50000000  1
  C  C1  1  0.50000000  0.50000000  0.50000000  1
  C  C2  1  0.47795500  0.75000000  0.22329900  1
  C  C3  1  0.00767600  0.75000000  0.71535000  1
  C  C4  1  0.52204500  0.25000000  0.77670100  1
  C  C5  1  0.99232400  0.25000000  0.28465000  1
  C  C6  1  0.00000000  0.50000000  0.00000000  1
  C  C7  1  0.00000000  0.00000000  0.00000000  1
  Ni  Ni8  1  0.57110900  0.75000000  0.90253800  1
  Ni  Ni9  1  0.42889100  0.25000000  0.09746200  1
  Cu  Cu10  1  0.92311500  0.75000000  0.40449300  1
  Cu  Cu11  1  0.07688500  0.25000000  0.59550700  1
  C  C12  1  0.70837800  0.75000000  0.04712300  1
  C  C13  1  0.79632900  0.75000000  0.53971700  1
  C  C14  1  0.29162200  0.25000000  0.95287700  1
  C  C15  1  0.20367100  0.25000000  0.46028300  1
  C  C16  1  0.24268000  0.75000000  0.40491300  1
  C  C17  1  0.23167900  0.75000000  0.90485300  1
  C  C18  1  0.75732000  0.25000000  0.59508700  1
  C  C19  1  0.76832100  0.25000000  0.09514700  1
  C  C20  1  0.79479200  0.95237300  0.33441600  1
  C  C21  1  0.71372500  0.53687400  0.83299900  1
  C  C22  1  0.20520800  0.45237300  0.66558400  1
  C  C23  1  0.28627500  0.03687400  0.16700100  1
  C  C24  1  0.20520800  0.04762700  0.66558400  1
  C  C25  1  0.28627500  0.46312600  0.16700100  1
  C  C26  1  0.79479200  0.54762700  0.33441600  1
  C  C27  1  0.71372500  0.96312600  0.83299900  1
