# generated using pymatgen
data_CuNi2C17
_symmetry_space_group_name_H-M   'P 1'
_cell_length_a   11.07370294
_cell_length_b   11.07370294
_cell_length_c   11.07370326
_cell_angle_alpha   33.74048039
_cell_angle_beta   33.74048039
_cell_angle_gamma   33.74048098
_symmetry_Int_Tables_number   1
_chemical_formula_structural   CuNi2C17
_chemical_formula_sum   'Cu1 Ni2 C17'
_cell_volume   373.26272032
_cell_formula_units_Z   1
loop_
 _symmetry_equiv_pos_site_id
 _symmetry_equiv_pos_as_xyz
  1  'x, y, z'
loop_
 _atom_site_type_symbol
 _atom_site_label
 _atom_site_symmetry_multiplicity
 _atom_site_fract_x
 _atom_site_fract_y
 _atom_site_fract_z
 _atom_site_occupancy
  C  C0  1  0.72016100  0.72016100  0.72016100  1
  C  C1  1  0.27983900  0.27983900  0.27983900  1
  C  C2  1  0.87092900  0.87092900  0.87092900  1
  C  C3  1  0.12907100  0.12907100  0.12907100  1
  Ni  Ni4  1  0.59601300  0.59601300  0.59601300  1
  Ni  Ni5  1  0.40398700  0.40398700  0.40398700  1
  Cu  Cu6  1  0.00000000  0.00000000  0.00000000  1
  C  C7  1  0.50000000  0.50000000  0.50000000  1
  C  C8  1  0.39765000  0.81563200  0.39765000  1
  C  C9  1  0.39765000  0.39765000  0.81563200  1
  C  C10  1  0.81563200  0.39765000  0.39765000  1
  C  C11  1  0.60235000  0.18436800  0.60235000  1
  C  C12  1  0.60235000  0.60235000  0.18436800  1
  C  C13  1  0.18436800  0.60235000  0.60235000  1
  C  C14  1  0.18813500  0.73546700  0.18813500  1
  C  C15  1  0.18813500  0.18813500  0.73546700  1
  C  C16  1  0.73546700  0.18813500  0.18813500  1
  C  C17  1  0.81186500  0.26453300  0.81186500  1
  C  C18  1  0.81186500  0.81186500  0.26453300  1
  C  C19  1  0.26453300  0.81186500  0.81186500  1
