# generated using pymatgen
data_Cu2Ni4C19
_symmetry_space_group_name_H-M   'P 1'
_cell_length_a   5.92332621
_cell_length_b   10.09125173
_cell_length_c   10.41710811
_cell_angle_alpha   89.54684095
_cell_angle_beta   92.37668657
_cell_angle_gamma   104.75311465
_symmetry_Int_Tables_number   1
_chemical_formula_structural   Cu2Ni4C19
_chemical_formula_sum   'Cu4 Ni8 C38'
_cell_volume   601.62152966
_cell_formula_units_Z   2
loop_
 _symmetry_equiv_pos_site_id
 _symmetry_equiv_pos_as_xyz
  1  'x, y, z'
loop_
 _atom_site_type_symbol
 _atom_site_label
 _atom_site_symmetry_multiplicity
 _atom_site_fract_x
 _atom_site_fract_y
 _atom_site_fract_z
 _atom_site_occupancy
  Ni  Ni0  1  0.27788100  0.22977400  0.37024900  1
  Ni  Ni1  1  0.27799300  0.22973500  0.87018900  1
  Ni  Ni2  1  0.04476600  0.76552100  0.38836300  1
  Ni  Ni3  1  0.04489000  0.76553700  0.88840000  1
  Ni  Ni4  1  0.72972400  0.76477400  0.12888400  1
  Ni  Ni5  1  0.72971800  0.76472400  0.62884400  1
  Ni  Ni6  1  0.95711100  0.23821600  0.11777100  1
  Ni  Ni7  1  0.95708400  0.23820400  0.61784500  1
  Cu  Cu8  1  0.65031900  0.99955800  0.87384800  1
  Cu  Cu9  1  0.35335100  0.99688500  0.12796300  1
  Cu  Cu10  1  0.65026800  0.99964500  0.37386400  1
  Cu  Cu11  1  0.35295400  0.99665600  0.62800400  1
  C  C12  1  0.44022900  0.57114300  0.38340600  1
  C  C13  1  0.44032100  0.57117000  0.88341500  1
  C  C14  1  0.88319200  0.44711300  0.35752400  1
  C  C15  1  0.88325100  0.44713900  0.85752700  1
  C  C16  1  0.54375300  0.43980200  0.11471600  1
  C  C17  1  0.54375400  0.43979000  0.61472100  1
  C  C18  1  0.21057900  0.13231700  0.03743700  1
  C  C19  1  0.21043100  0.13227300  0.53741500  1
  C  C20  1  0.03729000  0.86515900  0.22263900  1
  C  C21  1  0.03726100  0.86513400  0.72266200  1
  C  C22  1  0.80051400  0.87226800  0.46174300  1
  C  C23  1  0.80059500  0.87221900  0.96172800  1
  C  C24  1  0.97181100  0.13457500  0.28048600  1
  C  C25  1  0.97184600  0.13456100  0.78049100  1
  C  C26  1  0.44302800  0.10790800  0.29068900  1
  C  C27  1  0.44294400  0.10776200  0.79067100  1
  C  C28  1  0.31225400  0.88824000  0.47093000  1
  C  C29  1  0.31238500  0.88828300  0.97097300  1
  C  C30  1  0.56095300  0.89326800  0.21107200  1
  C  C31  1  0.56082000  0.89314100  0.71100800  1
  C  C32  1  0.70302800  0.11373800  0.02818500  1
  C  C33  1  0.70289800  0.11378000  0.52825800  1
  C  C34  1  0.27233500  0.34412000  0.21214700  1
  C  C35  1  0.27235000  0.34409900  0.71215500  1
  C  C36  1  0.92738700  0.66459500  0.04158100  1
  C  C37  1  0.92735700  0.66458400  0.54154100  1
  C  C38  1  0.80094900  0.36457700  0.18164800  1
  C  C39  1  0.80095100  0.36459600  0.68168900  1
  C  C40  1  0.47214600  0.61788700  0.07007900  1
  C  C41  1  0.47207500  0.61785200  0.57007000  1
  C  C42  1  0.15234800  0.61309400  0.33241500  1
  C  C43  1  0.15241000  0.61310800  0.83244000  1
  C  C44  1  0.55005900  0.38601500  0.42482800  1
  C  C45  1  0.55009500  0.38599200  0.92482200  1
  C  C46  1  0.07505800  0.34131600  0.45962100  1
  C  C47  1  0.07508600  0.34128000  0.95960100  1
  C  C48  1  0.72220900  0.65286300  0.29102000  1
  C  C49  1  0.72227700  0.65284100  0.79101900  1
