# generated using pymatgen
data_CuNiC8
_symmetry_space_group_name_H-M   'P 1'
_cell_length_a   8.47058692
_cell_length_b   8.51322307
_cell_length_c   8.47548242
_cell_angle_alpha   90.00000000
_cell_angle_beta   90.00000000
_cell_angle_gamma   90.00000000
_symmetry_Int_Tables_number   1
_chemical_formula_structural   CuNiC8
_chemical_formula_sum   'Cu4 Ni4 C32'
_cell_volume   611.18395423
_cell_formula_units_Z   4
loop_
 _symmetry_equiv_pos_site_id
 _symmetry_equiv_pos_as_xyz
  1  'x, y, z'
loop_
 _atom_site_type_symbol
 _atom_site_label
 _atom_site_symmetry_multiplicity
 _atom_site_fract_x
 _atom_site_fract_y
 _atom_site_fract_z
 _atom_site_occupancy
  Ni  Ni0  1  -0.00000000  0.00000000  -0.00000000  1
  Ni  Ni1  1  0.50000000  0.50000000  0.50000000  1
  Ni  Ni2  1  -0.00000000  0.50000000  0.50000000  1
  Ni  Ni3  1  0.50000000  0.00000000  -0.00000000  1
  Cu  Cu4  1  0.50000000  0.00000000  0.50000000  1
  Cu  Cu5  1  0.50000000  0.50000000  -0.00000000  1
  Cu  Cu6  1  -0.00000000  0.50000000  -0.00000000  1
  Cu  Cu7  1  0.00000000  0.00000000  0.50000000  1
  C  C8  1  0.75000000  0.75000000  0.75000000  1
  C  C9  1  0.25000000  0.25000000  0.75000000  1
  C  C10  1  0.25000000  0.75000000  0.25000000  1
  C  C11  1  0.75000000  0.25000000  0.25000000  1
  C  C12  1  0.25000000  0.25000000  0.25000000  1
  C  C13  1  0.75000000  0.75000000  0.25000000  1
  C  C14  1  0.75000000  0.25000000  0.75000000  1
  C  C15  1  0.25000000  0.75000000  0.75000000  1
  C  C16  1  0.02535697  0.20253536  0.28153654  1
  C  C17  1  0.97464303  0.79746464  0.28153654  1
  C  C18  1  0.97464303  0.20253536  0.71846346  1
  C  C19  1  0.02535697  0.79746464  0.71846346  1
  C  C20  1  0.29312864  0.02714718  0.21268416  1
  C  C21  1  0.29312864  0.97285282  0.78731584  1
  C  C22  1  0.70687136  0.97285282  0.21268416  1
  C  C23  1  0.70687136  0.02714718  0.78731584  1
  C  C24  1  0.21266422  0.29249419  0.02384580  1
  C  C25  1  0.78733578  0.29249419  0.97615420  1
  C  C26  1  0.21266422  0.70750581  0.97615420  1
  C  C27  1  0.78733578  0.70750581  0.02384580  1
  C  C28  1  0.47464303  0.29746464  0.21846346  1
  C  C29  1  0.52535697  0.70253536  0.21846346  1
  C  C30  1  0.52535697  0.29746464  0.78153654  1
  C  C31  1  0.47464303  0.70253536  0.78153654  1
  C  C32  1  0.20687136  0.47285282  0.28731584  1
  C  C33  1  0.20687136  0.52714718  0.71268416  1
  C  C34  1  0.79312864  0.52714718  0.28731584  1
  C  C35  1  0.79312864  0.47285282  0.71268416  1
  C  C36  1  0.28733578  0.20750581  0.47615420  1
  C  C37  1  0.71266422  0.20750581  0.52384580  1
  C  C38  1  0.28733578  0.79249419  0.52384580  1
  C  C39  1  0.71266422  0.79249419  0.47615420  1
