# generated using pymatgen
data_Cu3NiC14
_symmetry_space_group_name_H-M   'P 1'
_cell_length_a   3.94166800
_cell_length_b   3.94166800
_cell_length_c   18.95503300
_cell_angle_alpha   90.00000000
_cell_angle_beta   90.00000000
_cell_angle_gamma   90.00000000
_symmetry_Int_Tables_number   1
_chemical_formula_structural   Cu3NiC14
_chemical_formula_sum   'Cu3 Ni1 C14'
_cell_volume   294.49954494
_cell_formula_units_Z   1
loop_
 _symmetry_equiv_pos_site_id
 _symmetry_equiv_pos_as_xyz
  1  'x, y, z'
loop_
 _atom_site_type_symbol
 _atom_site_label
 _atom_site_symmetry_multiplicity
 _atom_site_fract_x
 _atom_site_fract_y
 _atom_site_fract_z
 _atom_site_occupancy
  Ni  Ni0  1  0.50000000  0.50000000  0.09669500  1
  Cu  Cu1  1  0.00000000  0.00000000  0.59383500  1
  Cu  Cu2  1  0.00000000  0.00000000  0.40789500  1
  Cu  Cu3  1  0.50000000  0.50000000  0.90364600  1
  C  C4  1  0.00000000  0.00000000  0.99350900  1
  C  C5  1  0.50000000  0.50000000  0.50040100  1
  C  C6  1  0.50000000  0.00000000  0.25402800  1
  C  C7  1  0.00000000  0.50000000  0.75011900  1
  C  C8  1  0.00000000  0.50000000  0.25402800  1
  C  C9  1  0.50000000  0.00000000  0.75011900  1
  C  C10  1  0.50000000  0.50000000  0.32828100  1
  C  C11  1  0.00000000  0.00000000  0.82397200  1
  C  C12  1  0.00000000  0.00000000  0.18180600  1
  C  C13  1  0.50000000  0.50000000  0.67452700  1
  C  C14  1  0.00000000  0.50000000  0.99314100  1
  C  C15  1  0.50000000  0.00000000  0.50043000  1
  C  C16  1  0.50000000  0.00000000  0.99314100  1
  C  C17  1  0.00000000  0.50000000  0.50043000  1
