# generated using pymatgen
data_Cu3NiC16
_symmetry_space_group_name_H-M   'P 1'
_cell_length_a   10.45987561
_cell_length_b   10.45987561
_cell_length_c   10.45987561
_cell_angle_alpha   109.47122063
_cell_angle_beta   109.47122063
_cell_angle_gamma   109.47122063
_symmetry_Int_Tables_number   1
_chemical_formula_structural   Cu3NiC16
_chemical_formula_sum   'Cu12 Ni4 C64'
_cell_volume   880.96300090
_cell_formula_units_Z   4
loop_
 _symmetry_equiv_pos_site_id
 _symmetry_equiv_pos_as_xyz
  1  'x, y, z'
loop_
 _atom_site_type_symbol
 _atom_site_label
 _atom_site_symmetry_multiplicity
 _atom_site_fract_x
 _atom_site_fract_y
 _atom_site_fract_z
 _atom_site_occupancy
  C  C0  1  0.12467200  0.37467200  0.75000000  1
  C  C1  1  0.37532800  0.12532800  0.25000000  1
  C  C2  1  0.25000000  0.37532800  0.12532800  1
  C  C3  1  0.75000000  0.12467200  0.37467200  1
  C  C4  1  0.12532800  0.25000000  0.37532800  1
  C  C5  1  0.37467200  0.75000000  0.12467200  1
  C  C6  1  0.87532800  0.62532800  0.25000000  1
  C  C7  1  0.62467200  0.87467200  0.75000000  1
  C  C8  1  0.75000000  0.62467200  0.87467200  1
  C  C9  1  0.25000000  0.87532800  0.62532800  1
  C  C10  1  0.87467200  0.75000000  0.62467200  1
  C  C11  1  0.62532800  0.25000000  0.87532800  1
  Ni  Ni12  1  0.50000000  0.50000000  0.00000000  1
  Ni  Ni13  1  0.00000000  0.50000000  0.50000000  1
  Ni  Ni14  1  0.00000000  0.00000000  0.00000000  1
  Ni  Ni15  1  0.50000000  0.00000000  0.50000000  1
  C  C16  1  0.00000000  0.50000000  0.00000000  1
  C  C17  1  0.50000000  0.50000000  0.50000000  1
  C  C18  1  0.00000000  0.00000000  0.50000000  1
  C  C19  1  0.50000000  0.00000000  0.00000000  1
  Cu  Cu20  1  0.87292400  0.12292400  0.75000000  1
  Cu  Cu21  1  0.62707600  0.37707600  0.25000000  1
  Cu  Cu22  1  0.25000000  0.62707600  0.37707600  1
  Cu  Cu23  1  0.75000000  0.87292400  0.12292400  1
  Cu  Cu24  1  0.37707600  0.25000000  0.62707600  1
  Cu  Cu25  1  0.12292400  0.75000000  0.87292400  1
  Cu  Cu26  1  0.12707600  0.87707600  0.25000000  1
  Cu  Cu27  1  0.37292400  0.62292400  0.75000000  1
  Cu  Cu28  1  0.75000000  0.37292400  0.62292400  1
  Cu  Cu29  1  0.25000000  0.12707600  0.87707600  1
  Cu  Cu30  1  0.62292400  0.75000000  0.37292400  1
  Cu  Cu31  1  0.87707600  0.25000000  0.12707600  1
  C  C32  1  0.81127300  0.50778700  0.39378700  1
  C  C33  1  0.61400000  0.41748600  0.10621300  1
  C  C34  1  0.68872700  0.08251400  0.69651300  1
  C  C35  1  0.88600000  0.99221300  0.80348700  1
  C  C36  1  0.69651300  0.68872700  0.08251400  1
  C  C37  1  0.80348700  0.88600000  0.99221300  1
  C  C38  1  0.39378700  0.81127300  0.50778700  1
  C  C39  1  0.10621300  0.61400000  0.41748600  1
  C  C40  1  0.99221300  0.80348700  0.88600000  1
  C  C41  1  0.08251400  0.69651300  0.68872700  1
  C  C42  1  0.41748600  0.10621300  0.61400000  1
  C  C43  1  0.50778700  0.39378700  0.81127300  1
  C  C44  1  0.18872700  0.49221300  0.60621300  1
  C  C45  1  0.38600000  0.58251400  0.89378700  1
  C  C46  1  0.31127300  0.91748600  0.30348700  1
  C  C47  1  0.11400000  0.00778700  0.19651300  1
  C  C48  1  0.30348700  0.31127300  0.91748600  1
  C  C49  1  0.19651300  0.11400000  0.00778700  1
  C  C50  1  0.60621300  0.18872700  0.49221300  1
  C  C51  1  0.89378700  0.38600000  0.58251400  1
  C  C52  1  0.00778700  0.19651300  0.11400000  1
  C  C53  1  0.91748600  0.30348700  0.31127300  1
  C  C54  1  0.58251400  0.89378700  0.38600000  1
  C  C55  1  0.49221300  0.60621300  0.18872700  1
  C  C56  1  0.29568300  0.49145100  0.38417500  1
  C  C57  1  0.20431700  0.58849300  0.19576800  1
  C  C58  1  0.60727500  0.91150700  0.11582500  1
  C  C59  1  0.89272500  0.00854900  0.30423200  1
  C  C60  1  0.00854900  0.30423200  0.89272500  1
  C  C61  1  0.91150700  0.11582500  0.60727500  1
  C  C62  1  0.58849300  0.19576800  0.20431700  1
  C  C63  1  0.49145100  0.38417500  0.29568300  1
  C  C64  1  0.19576800  0.20431700  0.58849300  1
  C  C65  1  0.38417500  0.29568300  0.49145100  1
  C  C66  1  0.30423200  0.89272500  0.00854900  1
  C  C67  1  0.11582500  0.60727500  0.91150700  1
  C  C68  1  0.70431700  0.50854900  0.61582500  1
  C  C69  1  0.79568300  0.41150700  0.80423200  1
  C  C70  1  0.39272500  0.08849300  0.88417500  1
  C  C71  1  0.10727500  0.99145100  0.69576800  1
  C  C72  1  0.99145100  0.69576800  0.10727500  1
  C  C73  1  0.08849300  0.88417500  0.39272500  1
  C  C74  1  0.41150700  0.80423200  0.79568300  1
  C  C75  1  0.50854900  0.61582500  0.70431700  1
  C  C76  1  0.80423200  0.79568300  0.41150700  1
  C  C77  1  0.61582500  0.70431700  0.50854900  1
  C  C78  1  0.69576800  0.10727500  0.99145100  1
  C  C79  1  0.88417500  0.39272500  0.08849300  1
