# generated using pymatgen
data_CuNiC6
_symmetry_space_group_name_H-M   'P 1'
_cell_length_a   6.06590600
_cell_length_b   7.71414001
_cell_length_c   10.09824549
_cell_angle_alpha   103.49526058
_cell_angle_beta   90.00000000
_cell_angle_gamma   90.00000000
_symmetry_Int_Tables_number   1
_chemical_formula_structural   CuNiC6
_chemical_formula_sum   'Cu4 Ni4 C24'
_cell_volume   459.48279738
_cell_formula_units_Z   4
loop_
 _symmetry_equiv_pos_site_id
 _symmetry_equiv_pos_as_xyz
  1  'x, y, z'
loop_
 _atom_site_type_symbol
 _atom_site_label
 _atom_site_symmetry_multiplicity
 _atom_site_fract_x
 _atom_site_fract_y
 _atom_site_fract_z
 _atom_site_occupancy
  Ni  Ni0  1  0.37760500  0.62018300  0.92016700  1
  Ni  Ni1  1  0.87760500  0.37981700  0.57983300  1
  Ni  Ni2  1  0.62239500  0.37981700  0.07983300  1
  Ni  Ni3  1  0.12239500  0.62018300  0.42016700  1
  Cu  Cu4  1  0.13348400  0.21509300  0.91589300  1
  Cu  Cu5  1  0.63348400  0.78490700  0.58410700  1
  Cu  Cu6  1  0.86651600  0.78490700  0.08410700  1
  Cu  Cu7  1  0.36651600  0.21509300  0.41589300  1
  C  C8  1  0.19316800  0.06022100  0.69438700  1
  C  C9  1  0.69316800  0.93977900  0.80561300  1
  C  C10  1  0.80683200  0.93977900  0.30561300  1
  C  C11  1  0.30683200  0.06022100  0.19438700  1
  C  C12  1  0.38029900  0.57487700  0.10095700  1
  C  C13  1  0.88029900  0.42512300  0.39904300  1
  C  C14  1  0.61970100  0.42512300  0.89904300  1
  C  C15  1  0.11970100  0.57487700  0.60095700  1
  C  C16  1  0.89453000  0.20044900  0.00228700  1
  C  C17  1  0.39453000  0.79955100  0.49771300  1
  C  C18  1  0.10547000  0.79955100  0.99771300  1
  C  C19  1  0.60547000  0.20044900  0.50228700  1
  C  C20  1  0.15094100  0.40854200  0.85619900  1
  C  C21  1  0.65094100  0.59145800  0.64380100  1
  C  C22  1  0.84905900  0.59145800  0.14380100  1
  C  C23  1  0.34905900  0.40854200  0.35619900  1
  C  C24  1  0.35646500  0.18533200  0.01365200  1
  C  C25  1  0.85646500  0.81466800  0.48634800  1
  C  C26  1  0.64353500  0.81466800  0.98634800  1
  C  C27  1  0.14353500  0.18533200  0.51365200  1
  C  C28  1  0.10830700  0.03762800  0.77143700  1
  C  C29  1  0.60830700  0.96237200  0.72856300  1
  C  C30  1  0.89169300  0.96237200  0.22856300  1
  C  C31  1  0.39169300  0.03762800  0.27143700  1
