# generated using pymatgen
data_Cu7NiC2
_symmetry_space_group_name_H-M   'P 1'
_cell_length_a   6.08452600
_cell_length_b   6.11837800
_cell_length_c   14.90000100
_cell_angle_alpha   90.00000000
_cell_angle_beta   90.00000000
_cell_angle_gamma   90.00000000
_symmetry_Int_Tables_number   1
_chemical_formula_structural   Cu7NiC2
_chemical_formula_sum   'Cu28 Ni4 C8'
_cell_volume   554.68874451
_cell_formula_units_Z   4
loop_
 _symmetry_equiv_pos_site_id
 _symmetry_equiv_pos_as_xyz
  1  'x, y, z'
loop_
 _atom_site_type_symbol
 _atom_site_label
 _atom_site_symmetry_multiplicity
 _atom_site_fract_x
 _atom_site_fract_y
 _atom_site_fract_z
 _atom_site_occupancy
  C  C0  1  0.25000000  0.46080600  0.91530300  1
  C  C1  1  0.25000000  0.03919400  0.41530300  1
  C  C2  1  0.75000000  0.53919400  0.08469700  1
  C  C3  1  0.75000000  0.96080600  0.58469700  1
  C  C4  1  0.00000000  0.00000000  0.00000000  1
  C  C5  1  0.50000000  0.50000000  0.50000000  1
  C  C6  1  0.50000000  0.00000000  0.00000000  1
  C  C7  1  0.00000000  0.50000000  0.50000000  1
  Ni  Ni8  1  0.25000000  0.73542400  0.69374200  1
  Ni  Ni9  1  0.25000000  0.76457600  0.19374200  1
  Ni  Ni10  1  0.75000000  0.26457600  0.30625800  1
  Ni  Ni11  1  0.75000000  0.23542400  0.80625800  1
  Cu  Cu12  1  0.25000000  0.52727800  0.64318300  1
  Cu  Cu13  1  0.25000000  0.97272200  0.14318300  1
  Cu  Cu14  1  0.75000000  0.47272200  0.35681700  1
  Cu  Cu15  1  0.75000000  0.02727800  0.85681700  1
  Cu  Cu16  1  0.25000000  0.69922400  0.79210500  1
  Cu  Cu17  1  0.25000000  0.80077600  0.29210500  1
  Cu  Cu18  1  0.75000000  0.30077600  0.20789500  1
  Cu  Cu19  1  0.75000000  0.19922400  0.70789500  1
  Cu  Cu20  1  0.94900900  0.36557600  0.82835500  1
  Cu  Cu21  1  0.55099100  0.13442400  0.32835500  1
  Cu  Cu22  1  0.44900900  0.63442400  0.17164500  1
  Cu  Cu23  1  0.05099100  0.86557600  0.67164500  1
  Cu  Cu24  1  0.05099100  0.63442400  0.17164500  1
  Cu  Cu25  1  0.44900900  0.86557600  0.67164500  1
  Cu  Cu26  1  0.55099100  0.36557600  0.82835500  1
  Cu  Cu27  1  0.94900900  0.13442400  0.32835500  1
  Cu  Cu28  1  0.01477800  0.70618200  0.98636600  1
  Cu  Cu29  1  0.48522200  0.79381800  0.48636600  1
  Cu  Cu30  1  0.51477800  0.29381800  0.01363400  1
  Cu  Cu31  1  0.98522200  0.20618200  0.51363400  1
  Cu  Cu32  1  0.98522200  0.29381800  0.01363400  1
  Cu  Cu33  1  0.51477800  0.20618200  0.51363400  1
  Cu  Cu34  1  0.48522200  0.70618200  0.98636600  1
  Cu  Cu35  1  0.01477800  0.79381800  0.48636600  1
  Cu  Cu36  1  0.25000000  0.05562100  0.93570000  1
  Cu  Cu37  1  0.25000000  0.44437900  0.43570000  1
  Cu  Cu38  1  0.75000000  0.94437900  0.06430000  1
  Cu  Cu39  1  0.75000000  0.55562100  0.56430000  1
