# generated using pymatgen
data_Cu5Ni2C9
_symmetry_space_group_name_H-M   'P 1'
_cell_length_a   7.79949100
_cell_length_b   9.66384500
_cell_length_c   11.75080831
_cell_angle_alpha   77.62145961
_cell_angle_beta   90.00000000
_cell_angle_gamma   90.00000000
_symmetry_Int_Tables_number   1
_chemical_formula_structural   Cu5Ni2C9
_chemical_formula_sum   'Cu20 Ni8 C36'
_cell_volume   865.10445968
_cell_formula_units_Z   4
loop_
 _symmetry_equiv_pos_site_id
 _symmetry_equiv_pos_as_xyz
  1  'x, y, z'
loop_
 _atom_site_type_symbol
 _atom_site_label
 _atom_site_symmetry_multiplicity
 _atom_site_fract_x
 _atom_site_fract_y
 _atom_site_fract_z
 _atom_site_occupancy
  C  C0  1  0.65987900  0.46863900  0.25299600  1
  C  C1  1  0.15987900  0.03136100  0.74700400  1
  C  C2  1  0.34012100  0.53136100  0.74700400  1
  C  C3  1  0.84012100  0.96863900  0.25299600  1
  Ni  Ni4  1  0.18127500  0.33151100  0.42279300  1
  Ni  Ni5  1  0.68127500  0.16848900  0.57720700  1
  Ni  Ni6  1  0.81872500  0.66848900  0.57720700  1
  Ni  Ni7  1  0.31872500  0.83151100  0.42279300  1
  Ni  Ni8  1  0.19040600  0.29201600  0.07558900  1
  Ni  Ni9  1  0.69040600  0.20798400  0.92441100  1
  Ni  Ni10  1  0.80959400  0.70798400  0.92441100  1
  Ni  Ni11  1  0.30959400  0.79201600  0.07558900  1
  Cu  Cu12  1  0.27511400  0.55648300  0.40537900  1
  Cu  Cu13  1  0.77511400  0.94351700  0.59462100  1
  Cu  Cu14  1  0.72488600  0.44351700  0.59462100  1
  Cu  Cu15  1  0.22488600  0.05648300  0.40537900  1
  Cu  Cu16  1  0.97450500  0.31524200  0.55714100  1
  Cu  Cu17  1  0.47450500  0.18475800  0.44285900  1
  Cu  Cu18  1  0.02549500  0.68475800  0.44285900  1
  Cu  Cu19  1  0.52549500  0.81524200  0.55714100  1
  Cu  Cu20  1  0.04147500  0.30709700  0.24912200  1
  Cu  Cu21  1  0.54147500  0.19290300  0.75087800  1
  Cu  Cu22  1  0.95852500  0.69290300  0.75087800  1
  Cu  Cu23  1  0.45852500  0.80709700  0.24912200  1
  Cu  Cu24  1  0.26805100  0.51114900  0.09282800  1
  Cu  Cu25  1  0.76805100  0.98885100  0.90717200  1
  Cu  Cu26  1  0.73194900  0.48885100  0.90717200  1
  Cu  Cu27  1  0.23194900  0.01114900  0.09282800  1
  Cu  Cu28  1  0.98511700  0.34298600  0.93943700  1
  Cu  Cu29  1  0.48511700  0.15701400  0.06056300  1
  Cu  Cu30  1  0.01488300  0.65701400  0.06056300  1
  Cu  Cu31  1  0.51488300  0.84298600  0.93943700  1
  C  C32  1  0.28600100  0.19896800  0.41901000  1
  C  C33  1  0.78600100  0.30103200  0.58099000  1
  C  C34  1  0.71399900  0.80103200  0.58099000  1
  C  C35  1  0.21399900  0.69896800  0.41901000  1
  C  C36  1  0.02925700  0.35254300  0.33671600  1
  C  C37  1  0.52925700  0.14745700  0.66328400  1
  C  C38  1  0.97074300  0.64745700  0.66328400  1
  C  C39  1  0.47074300  0.85254300  0.33671600  1
  C  C40  1  0.31474900  0.45655100  0.39788100  1
  C  C41  1  0.81474900  0.04344900  0.60211900  1
  C  C42  1  0.68525100  0.54344900  0.60211900  1
  C  C43  1  0.18525100  0.95655100  0.39788100  1
  C  C44  1  0.10671900  0.32675500  0.54869500  1
  C  C45  1  0.60671900  0.17324500  0.45130500  1
  C  C46  1  0.89328100  0.67324500  0.45130500  1
  C  C47  1  0.39328100  0.82675500  0.54869500  1
  C  C48  1  0.29962700  0.15987400  0.07969800  1
  C  C49  1  0.79962700  0.34012600  0.92030200  1
  C  C50  1  0.70037300  0.84012600  0.92030200  1
  C  C51  1  0.20037300  0.65987400  0.07969800  1
  C  C52  1  0.03745400  0.26264200  0.16104100  1
  C  C53  1  0.53745400  0.23735800  0.83895900  1
  C  C54  1  0.96254600  0.73735800  0.83895900  1
  C  C55  1  0.46254600  0.76264200  0.16104100  1
  C  C56  1  0.31510600  0.40878000  0.10307500  1
  C  C57  1  0.81510600  0.09122000  0.89692500  1
  C  C58  1  0.68489400  0.59122000  0.89692500  1
  C  C59  1  0.18489400  0.90878000  0.10307500  1
  C  C60  1  0.11781300  0.35038000  0.94892600  1
  C  C61  1  0.61781300  0.14962000  0.05107400  1
  C  C62  1  0.88218700  0.64962000  0.05107400  1
  C  C63  1  0.38218700  0.85038000  0.94892600  1
