# generated using pymatgen
data_CuNi5C12
_symmetry_space_group_name_H-M   'P 1'
_cell_length_a   8.52703900
_cell_length_b   6.55962200
_cell_length_c   14.37114505
_cell_angle_alpha   85.56538403
_cell_angle_beta   90.00000000
_cell_angle_gamma   90.00000000
_symmetry_Int_Tables_number   1
_chemical_formula_structural   CuNi5C12
_chemical_formula_sum   'Cu4 Ni20 C48'
_cell_volume   801.43130676
_cell_formula_units_Z   4
loop_
 _symmetry_equiv_pos_site_id
 _symmetry_equiv_pos_as_xyz
  1  'x, y, z'
loop_
 _atom_site_type_symbol
 _atom_site_label
 _atom_site_symmetry_multiplicity
 _atom_site_fract_x
 _atom_site_fract_y
 _atom_site_fract_z
 _atom_site_occupancy
  C  C0  1  0.65810800  0.47871200  0.10947500  1
  C  C1  1  0.15810800  0.52128800  0.39052500  1
  C  C2  1  0.34189200  0.52128800  0.89052500  1
  C  C3  1  0.84189200  0.47871200  0.60947500  1
  C  C4  1  0.49994900  0.95364000  0.27241500  1
  C  C5  1  0.99994900  0.04636000  0.22758500  1
  C  C6  1  0.50005100  0.04636000  0.72758500  1
  C  C7  1  0.00005100  0.95364000  0.77241500  1
  Ni  Ni8  1  0.77446200  0.19582700  0.39313700  1
  Ni  Ni9  1  0.27446200  0.80417300  0.10686300  1
  Ni  Ni10  1  0.22553800  0.80417300  0.60686300  1
  Ni  Ni11  1  0.72553800  0.19582700  0.89313700  1
  Ni  Ni12  1  0.34031500  0.46496200  0.18514400  1
  Ni  Ni13  1  0.84031500  0.53503800  0.31485600  1
  Ni  Ni14  1  0.65968500  0.53503800  0.81485600  1
  Ni  Ni15  1  0.15968500  0.46496200  0.68514400  1
  Ni  Ni16  1  0.68323300  0.81664200  0.93314500  1
  Ni  Ni17  1  0.18323300  0.18335800  0.56685500  1
  Ni  Ni18  1  0.31676700  0.18335800  0.06685500  1
  Ni  Ni19  1  0.81676700  0.81664200  0.43314500  1
  Ni  Ni20  1  0.79666900  0.04100600  0.56150300  1
  Ni  Ni21  1  0.29666900  0.95899400  0.93849700  1
  Ni  Ni22  1  0.20333100  0.95899400  0.43849700  1
  Ni  Ni23  1  0.70333100  0.04100600  0.06150300  1
  Ni  Ni24  1  0.55435200  0.42714400  0.32032400  1
  Ni  Ni25  1  0.05435200  0.57285600  0.17967600  1
  Ni  Ni26  1  0.44564800  0.57285600  0.67967600  1
  Ni  Ni27  1  0.94564800  0.42714400  0.82032400  1
  Cu  Cu28  1  0.00902600  0.40864600  0.06389900  1
  Cu  Cu29  1  0.50902600  0.59135400  0.43610100  1
  Cu  Cu30  1  0.99097400  0.59135400  0.93610100  1
  Cu  Cu31  1  0.49097400  0.40864600  0.56389900  1
  C  C32  1  0.38580300  0.68065300  0.16491900  1
  C  C33  1  0.88580300  0.31934700  0.33508100  1
  C  C34  1  0.61419700  0.31934700  0.83508100  1
  C  C35  1  0.11419700  0.68065300  0.66491900  1
  C  C36  1  0.95327800  0.43879400  0.12031700  1
  C  C37  1  0.45327800  0.56120600  0.37968300  1
  C  C38  1  0.04672200  0.56120600  0.87968300  1
  C  C39  1  0.54672200  0.43879400  0.62031700  1
  C  C40  1  0.61111400  0.24553500  0.37478800  1
  C  C41  1  0.11111400  0.75446500  0.12521200  1
  C  C42  1  0.38888600  0.75446500  0.62521200  1
  C  C43  1  0.88888600  0.24553500  0.87478800  1
  C  C44  1  0.45466900  0.35538400  0.24545300  1
  C  C45  1  0.95466900  0.64461600  0.25454700  1
  C  C46  1  0.54533100  0.64461600  0.75454700  1
  C  C47  1  0.04533100  0.35538400  0.74545300  1
  C  C48  1  0.64664300  0.62335400  0.91272600  1
  C  C49  1  0.14664300  0.37664600  0.58727400  1
  C  C50  1  0.35335700  0.37664600  0.08727400  1
  C  C51  1  0.85335700  0.62335400  0.41272600  1
  C  C52  1  0.18154500  0.43983200  0.22108200  1
  C  C53  1  0.68154500  0.56016800  0.27891800  1
  C  C54  1  0.81845500  0.56016800  0.77891800  1
  C  C55  1  0.31845500  0.43983200  0.72108200  1
  C  C56  1  0.79934800  0.97632000  0.36713900  1
  C  C57  1  0.29934800  0.02368000  0.13286100  1
  C  C58  1  0.20065200  0.02368000  0.63286100  1
  C  C59  1  0.70065200  0.97632000  0.86713900  1
  C  C60  1  0.71139500  0.06907700  0.15294700  1
  C  C61  1  0.21139500  0.93092300  0.34705300  1
  C  C62  1  0.28860500  0.93092300  0.84705300  1
  C  C63  1  0.78860500  0.06907700  0.65294700  1
  C  C64  1  0.81146300  0.20368300  0.49475000  1
  C  C65  1  0.31146300  0.79631700  0.00525000  1
  C  C66  1  0.18853700  0.79631700  0.50525000  1
  C  C67  1  0.68853700  0.20368300  0.99475000  1
  C  C68  1  0.70438600  0.84176200  0.02849900  1
  C  C69  1  0.20438600  0.15823800  0.47150100  1
  C  C70  1  0.29561400  0.15823800  0.97150100  1
  C  C71  1  0.79561400  0.84176200  0.52849900  1
