# generated using pymatgen
data_Cu2NiC7
_symmetry_space_group_name_H-M   'P 1'
_cell_length_a   7.15360200
_cell_length_b   8.48306518
_cell_length_c   19.60025354
_cell_angle_alpha   90.00000000
_cell_angle_beta   90.00000000
_cell_angle_gamma   90.00000000
_symmetry_Int_Tables_number   1
_chemical_formula_structural   Cu2NiC7
_chemical_formula_sum   'Cu16 Ni8 C56'
_cell_volume   1189.43103788
_cell_formula_units_Z   8
loop_
 _symmetry_equiv_pos_site_id
 _symmetry_equiv_pos_as_xyz
  1  'x, y, z'
loop_
 _atom_site_type_symbol
 _atom_site_label
 _atom_site_symmetry_multiplicity
 _atom_site_fract_x
 _atom_site_fract_y
 _atom_site_fract_z
 _atom_site_occupancy
  C  C0  1  0.41445840  0.84590810  0.06470228  1
  C  C1  1  0.58554160  0.15409190  0.56470228  1
  C  C2  1  0.41445840  0.65409190  0.56470228  1
  C  C3  1  0.58554160  0.34590810  0.06470228  1
  C  C4  1  0.91237805  0.94525792  0.15241171  1
  C  C5  1  0.08762195  0.05474208  0.65241171  1
  C  C6  1  0.91237805  0.55474208  0.65241171  1
  C  C7  1  0.08762195  0.44525792  0.15241171  1
  Ni  Ni8  1  0.71947090  0.58005100  0.85542959  1
  Ni  Ni9  1  0.28052910  0.41994900  0.35542959  1
  Ni  Ni10  1  0.71947090  0.91994900  0.35542959  1
  Ni  Ni11  1  0.28052910  0.08005100  0.85542959  1
  Ni  Ni12  1  0.21353190  0.17971728  0.35779466  1
  Ni  Ni13  1  0.78646810  0.82028272  0.85779466  1
  Ni  Ni14  1  0.21353190  0.32028272  0.85779466  1
  Ni  Ni15  1  0.78646810  0.67971728  0.35779466  1
  Cu  Cu16  1  0.42854771  0.09383688  0.20334704  1
  Cu  Cu17  1  0.57145229  0.90616312  0.70334704  1
  Cu  Cu18  1  0.42854771  0.40616312  0.70334704  1
  Cu  Cu19  1  0.57145229  0.59383688  0.20334704  1
  Cu  Cu20  1  0.43755349  0.62500267  0.91776463  1
  Cu  Cu21  1  0.56244651  0.37499733  0.41776463  1
  Cu  Cu22  1  0.43755349  0.87499733  0.41776463  1
  Cu  Cu23  1  0.56244651  0.12500267  0.91776463  1
  Cu  Cu24  1  0.93206980  0.69335073  0.01455533  1
  Cu  Cu25  1  0.06793020  0.30664927  0.51455533  1
  Cu  Cu26  1  0.93206980  0.80664927  0.51455533  1
  Cu  Cu27  1  0.06793020  0.19335073  0.01455533  1
  Cu  Cu28  1  0.92428728  0.17283562  0.30211261  1
  Cu  Cu29  1  0.07571272  0.82716438  0.80211261  1
  Cu  Cu30  1  0.92428728  0.32716438  0.80211261  1
  Cu  Cu31  1  0.07571272  0.67283562  0.30211261  1
  C  C32  1  0.63630405  0.78222788  0.18373273  1
  C  C33  1  0.36369595  0.21777212  0.68373273  1
  C  C34  1  0.63630405  0.71777212  0.68373273  1
  C  C35  1  0.36369595  0.28222788  0.18373273  1
  C  C36  1  0.40508280  0.57637836  0.13772501  1
  C  C37  1  0.59491720  0.42362164  0.63772501  1
  C  C38  1  0.40508280  0.92362164  0.63772501  1
  C  C39  1  0.59491720  0.07637836  0.13772501  1
  C  C40  1  0.26182000  0.96969515  0.16840431  1
  C  C41  1  0.73818000  0.03030485  0.66840431  1
  C  C42  1  0.26182000  0.53030485  0.66840431  1
  C  C43  1  0.73818000  0.46969515  0.16840431  1
  C  C44  1  0.36485929  0.81242718  0.92776420  1
  C  C45  1  0.63514071  0.18757282  0.42776420  1
  C  C46  1  0.36485929  0.68757282  0.42776420  1
  C  C47  1  0.63514071  0.31242718  0.92776420  1
  C  C48  1  0.47085864  0.58229916  0.00209034  1
  C  C49  1  0.52914136  0.41770084  0.50209034  1
  C  C50  1  0.47085864  0.91770084  0.50209034  1
  C  C51  1  0.52914136  0.08229916  0.00209034  1
  C  C52  1  0.67752425  0.66331731  0.88974768  1
  C  C53  1  0.32247575  0.33668269  0.38974768  1
  C  C54  1  0.67752425  0.83668269  0.38974768  1
  C  C55  1  0.32247575  0.16331731  0.88974768  1
  C  C56  1  0.76401475  0.81746685  0.04853421  1
  C  C57  1  0.23598525  0.18253315  0.54853421  1
  C  C58  1  0.76401475  0.68253315  0.54853421  1
  C  C59  1  0.23598525  0.31746685  0.04853421  1
  C  C60  1  0.09553917  0.71133341  0.08146720  1
  C  C61  1  0.90446083  0.28866659  0.58146720  1
  C  C62  1  0.09553917  0.78866659  0.58146720  1
  C  C63  1  0.90446083  0.21133341  0.08146720  1
  C  C64  1  0.86435885  0.50557270  0.03391797  1
  C  C65  1  0.13564115  0.49442730  0.53391797  1
  C  C66  1  0.86435885  0.99442730  0.53391797  1
  C  C67  1  0.13564115  0.00557270  0.03391797  1
  C  C68  1  0.81718382  0.99732560  0.28899167  1
  C  C69  1  0.18281618  0.00267440  0.78899167  1
  C  C70  1  0.81718382  0.50267440  0.78899167  1
  C  C71  1  0.18281618  0.49732560  0.28899167  1
  C  C72  1  0.98301825  0.20861236  0.21913831  1
  C  C73  1  0.01698175  0.79138764  0.71913831  1
  C  C74  1  0.98301825  0.29138764  0.71913831  1
  C  C75  1  0.01698175  0.70861236  0.21913831  1
  C  C76  1  0.13763454  0.09115097  0.33720654  1
  C  C77  1  0.86236546  0.90884903  0.83720654  1
  C  C78  1  0.13763454  0.40884903  0.83720654  1
  C  C79  1  0.86236546  0.59115097  0.33720654  1
