# generated using pymatgen
data_CuNi2C
_symmetry_space_group_name_H-M   'P 1'
_cell_length_a   6.79446800
_cell_length_b   6.79446800
_cell_length_c   7.47912000
_cell_angle_alpha   90.00000000
_cell_angle_beta   90.00000000
_cell_angle_gamma   90.00000000
_symmetry_Int_Tables_number   1
_chemical_formula_structural   CuNi2C
_chemical_formula_sum   'Cu8 Ni16 C8'
_cell_volume   345.27204459
_cell_formula_units_Z   8
loop_
 _symmetry_equiv_pos_site_id
 _symmetry_equiv_pos_as_xyz
  1  'x, y, z'
loop_
 _atom_site_type_symbol
 _atom_site_label
 _atom_site_symmetry_multiplicity
 _atom_site_fract_x
 _atom_site_fract_y
 _atom_site_fract_z
 _atom_site_occupancy
  C  C0  1  0.30966600  0.80966600  0.75000000  1
  C  C1  1  0.19033400  0.30966600  0.25000000  1
  C  C2  1  0.80966600  0.69033400  0.25000000  1
  C  C3  1  0.69033400  0.19033400  0.75000000  1
  C  C4  1  0.69033400  0.19033400  0.25000000  1
  C  C5  1  0.80966600  0.69033400  0.75000000  1
  C  C6  1  0.19033400  0.30966600  0.75000000  1
  C  C7  1  0.30966600  0.80966600  0.25000000  1
  Ni  Ni8  1  0.15170300  0.03466000  0.00000000  1
  Ni  Ni9  1  0.53466000  0.65170300  0.50000000  1
  Ni  Ni10  1  0.84829700  0.96534000  0.00000000  1
  Ni  Ni11  1  0.34829700  0.53466000  0.00000000  1
  Ni  Ni12  1  0.65170300  0.46534000  0.00000000  1
  Ni  Ni13  1  0.03466000  0.84829700  0.50000000  1
  Ni  Ni14  1  0.96534000  0.15170300  0.50000000  1
  Ni  Ni15  1  0.46534000  0.34829700  0.50000000  1
  Ni  Ni16  1  0.09700900  0.59492500  0.00000000  1
  Ni  Ni17  1  0.40507500  0.09700900  0.50000000  1
  Ni  Ni18  1  0.59492500  0.90299100  0.50000000  1
  Ni  Ni19  1  0.59700900  0.90507500  0.00000000  1
  Ni  Ni20  1  0.40299100  0.09492500  0.00000000  1
  Ni  Ni21  1  0.90299100  0.40507500  0.00000000  1
  Ni  Ni22  1  0.09492500  0.59700900  0.50000000  1
  Ni  Ni23  1  0.90507500  0.40299100  0.50000000  1
  Cu  Cu24  1  0.17735800  0.04045200  0.50000000  1
  Cu  Cu25  1  0.67735800  0.45954800  0.50000000  1
  Cu  Cu26  1  0.32264200  0.54045200  0.50000000  1
  Cu  Cu27  1  0.95954800  0.17735800  0.00000000  1
  Cu  Cu28  1  0.04045200  0.82264200  0.00000000  1
  Cu  Cu29  1  0.54045200  0.67735800  0.00000000  1
  Cu  Cu30  1  0.82264200  0.95954800  0.50000000  1
  Cu  Cu31  1  0.45954800  0.32264200  0.00000000  1
