# generated using pymatgen
data_Cu7NiC28
_symmetry_space_group_name_H-M   'P 1'
_cell_length_a   11.16928569
_cell_length_b   11.46560165
_cell_length_c   17.62707434
_cell_angle_alpha   108.92569492
_cell_angle_beta   108.59999492
_cell_angle_gamma   89.99000790
_symmetry_Int_Tables_number   1
_chemical_formula_structural   Cu7NiC28
_chemical_formula_sum   'Cu28 Ni4 C112'
_cell_volume   2010.33035896
_cell_formula_units_Z   4
loop_
 _symmetry_equiv_pos_site_id
 _symmetry_equiv_pos_as_xyz
  1  'x, y, z'
loop_
 _atom_site_type_symbol
 _atom_site_label
 _atom_site_symmetry_multiplicity
 _atom_site_fract_x
 _atom_site_fract_y
 _atom_site_fract_z
 _atom_site_occupancy
  C  C0  1  0.30620100  0.06144800  0.60903100  1
  C  C1  1  0.30669500  0.55940700  0.60795700  1
  C  C2  1  0.80675000  0.06405200  0.60904200  1
  C  C3  1  0.80559600  0.56498300  0.10931800  1
  C  C4  1  0.80727700  0.56168500  0.60817400  1
  C  C5  1  0.19579600  0.43427400  0.38966600  1
  C  C6  1  0.19799800  0.43876200  0.89154600  1
  C  C7  1  0.19628300  0.93665400  0.38873700  1
  C  C8  1  0.19823400  0.93754300  0.89407900  1
  C  C9  1  0.69618500  0.43546200  0.39044600  1
  C  C10  1  0.69918400  0.44046700  0.89154600  1
  C  C11  1  0.69621000  0.93645600  0.39033200  1
  C  C12  1  0.70019800  0.93822100  0.89393000  1
  C  C13  1  0.05623100  0.29494200  0.11007100  1
  C  C14  1  0.05748700  0.29775500  0.60964400  1
  C  C15  1  0.05559300  0.79450100  0.60744300  1
  C  C16  1  0.55664100  0.29486200  0.10988900  1
  C  C17  1  0.55771700  0.29913500  0.60946500  1
  C  C18  1  0.55538700  0.79487400  0.10999100  1
  C  C19  1  0.55585700  0.79546200  0.60708900  1
  C  C20  1  0.44541500  0.20318000  0.38795700  1
  C  C21  1  0.44668100  0.20270100  0.89180800  1
  C  C22  1  0.44502800  0.70374500  0.38795900  1
  C  C23  1  0.44889000  0.70231800  0.89322300  1
  C  C24  1  0.94602300  0.20276000  0.38864400  1
  C  C25  1  0.94877800  0.20550800  0.89244700  1
  C  C26  1  0.94607900  0.70427900  0.38940500  1
  C  C27  1  0.95037300  0.70487000  0.89351200  1
  C  C28  1  0.30215100  0.06608900  0.10555300  1
  C  C29  1  0.30409000  0.56685200  0.10501300  1
  C  C30  1  0.80171000  0.06632400  0.10550500  1
  C  C31  1  0.05445600  0.78792000  0.10587900  1
  Ni  Ni32  1  0.11182800  0.59695900  0.75114200  1
  Ni  Ni33  1  0.61170100  0.60041500  0.75097300  1
  Ni  Ni34  1  0.36337100  0.40567800  0.75086500  1
  Ni  Ni35  1  0.36040800  0.90216700  0.75068500  1
  Cu  Cu36  1  0.00831700  0.00245900  0.00690900  1
  Cu  Cu37  1  0.00398300  0.99985500  0.49886100  1
  Cu  Cu38  1  0.00723100  0.50225400  0.00372400  1
  Cu  Cu39  1  0.00365400  0.49883000  0.49941100  1
  Cu  Cu40  1  0.50571700  0.00221900  0.00394700  1
  Cu  Cu41  1  0.50364700  0.00077900  0.49961600  1
  Cu  Cu42  1  0.50452400  0.50058000  0.00131000  1
  Cu  Cu43  1  0.50367300  0.49969300  0.49975500  1
  Cu  Cu44  1  0.25684400  0.25214200  0.00451800  1
  Cu  Cu45  1  0.25453100  0.24974500  0.50076800  1
  Cu  Cu46  1  0.25601200  0.75190900  0.00447300  1
  Cu  Cu47  1  0.25318300  0.74997000  0.49893900  1
  Cu  Cu48  1  0.75532100  0.25050300  0.00144500  1
  Cu  Cu49  1  0.75402000  0.24980400  0.49983300  1
  Cu  Cu50  1  0.75692400  0.75230400  0.00383600  1
  Cu  Cu51  1  0.75327600  0.74957300  0.49915800  1
  Cu  Cu52  1  0.10300800  0.08502700  0.24513400  1
  Cu  Cu53  1  0.10954100  0.08674000  0.75094500  1
  Cu  Cu54  1  0.10901500  0.59208200  0.24903800  1
  Cu  Cu55  1  0.60375100  0.08866000  0.24724400  1
  Cu  Cu56  1  0.61023900  0.08973400  0.75064100  1
  Cu  Cu57  1  0.60372500  0.58959500  0.24799800  1
  Cu  Cu58  1  0.35646100  0.40902300  0.24726600  1
  Cu  Cu59  1  0.35117900  0.90785600  0.24536300  1
  Cu  Cu60  1  0.85736900  0.40740500  0.24921400  1
  Cu  Cu61  1  0.86142500  0.41292400  0.75089800  1
  Cu  Cu62  1  0.85692700  0.91225300  0.24735200  1
  Cu  Cu63  1  0.85906100  0.90801700  0.75085600  1
  C  C64  1  0.12355500  0.12100900  0.49066500  1
  C  C65  1  0.12622200  0.12161600  0.99273800  1
  C  C66  1  0.12328000  0.62146100  0.49098800  1
  C  C67  1  0.12674900  0.62392000  0.99630500  1
  C  C68  1  0.62387400  0.12195000  0.49119100  1
  C  C69  1  0.62675700  0.12210600  0.99304200  1
  C  C70  1  0.62350800  0.62254800  0.49169100  1
  C  C71  1  0.62576000  0.62427900  0.99406800  1
  C  C72  1  0.13747300  0.38236300  0.01364800  1
  C  C73  1  0.13129500  0.37616800  0.50565800  1
  C  C74  1  0.13673700  0.88098200  0.01640600  1
  C  C75  1  0.13129300  0.87799400  0.50668100  1
  C  C76  1  0.63288900  0.37703200  0.00902300  1
  C  C77  1  0.63212000  0.37683300  0.50716000  1
  C  C78  1  0.63654000  0.88255600  0.01191700  1
  C  C79  1  0.63190200  0.87809700  0.50776400  1
  C  C80  1  0.37411500  0.11958300  0.49137300  1
  C  C81  1  0.37522800  0.12113800  0.99470400  1
  C  C82  1  0.37327200  0.62014200  0.49096900  1
  C  C83  1  0.37483400  0.62031900  0.99518400  1
  C  C84  1  0.87388700  0.11911700  0.49103000  1
  C  C85  1  0.87465100  0.11871700  0.99366100  1
  C  C86  1  0.87313900  0.61927700  0.49015400  1
  C  C87  1  0.87853000  0.62227000  0.99461000  1
  C  C88  1  0.38295500  0.38429400  0.01356300  1
  C  C89  1  0.38049700  0.37811400  0.50435600  1
  C  C90  1  0.38262900  0.88476000  0.01320600  1
  C  C91  1  0.38267400  0.88056300  0.50726200  1
  C  C92  1  0.88438600  0.38140800  0.01050500  1
  C  C93  1  0.88103700  0.37817500  0.50610600  1
  C  C94  1  0.88666800  0.88376900  0.01478400  1
  C  C95  1  0.88224200  0.88008400  0.50757600  1
  C  C96  1  0.08904900  0.09859400  0.13909500  1
  C  C97  1  0.08377400  0.09491400  0.64109600  1
  C  C98  1  0.08549300  0.60357500  0.14098800  1
  C  C99  1  0.07485100  0.58499900  0.63499500  1
  C  C100  1  0.58910100  0.09604200  0.13942000  1
  C  C101  1  0.58232600  0.09664700  0.64032400  1
  C  C102  1  0.58587400  0.59645300  0.14013900  1
  C  C103  1  0.57347500  0.58635000  0.63466300  1
  C  C104  1  0.44230900  0.40641400  0.35802600  1
  C  C105  1  0.44174800  0.41387000  0.86697100  1
  C  C106  1  0.43805700  0.90717900  0.35738700  1
  C  C107  1  0.43877100  0.91311600  0.86573400  1
  C  C108  1  0.94091800  0.40363900  0.35935200  1
  C  C109  1  0.94565700  0.40592200  0.86167500  1
  C  C110  1  0.94157200  0.90662100  0.35802000  1
  C  C111  1  0.94225600  0.90283800  0.86094000  1
  C  C112  1  0.33188600  0.28360300  0.14109000  1
  C  C113  1  0.32659300  0.29850300  0.63428000  1
  C  C114  1  0.33434000  0.78327100  0.14102800  1
  C  C115  1  0.32411700  0.79927000  0.63589300  1
  C  C116  1  0.83191200  0.28647300  0.14077500  1
  C  C117  1  0.83381600  0.29543400  0.63974700  1
  C  C118  1  0.83638000  0.79237300  0.14044300  1
  C  C119  1  0.83129800  0.79398100  0.63996600  1
  C  C120  1  0.18866700  0.19915700  0.35583600  1
  C  C121  1  0.19330300  0.20514100  0.86017800  1
  C  C122  1  0.19132000  0.70618400  0.35984700  1
  C  C123  1  0.19010700  0.70163800  0.86698400  1
  C  C124  1  0.68654300  0.20328700  0.35795500  1
  C  C125  1  0.69357600  0.20685700  0.86060700  1
  C  C126  1  0.68689800  0.70468200  0.35897400  1
  C  C127  1  0.69135500  0.70376800  0.86683400  1
  C  C128  1  0.42659600  0.05697600  0.23993600  1
  C  C129  1  0.44143900  0.05473000  0.75086100  1
  C  C130  1  0.42746500  0.55820000  0.24058900  1
  C  C131  1  0.44033100  0.56610000  0.75107600  1
  C  C132  1  0.92686500  0.06209300  0.24106200  1
  C  C133  1  0.93659200  0.05971500  0.75087400  1
  C  C134  1  0.93749300  0.55652600  0.24858300  1
  C  C135  1  0.93439700  0.56513600  0.75092400  1
  C  C136  1  0.18605900  0.44129800  0.24922200  1
  C  C137  1  0.19107500  0.44458100  0.75069800  1
  C  C138  1  0.17518100  0.92979800  0.24098700  1
  C  C139  1  0.18264300  0.93389300  0.75086100  1
  C  C140  1  0.68618200  0.44116800  0.24981000  1
  C  C141  1  0.69257300  0.44399400  0.75065700  1
  C  C142  1  0.68518800  0.94007700  0.24962600  1
  C  C143  1  0.68681900  0.93763100  0.75056700  1
