# generated using pymatgen
data_CuNi2C11
_symmetry_space_group_name_H-M   'P 1'
_cell_length_a   4.11503900
_cell_length_b   4.11513300
_cell_length_c   12.54379400
_cell_angle_alpha   90.00005525
_cell_angle_beta   89.99998151
_cell_angle_gamma   89.99997215
_symmetry_Int_Tables_number   1
_chemical_formula_structural   CuNi2C11
_chemical_formula_sum   'Cu1 Ni2 C11'
_cell_volume   212.41576447
_cell_formula_units_Z   1
loop_
 _symmetry_equiv_pos_site_id
 _symmetry_equiv_pos_as_xyz
  1  'x, y, z'
loop_
 _atom_site_type_symbol
 _atom_site_label
 _atom_site_symmetry_multiplicity
 _atom_site_fract_x
 _atom_site_fract_y
 _atom_site_fract_z
 _atom_site_occupancy
  Ni  Ni0  1  0.50000000  0.49999900  0.15743100  1
  Ni  Ni1  1  0.50000000  0.50000000  0.84247700  1
  Cu  Cu2  1  0.50000000  0.50000000  0.50007000  1
  C  C3  1  0.00000000  0.00000000  0.35552400  1
  C  C4  1  0.99999900  0.00000000  0.00005100  1
  C  C5  1  0.00000000  0.00000100  0.64444000  1
  C  C6  1  0.00000000  0.50000000  0.39155700  1
  C  C7  1  0.50000000  0.99999900  0.39155800  1
  C  C8  1  0.50000000  0.00000000  0.99995800  1
  C  C9  1  0.00000000  0.00000000  0.16646000  1
  C  C10  1  0.00000000  0.50000000  0.60847200  1
  C  C11  1  0.50000000  0.00000000  0.60846800  1
  C  C12  1  0.00000000  0.99999900  0.83357400  1
  C  C13  1  0.00000000  0.50000000  0.99995800  1
