# generated using pymatgen
data_Cu2NiC
_symmetry_space_group_name_H-M   'P 1'
_cell_length_a   8.58212800
_cell_length_b   8.81277600
_cell_length_c   13.73342200
_cell_angle_alpha   90.00000000
_cell_angle_beta   90.00000000
_cell_angle_gamma   90.00000000
_symmetry_Int_Tables_number   1
_chemical_formula_structural   Cu2NiC
_chemical_formula_sum   'Cu16 Ni8 C8'
_cell_volume   1038.69127697
_cell_formula_units_Z   8
loop_
 _symmetry_equiv_pos_site_id
 _symmetry_equiv_pos_as_xyz
  1  'x, y, z'
loop_
 _atom_site_type_symbol
 _atom_site_label
 _atom_site_symmetry_multiplicity
 _atom_site_fract_x
 _atom_site_fract_y
 _atom_site_fract_z
 _atom_site_occupancy
  C  C0  1  0.50000000  0.28737700  0.50000000  1
  C  C1  1  0.00000000  0.71262300  0.00000000  1
  C  C2  1  0.50000000  0.71262300  0.50000000  1
  C  C3  1  0.00000000  0.28737700  0.00000000  1
  Ni  Ni4  1  0.03975400  0.50000000  0.33698500  1
  Ni  Ni5  1  0.96024600  0.50000000  0.66301500  1
  Ni  Ni6  1  0.46024600  0.50000000  0.83698500  1
  Ni  Ni7  1  0.53975400  0.50000000  0.16301500  1
  Ni  Ni8  1  0.20233600  0.00000000  0.26280100  1
  Ni  Ni9  1  0.79766400  0.00000000  0.73719900  1
  Ni  Ni10  1  0.29766400  0.00000000  0.76280100  1
  Ni  Ni11  1  0.70233600  0.00000000  0.23719900  1
  Cu  Cu12  1  0.30955800  0.15961600  0.28222800  1
  Cu  Cu13  1  0.69044200  0.15961600  0.71777200  1
  Cu  Cu14  1  0.19044200  0.84038400  0.78222800  1
  Cu  Cu15  1  0.80955800  0.84038400  0.21777200  1
  Cu  Cu16  1  0.69044200  0.84038400  0.71777200  1
  Cu  Cu17  1  0.30955800  0.84038400  0.28222800  1
  Cu  Cu18  1  0.80955800  0.15961600  0.21777200  1
  Cu  Cu19  1  0.19044200  0.15961600  0.78222800  1
  Cu  Cu20  1  0.12393500  0.50000000  0.60776100  1
  Cu  Cu21  1  0.87606500  0.50000000  0.39223900  1
  Cu  Cu22  1  0.37606500  0.50000000  0.10776100  1
  Cu  Cu23  1  0.62393500  0.50000000  0.89223900  1
  Cu  Cu24  1  0.34404900  0.00000000  0.02934200  1
  Cu  Cu25  1  0.65595100  0.00000000  0.97065800  1
  Cu  Cu26  1  0.15595100  0.00000000  0.52934200  1
  Cu  Cu27  1  0.84404900  0.00000000  0.47065800  1
  C  C28  1  0.00000000  0.13131700  0.50000000  1
  C  C29  1  0.50000000  0.86868300  0.00000000  1
  C  C30  1  0.00000000  0.86868300  0.50000000  1
  C  C31  1  0.50000000  0.13131700  0.00000000  1
