# generated using pymatgen
data_CuNi2C3
_symmetry_space_group_name_H-M   'P 1'
_cell_length_a   7.60617087
_cell_length_b   7.60617087
_cell_length_c   7.60617087
_cell_angle_alpha   60.00000000
_cell_angle_beta   60.00000000
_cell_angle_gamma   60.00000000
_symmetry_Int_Tables_number   1
_chemical_formula_structural   CuNi2C3
_chemical_formula_sum   'Cu4 Ni8 C12'
_cell_volume   311.15962133
_cell_formula_units_Z   4
loop_
 _symmetry_equiv_pos_site_id
 _symmetry_equiv_pos_as_xyz
  1  'x, y, z'
loop_
 _atom_site_type_symbol
 _atom_site_label
 _atom_site_symmetry_multiplicity
 _atom_site_fract_x
 _atom_site_fract_y
 _atom_site_fract_z
 _atom_site_occupancy
  Ni  Ni0  1  0.91413700  0.91413700  0.25758800  1
  Ni  Ni1  1  0.33586300  0.33586300  0.33586300  1
  Ni  Ni2  1  0.25758800  0.91413700  0.91413700  1
  Ni  Ni3  1  0.33586300  0.99241200  0.33586300  1
  Ni  Ni4  1  0.99241200  0.33586300  0.33586300  1
  Ni  Ni5  1  0.33586300  0.33586300  0.99241200  1
  Ni  Ni6  1  0.91413700  0.91413700  0.91413700  1
  Ni  Ni7  1  0.91413700  0.25758800  0.91413700  1
  C  C8  1  0.69175900  0.69175900  0.30824100  1
  C  C9  1  0.30824100  0.69175900  0.30824100  1
  C  C10  1  0.55824100  0.94175900  0.55824100  1
  C  C11  1  0.55824100  0.94175900  0.94175900  1
  C  C12  1  0.94175900  0.55824100  0.55824100  1
  C  C13  1  0.94175900  0.55824100  0.94175900  1
  C  C14  1  0.30824100  0.30824100  0.69175900  1
  C  C15  1  0.55824100  0.55824100  0.94175900  1
  C  C16  1  0.30824100  0.69175900  0.69175900  1
  C  C17  1  0.69175900  0.30824100  0.30824100  1
  C  C18  1  0.94175900  0.94175900  0.55824100  1
  C  C19  1  0.69175900  0.30824100  0.69175900  1
  Cu  Cu20  1  0.12500000  0.12500000  0.12500000  1
  Cu  Cu21  1  0.12500000  0.12500000  0.62500000  1
  Cu  Cu22  1  0.62500000  0.12500000  0.12500000  1
  Cu  Cu23  1  0.12500000  0.62500000  0.12500000  1
