# generated using pymatgen
data_Cu3Ni3C22
_symmetry_space_group_name_H-M   'P 1'
_cell_length_a   6.32497415
_cell_length_b   6.15658864
_cell_length_c   10.55276160
_cell_angle_alpha   89.66085867
_cell_angle_beta   90.25811154
_cell_angle_gamma   118.49914547
_symmetry_Int_Tables_number   1
_chemical_formula_structural   Cu3Ni3C22
_chemical_formula_sum   'Cu3 Ni3 C22'
_cell_volume   361.12590098
_cell_formula_units_Z   1
loop_
 _symmetry_equiv_pos_site_id
 _symmetry_equiv_pos_as_xyz
  1  'x, y, z'
loop_
 _atom_site_type_symbol
 _atom_site_label
 _atom_site_symmetry_multiplicity
 _atom_site_fract_x
 _atom_site_fract_y
 _atom_site_fract_z
 _atom_site_occupancy
  C  C0  1  0.33732300  0.67411600  0.88911600  1
  C  C1  1  0.98864400  0.98973100  0.00307200  1
  C  C2  1  0.99970700  0.99643100  0.48641700  1
  C  C3  1  0.69385900  0.35114600  0.39378200  1
  Ni  Ni4  1  0.16721300  0.83126700  0.21692700  1
  Ni  Ni5  1  0.16195300  0.33570700  0.21686300  1
  Ni  Ni6  1  0.32832700  0.16634000  0.70557900  1
  Cu  Cu7  1  0.64821400  0.81950400  0.23310500  1
  Cu  Cu8  1  0.82142400  0.65894400  0.71845200  1
  Cu  Cu9  1  0.82167100  0.16144200  0.71691600  1
  C  C10  1  0.28859200  0.64722300  0.49788500  1
  C  C11  1  0.64548200  0.31606300  0.02393500  1
  C  C12  1  0.12954100  0.82414300  0.59600700  1
  C  C13  1  0.05331600  0.54640700  0.34547300  1
  C  C14  1  0.34756400  0.69766900  0.11924100  1
  C  C15  1  0.99293800  0.97453200  0.30547300  1
  C  C16  1  0.98847000  0.99319000  0.81710000  1
  C  C17  1  0.12388800  0.30543700  0.59114600  1
  C  C18  1  0.53869100  0.99573800  0.33611600  1
  C  C19  1  0.51415600  0.52441400  0.33039300  1
  C  C20  1  0.30775200  0.13673500  0.10829800  1
  C  C21  1  0.72441700  0.86454900  0.60716300  1
  C  C22  1  0.52840800  0.52101800  0.80777100  1
  C  C23  1  0.52981100  0.01361800  0.80843600  1
  C  C24  1  0.69674200  0.35219800  0.60668900  1
  C  C25  1  0.81649300  0.66421800  0.10513900  1
  C  C26  1  0.98039400  0.48769300  0.81590700  1
  C  C27  1  0.82500700  0.15082400  0.10543600  1
