# generated using pymatgen
data_Cu2NiC22
_symmetry_space_group_name_H-M   'P 1'
_cell_length_a   5.23655210
_cell_length_b   6.60460464
_cell_length_c   6.60460296
_cell_angle_alpha   115.55160350
_cell_angle_beta   90.00000000
_cell_angle_gamma   90.00000000
_symmetry_Int_Tables_number   1
_chemical_formula_structural   Cu2NiC22
_chemical_formula_sum   'Cu2 Ni1 C22'
_cell_volume   206.08217703
_cell_formula_units_Z   1
loop_
 _symmetry_equiv_pos_site_id
 _symmetry_equiv_pos_as_xyz
  1  'x, y, z'
loop_
 _atom_site_type_symbol
 _atom_site_label
 _atom_site_symmetry_multiplicity
 _atom_site_fract_x
 _atom_site_fract_y
 _atom_site_fract_z
 _atom_site_occupancy
  Ni  Ni0  1  0.25000000  0.52153011  0.52153011  1
  Cu  Cu1  1  0.75000000  0.75769938  0.75769938  1
  Cu  Cu2  1  0.25000000  0.17759555  0.17759555  1
  C  C3  1  0.75000000  0.34594257  0.11386710  1
  C  C4  1  0.25000000  0.92155621  0.66830047  1
  C  C5  1  0.99200973  0.71697997  0.28572875  1
  C  C6  1  0.99200973  0.28572875  0.71697997  1
  C  C7  1  0.50799027  0.28572875  0.71697997  1
  C  C8  1  0.75000000  0.11386710  0.34594257  1
  C  C9  1  0.25000000  0.66830047  0.92155621  1
  C  C10  1  0.50799027  0.71697997  0.28572875  1
  C  C11  1  0.25000000  0.86857983  0.86857983  1
  C  C12  1  0.75000000  0.13757082  0.13757082  1
  C  C13  1  0.75000000  0.24272363  0.82147509  1
  C  C14  1  0.25000000  0.17804834  0.76386537  1
  C  C15  1  0.52244517  0.18977836  0.47462349  1
  C  C16  1  0.47061021  0.53063629  0.80850090  1
  C  C17  1  0.97755483  0.18977836  0.47462349  1
  C  C18  1  0.75000000  0.82147509  0.24272363  1
  C  C19  1  0.52244517  0.47462349  0.18977836  1
  C  C20  1  0.47061021  0.80850090  0.53063629  1
  C  C21  1  0.97755483  0.47462349  0.18977836  1
  C  C22  1  0.25000000  0.76386537  0.17804834  1
  C  C23  1  0.02938979  0.53063629  0.80850090  1
  C  C24  1  0.02938979  0.80850090  0.53063629  1
