# generated using pymatgen
data_Cu(NiC6)2
_symmetry_space_group_name_H-M   'P 1'
_cell_length_a   5.85282290
_cell_length_b   5.85282290
_cell_length_c   7.29113000
_cell_angle_alpha   90.00000000
_cell_angle_beta   90.00000000
_cell_angle_gamma   119.99998759
_symmetry_Int_Tables_number   1
_chemical_formula_structural   Cu(NiC6)2
_chemical_formula_sum   'Cu1 Ni2 C12'
_cell_volume   216.29988777
_cell_formula_units_Z   1
loop_
 _symmetry_equiv_pos_site_id
 _symmetry_equiv_pos_as_xyz
  1  'x, y, z'
loop_
 _atom_site_type_symbol
 _atom_site_label
 _atom_site_symmetry_multiplicity
 _atom_site_fract_x
 _atom_site_fract_y
 _atom_site_fract_z
 _atom_site_occupancy
  Ni  Ni0  1  0.66666700  0.33333300  0.67965600  1
  Ni  Ni1  1  0.00000000  0.00000000  0.02409200  1
  Cu  Cu2  1  0.33333300  0.66666700  0.35505400  1
  C  C3  1  0.33333300  0.66666700  0.90658400  1
  C  C4  1  0.66666700  0.33333300  0.22444100  1
  C  C5  1  0.00000000  0.00000000  0.55773100  1
  C  C6  1  0.49960700  0.99921400  0.47697900  1
  C  C7  1  0.84069300  0.68138700  0.81839800  1
  C  C8  1  0.17718800  0.35437700  0.16058000  1
  C  C9  1  0.49960700  0.50039300  0.47697900  1
  C  C10  1  0.84069300  0.15930700  0.81839800  1
  C  C11  1  0.17718800  0.82281200  0.16058000  1
  C  C12  1  0.00078600  0.50039300  0.47697900  1
  C  C13  1  0.31861300  0.15930700  0.81839800  1
  C  C14  1  0.64562300  0.82281200  0.16058000  1
