# generated using pymatgen
data_Cu2NiC
_symmetry_space_group_name_H-M   'P 1'
_cell_length_a   5.62162100
_cell_length_b   6.87625300
_cell_length_c   7.69892400
_cell_angle_alpha   90.00000000
_cell_angle_beta   90.00000000
_cell_angle_gamma   90.00000000
_symmetry_Int_Tables_number   1
_chemical_formula_structural   Cu2NiC
_chemical_formula_sum   'Cu8 Ni4 C4'
_cell_volume   297.60720613
_cell_formula_units_Z   4
loop_
 _symmetry_equiv_pos_site_id
 _symmetry_equiv_pos_as_xyz
  1  'x, y, z'
loop_
 _atom_site_type_symbol
 _atom_site_label
 _atom_site_symmetry_multiplicity
 _atom_site_fract_x
 _atom_site_fract_y
 _atom_site_fract_z
 _atom_site_occupancy
  C  C0  1  0.85347100  0.25000000  0.53336400  1
  C  C1  1  0.64652900  0.25000000  0.03336400  1
  C  C2  1  0.14652900  0.75000000  0.46663600  1
  C  C3  1  0.35347100  0.75000000  0.96663600  1
  Ni  Ni4  1  0.15384500  0.25000000  0.87793400  1
  Ni  Ni5  1  0.34615500  0.25000000  0.37793400  1
  Ni  Ni6  1  0.84615500  0.75000000  0.12206600  1
  Ni  Ni7  1  0.65384500  0.75000000  0.62206600  1
  Cu  Cu8  1  0.40625400  0.05000700  0.67549100  1
  Cu  Cu9  1  0.09374600  0.44999300  0.17549100  1
  Cu  Cu10  1  0.59374600  0.55000700  0.32450900  1
  Cu  Cu11  1  0.90625400  0.94999300  0.82450900  1
  Cu  Cu12  1  0.59374600  0.94999300  0.32450900  1
  Cu  Cu13  1  0.90625400  0.55000700  0.82450900  1
  Cu  Cu14  1  0.40625400  0.44999300  0.67549100  1
  Cu  Cu15  1  0.09374600  0.05000700  0.17549100  1
