# generated using pymatgen
data_CuNi2C5
_symmetry_space_group_name_H-M   'P 1'
_cell_length_a   15.96468623
_cell_length_b   12.78619703
_cell_length_c   9.71336660
_cell_angle_alpha   89.31603496
_cell_angle_beta   53.21115072
_cell_angle_gamma   37.47281433
_symmetry_Int_Tables_number   1
_chemical_formula_structural   CuNi2C5
_chemical_formula_sum   'Cu4 Ni8 C20'
_cell_volume   298.69630263
_cell_formula_units_Z   4
loop_
 _symmetry_equiv_pos_site_id
 _symmetry_equiv_pos_as_xyz
  1  'x, y, z'
loop_
 _atom_site_type_symbol
 _atom_site_label
 _atom_site_symmetry_multiplicity
 _atom_site_fract_x
 _atom_site_fract_y
 _atom_site_fract_z
 _atom_site_occupancy
  C  C0  1  0.53247800  0.87481300  0.25496900  1
  C  C1  1  0.33774100  0.25496900  0.87481300  1
  C  C2  1  0.37518700  0.71752200  0.91225900  1
  C  C3  1  0.99503100  0.91225900  0.71752200  1
  C  C4  1  0.81887800  0.75873700  0.90763100  1
  C  C5  1  0.51475400  0.90763100  0.75873700  1
  C  C6  1  0.49126300  0.43112200  0.73524600  1
  C  C7  1  0.34236900  0.73524600  0.43112200  1
  C  C8  1  0.92745500  0.66486100  0.98370400  1
  C  C9  1  0.42397900  0.98370400  0.66486100  1
  C  C10  1  0.58513900  0.32254500  0.82602100  1
  C  C11  1  0.26629600  0.82602100  0.32254500  1
  C  C12  1  0.89147400  0.80977400  0.91082500  1
  C  C13  1  0.38792600  0.91082500  0.80977400  1
  C  C14  1  0.44022600  0.35852600  0.86207400  1
  C  C15  1  0.33917500  0.86207400  0.35852600  1
  C  C16  1  0.36012800  0.33835600  0.75797300  1
  C  C17  1  0.54354200  0.75797300  0.33835600  1
  C  C18  1  0.91164400  0.88987200  0.70645800  1
  C  C19  1  0.49202700  0.70645800  0.88987200  1
  Ni  Ni20  1  0.57607100  0.80644000  0.31337200  1
  Ni  Ni21  1  0.30411600  0.31337200  0.80644000  1
  Ni  Ni22  1  0.44356000  0.67392900  0.94588400  1
  Ni  Ni23  1  0.93662800  0.94588400  0.67392900  1
  Ni  Ni24  1  0.83930600  0.78283000  0.97365100  1
  Ni  Ni25  1  0.40421200  0.97365100  0.78283000  1
  Ni  Ni26  1  0.46717000  0.41069400  0.84578800  1
  Ni  Ni27  1  0.27634900  0.84578800  0.41069400  1
  Cu  Cu28  1  0.64900600  0.21521900  0.31346700  1
  Cu  Cu29  1  0.82230700  0.31346700  0.21521900  1
  Cu  Cu30  1  0.03478100  0.60099400  0.42769300  1
  Cu  Cu31  1  0.93653300  0.42769300  0.60099400  1
