# generated using pymatgen
data_Cu4Ni8C3
_symmetry_space_group_name_H-M   'P 1'
_cell_length_a   9.01542245
_cell_length_b   9.01542245
_cell_length_c   7.59124200
_cell_angle_alpha   90.00000000
_cell_angle_beta   90.00000000
_cell_angle_gamma   120.00000332
_symmetry_Int_Tables_number   1
_chemical_formula_structural   Cu4Ni8C3
_chemical_formula_sum   'Cu8 Ni16 C6'
_cell_volume   534.33745517
_cell_formula_units_Z   2
loop_
 _symmetry_equiv_pos_site_id
 _symmetry_equiv_pos_as_xyz
  1  'x, y, z'
loop_
 _atom_site_type_symbol
 _atom_site_label
 _atom_site_symmetry_multiplicity
 _atom_site_fract_x
 _atom_site_fract_y
 _atom_site_fract_z
 _atom_site_occupancy
  C  C0  1  0.47258500  0.94517000  0.77777400  1
  C  C1  1  0.47258500  0.52741500  0.77777400  1
  C  C2  1  0.52741500  0.05483000  0.27777400  1
  C  C3  1  0.05483000  0.52741500  0.77777400  1
  C  C4  1  0.52741500  0.47258500  0.27777400  1
  C  C5  1  0.94517000  0.47258500  0.27777400  1
  Ni  Ni6  1  0.09504000  0.19008000  0.75318300  1
  Ni  Ni7  1  0.09504000  0.90496000  0.75318300  1
  Ni  Ni8  1  0.90496000  0.80992000  0.25318300  1
  Ni  Ni9  1  0.80992000  0.90496000  0.75318300  1
  Ni  Ni10  1  0.90496000  0.09504000  0.25318300  1
  Ni  Ni11  1  0.19008000  0.09504000  0.25318300  1
  Ni  Ni12  1  0.84402900  0.68805900  0.94433600  1
  Ni  Ni13  1  0.84402900  0.15597100  0.94433600  1
  Ni  Ni14  1  0.15597100  0.31194100  0.44433600  1
  Ni  Ni15  1  0.31194100  0.15597100  0.94433600  1
  Ni  Ni16  1  0.15597100  0.84402900  0.44433600  1
  Ni  Ni17  1  0.68805900  0.84402900  0.44433600  1
  Ni  Ni18  1  0.00000000  0.00000000  0.99721900  1
  Ni  Ni19  1  0.00000000  0.00000000  0.49721900  1
  Ni  Ni20  1  0.66666700  0.33333300  0.58248500  1
  Ni  Ni21  1  0.33333300  0.66666700  0.08248500  1
  Cu  Cu22  1  0.66666700  0.33333300  0.94563900  1
  Cu  Cu23  1  0.33333300  0.66666700  0.44563900  1
  Cu  Cu24  1  0.83044400  0.66088900  0.57142600  1
  Cu  Cu25  1  0.83044400  0.16955600  0.57142600  1
  Cu  Cu26  1  0.16955600  0.33911100  0.07142600  1
  Cu  Cu27  1  0.33911100  0.16955600  0.57142600  1
  Cu  Cu28  1  0.16955600  0.83044400  0.07142600  1
  Cu  Cu29  1  0.66088900  0.83044400  0.07142600  1
