# generated using pymatgen
data_Cu7(NiC)4
_symmetry_space_group_name_H-M   'P 1'
_cell_length_a   9.21484398
_cell_length_b   9.21484398
_cell_length_c   9.21484398
_cell_angle_alpha   94.18671745
_cell_angle_beta   94.18671745
_cell_angle_gamma   148.64789376
_symmetry_Int_Tables_number   1
_chemical_formula_structural   Cu7(NiC)4
_chemical_formula_sum   'Cu14 Ni8 C8'
_cell_volume   391.96983430
_cell_formula_units_Z   2
loop_
 _symmetry_equiv_pos_site_id
 _symmetry_equiv_pos_as_xyz
  1  'x, y, z'
loop_
 _atom_site_type_symbol
 _atom_site_label
 _atom_site_symmetry_multiplicity
 _atom_site_fract_x
 _atom_site_fract_y
 _atom_site_fract_z
 _atom_site_occupancy
  C  C0  1  0.13373300  0.13373300  0.26746600  1
  C  C1  1  0.86626700  0.86626700  0.73253400  1
  C  C2  1  0.86626700  0.13373300  0.00000000  1
  C  C3  1  0.13373300  0.86626700  0.00000000  1
  C  C4  1  0.50000000  0.31013500  0.81013500  1
  C  C5  1  0.50000000  0.68986500  0.18986500  1
  C  C6  1  0.68986500  0.50000000  0.18986500  1
  C  C7  1  0.31013500  0.50000000  0.81013500  1
  Ni  Ni8  1  0.39864200  0.89864200  0.79728400  1
  Ni  Ni9  1  0.10135800  0.60135800  0.20271600  1
  Ni  Ni10  1  0.10135800  0.89864200  0.50000000  1
  Ni  Ni11  1  0.39864200  0.60135800  0.50000000  1
  Ni  Ni12  1  0.60135800  0.39864200  0.50000000  1
  Ni  Ni13  1  0.89864200  0.10135800  0.50000000  1
  Ni  Ni14  1  0.89864200  0.39864200  0.79728400  1
  Ni  Ni15  1  0.60135800  0.10135800  0.20271600  1
  Cu  Cu16  1  0.50000000  0.09455000  0.59455000  1
  Cu  Cu17  1  0.50000000  0.90545000  0.40545000  1
  Cu  Cu18  1  0.90545000  0.50000000  0.40545000  1
  Cu  Cu19  1  0.09455000  0.50000000  0.59455000  1
  Cu  Cu20  1  0.75115700  0.75115700  0.00000000  1
  Cu  Cu21  1  0.24884300  0.24884300  0.00000000  1
  Cu  Cu22  1  0.29109400  0.29109400  0.58218800  1
  Cu  Cu23  1  0.70890600  0.70890600  0.41781200  1
  Cu  Cu24  1  0.70890600  0.29109400  0.00000000  1
  Cu  Cu25  1  0.29109400  0.70890600  0.00000000  1
  Cu  Cu26  1  0.00000000  0.29648300  0.29648300  1
  Cu  Cu27  1  0.00000000  0.70351700  0.70351700  1
  Cu  Cu28  1  0.70351700  0.00000000  0.70351700  1
  Cu  Cu29  1  0.29648300  0.00000000  0.29648300  1
