# generated using pymatgen
data_CuNiC
_symmetry_space_group_name_H-M   'P 1'
_cell_length_a   4.24290654
_cell_length_b   4.24290654
_cell_length_c   15.79467000
_cell_angle_alpha   90.00000000
_cell_angle_beta   90.00000000
_cell_angle_gamma   120.00000835
_symmetry_Int_Tables_number   1
_chemical_formula_structural   CuNiC
_chemical_formula_sum   'Cu4 Ni4 C4'
_cell_volume   246.24537472
_cell_formula_units_Z   4
loop_
 _symmetry_equiv_pos_site_id
 _symmetry_equiv_pos_as_xyz
  1  'x, y, z'
loop_
 _atom_site_type_symbol
 _atom_site_label
 _atom_site_symmetry_multiplicity
 _atom_site_fract_x
 _atom_site_fract_y
 _atom_site_fract_z
 _atom_site_occupancy
  C  C0  1  0.00000000  0.00000000  0.75000000  1
  C  C1  1  0.00000000  0.00000000  0.25000000  1
  C  C2  1  0.00000000  0.00000000  0.50000000  1
  C  C3  1  0.00000000  0.00000000  0.00000000  1
  Ni  Ni4  1  0.66666700  0.33333300  0.85265900  1
  Ni  Ni5  1  0.66666700  0.33333300  0.64734100  1
  Ni  Ni6  1  0.33333300  0.66666700  0.14734100  1
  Ni  Ni7  1  0.33333300  0.66666700  0.35265900  1
  Cu  Cu8  1  0.66666700  0.33333300  0.11364500  1
  Cu  Cu9  1  0.66666700  0.33333300  0.38635500  1
  Cu  Cu10  1  0.33333300  0.66666700  0.88635500  1
  Cu  Cu11  1  0.33333300  0.66666700  0.61364500  1
