# generated using pymatgen
data_CuNiC6
_symmetry_space_group_name_H-M   'P 1'
_cell_length_a   4.89890100
_cell_length_b   6.16462200
_cell_length_c   10.51637700
_cell_angle_alpha   90.00000000
_cell_angle_beta   90.00000000
_cell_angle_gamma   90.00000000
_symmetry_Int_Tables_number   1
_chemical_formula_structural   CuNiC6
_chemical_formula_sum   'Cu2 Ni2 C12'
_cell_volume   317.59324856
_cell_formula_units_Z   2
loop_
 _symmetry_equiv_pos_site_id
 _symmetry_equiv_pos_as_xyz
  1  'x, y, z'
loop_
 _atom_site_type_symbol
 _atom_site_label
 _atom_site_symmetry_multiplicity
 _atom_site_fract_x
 _atom_site_fract_y
 _atom_site_fract_z
 _atom_site_occupancy
  C  C0  1  0.00000000  0.25891000  0.09187300  1
  C  C1  1  0.00000000  0.74109000  0.09187300  1
  C  C2  1  0.00000000  0.50000000  0.83638500  1
  C  C3  1  0.50000000  0.23926100  0.91308100  1
  C  C4  1  0.50000000  0.76073900  0.91308100  1
  C  C5  1  0.50000000  0.50000000  0.66437400  1
  C  C6  1  0.00000000  0.75891000  0.59187300  1
  C  C7  1  0.00000000  0.24109000  0.59187300  1
  C  C8  1  0.00000000  0.00000000  0.33638500  1
  C  C9  1  0.50000000  0.73926100  0.41308100  1
  C  C10  1  0.50000000  0.26073900  0.41308100  1
  C  C11  1  0.50000000  0.00000000  0.16437400  1
  Ni  Ni12  1  0.50000000  0.50000000  0.16725300  1
  Ni  Ni13  1  0.50000000  0.00000000  0.66725300  1
  Cu  Cu14  1  0.00000000  0.50000000  0.32207900  1
  Cu  Cu15  1  0.00000000  0.00000000  0.82207900  1
