# generated using pymatgen
data_Cu2Ni10C
_symmetry_space_group_name_H-M   'P 1'
_cell_length_a   4.66477200
_cell_length_b   6.42954650
_cell_length_c   6.42954650
_cell_angle_alpha   97.44023877
_cell_angle_beta   111.26982962
_cell_angle_gamma   68.73017038
_symmetry_Int_Tables_number   1
_chemical_formula_structural   Cu2Ni10C
_chemical_formula_sum   'Cu2 Ni10 C1'
_cell_volume   167.46036296
_cell_formula_units_Z   1
loop_
 _symmetry_equiv_pos_site_id
 _symmetry_equiv_pos_as_xyz
  1  'x, y, z'
loop_
 _atom_site_type_symbol
 _atom_site_label
 _atom_site_symmetry_multiplicity
 _atom_site_fract_x
 _atom_site_fract_y
 _atom_site_fract_z
 _atom_site_occupancy
  C  C0  1  0.00000000  0.00000000  0.00000000  1
  Ni  Ni1  1  0.70994400  0.79005600  0.20994400  1
  Ni  Ni2  1  0.29005600  0.20994400  0.79005600  1
  Ni  Ni3  1  0.50000000  0.78000200  0.78000200  1
  Ni  Ni4  1  0.50000000  0.21999800  0.21999800  1
  Ni  Ni5  1  0.50000000  0.00000000  0.50000000  1
  Ni  Ni6  1  0.00000000  0.00000000  0.50000000  1
  Ni  Ni7  1  0.50000000  0.50000000  0.00000000  1
  Ni  Ni8  1  0.00000000  0.50000000  0.00000000  1
  Ni  Ni9  1  0.63991600  0.36008400  0.63991600  1
  Ni  Ni10  1  0.36008400  0.63991600  0.36008400  1
  Cu  Cu11  1  0.00000000  0.35900400  0.35900400  1
  Cu  Cu12  1  0.00000000  0.64099600  0.64099600  1
