# generated using pymatgen
data_Cu2Ni2C3
_symmetry_space_group_name_H-M   'P 1'
_cell_length_a   8.96070149
_cell_length_b   8.96070149
_cell_length_c   8.96070149
_cell_angle_alpha   140.90569472
_cell_angle_beta   140.90569472
_cell_angle_gamma   56.48067752
_symmetry_Int_Tables_number   1
_chemical_formula_structural   Cu2Ni2C3
_chemical_formula_sum   'Cu4 Ni4 C6'
_cell_volume   283.82711036
_cell_formula_units_Z   2
loop_
 _symmetry_equiv_pos_site_id
 _symmetry_equiv_pos_as_xyz
  1  'x, y, z'
loop_
 _atom_site_type_symbol
 _atom_site_label
 _atom_site_symmetry_multiplicity
 _atom_site_fract_x
 _atom_site_fract_y
 _atom_site_fract_z
 _atom_site_occupancy
  C  C0  1  0.11952800  0.61952800  0.50000000  1
  C  C1  1  0.88047200  0.38047200  0.50000000  1
  C  C2  1  0.61952800  0.11952800  0.50000000  1
  C  C3  1  0.38047200  0.88047200  0.50000000  1
  C  C4  1  0.50000000  0.50000000  0.00000000  1
  C  C5  1  0.00000000  0.00000000  0.00000000  1
  Ni  Ni6  1  0.29469000  0.29469000  0.00000000  1
  Ni  Ni7  1  0.70531000  0.70531000  0.00000000  1
  Ni  Ni8  1  0.21424400  0.21424400  0.00000000  1
  Ni  Ni9  1  0.78575600  0.78575600  0.00000000  1
  Cu  Cu10  1  0.75042100  0.75042100  0.50084200  1
  Cu  Cu11  1  0.24957900  0.75042100  0.00000000  1
  Cu  Cu12  1  0.75042100  0.24957900  0.00000000  1
  Cu  Cu13  1  0.24957900  0.24957900  0.49915800  1
