# generated using pymatgen
data_Cu5Ni2C25
_symmetry_space_group_name_H-M   'P 1'
_cell_length_a   10.58162425
_cell_length_b   10.58162425
_cell_length_c   10.12880174
_cell_angle_alpha   66.96858131
_cell_angle_beta   66.96858131
_cell_angle_gamma   15.78012895
_symmetry_Int_Tables_number   1
_chemical_formula_structural   Cu5Ni2C25
_chemical_formula_sum   'Cu5 Ni2 C25'
_cell_volume   283.34537476
_cell_formula_units_Z   1
loop_
 _symmetry_equiv_pos_site_id
 _symmetry_equiv_pos_as_xyz
  1  'x, y, z'
loop_
 _atom_site_type_symbol
 _atom_site_label
 _atom_site_symmetry_multiplicity
 _atom_site_fract_x
 _atom_site_fract_y
 _atom_site_fract_z
 _atom_site_occupancy
  C  C0  1  0.62479600  0.62479600  0.56339000  1
  C  C1  1  0.87791200  0.87791200  0.17866700  1
  C  C2  1  0.12208800  0.12208800  0.82133300  1
  C  C3  1  0.12569200  0.12569200  0.31286600  1
  C  C4  1  0.37767300  0.37767300  0.94003900  1
  C  C5  1  0.62232700  0.62232700  0.05996100  1
  C  C6  1  0.87430800  0.87430800  0.68713400  1
  C  C7  1  0.37520400  0.37520400  0.43661000  1
  C  C8  1  0.50000000  0.50000000  0.00000000  1
  Ni  Ni9  1  0.99896200  0.99896200  0.75635800  1
  Ni  Ni10  1  0.00103800  0.00103800  0.24364200  1
  Cu  Cu11  1  0.25034000  0.25034000  0.37466400  1
  Cu  Cu12  1  0.74966000  0.74966000  0.62533600  1
  Cu  Cu13  1  0.24948100  0.24948100  0.87546200  1
  Cu  Cu14  1  0.50000000  0.50000000  0.50000000  1
  Cu  Cu15  1  0.75051900  0.75051900  0.12453800  1
  C  C16  1  0.55619000  0.55619000  0.77394200  1
  C  C17  1  0.80800300  0.80800300  0.40632200  1
  C  C18  1  0.05851000  0.05851000  0.05269700  1
  C  C19  1  0.05322800  0.05322800  0.53623900  1
  C  C20  1  0.30857500  0.30857500  0.15722700  1
  C  C21  1  0.55358000  0.55358000  0.29192900  1
  C  C22  1  0.80708300  0.80708300  0.90538500  1
  C  C23  1  0.30843400  0.30843400  0.65580400  1
  C  C24  1  0.69156600  0.69156600  0.34419600  1
  C  C25  1  0.94149000  0.94149000  0.94730300  1
  C  C26  1  0.19199700  0.19199700  0.59367800  1
  C  C27  1  0.19291700  0.19291700  0.09461500  1
  C  C28  1  0.44642000  0.44642000  0.70807100  1
  C  C29  1  0.69142500  0.69142500  0.84277300  1
  C  C30  1  0.94677200  0.94677200  0.46376100  1
  C  C31  1  0.44381000  0.44381000  0.22605800  1
