# generated using pymatgen
data_Cu4NiC
_symmetry_space_group_name_H-M   'P 1'
_cell_length_a   5.03543300
_cell_length_b   13.99417800
_cell_length_c   8.18551300
_cell_angle_alpha   90.00000000
_cell_angle_beta   90.00000000
_cell_angle_gamma   90.00000000
_symmetry_Int_Tables_number   1
_chemical_formula_structural   Cu4NiC
_chemical_formula_sum   'Cu32 Ni8 C8'
_cell_volume   576.80646307
_cell_formula_units_Z   8
loop_
 _symmetry_equiv_pos_site_id
 _symmetry_equiv_pos_as_xyz
  1  'x, y, z'
loop_
 _atom_site_type_symbol
 _atom_site_label
 _atom_site_symmetry_multiplicity
 _atom_site_fract_x
 _atom_site_fract_y
 _atom_site_fract_z
 _atom_site_occupancy
  C  C0  1  0.75000000  0.58180000  0.92019400  1
  C  C1  1  0.25000000  0.41820000  0.07980600  1
  C  C2  1  0.25000000  0.91820000  0.42019400  1
  C  C3  1  0.75000000  0.08180000  0.57980600  1
  C  C4  1  0.75000000  0.65337400  0.49589100  1
  C  C5  1  0.25000000  0.34662600  0.50410900  1
  C  C6  1  0.25000000  0.84662600  0.99589100  1
  C  C7  1  0.75000000  0.15337400  0.00410900  1
  Ni  Ni8  1  0.75000000  0.83174300  0.75165000  1
  Ni  Ni9  1  0.25000000  0.16825700  0.24835000  1
  Ni  Ni10  1  0.25000000  0.66825700  0.25165000  1
  Ni  Ni11  1  0.75000000  0.33174300  0.74835000  1
  Ni  Ni12  1  0.75000000  0.94286700  0.19194900  1
  Ni  Ni13  1  0.25000000  0.05713300  0.80805100  1
  Ni  Ni14  1  0.25000000  0.55713300  0.69194900  1
  Ni  Ni15  1  0.75000000  0.44286700  0.30805100  1
  Cu  Cu16  1  0.75000000  0.93275800  0.71682400  1
  Cu  Cu17  1  0.25000000  0.06724200  0.28317600  1
  Cu  Cu18  1  0.25000000  0.56724200  0.21682400  1
  Cu  Cu19  1  0.75000000  0.43275800  0.78317600  1
  Cu  Cu20  1  0.75000000  0.96584300  0.36613900  1
  Cu  Cu21  1  0.25000000  0.03415700  0.63386100  1
  Cu  Cu22  1  0.25000000  0.53415700  0.86613900  1
  Cu  Cu23  1  0.75000000  0.46584300  0.13386100  1
  Cu  Cu24  1  0.75000000  0.52809300  0.41372900  1
  Cu  Cu25  1  0.25000000  0.47190700  0.58627100  1
  Cu  Cu26  1  0.25000000  0.97190700  0.91372900  1
  Cu  Cu27  1  0.75000000  0.02809300  0.08627100  1
  Cu  Cu28  1  0.00885100  0.61577800  0.65646600  1
  Cu  Cu29  1  0.99114900  0.38422200  0.34353400  1
  Cu  Cu30  1  0.99114900  0.88422200  0.15646600  1
  Cu  Cu31  1  0.50885100  0.38422200  0.34353400  1
  Cu  Cu32  1  0.00885100  0.11577800  0.84353400  1
  Cu  Cu33  1  0.49114900  0.61577800  0.65646600  1
  Cu  Cu34  1  0.49114900  0.11577800  0.84353400  1
  Cu  Cu35  1  0.50885100  0.88422200  0.15646600  1
  Cu  Cu36  1  0.75000000  0.77740200  0.59421300  1
  Cu  Cu37  1  0.25000000  0.22259800  0.40578700  1
  Cu  Cu38  1  0.25000000  0.72259800  0.09421300  1
  Cu  Cu39  1  0.75000000  0.27740200  0.90578700  1
  Cu  Cu40  1  0.98858400  0.80118600  0.84777900  1
  Cu  Cu41  1  0.01141600  0.19881400  0.15222100  1
  Cu  Cu42  1  0.01141600  0.69881400  0.34777900  1
  Cu  Cu43  1  0.48858400  0.19881400  0.15222100  1
  Cu  Cu44  1  0.98858400  0.30118600  0.65222100  1
  Cu  Cu45  1  0.51141600  0.80118600  0.84777900  1
  Cu  Cu46  1  0.51141600  0.30118600  0.65222100  1
  Cu  Cu47  1  0.48858400  0.69881400  0.34777900  1
