# generated using pymatgen
data_Cu10NiC26
_symmetry_space_group_name_H-M   'P 1'
_cell_length_a   17.87504400
_cell_length_b   17.87504400
_cell_length_c   2.88495700
_cell_angle_alpha   90.00000000
_cell_angle_beta   90.00000000
_cell_angle_gamma   90.00000000
_symmetry_Int_Tables_number   1
_chemical_formula_structural   Cu10NiC26
_chemical_formula_sum   'Cu20 Ni2 C52'
_cell_volume   921.79337700
_cell_formula_units_Z   2
loop_
 _symmetry_equiv_pos_site_id
 _symmetry_equiv_pos_as_xyz
  1  'x, y, z'
loop_
 _atom_site_type_symbol
 _atom_site_label
 _atom_site_symmetry_multiplicity
 _atom_site_fract_x
 _atom_site_fract_y
 _atom_site_fract_z
 _atom_site_occupancy
  Ni  Ni0  1  0.00000000  0.00000000  0.00000000  1
  Ni  Ni1  1  0.50000000  0.50000000  0.00000000  1
  Cu  Cu2  1  0.55024900  0.05024900  0.00000000  1
  Cu  Cu3  1  0.44975100  0.94975100  0.00000000  1
  Cu  Cu4  1  0.05024900  0.44975100  0.00000000  1
  Cu  Cu5  1  0.94975100  0.55024900  0.00000000  1
  Cu  Cu6  1  0.03194800  0.18823600  0.00000000  1
  Cu  Cu7  1  0.96805200  0.81176400  0.00000000  1
  Cu  Cu8  1  0.18823600  0.96805200  0.00000000  1
  Cu  Cu9  1  0.53194800  0.31176400  0.00000000  1
  Cu  Cu10  1  0.81176400  0.03194800  0.00000000  1
  Cu  Cu11  1  0.46805200  0.68823600  0.00000000  1
  Cu  Cu12  1  0.68823600  0.53194800  0.00000000  1
  Cu  Cu13  1  0.31176400  0.46805200  0.00000000  1
  Cu  Cu14  1  0.20915500  0.70915500  0.00000000  1
  Cu  Cu15  1  0.79084500  0.29084500  0.00000000  1
  Cu  Cu16  1  0.70915500  0.79084500  0.00000000  1
  Cu  Cu17  1  0.29084500  0.20915500  0.00000000  1
  Cu  Cu18  1  0.66887500  0.16887500  0.00000000  1
  Cu  Cu19  1  0.33112500  0.83112500  0.00000000  1
  Cu  Cu20  1  0.16887500  0.33112500  0.00000000  1
  Cu  Cu21  1  0.83112500  0.66887500  0.00000000  1
  C  C22  1  0.33414800  0.03886900  0.00000000  1
  C  C23  1  0.66585200  0.96113100  0.00000000  1
  C  C24  1  0.03886900  0.66585200  0.00000000  1
  C  C25  1  0.83414800  0.46113100  0.00000000  1
  C  C26  1  0.96113100  0.33414800  0.00000000  1
  C  C27  1  0.16585200  0.53886900  0.00000000  1
  C  C28  1  0.53886900  0.83414800  0.00000000  1
  C  C29  1  0.46113100  0.16585200  0.00000000  1
  C  C30  1  0.16643000  0.12420000  0.00000000  1
  C  C31  1  0.83357000  0.87580000  0.00000000  1
  C  C32  1  0.12420000  0.83357000  0.00000000  1
  C  C33  1  0.66643000  0.37580000  0.00000000  1
  C  C34  1  0.87580000  0.16643000  0.00000000  1
  C  C35  1  0.33357000  0.62420000  0.00000000  1
  C  C36  1  0.62420000  0.66643000  0.00000000  1
  C  C37  1  0.37580000  0.33357000  0.00000000  1
  C  C38  1  0.25491600  0.08740500  0.50000000  1
  C  C39  1  0.74508400  0.91259500  0.50000000  1
  C  C40  1  0.08740500  0.74508400  0.50000000  1
  C  C41  1  0.75491600  0.41259500  0.50000000  1
  C  C42  1  0.91259500  0.25491600  0.50000000  1
  C  C43  1  0.24508400  0.58740500  0.50000000  1
  C  C44  1  0.58740500  0.75491600  0.50000000  1
  C  C45  1  0.41259500  0.24508400  0.50000000  1
  C  C46  1  0.04777000  0.32559600  0.50000000  1
  C  C47  1  0.95223000  0.67440400  0.50000000  1
  C  C48  1  0.32559600  0.95223000  0.50000000  1
  C  C49  1  0.54777000  0.17440400  0.50000000  1
  C  C50  1  0.67440400  0.04777000  0.50000000  1
  C  C51  1  0.45223000  0.82559600  0.50000000  1
  C  C52  1  0.82559600  0.54777000  0.50000000  1
  C  C53  1  0.17440400  0.45223000  0.50000000  1
  C  C54  1  0.16016000  0.21074100  0.50000000  1
  C  C55  1  0.83984000  0.78925900  0.50000000  1
  C  C56  1  0.21074100  0.83984000  0.50000000  1
  C  C57  1  0.66016000  0.28925900  0.50000000  1
  C  C58  1  0.78925900  0.16016000  0.50000000  1
  C  C59  1  0.33984000  0.71074100  0.50000000  1
  C  C60  1  0.71074100  0.66016000  0.50000000  1
  C  C61  1  0.28925900  0.33984000  0.50000000  1
  C  C62  1  0.09776300  0.06686800  0.50000000  1
  C  C63  1  0.90223700  0.93313200  0.50000000  1
  C  C64  1  0.06686800  0.90223700  0.50000000  1
  C  C65  1  0.59776300  0.43313200  0.50000000  1
  C  C66  1  0.93313200  0.09776300  0.50000000  1
  C  C67  1  0.40223700  0.56686800  0.50000000  1
  C  C68  1  0.56686800  0.59776300  0.50000000  1
  C  C69  1  0.43313200  0.40223700  0.50000000  1
  C  C70  1  0.08238400  0.58238400  0.50000000  1
  C  C71  1  0.91761600  0.41761600  0.50000000  1
  C  C72  1  0.58238400  0.91761600  0.50000000  1
  C  C73  1  0.41761600  0.08238400  0.50000000  1
