# generated using pymatgen
data_CuNi3C2
_symmetry_space_group_name_H-M   'P 1'
_cell_length_a   5.27528900
_cell_length_b   5.05116200
_cell_length_c   12.51793027
_cell_angle_alpha   74.17788028
_cell_angle_beta   90.00000000
_cell_angle_gamma   90.00000000
_symmetry_Int_Tables_number   1
_chemical_formula_structural   CuNi3C2
_chemical_formula_sum   'Cu4 Ni12 C8'
_cell_volume   320.91947785
_cell_formula_units_Z   4
loop_
 _symmetry_equiv_pos_site_id
 _symmetry_equiv_pos_as_xyz
  1  'x, y, z'
loop_
 _atom_site_type_symbol
 _atom_site_label
 _atom_site_symmetry_multiplicity
 _atom_site_fract_x
 _atom_site_fract_y
 _atom_site_fract_z
 _atom_site_occupancy
  C  C0  1  0.75374400  0.38578300  0.57136900  1
  C  C1  1  0.74625600  0.38578300  0.07136900  1
  C  C2  1  0.24625600  0.61421700  0.42863100  1
  C  C3  1  0.25374400  0.61421700  0.92863100  1
  C  C4  1  0.85781600  0.18108700  0.83377100  1
  C  C5  1  0.64218400  0.18108700  0.33377100  1
  C  C6  1  0.14218400  0.81891300  0.16622900  1
  C  C7  1  0.35781600  0.81891300  0.66622900  1
  Ni  Ni8  1  0.12694400  0.98048700  0.84620900  1
  Ni  Ni9  1  0.37305600  0.98048700  0.34620900  1
  Ni  Ni10  1  0.87305600  0.01951300  0.15379100  1
  Ni  Ni11  1  0.62694400  0.01951300  0.65379100  1
  Ni  Ni12  1  0.93872000  0.38643700  0.92456800  1
  Ni  Ni13  1  0.56128000  0.38643700  0.42456800  1
  Ni  Ni14  1  0.06128000  0.61356300  0.07543200  1
  Ni  Ni15  1  0.43872000  0.61356300  0.57543200  1
  Ni  Ni16  1  0.92312400  0.41534400  0.70852300  1
  Ni  Ni17  1  0.57687600  0.41534400  0.20852300  1
  Ni  Ni18  1  0.07687600  0.58465600  0.29147700  1
  Ni  Ni19  1  0.42312400  0.58465600  0.79147700  1
  Cu  Cu20  1  0.06496300  0.25942900  0.50956900  1
  Cu  Cu21  1  0.43503700  0.25942900  0.00956900  1
  Cu  Cu22  1  0.93503700  0.74057100  0.49043100  1
  Cu  Cu23  1  0.56496300  0.74057100  0.99043100  1
