# generated using pymatgen
data_Cu2Ni2C5
_symmetry_space_group_name_H-M   'P 1'
_cell_length_a   3.25821200
_cell_length_b   6.27481800
_cell_length_c   10.74203474
_cell_angle_alpha   89.12985972
_cell_angle_beta   90.00000000
_cell_angle_gamma   90.00000000
_symmetry_Int_Tables_number   1
_chemical_formula_structural   Cu2Ni2C5
_chemical_formula_sum   'Cu4 Ni4 C10'
_cell_volume   219.59221563
_cell_formula_units_Z   2
loop_
 _symmetry_equiv_pos_site_id
 _symmetry_equiv_pos_as_xyz
  1  'x, y, z'
loop_
 _atom_site_type_symbol
 _atom_site_label
 _atom_site_symmetry_multiplicity
 _atom_site_fract_x
 _atom_site_fract_y
 _atom_site_fract_z
 _atom_site_occupancy
  Ni  Ni0  1  0.00000000  0.63838000  0.88384200  1
  Ni  Ni1  1  0.00000000  0.29509200  0.10252300  1
  Ni  Ni2  1  0.00000000  0.14582400  0.60701800  1
  Ni  Ni3  1  0.00000000  0.85341500  0.38902200  1
  Cu  Cu4  1  0.50000000  0.68615400  0.63108300  1
  Cu  Cu5  1  0.50000000  0.33739300  0.37300800  1
  Cu  Cu6  1  0.50000000  0.79403200  0.12532400  1
  Cu  Cu7  1  0.50000000  0.16215700  0.87078200  1
  C  C8  1  0.50000000  0.50581500  0.50273100  1
  C  C9  1  0.50000000  0.80025700  0.29573300  1
  C  C10  1  0.50000000  0.33644100  0.20620700  1
  C  C11  1  0.50000000  0.73474800  0.80048800  1
  C  C12  1  0.00000000  0.66176600  0.06989400  1
  C  C13  1  0.00000000  0.32314400  0.90860400  1
  C  C14  1  0.50000000  0.18975600  0.70332900  1
  C  C15  1  0.00000000  0.82135900  0.58030500  1
  C  C16  1  0.50000000  0.04037400  0.02899500  1
  C  C17  1  0.00000000  0.17389500  0.42111100  1
