# generated using pymatgen
data_CuNiC8
_symmetry_space_group_name_H-M   'P 1'
_cell_length_a   8.56878281
_cell_length_b   8.52471104
_cell_length_c   8.53716456
_cell_angle_alpha   90.00000000
_cell_angle_beta   90.00000000
_cell_angle_gamma   90.00000000
_symmetry_Int_Tables_number   1
_chemical_formula_structural   CuNiC8
_chemical_formula_sum   'Cu4 Ni4 C32'
_cell_volume   623.60911529
_cell_formula_units_Z   4
loop_
 _symmetry_equiv_pos_site_id
 _symmetry_equiv_pos_as_xyz
  1  'x, y, z'
loop_
 _atom_site_type_symbol
 _atom_site_label
 _atom_site_symmetry_multiplicity
 _atom_site_fract_x
 _atom_site_fract_y
 _atom_site_fract_z
 _atom_site_occupancy
  Ni  Ni0  1  -0.00000000  -0.00000000  0.00000000  1
  Ni  Ni1  1  0.50000000  0.50000000  0.50000000  1
  Ni  Ni2  1  -0.00000000  0.50000000  0.50000000  1
  Ni  Ni3  1  0.50000000  -0.00000000  0.00000000  1
  Cu  Cu4  1  0.50000000  0.00000000  0.50000000  1
  Cu  Cu5  1  0.50000000  0.50000000  0.00000000  1
  Cu  Cu6  1  -0.00000000  0.50000000  -0.00000000  1
  Cu  Cu7  1  -0.00000000  -0.00000000  0.50000000  1
  C  C8  1  0.75000000  0.75000000  0.75000000  1
  C  C9  1  0.25000000  0.25000000  0.75000000  1
  C  C10  1  0.25000000  0.75000000  0.25000000  1
  C  C11  1  0.75000000  0.25000000  0.25000000  1
  C  C12  1  0.25000000  0.25000000  0.25000000  1
  C  C13  1  0.75000000  0.75000000  0.25000000  1
  C  C14  1  0.75000000  0.25000000  0.75000000  1
  C  C15  1  0.25000000  0.75000000  0.75000000  1
  C  C16  1  0.02497612  0.21974623  0.28783210  1
  C  C17  1  0.97502388  0.78025377  0.28783210  1
  C  C18  1  0.97502388  0.21974623  0.71216790  1
  C  C19  1  0.02497612  0.78025377  0.71216790  1
  C  C20  1  0.27167149  0.02347722  0.21489775  1
  C  C21  1  0.27167149  0.97652278  0.78510225  1
  C  C22  1  0.72832851  0.97652278  0.21489775  1
  C  C23  1  0.72832851  0.02347722  0.78510225  1
  C  C24  1  0.20782188  0.27318716  0.02514916  1
  C  C25  1  0.79217812  0.27318716  0.97485084  1
  C  C26  1  0.20782188  0.72681284  0.97485084  1
  C  C27  1  0.79217812  0.72681284  0.02514916  1
  C  C28  1  0.47502388  0.28025377  0.21216790  1
  C  C29  1  0.52497612  0.71974623  0.21216790  1
  C  C30  1  0.52497612  0.28025377  0.78783210  1
  C  C31  1  0.47502388  0.71974623  0.78783210  1
  C  C32  1  0.22832851  0.47652278  0.28510225  1
  C  C33  1  0.22832851  0.52347722  0.71489775  1
  C  C34  1  0.77167149  0.52347722  0.28510225  1
  C  C35  1  0.77167149  0.47652278  0.71489775  1
  C  C36  1  0.29217812  0.22681284  0.47485084  1
  C  C37  1  0.70782188  0.22681284  0.52514916  1
  C  C38  1  0.29217812  0.77318716  0.52514916  1
  C  C39  1  0.70782188  0.77318716  0.47485084  1
