# generated using pymatgen
data_Cu3NiC48
_symmetry_space_group_name_H-M   'P 1'
_cell_length_a   10.92791029
_cell_length_b   10.92791029
_cell_length_c   17.28370500
_cell_angle_alpha   90.00000000
_cell_angle_beta   90.00000000
_cell_angle_gamma   120.00000173
_symmetry_Int_Tables_number   1
_chemical_formula_structural   Cu3NiC48
_chemical_formula_sum   'Cu6 Ni2 C96'
_cell_volume   1787.48213993
_cell_formula_units_Z   2
loop_
 _symmetry_equiv_pos_site_id
 _symmetry_equiv_pos_as_xyz
  1  'x, y, z'
loop_
 _atom_site_type_symbol
 _atom_site_label
 _atom_site_symmetry_multiplicity
 _atom_site_fract_x
 _atom_site_fract_y
 _atom_site_fract_z
 _atom_site_occupancy
  Ni  Ni0  1  0.00000000  0.00000000  0.50000000  1
  Ni  Ni1  1  0.00000000  0.00000000  0.00000000  1
  Cu  Cu2  1  0.66666700  0.33333300  0.49975600  1
  Cu  Cu3  1  0.33333300  0.66666700  0.50024400  1
  Cu  Cu4  1  0.66666700  0.33333300  0.00024400  1
  Cu  Cu5  1  0.33333300  0.66666700  0.99975600  1
  Cu  Cu6  1  0.33333300  0.66666700  0.75000000  1
  Cu  Cu7  1  0.66666700  0.33333300  0.25000000  1
  C  C8  1  0.24319900  0.41463700  0.62303300  1
  C  C9  1  0.75680100  0.58536300  0.37696700  1
  C  C10  1  0.58536300  0.82856300  0.62303300  1
  C  C11  1  0.24319900  0.82856300  0.87696700  1
  C  C12  1  0.41463700  0.17143700  0.37696700  1
  C  C13  1  0.75680100  0.17143700  0.12303300  1
  C  C14  1  0.17143700  0.75680100  0.62303300  1
  C  C15  1  0.58536300  0.75680100  0.87696700  1
  C  C16  1  0.82856300  0.24319900  0.37696700  1
  C  C17  1  0.41463700  0.24319900  0.12303300  1
  C  C18  1  0.17143700  0.41463700  0.87696700  1
  C  C19  1  0.82856300  0.58536300  0.12303300  1
  C  C20  1  0.33935000  0.51766600  0.68448200  1
  C  C21  1  0.66065000  0.48233400  0.31551800  1
  C  C22  1  0.48233400  0.82168300  0.68448200  1
  C  C23  1  0.33935000  0.82168300  0.81551800  1
  C  C24  1  0.51766600  0.17831700  0.31551800  1
  C  C25  1  0.66065000  0.17831700  0.18448200  1
  C  C26  1  0.17831700  0.66065000  0.68448200  1
  C  C27  1  0.48233400  0.66065000  0.81551800  1
  C  C28  1  0.82168300  0.33935000  0.31551800  1
  C  C29  1  0.51766600  0.33935000  0.18448200  1
  C  C30  1  0.17831700  0.51766600  0.81551800  1
  C  C31  1  0.82168300  0.48233400  0.18448200  1
  C  C32  1  0.21603000  0.49840700  0.56137400  1
  C  C33  1  0.78397000  0.50159300  0.43862600  1
  C  C34  1  0.50159300  0.71762300  0.56137400  1
  C  C35  1  0.21603000  0.71762300  0.93862600  1
  C  C36  1  0.49840700  0.28237700  0.43862600  1
  C  C37  1  0.78397000  0.28237700  0.06137400  1
  C  C38  1  0.28237700  0.78397000  0.56137400  1
  C  C39  1  0.50159300  0.78397000  0.93862600  1
  C  C40  1  0.71762300  0.21603000  0.43862600  1
  C  C41  1  0.49840700  0.21603000  0.06137400  1
  C  C42  1  0.28237700  0.49840700  0.93862600  1
  C  C43  1  0.71762300  0.50159300  0.06137400  1
  C  C44  1  0.10573500  0.31484400  0.65511900  1
  C  C45  1  0.89426500  0.68515600  0.34488100  1
  C  C46  1  0.68515600  0.79089000  0.65511900  1
  C  C47  1  0.10573500  0.79089000  0.84488100  1
  C  C48  1  0.31484400  0.20911000  0.34488100  1
  C  C49  1  0.89426500  0.20911000  0.15511900  1
  C  C50  1  0.20911000  0.89426500  0.65511900  1
  C  C51  1  0.68515600  0.89426500  0.84488100  1
  C  C52  1  0.79089000  0.10573500  0.34488100  1
  C  C53  1  0.31484400  0.10573500  0.15511900  1
  C  C54  1  0.20911000  0.31484400  0.84488100  1
  C  C55  1  0.79089000  0.68515600  0.15511900  1
  C  C56  1  0.61949000  0.13469100  0.76140400  1
  C  C57  1  0.38051000  0.86530900  0.23859600  1
  C  C58  1  0.86530900  0.48479900  0.76140400  1
  C  C59  1  0.61949000  0.48479900  0.73859600  1
  C  C60  1  0.13469100  0.51520100  0.23859600  1
  C  C61  1  0.38051000  0.51520100  0.26140400  1
  C  C62  1  0.51520100  0.38051000  0.76140400  1
  C  C63  1  0.86530900  0.38051000  0.73859600  1
  C  C64  1  0.48479900  0.61949000  0.23859600  1
  C  C65  1  0.13469100  0.61949000  0.26140400  1
  C  C66  1  0.51520100  0.13469100  0.73859600  1
  C  C67  1  0.48479900  0.86530900  0.26140400  1
  C  C68  1  0.93347000  0.09232200  0.56087500  1
  C  C69  1  0.06653000  0.90767800  0.43912500  1
  C  C70  1  0.90767800  0.84114800  0.56087500  1
  C  C71  1  0.93347000  0.84114800  0.93912500  1
  C  C72  1  0.09232200  0.15885200  0.43912500  1
  C  C73  1  0.06653000  0.15885200  0.06087500  1
  C  C74  1  0.15885200  0.06653000  0.56087500  1
  C  C75  1  0.90767800  0.06653000  0.93912500  1
  C  C76  1  0.84114800  0.93347000  0.43912500  1
  C  C77  1  0.09232200  0.93347000  0.06087500  1
  C  C78  1  0.15885200  0.09232200  0.93912500  1
  C  C79  1  0.84114800  0.90767800  0.06087500  1
  C  C80  1  0.32048700  0.34937600  0.59032100  1
  C  C81  1  0.67951300  0.65062400  0.40967900  1
  C  C82  1  0.65062400  0.97111200  0.59032100  1
  C  C83  1  0.32048700  0.97111200  0.90967900  1
  C  C84  1  0.34937600  0.02888800  0.40967900  1
  C  C85  1  0.67951300  0.02888800  0.09032100  1
  C  C86  1  0.02888800  0.67951300  0.59032100  1
  C  C87  1  0.65062400  0.67951300  0.90967900  1
  C  C88  1  0.97111200  0.32048700  0.40967900  1
  C  C89  1  0.34937600  0.32048700  0.09032100  1
  C  C90  1  0.02888800  0.34937600  0.90967900  1
  C  C91  1  0.97111200  0.65062400  0.09032100  1
  C  C92  1  0.58449300  0.20489700  0.57454700  1
  C  C93  1  0.41550700  0.79510300  0.42545300  1
  C  C94  1  0.79510300  0.37959700  0.57454700  1
  C  C95  1  0.58449300  0.37959700  0.92545300  1
  C  C96  1  0.20489700  0.62040300  0.42545300  1
  C  C97  1  0.41550700  0.62040300  0.07454700  1
  C  C98  1  0.62040300  0.41550700  0.57454700  1
  C  C99  1  0.79510300  0.41550700  0.92545300  1
  C  C100  1  0.37959700  0.58449300  0.42545300  1
  C  C101  1  0.20489700  0.58449300  0.07454700  1
  C  C102  1  0.62040300  0.20489700  0.92545300  1
  C  C103  1  0.37959700  0.79510300  0.07454700  1
