# generated using pymatgen
data_Cu4Ni8C5
_symmetry_space_group_name_H-M   'P 1'
_cell_length_a   9.24296000
_cell_length_b   9.24296000
_cell_length_c   7.27088800
_cell_angle_alpha   90.00000000
_cell_angle_beta   90.00000000
_cell_angle_gamma   90.00000000
_symmetry_Int_Tables_number   1
_chemical_formula_structural   Cu4Ni8C5
_chemical_formula_sum   'Cu8 Ni16 C10'
_cell_volume   621.16875440
_cell_formula_units_Z   2
loop_
 _symmetry_equiv_pos_site_id
 _symmetry_equiv_pos_as_xyz
  1  'x, y, z'
loop_
 _atom_site_type_symbol
 _atom_site_label
 _atom_site_symmetry_multiplicity
 _atom_site_fract_x
 _atom_site_fract_y
 _atom_site_fract_z
 _atom_site_occupancy
  C  C0  1  0.00000000  0.00000000  0.00000000  1
  C  C1  1  0.50000000  0.50000000  0.50000000  1
  Ni  Ni2  1  0.81275100  0.98232400  0.75095000  1
  Ni  Ni3  1  0.31275100  0.51767600  0.74905000  1
  Ni  Ni4  1  0.18724900  0.01767600  0.75095000  1
  Ni  Ni5  1  0.68724900  0.48232400  0.74905000  1
  Ni  Ni6  1  0.01767600  0.81275100  0.24905000  1
  Ni  Ni7  1  0.48232400  0.31275100  0.25095000  1
  Ni  Ni8  1  0.98232400  0.18724900  0.24905000  1
  Ni  Ni9  1  0.51767600  0.68724900  0.25095000  1
  Ni  Ni10  1  0.77347300  0.85711900  0.93215800  1
  Ni  Ni11  1  0.27347300  0.64288100  0.56784200  1
  Ni  Ni12  1  0.22652700  0.14288100  0.93215800  1
  Ni  Ni13  1  0.72652700  0.35711900  0.56784200  1
  Ni  Ni14  1  0.14288100  0.77347300  0.06784200  1
  Ni  Ni15  1  0.35711900  0.27347300  0.43215800  1
  Ni  Ni16  1  0.85711900  0.22652700  0.06784200  1
  Ni  Ni17  1  0.64288100  0.72652700  0.43215800  1
  Cu  Cu18  1  0.85964700  0.90741400  0.85146400  1
  Cu  Cu19  1  0.35964700  0.59258600  0.64853600  1
  Cu  Cu20  1  0.14035300  0.09258600  0.85146400  1
  Cu  Cu21  1  0.64035300  0.40741400  0.64853600  1
  Cu  Cu22  1  0.09258600  0.85964700  0.14853600  1
  Cu  Cu23  1  0.40741400  0.35964700  0.35146400  1
  Cu  Cu24  1  0.90741400  0.14035300  0.14853600  1
  Cu  Cu25  1  0.59258600  0.64035300  0.35146400  1
  C  C26  1  0.94258400  0.74816400  0.70493000  1
  C  C27  1  0.44258400  0.75183600  0.79507000  1
  C  C28  1  0.05741600  0.25183600  0.70493000  1
  C  C29  1  0.55741600  0.24816400  0.79507000  1
  C  C30  1  0.25183600  0.94258400  0.29507000  1
  C  C31  1  0.24816400  0.44258400  0.20493000  1
  C  C32  1  0.74816400  0.05741600  0.29507000  1
  C  C33  1  0.75183600  0.55741600  0.20493000  1
