# generated using pymatgen
data_Cu2NiC16
_symmetry_space_group_name_H-M   'P 1'
_cell_length_a   4.89608900
_cell_length_b   8.61469100
_cell_length_c   15.71374934
_cell_angle_alpha   69.02400649
_cell_angle_beta   90.00000000
_cell_angle_gamma   90.00000000
_symmetry_Int_Tables_number   1
_chemical_formula_structural   Cu2NiC16
_chemical_formula_sum   'Cu4 Ni2 C32'
_cell_volume   618.85709384
_cell_formula_units_Z   2
loop_
 _symmetry_equiv_pos_site_id
 _symmetry_equiv_pos_as_xyz
  1  'x, y, z'
loop_
 _atom_site_type_symbol
 _atom_site_label
 _atom_site_symmetry_multiplicity
 _atom_site_fract_x
 _atom_site_fract_y
 _atom_site_fract_z
 _atom_site_occupancy
  Ni  Ni0  1  0.00000000  0.00000000  0.00000000  1
  Ni  Ni1  1  0.50000000  0.00000000  0.50000000  1
  Cu  Cu2  1  0.53696100  0.15511100  0.78726200  1
  Cu  Cu3  1  0.96303900  0.15511100  0.28726200  1
  Cu  Cu4  1  0.46303900  0.84488900  0.21273800  1
  Cu  Cu5  1  0.03696100  0.84488900  0.71273800  1
  C  C6  1  0.57185800  0.77495200  0.88969700  1
  C  C7  1  0.92814200  0.77495200  0.38969700  1
  C  C8  1  0.42814200  0.22504800  0.11030300  1
  C  C9  1  0.07185800  0.22504800  0.61030300  1
  C  C10  1  0.00752900  0.34775200  0.87169600  1
  C  C11  1  0.49247100  0.34775200  0.37169600  1
  C  C12  1  0.99247100  0.65224800  0.12830400  1
  C  C13  1  0.50752900  0.65224800  0.62830400  1
  C  C14  1  0.77087100  0.36371200  0.78705400  1
  C  C15  1  0.72912900  0.36371200  0.28705400  1
  C  C16  1  0.22912900  0.63628800  0.21294600  1
  C  C17  1  0.27087100  0.63628800  0.71294600  1
  C  C18  1  0.82772300  0.70598300  0.83744000  1
  C  C19  1  0.67227700  0.70598300  0.33744000  1
  C  C20  1  0.17227700  0.29401700  0.16256000  1
  C  C21  1  0.32772300  0.29401700  0.66256000  1
  C  C22  1  0.20700500  0.17311400  0.87602800  1
  C  C23  1  0.29299500  0.17311400  0.37602800  1
  C  C24  1  0.79299500  0.82688600  0.12397200  1
  C  C25  1  0.70700500  0.82688600  0.62397200  1
  C  C26  1  0.70830400  0.95039700  0.90536100  1
  C  C27  1  0.79169600  0.95039700  0.40536100  1
  C  C28  1  0.29169600  0.04960300  0.09463900  1
  C  C29  1  0.20830400  0.04960300  0.59463900  1
  C  C30  1  0.36887900  0.90186300  0.79829800  1
  C  C31  1  0.13112100  0.90186300  0.29829800  1
  C  C32  1  0.63112100  0.09813700  0.20170200  1
  C  C33  1  0.86887900  0.09813700  0.70170200  1
  C  C34  1  0.83963400  0.23667300  0.97085000  1
  C  C35  1  0.66036600  0.23667300  0.47085000  1
  C  C36  1  0.16036600  0.76332700  0.02915000  1
  C  C37  1  0.33963400  0.76332700  0.52915000  1
