# generated using pymatgen
data_Cu3(Ni2C11)2
_symmetry_space_group_name_H-M   'P 1'
_cell_length_a   10.47208974
_cell_length_b   10.47208974
_cell_length_c   10.47208923
_cell_angle_alpha   63.08916558
_cell_angle_beta   63.08916558
_cell_angle_gamma   63.08916628
_symmetry_Int_Tables_number   1
_chemical_formula_structural   Cu3(Ni2C11)2
_chemical_formula_sum   'Cu6 Ni8 C44'
_cell_volume   867.70727666
_cell_formula_units_Z   2
loop_
 _symmetry_equiv_pos_site_id
 _symmetry_equiv_pos_as_xyz
  1  'x, y, z'
loop_
 _atom_site_type_symbol
 _atom_site_label
 _atom_site_symmetry_multiplicity
 _atom_site_fract_x
 _atom_site_fract_y
 _atom_site_fract_z
 _atom_site_occupancy
  C  C0  1  0.98773200  0.10089900  0.44947400  1
  C  C1  1  0.94947400  0.60089900  0.48773200  1
  C  C2  1  0.10089900  0.44947400  0.98773200  1
  C  C3  1  0.60089900  0.48773200  0.94947400  1
  C  C4  1  0.44947400  0.98773200  0.10089900  1
  C  C5  1  0.48773200  0.94947400  0.60089900  1
  Ni  Ni6  1  0.27506400  0.57053300  0.57534500  1
  Ni  Ni7  1  0.07534500  0.07053300  0.77506400  1
  Ni  Ni8  1  0.57053300  0.57534500  0.27506400  1
  Ni  Ni9  1  0.07053300  0.77506400  0.07534500  1
  Ni  Ni10  1  0.57534500  0.27506400  0.57053300  1
  Ni  Ni11  1  0.77506400  0.07534500  0.07053300  1
  Ni  Ni12  1  0.57540700  0.57540700  0.57540700  1
  Ni  Ni13  1  0.07540700  0.07540700  0.07540700  1
  Cu  Cu14  1  0.23612600  0.76681700  0.26485300  1
  Cu  Cu15  1  0.76485300  0.26681700  0.73612600  1
  Cu  Cu16  1  0.76681700  0.26485300  0.23612600  1
  Cu  Cu17  1  0.26681700  0.73612600  0.76485300  1
  Cu  Cu18  1  0.26485300  0.23612600  0.76681700  1
  Cu  Cu19  1  0.73612600  0.76485300  0.26681700  1
  C  C20  1  0.49687700  0.49687700  0.49687700  1
  C  C21  1  0.99687700  0.99687700  0.99687700  1
  C  C22  1  0.17245900  0.65866200  0.42342600  1
  C  C23  1  0.92342600  0.15866200  0.67245900  1
  C  C24  1  0.65866200  0.42342600  0.17245900  1
  C  C25  1  0.15866200  0.67245900  0.92342600  1
  C  C26  1  0.42342600  0.17245900  0.65866200  1
  C  C27  1  0.67245900  0.92342600  0.15866200  1
  C  C28  1  0.21932200  0.74003000  0.64306000  1
  C  C29  1  0.14306000  0.24003000  0.71932200  1
  C  C30  1  0.74003000  0.64306000  0.21932200  1
  C  C31  1  0.24003000  0.71932200  0.14306000  1
  C  C32  1  0.64306000  0.21932200  0.74003000  1
  C  C33  1  0.71932200  0.14306000  0.24003000  1
  C  C34  1  0.23530600  0.39974400  0.75767600  1
  C  C35  1  0.25767600  0.89974400  0.73530600  1
  C  C36  1  0.39974400  0.75767600  0.23530600  1
  C  C37  1  0.89974400  0.73530600  0.25767600  1
  C  C38  1  0.75767600  0.23530600  0.39974400  1
  C  C39  1  0.73530600  0.25767600  0.89974400  1
  C  C40  1  0.43330200  0.63641200  0.75862600  1
  C  C41  1  0.25862600  0.13641200  0.93330200  1
  C  C42  1  0.63641200  0.75862600  0.43330200  1
  C  C43  1  0.13641200  0.93330200  0.25862600  1
  C  C44  1  0.75862600  0.43330200  0.63641200  1
  C  C45  1  0.93330200  0.25862600  0.13641200  1
  C  C46  1  0.36843800  0.30844900  0.06859000  1
  C  C47  1  0.56859000  0.80844900  0.86843800  1
  C  C48  1  0.30844900  0.06859000  0.36843800  1
  C  C49  1  0.80844900  0.86843800  0.56859000  1
  C  C50  1  0.06859000  0.36843800  0.30844900  1
  C  C51  1  0.86843800  0.56859000  0.80844900  1
  C  C52  1  0.38404900  0.38917900  0.11432200  1
  C  C53  1  0.61432200  0.88917900  0.88404900  1
  C  C54  1  0.38917900  0.11432200  0.38404900  1
  C  C55  1  0.88917900  0.88404900  0.61432200  1
  C  C56  1  0.11432200  0.38404900  0.38917900  1
  C  C57  1  0.88404900  0.61432200  0.88917900  1
