# generated using pymatgen
data_Cu2Ni2C7
_symmetry_space_group_name_H-M   'P 1'
_cell_length_a   8.85184657
_cell_length_b   8.85184657
_cell_length_c   12.09539409
_cell_angle_alpha   98.80362747
_cell_angle_beta   103.44069572
_cell_angle_gamma   118.24613566
_symmetry_Int_Tables_number   1
_chemical_formula_structural   Cu2Ni2C7
_chemical_formula_sum   'Cu12 Ni12 C42'
_cell_volume   772.79864580
_cell_formula_units_Z   6
loop_
 _symmetry_equiv_pos_site_id
 _symmetry_equiv_pos_as_xyz
  1  'x, y, z'
loop_
 _atom_site_type_symbol
 _atom_site_label
 _atom_site_symmetry_multiplicity
 _atom_site_fract_x
 _atom_site_fract_y
 _atom_site_fract_z
 _atom_site_occupancy
  C  C0  1  0.71894800  0.20168100  0.80331000  1
  C  C1  1  0.89837100  0.91563800  0.69669000  1
  C  C2  1  0.28105200  0.79831900  0.19669000  1
  C  C3  1  0.10162900  0.08436200  0.30331000  1
  C  C4  1  0.84972400  0.45494000  0.04064900  1
  C  C5  1  0.91429100  0.80907500  0.45935100  1
  C  C6  1  0.15027600  0.54506000  0.95935100  1
  C  C7  1  0.08570900  0.19092500  0.54064900  1
  C  C8  1  0.74754800  0.53389200  0.95924200  1
  C  C9  1  0.07464900  0.78830600  0.54075800  1
  C  C10  1  0.25245200  0.46610800  0.04075800  1
  C  C11  1  0.92535100  0.21169400  0.45924200  1
  C  C12  1  0.62576800  0.35233900  0.99381900  1
  C  C13  1  0.85851900  0.63194900  0.50618100  1
  C  C14  1  0.37423200  0.64766100  0.00618100  1
  C  C15  1  0.14148100  0.36805100  0.49381900  1
  C  C16  1  0.84122800  0.40222600  0.65382200  1
  C  C17  1  0.24840500  0.18740600  0.84617800  1
  C  C18  1  0.15877200  0.59777400  0.34617800  1
  C  C19  1  0.75159500  0.81259400  0.15382200  1
  C  C20  1  0.52346000  0.88620400  0.87782600  1
  C  C21  1  0.50837800  0.64563400  0.62217400  1
  C  C22  1  0.47654000  0.11379600  0.12217400  1
  C  C23  1  0.49162200  0.35436600  0.37782600  1
  C  C24  1  0.05103100  0.47865800  0.73684000  1
  C  C25  1  0.24181800  0.31419100  0.76316000  1
  C  C26  1  0.94896900  0.52134200  0.26316000  1
  C  C27  1  0.75818200  0.68580900  0.23684000  1
  C  C28  1  0.94850500  0.58159100  0.77317200  1
  C  C29  1  0.30841800  0.17533300  0.72682800  1
  C  C30  1  0.05149500  0.41840900  0.22682800  1
  C  C31  1  0.69158200  0.82466700  0.27317200  1
  C  C32  1  0.39589000  0.85441800  0.74210900  1
  C  C33  1  0.61231000  0.65378200  0.75789100  1
  C  C34  1  0.60411000  0.14558200  0.25789100  1
  C  C35  1  0.38769000  0.34621800  0.24210900  1
  C  C36  1  0.36203600  0.93442800  0.85996600  1
  C  C37  1  0.57446200  0.50207000  0.64003400  1
  C  C38  1  0.63796400  0.06557200  0.14003400  1
  C  C39  1  0.42553800  0.49793000  0.35996600  1
  C  C40  1  0.50000000  0.00000000  0.50000000  1
  C  C41  1  0.00000000  0.00000000  0.00000000  1
  Ni  Ni42  1  0.46114800  0.93828200  0.82850800  1
  Ni  Ni43  1  0.60977400  0.63264000  0.67149200  1
  Ni  Ni44  1  0.53885200  0.06171800  0.17149200  1
  Ni  Ni45  1  0.39022600  0.36736000  0.32850800  1
  Ni  Ni46  1  0.73711700  0.41688100  0.96895500  1
  Ni  Ni47  1  0.94792700  0.76816200  0.53104500  1
  Ni  Ni48  1  0.26288300  0.58311900  0.03104500  1
  Ni  Ni49  1  0.05207300  0.23183800  0.46895500  1
  Ni  Ni50  1  0.92865900  0.45710900  0.74071500  1
  Ni  Ni51  1  0.21639500  0.18794400  0.75928500  1
  Ni  Ni52  1  0.07134100  0.54289100  0.25928500  1
  Ni  Ni53  1  0.78360500  0.81205600  0.24071500  1
  Cu  Cu54  1  0.33387100  0.78567900  0.53957800  1
  Cu  Cu55  1  0.74610100  0.79429300  0.96042200  1
  Cu  Cu56  1  0.66612900  0.21432100  0.46042200  1
  Cu  Cu57  1  0.25389900  0.20570700  0.03957800  1
  Cu  Cu58  1  0.71164400  0.02848600  0.62225100  1
  Cu  Cu59  1  0.90623500  0.08939300  0.87774900  1
  Cu  Cu60  1  0.28835600  0.97151400  0.37774900  1
  Cu  Cu61  1  0.09376500  0.91060700  0.12225100  1
  Cu  Cu62  1  0.48772900  0.16180600  0.62568700  1
  Cu  Cu63  1  0.03611900  0.86204200  0.87431300  1
  Cu  Cu64  1  0.51227100  0.83819400  0.37431300  1
  Cu  Cu65  1  0.96388100  0.13795800  0.12568700  1
