# generated using pymatgen
data_Cu8Ni4C3
_symmetry_space_group_name_H-M   'P 1'
_cell_length_a   10.81056100
_cell_length_b   8.11370000
_cell_length_c   15.65023373
_cell_angle_alpha   59.90938220
_cell_angle_beta   90.00000000
_cell_angle_gamma   90.00000000
_symmetry_Int_Tables_number   1
_chemical_formula_structural   Cu8Ni4C3
_chemical_formula_sum   'Cu32 Ni16 C12'
_cell_volume   1187.73990357
_cell_formula_units_Z   4
loop_
 _symmetry_equiv_pos_site_id
 _symmetry_equiv_pos_as_xyz
  1  'x, y, z'
loop_
 _atom_site_type_symbol
 _atom_site_label
 _atom_site_symmetry_multiplicity
 _atom_site_fract_x
 _atom_site_fract_y
 _atom_site_fract_z
 _atom_site_occupancy
  C  C0  1  0.26801400  0.84159800  0.40449700  1
  C  C1  1  0.76801400  0.15840200  0.09550300  1
  C  C2  1  0.73198600  0.15840200  0.59550300  1
  C  C3  1  0.23198600  0.84159800  0.90449700  1
  Ni  Ni4  1  0.48040100  0.86722700  0.38201700  1
  Ni  Ni5  1  0.98040100  0.13277300  0.11798300  1
  Ni  Ni6  1  0.51959900  0.13277300  0.61798300  1
  Ni  Ni7  1  0.01959900  0.86722700  0.88201700  1
  Ni  Ni8  1  0.20118600  0.15409700  0.34774800  1
  Ni  Ni9  1  0.70118600  0.84590300  0.15225200  1
  Ni  Ni10  1  0.79881400  0.84590300  0.65225200  1
  Ni  Ni11  1  0.29881400  0.15409700  0.84774800  1
  Ni  Ni12  1  0.17556500  0.65513400  0.55684400  1
  Ni  Ni13  1  0.67556500  0.34486600  0.94315600  1
  Ni  Ni14  1  0.82443500  0.34486600  0.44315600  1
  Ni  Ni15  1  0.32443500  0.65513400  0.05684400  1
  Ni  Ni16  1  0.20444100  0.69397500  0.31495800  1
  Ni  Ni17  1  0.70444100  0.30602500  0.18504200  1
  Ni  Ni18  1  0.79555900  0.30602500  0.68504200  1
  Ni  Ni19  1  0.29555900  0.69397500  0.81495800  1
  C  C20  1  0.49784300  0.40128800  0.34839500  1
  C  C21  1  0.99784300  0.59871200  0.15160500  1
  C  C22  1  0.50215700  0.59871200  0.65160500  1
  C  C23  1  0.00215700  0.40128800  0.84839500  1
  C  C24  1  0.37205000  0.14036300  0.09761200  1
  C  C25  1  0.87205000  0.85963700  0.40238800  1
  C  C26  1  0.62795000  0.85963700  0.90238800  1
  C  C27  1  0.12795000  0.14036300  0.59761200  1
  Cu  Cu28  1  0.57846700  0.55106200  0.34086100  1
  Cu  Cu29  1  0.07846700  0.44893800  0.15913900  1
  Cu  Cu30  1  0.42153300  0.44893800  0.65913900  1
  Cu  Cu31  1  0.92153300  0.55106200  0.84086100  1
  Cu  Cu32  1  0.39460500  0.36947000  0.41659800  1
  Cu  Cu33  1  0.89460500  0.63053000  0.08340200  1
  Cu  Cu34  1  0.60539500  0.63053000  0.58340200  1
  Cu  Cu35  1  0.10539500  0.36947000  0.91659800  1
  Cu  Cu36  1  0.56672500  0.21970400  0.39279200  1
  Cu  Cu37  1  0.06672500  0.78029600  0.10720800  1
  Cu  Cu38  1  0.43327500  0.78029600  0.60720800  1
  Cu  Cu39  1  0.93327500  0.21970400  0.89279200  1
  Cu  Cu40  1  0.44889100  0.44710100  0.25308900  1
  Cu  Cu41  1  0.94889100  0.55289900  0.24691100  1
  Cu  Cu42  1  0.55110900  0.55289900  0.74691100  1
  Cu  Cu43  1  0.05110900  0.44710100  0.75308900  1
  Cu  Cu44  1  0.33492300  0.96769300  0.09572400  1
  Cu  Cu45  1  0.83492300  0.03230700  0.40427600  1
  Cu  Cu46  1  0.66507700  0.03230700  0.90427600  1
  Cu  Cu47  1  0.16507700  0.96769300  0.59572400  1
  Cu  Cu48  1  0.48454100  0.09808800  0.15762900  1
  Cu  Cu49  1  0.98454100  0.90191200  0.34237100  1
  Cu  Cu50  1  0.51545900  0.90191200  0.84237100  1
  Cu  Cu51  1  0.01545900  0.09808800  0.65762900  1
  Cu  Cu52  1  0.27153300  0.18249400  0.14694200  1
  Cu  Cu53  1  0.77153300  0.81750600  0.35305800  1
  Cu  Cu54  1  0.72846700  0.81750600  0.85305800  1
  Cu  Cu55  1  0.22846700  0.18249400  0.64694200  1
  Cu  Cu56  1  0.39293700  0.29669500  0.99915000  1
  Cu  Cu57  1  0.89293700  0.70330500  0.50085000  1
  Cu  Cu58  1  0.60706300  0.70330500  0.00085000  1
  Cu  Cu59  1  0.10706300  0.29669500  0.49915000  1
