# generated using pymatgen
data_Cu8Ni2C5
_symmetry_space_group_name_H-M   'P 1'
_cell_length_a   3.79115300
_cell_length_b   9.90896300
_cell_length_c   11.68587900
_cell_angle_alpha   90.00000000
_cell_angle_beta   90.00000000
_cell_angle_gamma   90.00000000
_symmetry_Int_Tables_number   1
_chemical_formula_structural   Cu8Ni2C5
_chemical_formula_sum   'Cu16 Ni4 C10'
_cell_volume   438.99634415
_cell_formula_units_Z   2
loop_
 _symmetry_equiv_pos_site_id
 _symmetry_equiv_pos_as_xyz
  1  'x, y, z'
loop_
 _atom_site_type_symbol
 _atom_site_label
 _atom_site_symmetry_multiplicity
 _atom_site_fract_x
 _atom_site_fract_y
 _atom_site_fract_z
 _atom_site_occupancy
  C  C0  1  0.50121600  0.21763400  0.34346200  1
  C  C1  1  0.50121600  0.78236600  0.65653800  1
  C  C2  1  0.49878400  0.71763400  0.15653800  1
  C  C3  1  0.49878400  0.28236600  0.84346200  1
  C  C4  1  0.00027600  0.86431900  0.41642800  1
  C  C5  1  0.00027600  0.13568100  0.58357200  1
  C  C6  1  0.99972400  0.36431900  0.08357200  1
  C  C7  1  0.99972400  0.63568100  0.91642800  1
  C  C8  1  0.01762100  0.50000000  0.50000000  1
  C  C9  1  0.98237900  0.00000000  0.00000000  1
  Ni  Ni10  1  0.51339800  0.51667600  0.35251900  1
  Ni  Ni11  1  0.51339800  0.48332400  0.64748100  1
  Ni  Ni12  1  0.48660200  0.01667600  0.14748100  1
  Ni  Ni13  1  0.48660200  0.98332400  0.85251900  1
  Cu  Cu14  1  0.00384200  0.30278600  0.47292700  1
  Cu  Cu15  1  0.00384200  0.69721400  0.52707300  1
  Cu  Cu16  1  0.99615800  0.80278600  0.02707300  1
  Cu  Cu17  1  0.99615800  0.19721400  0.97292700  1
  Cu  Cu18  1  0.99974800  0.05752600  0.39300600  1
  Cu  Cu19  1  0.99974800  0.94247400  0.60699400  1
  Cu  Cu20  1  0.00025200  0.55752600  0.10699400  1
  Cu  Cu21  1  0.00025200  0.44247400  0.89300600  1
  Cu  Cu22  1  0.00085900  0.28249300  0.22709000  1
  Cu  Cu23  1  0.00085900  0.71750700  0.77291000  1
  Cu  Cu24  1  0.99914100  0.78249300  0.27291000  1
  Cu  Cu25  1  0.99914100  0.21750700  0.72709000  1
  Cu  Cu26  1  0.50060200  0.14285800  0.54638700  1
  Cu  Cu27  1  0.50060200  0.85714200  0.45361300  1
  Cu  Cu28  1  0.49939800  0.64285800  0.95361300  1
  Cu  Cu29  1  0.49939800  0.35714200  0.04638700  1
