# generated using pymatgen
data_CuNiC29
_symmetry_space_group_name_H-M   'P 1'
_cell_length_a   8.55731914
_cell_length_b   8.87046683
_cell_length_c   4.42527815
_cell_angle_alpha   90.00000000
_cell_angle_beta   90.00000000
_cell_angle_gamma   90.00000000
_symmetry_Int_Tables_number   1
_chemical_formula_structural   CuNiC29
_chemical_formula_sum   'Cu1 Ni1 C29'
_cell_volume   335.91142761
_cell_formula_units_Z   1
loop_
 _symmetry_equiv_pos_site_id
 _symmetry_equiv_pos_as_xyz
  1  'x, y, z'
loop_
 _atom_site_type_symbol
 _atom_site_label
 _atom_site_symmetry_multiplicity
 _atom_site_fract_x
 _atom_site_fract_y
 _atom_site_fract_z
 _atom_site_occupancy
  Ni  Ni0  1  0.40124957  0.50000000  0.00000000  1
  Cu  Cu1  1  0.99847778  0.00000000  0.00000000  1
  C  C2  1  0.97593404  0.50000000  0.00000000  1
  C  C3  1  0.51008915  0.00000000  0.00000000  1
  C  C4  1  0.00248247  0.24615727  0.50000000  1
  C  C5  1  0.00248247  0.75384273  0.50000000  1
  C  C6  1  0.50934673  0.24093191  0.50000000  1
  C  C7  1  0.50934673  0.75906809  0.50000000  1
  C  C8  1  0.25276574  0.00000000  0.50000000  1
  C  C9  1  0.23061435  0.50000000  0.50000000  1
  C  C10  1  0.76003626  0.00000000  0.50000000  1
  C  C11  1  0.74544021  0.50000000  0.50000000  1
  C  C12  1  0.25042451  0.21605985  0.00000000  1
  C  C13  1  0.25042451  0.78394015  0.00000000  1
  C  C14  1  0.74622374  0.25013344  0.00000000  1
  C  C15  1  0.74622374  0.74986656  0.00000000  1
  C  C16  1  0.26367431  0.00000000  0.00000000  1
  C  C17  1  0.74539407  0.00000000  0.00000000  1
  C  C18  1  0.75115507  0.50000000  0.00000000  1
  C  C19  1  0.25576840  0.26025141  0.50000000  1
  C  C20  1  0.25576840  0.73974859  0.50000000  1
  C  C21  1  0.75702062  0.24805210  0.50000000  1
  C  C22  1  0.75702062  0.75194790  0.50000000  1
  C  C23  1  0.01127916  0.00000000  0.50000000  1
  C  C24  1  0.00330727  0.50000000  0.50000000  1
  C  C25  1  0.49998721  0.00000000  0.50000000  1
  C  C26  1  0.51310365  0.50000000  0.50000000  1
  C  C27  1  0.02050378  0.27583461  -0.00000000  1
  C  C28  1  0.02050378  0.72416539  -0.00000000  1
  C  C29  1  0.50197582  0.22678088  0.00000000  1
  C  C30  1  0.50197582  0.77321912  0.00000000  1
