# generated using pymatgen
data_Cu4Ni4C21
_symmetry_space_group_name_H-M   'P 1'
_cell_length_a   8.37897100
_cell_length_b   9.30584317
_cell_length_c   9.40266298
_cell_angle_alpha   99.17236463
_cell_angle_beta   90.00000000
_cell_angle_gamma   90.00000000
_symmetry_Int_Tables_number   1
_chemical_formula_structural   Cu4Ni4C21
_chemical_formula_sum   'Cu8 Ni8 C42'
_cell_volume   723.78281769
_cell_formula_units_Z   2
loop_
 _symmetry_equiv_pos_site_id
 _symmetry_equiv_pos_as_xyz
  1  'x, y, z'
loop_
 _atom_site_type_symbol
 _atom_site_label
 _atom_site_symmetry_multiplicity
 _atom_site_fract_x
 _atom_site_fract_y
 _atom_site_fract_z
 _atom_site_occupancy
  C  C0  1  0.77468800  0.42857900  0.01841000  1
  C  C1  1  0.27468800  0.57142100  0.48159000  1
  C  C2  1  0.22531200  0.57142100  0.98159000  1
  C  C3  1  0.72531200  0.42857900  0.51841000  1
  C  C4  1  0.36003800  0.13521800  0.99574200  1
  C  C5  1  0.86003800  0.86478200  0.50425800  1
  C  C6  1  0.63996200  0.86478200  0.00425800  1
  C  C7  1  0.13996200  0.13521800  0.49574200  1
  C  C8  1  0.00000000  0.00000000  0.00000000  1
  C  C9  1  0.50000000  0.00000000  0.50000000  1
  Ni  Ni10  1  0.80339500  0.10015000  0.28934000  1
  Ni  Ni11  1  0.30339500  0.89985000  0.21066000  1
  Ni  Ni12  1  0.19660500  0.89985000  0.71066000  1
  Ni  Ni13  1  0.69660500  0.10015000  0.78934000  1
  Ni  Ni14  1  0.06185600  0.30378400  0.23338600  1
  Ni  Ni15  1  0.56185600  0.69621600  0.26661400  1
  Ni  Ni16  1  0.93814400  0.69621600  0.76661400  1
  Ni  Ni17  1  0.43814400  0.30378400  0.73338600  1
  Cu  Cu18  1  0.53615700  0.21647700  0.22970800  1
  Cu  Cu19  1  0.03615700  0.78352300  0.27029200  1
  Cu  Cu20  1  0.46384300  0.78352300  0.77029200  1
  Cu  Cu21  1  0.96384300  0.21647700  0.72970800  1
  Cu  Cu22  1  0.48881200  0.37559300  0.20417000  1
  Cu  Cu23  1  0.98881200  0.62440700  0.29583000  1
  Cu  Cu24  1  0.51118800  0.62440700  0.79583000  1
  Cu  Cu25  1  0.01118800  0.37559300  0.70417000  1
  C  C26  1  0.15078100  0.30592500  0.37568100  1
  C  C27  1  0.65078100  0.69407500  0.12431900  1
  C  C28  1  0.84921900  0.69407500  0.62431900  1
  C  C29  1  0.34921900  0.30592500  0.87568100  1
  C  C30  1  0.87406200  0.25795400  0.26407600  1
  C  C31  1  0.37406200  0.74204600  0.23592400  1
  C  C32  1  0.12593800  0.74204600  0.73592400  1
  C  C33  1  0.62593800  0.25795400  0.76407600  1
  C  C34  1  0.63909800  0.13522300  0.35524200  1
  C  C35  1  0.13909800  0.86477700  0.14475800  1
  C  C36  1  0.36090200  0.86477700  0.64475800  1
  C  C37  1  0.86090200  0.13522300  0.85524200  1
  C  C38  1  0.80065200  0.00731700  0.13730900  1
  C  C39  1  0.30065200  0.99268300  0.36269100  1
  C  C40  1  0.19934800  0.99268300  0.86269100  1
  C  C41  1  0.69934800  0.00731700  0.63730900  1
  C  C42  1  0.12177500  0.18601200  0.11105800  1
  C  C43  1  0.62177500  0.81398800  0.38894200  1
  C  C44  1  0.87822500  0.81398800  0.88894200  1
  C  C45  1  0.37822500  0.18601200  0.61105800  1
  C  C46  1  0.42018700  0.96056100  0.10976800  1
  C  C47  1  0.92018700  0.03943900  0.39023200  1
  C  C48  1  0.57981300  0.03943900  0.89023200  1
  C  C49  1  0.07981300  0.96056100  0.60976800  1
  C  C50  1  0.04394700  0.45381800  0.19031400  1
  C  C51  1  0.54394700  0.54618200  0.30968600  1
  C  C52  1  0.95605300  0.54618200  0.80968600  1
  C  C53  1  0.45605300  0.45381800  0.69031400  1
  C  C54  1  0.49706800  0.27315900  0.15462900  1
  C  C55  1  0.99706800  0.72684100  0.34537100  1
  C  C56  1  0.50293200  0.72684100  0.84537100  1
  C  C57  1  0.00293200  0.27315900  0.65462900  1
