# generated using pymatgen
data_CuNiC8
_symmetry_space_group_name_H-M   'P 1'
_cell_length_a   5.46300200
_cell_length_b   5.31562654
_cell_length_c   7.60475696
_cell_angle_alpha   89.68519543
_cell_angle_beta   90.00256264
_cell_angle_gamma   89.99633560
_symmetry_Int_Tables_number   1
_chemical_formula_structural   CuNiC8
_chemical_formula_sum   'Cu2 Ni2 C16'
_cell_volume   220.83332088
_cell_formula_units_Z   2
loop_
 _symmetry_equiv_pos_site_id
 _symmetry_equiv_pos_as_xyz
  1  'x, y, z'
loop_
 _atom_site_type_symbol
 _atom_site_label
 _atom_site_symmetry_multiplicity
 _atom_site_fract_x
 _atom_site_fract_y
 _atom_site_fract_z
 _atom_site_occupancy
  C  C0  1  0.03492700  0.99254500  0.24915100  1
  C  C1  1  0.46510200  0.49264100  0.74914400  1
  C  C2  1  0.55825100  0.52848200  0.24787300  1
  C  C3  1  0.94170300  0.02855000  0.74784100  1
  Ni  Ni4  1  0.50257000  0.00040200  0.00194600  1
  Ni  Ni5  1  0.99744200  0.50034000  0.50195300  1
  Cu  Cu6  1  0.49702600  0.00134300  0.49757300  1
  Cu  Cu7  1  0.00297600  0.50137600  0.99757500  1
  C  C8  1  0.02086300  0.63071000  0.74228600  1
  C  C9  1  0.20664300  0.18403700  0.94116300  1
  C  C10  1  0.19324400  0.20055100  0.55695500  1
  C  C11  1  0.30671600  0.70047500  0.05694000  1
  C  C12  1  0.29333600  0.68395300  0.44116300  1
  C  C13  1  0.47914200  0.13066800  0.24231900  1
  C  C14  1  0.54910100  0.92657100  0.75589700  1
  C  C15  1  0.73924400  0.27271500  0.55823000  1
  C  C16  1  0.73246900  0.26280200  0.94888500  1
  C  C17  1  0.76765400  0.76277200  0.44891400  1
  C  C18  1  0.76072000  0.77262200  0.05825600  1
  C  C19  1  0.95087000  0.42645000  0.25593100  1
