# generated using pymatgen
data_Cu13(NiC24)2
_symmetry_space_group_name_H-M   'P 1'
_cell_length_a   10.28574546
_cell_length_b   16.62379630
_cell_length_c   17.17311098
_cell_angle_alpha   118.34626958
_cell_angle_beta   90.00000000
_cell_angle_gamma   90.00000000
_symmetry_Int_Tables_number   1
_chemical_formula_structural   Cu13(NiC24)2
_chemical_formula_sum   'Cu52 Ni8 C192'
_cell_volume   2584.30711673
_cell_formula_units_Z   4
loop_
 _symmetry_equiv_pos_site_id
 _symmetry_equiv_pos_as_xyz
  1  'x, y, z'
loop_
 _atom_site_type_symbol
 _atom_site_label
 _atom_site_symmetry_multiplicity
 _atom_site_fract_x
 _atom_site_fract_y
 _atom_site_fract_z
 _atom_site_occupancy
  C  C0  1  0.71330876  0.40056905  0.58104397  1
  C  C1  1  0.78669124  0.90056905  0.08104397  1
  C  C2  1  0.28669124  0.59943095  0.41895603  1
  C  C3  1  0.21330876  0.09943095  0.91895603  1
  C  C4  1  0.71186723  0.54455552  0.65510111  1
  C  C5  1  0.78813277  0.04455552  0.15510111  1
  C  C6  1  0.28813277  0.45544448  0.34489889  1
  C  C7  1  0.21186723  0.95544448  0.84489889  1
  C  C8  1  0.53885403  0.53264512  0.66460978  1
  C  C9  1  0.96114597  0.03264512  0.16460978  1
  C  C10  1  0.46114597  0.46735488  0.33539022  1
  C  C11  1  0.03885403  0.96735488  0.83539022  1
  C  C12  1  0.54023984  0.40883803  0.60120605  1
  C  C13  1  0.95976016  0.90883803  0.10120605  1
  C  C14  1  0.45976016  0.59116197  0.39879395  1
  C  C15  1  0.04023984  0.09116197  0.89879395  1
  C  C16  1  0.64637399  0.55790093  0.75477204  1
  C  C17  1  0.85362601  0.05790093  0.25477204  1
  C  C18  1  0.35362601  0.44209907  0.24522796  1
  C  C19  1  0.14637399  0.94209907  0.74522796  1
  C  C20  1  0.52981294  0.46428070  0.71946591  1
  C  C21  1  0.97018706  0.96428070  0.21946591  1
  C  C22  1  0.47018706  0.53571930  0.28053409  1
  C  C23  1  0.02981294  0.03571930  0.78053409  1
  C  C24  1  0.64783762  0.37377705  0.66049278  1
  C  C25  1  0.85216238  0.87377705  0.16049278  1
  C  C26  1  0.35216238  0.62622295  0.33950722  1
  C  C27  1  0.14783762  0.12622295  0.83950722  1
  C  C28  1  0.67109700  0.46146347  0.77030790  1
  C  C29  1  0.82890300  0.96146347  0.27030790  1
  C  C30  1  0.32890300  0.53853653  0.22969210  1
  C  C31  1  0.17109700  0.03853653  0.72969210  1
  Ni  Ni32  1  0.97304784  0.58995123  0.80005227  1
  Ni  Ni33  1  0.52695216  0.08995123  0.30005227  1
  Ni  Ni34  1  0.02695216  0.41004877  0.19994773  1
  Ni  Ni35  1  0.47304784  0.91004877  0.69994773  1
  Ni  Ni36  1  0.97602879  0.33895930  0.66091854  1
  Ni  Ni37  1  0.52397121  0.83895930  0.16091854  1
  Ni  Ni38  1  0.02397121  0.66104070  0.33908146  1
  Ni  Ni39  1  0.47602879  0.16104070  0.83908146  1
  C  C40  1  0.60746098  0.47974664  0.51376228  1
  C  C41  1  0.89253902  0.97974664  0.01376228  1
  C  C42  1  0.39253902  0.52025336  0.48623772  1
  C  C43  1  0.10746098  0.02025336  0.98623772  1
  C  C44  1  0.77090022  0.34874261  0.51555864  1
  C  C45  1  0.72909978  0.84874261  0.01555864  1
  C  C46  1  0.22909978  0.65125739  0.48444136  1
  C  C47  1  0.27090022  0.15125739  0.98444136  1
  C  C48  1  0.76880592  0.60249351  0.64610020  1
  C  C49  1  0.73119408  0.10249351  0.14610020  1
  C  C50  1  0.23119408  0.39750649  0.35389980  1
  C  C51  1  0.26880592  0.89750649  0.85389980  1
  C  C52  1  0.45317879  0.58275230  0.66759808  1
  C  C53  1  0.04682121  0.08275230  0.16759808  1
  C  C54  1  0.54682121  0.41724770  0.33240192  1
  C  C55  1  0.95317879  0.91724770  0.83240192  1
  C  C56  1  0.45569831  0.36102538  0.55407860  1
  C  C57  1  0.04430169  0.86102538  0.05407860  1
  C  C58  1  0.54430169  0.63897462  0.44592140  1
  C  C59  1  0.95569831  0.13897462  0.94592140  1
  C  C60  1  0.64299858  0.63066544  0.82071888  1
  C  C61  1  0.85700142  0.13066544  0.32071888  1
  C  C62  1  0.35700142  0.36933456  0.17928112  1
  C  C63  1  0.14299858  0.86933456  0.67928112  1
  C  C64  1  0.43247406  0.46075432  0.75667751  1
  C  C65  1  0.06752594  0.96075432  0.25667751  1
  C  C66  1  0.56752594  0.53924568  0.24332249  1
  C  C67  1  0.93247406  0.03924568  0.74332249  1
  C  C68  1  0.64597965  0.29719131  0.65053295  1
  C  C69  1  0.85402035  0.79719131  0.15053295  1
  C  C70  1  0.35402035  0.70280869  0.34946705  1
  C  C71  1  0.14597965  0.20280869  0.84946705  1
  C  C72  1  0.68580023  0.45674526  0.83750618  1
  C  C73  1  0.81419977  0.95674526  0.33750618  1
  C  C74  1  0.31419977  0.54325474  0.16249382  1
  C  C75  1  0.18580023  0.04325474  0.66249382  1
  C  C76  1  0.86280084  0.70628553  0.78059102  1
  C  C77  1  0.63719916  0.20628553  0.28059102  1
  C  C78  1  0.13719916  0.29371447  0.21940898  1
  C  C79  1  0.36280084  0.79371447  0.71940898  1
  C  C80  1  0.00919481  0.74800830  0.84048227  1
  C  C81  1  0.49080519  0.24800830  0.34048227  1
  C  C82  1  0.99080519  0.25199170  0.15951773  1
  C  C83  1  0.50919481  0.75199170  0.65951773  1
  C  C84  1  0.13963016  0.66523969  0.69907736  1
  C  C85  1  0.36036984  0.16523969  0.19907736  1
  C  C86  1  0.86036984  0.33476031  0.30092264  1
  C  C87  1  0.63963016  0.83476031  0.80092264  1
  C  C88  1  0.02441683  0.73923212  0.69007008  1
  C  C89  1  0.47558317  0.23923212  0.19007008  1
  C  C90  1  0.97558317  0.26076788  0.30992992  1
  C  C91  1  0.52441683  0.76076788  0.80992992  1
  C  C92  1  0.99395194  0.61965636  0.63831076  1
  C  C93  1  0.50604806  0.11965636  0.13831076  1
  C  C94  1  0.00604806  0.38034364  0.36168924  1
  C  C95  1  0.49395194  0.88034364  0.86168924  1
  C  C96  1  0.16258233  0.52016690  0.82548268  1
  C  C97  1  0.33741767  0.02016690  0.32548268  1
  C  C98  1  0.83741767  0.47983310  0.17451732  1
  C  C99  1  0.66258233  0.97983310  0.67451732  1
  C  C100  1  0.19033774  0.54988969  0.74145008  1
  C  C101  1  0.30966226  0.04988969  0.24145008  1
  C  C102  1  0.80966226  0.45011031  0.25854992  1
  C  C103  1  0.69033774  0.95011031  0.75854992  1
  C  C104  1  0.22198673  0.71588104  0.85628682  1
  C  C105  1  0.27801327  0.21588104  0.35628682  1
  C  C106  1  0.77801327  0.28411896  0.14371318  1
  C  C107  1  0.72198673  0.78411896  0.64371318  1
  C  C108  1  0.33034711  0.64174697  0.87131925  1
  C  C109  1  0.16965289  0.14174697  0.37131925  1
  C  C110  1  0.66965289  0.35825303  0.12868075  1
  C  C111  1  0.83034711  0.85825303  0.62868075  1
  C  C112  1  0.19317048  0.68696205  0.94173485  1
  C  C113  1  0.30682952  0.18696205  0.44173485  1
  C  C114  1  0.80682952  0.31303795  0.05826515  1
  C  C115  1  0.69317048  0.81303795  0.55826515  1
  C  C116  1  0.96954526  0.70408644  0.95371657  1
  C  C117  1  0.53045474  0.20408644  0.45371657  1
  C  C118  1  0.03045474  0.29591356  0.04628343  1
  C  C119  1  0.46954526  0.79591356  0.54628343  1
  C  C120  1  0.81474135  0.65539264  0.91592916  1
  C  C121  1  0.68525865  0.15539264  0.41592916  1
  C  C122  1  0.18525865  0.34460736  0.08407084  1
  C  C123  1  0.31474135  0.84460736  0.58407084  1
  C  C124  1  0.88837342  0.51073114  0.91977586  1
  C  C125  1  0.61162658  0.01073114  0.41977586  1
  C  C126  1  0.11162658  0.48926886  0.08022414  1
  C  C127  1  0.38837342  0.98926886  0.58022414  1
  C  C128  1  0.89894688  0.60899664  0.02529541  1
  C  C129  1  0.60105312  0.10899664  0.52529541  1
  C  C130  1  0.10105312  0.39100336  0.97470459  1
  C  C131  1  0.39894688  0.89100336  0.47470459  1
  C  C132  1  0.04166512  0.56282535  0.96223202  1
  C  C133  1  0.45833488  0.06282535  0.46223202  1
  C  C134  1  0.95833488  0.43717465  0.03776798  1
  C  C135  1  0.54166512  0.93717465  0.53776798  1
  C  C136  1  0.19566570  0.39609792  0.67747693  1
  C  C137  1  0.30433430  0.89609792  0.17747693  1
  C  C138  1  0.80433430  0.60390208  0.32252307  1
  C  C139  1  0.69566570  0.10390208  0.82252307  1
  C  C140  1  0.18358808  0.28356138  0.59026544  1
  C  C141  1  0.31641192  0.78356138  0.09026544  1
  C  C142  1  0.81641192  0.71643862  0.40973456  1
  C  C143  1  0.68358808  0.21643862  0.90973456  1
  C  C144  1  0.06932860  0.34317837  0.49537285  1
  C  C145  1  0.43067140  0.84317837  0.99537285  1
  C  C146  1  0.93067140  0.65682163  0.50462715  1
  C  C147  1  0.56932860  0.15682163  0.00462715  1
  C  C148  1  0.22519485  0.39328988  0.53033383  1
  C  C149  1  0.27480515  0.89328988  0.03033383  1
  C  C150  1  0.77480515  0.60671012  0.46966617  1
  C  C151  1  0.72519485  0.10671012  0.96966617  1
  C  C152  1  0.08296738  0.45596230  0.58362949  1
  C  C153  1  0.41703262  0.95596230  0.08362949  1
  C  C154  1  0.91703262  0.54403770  0.41637051  1
  C  C155  1  0.58296738  0.04403770  0.91637051  1
  C  C156  1  0.81692656  0.22114567  0.58325293  1
  C  C157  1  0.68307344  0.72114567  0.08325293  1
  C  C158  1  0.18307344  0.77885433  0.41674707  1
  C  C159  1  0.31692656  0.27885433  0.91674707  1
  C  C160  1  0.91878638  0.23828078  0.51076287  1
  C  C161  1  0.58121362  0.73828078  0.01076287  1
  C  C162  1  0.08121362  0.76171922  0.48923713  1
  C  C163  1  0.41878638  0.26171922  0.98923713  1
  C  C164  1  0.10155682  0.15016885  0.54237574  1
  C  C165  1  0.39844318  0.65016885  0.04237574  1
  C  C166  1  0.89844318  0.84983115  0.45762426  1
  C  C167  1  0.60155682  0.34983115  0.95762426  1
  C  C168  1  0.96129977  0.08478106  0.49214665  1
  C  C169  1  0.53870023  0.58478106  0.99214665  1
  C  C170  1  0.03870023  0.91521894  0.50785335  1
  C  C171  1  0.46129977  0.41521894  0.00785335  1
  C  C172  1  0.98920815  0.12629762  0.60685417  1
  C  C173  1  0.51079185  0.62629762  0.10685417  1
  C  C174  1  0.01079185  0.87370238  0.39314583  1
  C  C175  1  0.48920815  0.37370238  0.89314583  1
  C  C176  1  0.09032822  0.25660548  0.72376716  1
  C  C177  1  0.40967178  0.75660548  0.22376716  1
  C  C178  1  0.90967178  0.74339452  0.27623284  1
  C  C179  1  0.59032822  0.24339452  0.77623284  1
  C  C180  1  0.06492157  0.37230588  0.80246659  1
  C  C181  1  0.43507843  0.87230588  0.30246659  1
  C  C182  1  0.93507843  0.62769412  0.19753341  1
  C  C183  1  0.56492157  0.12769412  0.69753341  1
  C  C184  1  0.82708785  0.33804023  0.81428172  1
  C  C185  1  0.67291215  0.83804023  0.31428172  1
  C  C186  1  0.17291215  0.66195977  0.18571828  1
  C  C187  1  0.32708785  0.16195977  0.68571828  1
  C  C188  1  0.93191930  0.26738891  0.83908453  1
  C  C189  1  0.56808070  0.76738891  0.33908453  1
  C  C190  1  0.06808070  0.73261109  0.16091547  1
  C  C191  1  0.43191930  0.23261109  0.66091547  1
  C  C192  1  0.85275184  0.22206978  0.73540455  1
  C  C193  1  0.64724816  0.72206978  0.23540455  1
  C  C194  1  0.14724816  0.77793022  0.26459545  1
  C  C195  1  0.35275184  0.27793022  0.76459545  1
  C  C196  1  0.83242667  0.46556785  0.70379144  1
  C  C197  1  0.66757333  0.96556785  0.20379144  1
  C  C198  1  0.16757333  0.53443215  0.29620856  1
  C  C199  1  0.33242667  0.03443215  0.79620856  1
  Cu  Cu200  1  0.62196364  0.47548579  0.57451430  1
  Cu  Cu201  1  0.87803636  0.97548579  0.07451430  1
  Cu  Cu202  1  0.37803636  0.52451421  0.42548570  1
  Cu  Cu203  1  0.12196364  0.02451421  0.92548570  1
  Cu  Cu204  1  0.96633783  0.69047073  0.78169004  1
  Cu  Cu205  1  0.53366217  0.19047073  0.28169004  1
  Cu  Cu206  1  0.03366217  0.30952927  0.21830996  1
  Cu  Cu207  1  0.46633783  0.80952927  0.71830996  1
  Cu  Cu208  1  0.03490627  0.67748027  0.69750235  1
  Cu  Cu209  1  0.46509373  0.17748027  0.19750235  1
  Cu  Cu210  1  0.96509373  0.32251973  0.30249765  1
  Cu  Cu211  1  0.53490627  0.82251973  0.80249765  1
  Cu  Cu212  1  0.15042280  0.57577511  0.80850733  1
  Cu  Cu213  1  0.34957720  0.07577511  0.30850733  1
  Cu  Cu214  1  0.84957720  0.42422489  0.19149267  1
  Cu  Cu215  1  0.65042280  0.92422489  0.69149267  1
  Cu  Cu216  1  0.22716719  0.66011897  0.87326557  1
  Cu  Cu217  1  0.27283281  0.16011897  0.37326557  1
  Cu  Cu218  1  0.77283281  0.33988103  0.12673443  1
  Cu  Cu219  1  0.72716719  0.83988103  0.62673443  1
  Cu  Cu220  1  0.91815193  0.63879443  0.91588559  1
  Cu  Cu221  1  0.58184807  0.13879443  0.41588559  1
  Cu  Cu222  1  0.08184807  0.36120557  0.08411441  1
  Cu  Cu223  1  0.41815193  0.86120557  0.58411441  1
  Cu  Cu224  1  0.93821563  0.57650796  0.95763666  1
  Cu  Cu225  1  0.56178437  0.07650796  0.45763666  1
  Cu  Cu226  1  0.06178437  0.42349204  0.04236334  1
  Cu  Cu227  1  0.43821563  0.92349204  0.54236334  1
  Cu  Cu228  1  0.13632593  0.35102323  0.61994366  1
  Cu  Cu229  1  0.36367407  0.85102323  0.11994366  1
  Cu  Cu230  1  0.86367407  0.64897677  0.38005634  1
  Cu  Cu231  1  0.63632593  0.14897677  0.88005634  1
  Cu  Cu232  1  0.12778891  0.38775096  0.55359192  1
  Cu  Cu233  1  0.37221109  0.88775096  0.05359192  1
  Cu  Cu234  1  0.87221109  0.61224904  0.44640808  1
  Cu  Cu235  1  0.62778891  0.11224904  0.94640808  1
  Cu  Cu236  1  0.91939840  0.22879577  0.56997922  1
  Cu  Cu237  1  0.58060160  0.72879577  0.06997922  1
  Cu  Cu238  1  0.08060160  0.77120423  0.43002078  1
  Cu  Cu239  1  0.41939840  0.27120423  0.93002078  1
  Cu  Cu240  1  0.99760379  0.14353818  0.55276840  1
  Cu  Cu241  1  0.50239621  0.64353818  0.05276840  1
  Cu  Cu242  1  0.00239621  0.85646182  0.44723160  1
  Cu  Cu243  1  0.49760379  0.35646182  0.94723160  1
  Cu  Cu244  1  0.01705814  0.31139281  0.75008898  1
  Cu  Cu245  1  0.48294186  0.81139281  0.25008898  1
  Cu  Cu246  1  0.98294186  0.68860719  0.24991102  1
  Cu  Cu247  1  0.51705814  0.18860719  0.74991102  1
  Cu  Cu248  1  0.90025209  0.28346927  0.78691810  1
  Cu  Cu249  1  0.59974791  0.78346927  0.28691810  1
  Cu  Cu250  1  0.09974791  0.71653073  0.21308190  1
  Cu  Cu251  1  0.40025209  0.21653073  0.71308190  1
