# generated using pymatgen
data_CuNiC14
_symmetry_space_group_name_H-M   'P 1'
_cell_length_a   6.19572137
_cell_length_b   6.27594200
_cell_length_c   9.92026248
_cell_angle_alpha   90.00000000
_cell_angle_beta   90.00000000
_cell_angle_gamma   120.42924547
_symmetry_Int_Tables_number   1
_chemical_formula_structural   CuNiC14
_chemical_formula_sum   'Cu1 Ni1 C14'
_cell_volume   332.60579902
_cell_formula_units_Z   1
loop_
 _symmetry_equiv_pos_site_id
 _symmetry_equiv_pos_as_xyz
  1  'x, y, z'
loop_
 _atom_site_type_symbol
 _atom_site_label
 _atom_site_symmetry_multiplicity
 _atom_site_fract_x
 _atom_site_fract_y
 _atom_site_fract_z
 _atom_site_occupancy
  C  C0  1  0.17247684  0.33623792  0.62500000  1
  C  C1  1  0.17307452  0.83653676  0.62500000  1
  C  C2  1  0.70492121  0.35129659  0.12500000  1
  C  C3  1  0.66460065  0.33090062  0.62500000  1
  C  C4  1  0.70492121  0.85362362  0.12500000  1
  C  C5  1  0.66460065  0.83369903  0.62500000  1
  C  C6  1  0.31829410  0.16446117  0.34408800  1
  C  C7  1  0.31829410  0.16446117  0.90591200  1
  C  C8  1  0.31829410  0.65383393  0.34408800  1
  C  C9  1  0.31829410  0.65383393  0.90591200  1
  C  C10  1  0.83960429  0.16980264  0.36827342  1
  C  C11  1  0.83960429  0.16980264  0.88172658  1
  C  C12  1  0.83261637  0.66630868  0.37525972  1
  C  C13  1  0.83261637  0.66630868  0.87474028  1
  Ni  Ni14  1  0.14677728  0.32338814  0.12500000  1
  Cu  Cu15  1  0.15100994  0.82550447  0.12500000  1
