# generated using pymatgen
data_Cu3Ni2C
_symmetry_space_group_name_H-M   'P 1'
_cell_length_a   9.86570000
_cell_length_b   10.69007900
_cell_length_c   14.66910700
_cell_angle_alpha   90.00000000
_cell_angle_beta   90.00000000
_cell_angle_gamma   90.00000000
_symmetry_Int_Tables_number   1
_chemical_formula_structural   Cu3Ni2C
_chemical_formula_sum   'Cu24 Ni16 C8'
_cell_volume   1547.07901842
_cell_formula_units_Z   8
loop_
 _symmetry_equiv_pos_site_id
 _symmetry_equiv_pos_as_xyz
  1  'x, y, z'
loop_
 _atom_site_type_symbol
 _atom_site_label
 _atom_site_symmetry_multiplicity
 _atom_site_fract_x
 _atom_site_fract_y
 _atom_site_fract_z
 _atom_site_occupancy
  C  C0  1  0.00000000  0.50000000  0.00000000  1
  C  C1  1  0.50000000  0.50000000  0.50000000  1
  C  C2  1  0.50000000  0.50000000  0.00000000  1
  C  C3  1  0.00000000  0.50000000  0.50000000  1
  C  C4  1  0.65738800  0.00000000  0.17280000  1
  C  C5  1  0.34261200  0.00000000  0.82720000  1
  C  C6  1  0.15738800  0.00000000  0.32720000  1
  C  C7  1  0.84261200  0.00000000  0.67280000  1
  Ni  Ni8  1  0.05658100  0.00000000  0.19119600  1
  Ni  Ni9  1  0.94341900  0.00000000  0.80880400  1
  Ni  Ni10  1  0.55658100  0.00000000  0.30880400  1
  Ni  Ni11  1  0.44341900  0.00000000  0.69119600  1
  Ni  Ni12  1  0.73544300  0.00000000  0.03144500  1
  Ni  Ni13  1  0.26455700  0.00000000  0.96855500  1
  Ni  Ni14  1  0.23544300  0.00000000  0.46855500  1
  Ni  Ni15  1  0.76455700  0.00000000  0.53144500  1
  Ni  Ni16  1  0.74113300  0.34399400  0.39624500  1
  Ni  Ni17  1  0.25886700  0.34399400  0.60375500  1
  Ni  Ni18  1  0.24113300  0.65600600  0.10375500  1
  Ni  Ni19  1  0.75886700  0.65600600  0.89624500  1
  Ni  Ni20  1  0.25886700  0.65600600  0.60375500  1
  Ni  Ni21  1  0.74113300  0.65600600  0.39624500  1
  Ni  Ni22  1  0.75886700  0.34399400  0.89624500  1
  Ni  Ni23  1  0.24113300  0.34399400  0.10375500  1
  Cu  Cu24  1  0.01280000  0.50000000  0.88465200  1
  Cu  Cu25  1  0.98720000  0.50000000  0.11534800  1
  Cu  Cu26  1  0.51280000  0.50000000  0.61534800  1
  Cu  Cu27  1  0.48720000  0.50000000  0.38465200  1
  Cu  Cu28  1  0.85899400  0.35083400  0.99191900  1
  Cu  Cu29  1  0.14100600  0.35083400  0.00808100  1
  Cu  Cu30  1  0.35899400  0.64916600  0.50808100  1
  Cu  Cu31  1  0.64100600  0.64916600  0.49191900  1
  Cu  Cu32  1  0.14100600  0.64916600  0.00808100  1
  Cu  Cu33  1  0.85899400  0.64916600  0.99191900  1
  Cu  Cu34  1  0.64100600  0.35083400  0.49191900  1
  Cu  Cu35  1  0.35899400  0.35083400  0.50808100  1
  Cu  Cu36  1  0.37183900  0.50000000  0.92411100  1
  Cu  Cu37  1  0.62816100  0.50000000  0.07588900  1
  Cu  Cu38  1  0.87183900  0.50000000  0.57588900  1
  Cu  Cu39  1  0.12816100  0.50000000  0.42411100  1
  Cu  Cu40  1  0.58946700  0.35371100  0.92339200  1
  Cu  Cu41  1  0.41053300  0.35371100  0.07660800  1
  Cu  Cu42  1  0.08946700  0.64628900  0.57660800  1
  Cu  Cu43  1  0.91053300  0.64628900  0.42339200  1
  Cu  Cu44  1  0.41053300  0.64628900  0.07660800  1
  Cu  Cu45  1  0.58946700  0.64628900  0.92339200  1
  Cu  Cu46  1  0.91053300  0.35371100  0.42339200  1
  Cu  Cu47  1  0.08946700  0.35371100  0.57660800  1
