# generated using pymatgen
data_Cu4NiC8
_symmetry_space_group_name_H-M   'P 1'
_cell_length_a   8.79408656
_cell_length_b   8.79408656
_cell_length_c   10.14197792
_cell_angle_alpha   55.46070789
_cell_angle_beta   55.46070789
_cell_angle_gamma   22.36263872
_symmetry_Int_Tables_number   1
_chemical_formula_structural   Cu4NiC8
_chemical_formula_sum   'Cu4 Ni1 C8'
_cell_volume   243.53050996
_cell_formula_units_Z   1
loop_
 _symmetry_equiv_pos_site_id
 _symmetry_equiv_pos_as_xyz
  1  'x, y, z'
loop_
 _atom_site_type_symbol
 _atom_site_label
 _atom_site_symmetry_multiplicity
 _atom_site_fract_x
 _atom_site_fract_y
 _atom_site_fract_z
 _atom_site_occupancy
  Ni  Ni0  1  0.29765200  0.29765200  0.22299500  1
  Cu  Cu1  1  0.64114200  0.64114200  0.57121300  1
  Cu  Cu2  1  0.12356100  0.12356100  0.20255600  1
  Cu  Cu3  1  0.85306700  0.85306700  0.84802300  1
  Cu  Cu4  1  0.35292100  0.35292100  0.48912700  1
  C  C5  1  0.87307600  0.87307600  0.61417400  1
  C  C6  1  0.45113200  0.45113200  0.77564000  1
  C  C7  1  0.52711000  0.52711000  0.26513500  1
  C  C8  1  0.15169300  0.15169300  0.39405200  1
  C  C9  1  0.19483800  0.19483800  0.64785600  1
  C  C10  1  0.80211200  0.80211200  0.09860800  1
  C  C11  1  0.80292700  0.80292700  0.36397900  1
  C  C12  1  0.25412400  0.25412400  0.91543500  1
