# generated using pymatgen
data_Cu5NiC8
_symmetry_space_group_name_H-M   'P 1'
_cell_length_a   7.58138171
_cell_length_b   7.99155430
_cell_length_c   13.71535600
_cell_angle_alpha   90.00000000
_cell_angle_beta   90.00000000
_cell_angle_gamma   120.04073382
_symmetry_Int_Tables_number   1
_chemical_formula_structural   Cu5NiC8
_chemical_formula_sum   'Cu20 Ni4 C32'
_cell_volume   719.34781242
_cell_formula_units_Z   4
loop_
 _symmetry_equiv_pos_site_id
 _symmetry_equiv_pos_as_xyz
  1  'x, y, z'
loop_
 _atom_site_type_symbol
 _atom_site_label
 _atom_site_symmetry_multiplicity
 _atom_site_fract_x
 _atom_site_fract_y
 _atom_site_fract_z
 _atom_site_occupancy
  C  C0  1  0.24684400  0.74298000  0.23622800  1
  C  C1  1  0.75315600  0.75702000  0.73622800  1
  C  C2  1  0.75315600  0.25702000  0.76377200  1
  C  C3  1  0.24684400  0.24298000  0.26377200  1
  C  C4  1  0.73597000  0.75984600  0.41564600  1
  C  C5  1  0.26403000  0.74015400  0.91564600  1
  C  C6  1  0.26403000  0.24015400  0.58435400  1
  C  C7  1  0.73597000  0.25984600  0.08435400  1
  Ni  Ni8  1  0.72996700  0.23844700  0.35444600  1
  Ni  Ni9  1  0.27003300  0.26155300  0.85444600  1
  Ni  Ni10  1  0.27003300  0.76155300  0.64555400  1
  Ni  Ni11  1  0.72996700  0.73844700  0.14555400  1
  Cu  Cu12  1  0.13423400  0.93218700  0.08299100  1
  Cu  Cu13  1  0.86576600  0.56781300  0.58299100  1
  Cu  Cu14  1  0.86576600  0.06781300  0.91700900  1
  Cu  Cu15  1  0.13423400  0.43218700  0.41700900  1
  Cu  Cu16  1  0.75353500  0.48880400  0.26447600  1
  Cu  Cu17  1  0.24646500  0.01119600  0.76447600  1
  Cu  Cu18  1  0.24646500  0.51119600  0.73552400  1
  Cu  Cu19  1  0.75353500  0.98880400  0.23552400  1
  Cu  Cu20  1  0.33719500  0.04311100  0.41257000  1
  Cu  Cu21  1  0.66280500  0.45688900  0.91257000  1
  Cu  Cu22  1  0.66280500  0.95688900  0.58743000  1
  Cu  Cu23  1  0.33719500  0.54311100  0.08743000  1
  Cu  Cu24  1  0.31543500  0.11041000  0.02498000  1
  Cu  Cu25  1  0.68456500  0.38959000  0.52498000  1
  Cu  Cu26  1  0.68456500  0.88959000  0.97502000  1
  Cu  Cu27  1  0.31543500  0.61041000  0.47502000  1
  Cu  Cu28  1  0.16654000  0.86445300  0.47097400  1
  Cu  Cu29  1  0.83346000  0.63554700  0.97097400  1
  Cu  Cu30  1  0.83346000  0.13554700  0.52902600  1
  Cu  Cu31  1  0.16654000  0.36445300  0.02902600  1
  C  C32  1  0.84576900  0.43883900  0.29308700  1
  C  C33  1  0.15423100  0.06116100  0.79308700  1
  C  C34  1  0.15423100  0.56116100  0.70691300  1
  C  C35  1  0.84576900  0.93883900  0.20691300  1
  C  C36  1  0.56967500  0.24915300  0.41980600  1
  C  C37  1  0.43032500  0.25084700  0.91980600  1
  C  C38  1  0.43032500  0.75084700  0.58019400  1
  C  C39  1  0.56967500  0.74915300  0.08019400  1
  C  C40  1  0.62818000  0.07141300  0.27991700  1
  C  C41  1  0.37182000  0.42858700  0.77991700  1
  C  C42  1  0.37182000  0.92858700  0.72008300  1
  C  C43  1  0.62818000  0.57141300  0.22008300  1
  C  C44  1  0.89980300  0.22947000  0.41177400  1
  C  C45  1  0.10019700  0.27053000  0.91177400  1
  C  C46  1  0.10019700  0.77053000  0.58822600  1
  C  C47  1  0.89980300  0.72947000  0.08822600  1
  C  C48  1  0.19055000  0.93793200  0.40861500  1
  C  C49  1  0.80945000  0.56206800  0.90861500  1
  C  C50  1  0.80945000  0.06206800  0.59138500  1
  C  C51  1  0.19055000  0.43793200  0.09138500  1
  C  C52  1  0.28396300  0.02939200  0.08489400  1
  C  C53  1  0.71603700  0.47060800  0.58489400  1
  C  C54  1  0.71603700  0.97060800  0.91510600  1
  C  C55  1  0.28396300  0.52939200  0.41510600  1
