# generated using pymatgen
data_Cu3NiC2
_symmetry_space_group_name_H-M   'P 1'
_cell_length_a   8.25613000
_cell_length_b   3.57355700
_cell_length_c   9.06450074
_cell_angle_alpha   83.45443869
_cell_angle_beta   90.00000000
_cell_angle_gamma   90.00000000
_symmetry_Int_Tables_number   1
_chemical_formula_structural   Cu3NiC2
_chemical_formula_sum   'Cu12 Ni4 C8'
_cell_volume   265.69349370
_cell_formula_units_Z   4
loop_
 _symmetry_equiv_pos_site_id
 _symmetry_equiv_pos_as_xyz
  1  'x, y, z'
loop_
 _atom_site_type_symbol
 _atom_site_label
 _atom_site_symmetry_multiplicity
 _atom_site_fract_x
 _atom_site_fract_y
 _atom_site_fract_z
 _atom_site_occupancy
  C  C0  1  0.87732700  0.49723600  0.71833300  1
  C  C1  1  0.37732700  0.50276400  0.78166700  1
  C  C2  1  0.12267300  0.50276400  0.28166700  1
  C  C3  1  0.62267300  0.49723600  0.21833300  1
  C  C4  1  0.63019600  0.95171200  0.91173400  1
  C  C5  1  0.13019600  0.04828800  0.58826600  1
  C  C6  1  0.36980400  0.04828800  0.08826600  1
  C  C7  1  0.86980400  0.95171200  0.41173400  1
  Ni  Ni8  1  0.91435800  0.90423600  0.00849000  1
  Ni  Ni9  1  0.41435800  0.09576400  0.49151000  1
  Ni  Ni10  1  0.08564200  0.09576400  0.99151000  1
  Ni  Ni11  1  0.58564200  0.90423600  0.50849000  1
  Cu  Cu12  1  0.50669700  0.96900000  0.92097500  1
  Cu  Cu13  1  0.00669700  0.03100000  0.57902500  1
  Cu  Cu14  1  0.49330300  0.03100000  0.07902500  1
  Cu  Cu15  1  0.99330300  0.96900000  0.42097500  1
  Cu  Cu16  1  0.81995400  0.97174100  0.89668900  1
  Cu  Cu17  1  0.31995400  0.02825900  0.60331100  1
  Cu  Cu18  1  0.18004600  0.02825900  0.10331100  1
  Cu  Cu19  1  0.68004600  0.97174100  0.39668900  1
  Cu  Cu20  1  0.61694700  0.69919600  0.62723200  1
  Cu  Cu21  1  0.11694700  0.30080400  0.87276800  1
  Cu  Cu22  1  0.38305300  0.30080400  0.37276800  1
  Cu  Cu23  1  0.88305300  0.69919600  0.12723200  1
