# generated using pymatgen
data_CuNi12
_symmetry_space_group_name_H-M   'P 1'
_cell_length_a   5.45204314
_cell_length_b   5.45204314
_cell_length_c   5.45204314
_cell_angle_alpha   98.04107479
_cell_angle_beta   98.04107479
_cell_angle_gamma   136.07380680
_symmetry_Int_Tables_number   1
_chemical_formula_structural   CuNi12
_chemical_formula_sum   'Cu1 Ni12'
_cell_volume   104.26722714
_cell_formula_units_Z   1
loop_
 _symmetry_equiv_pos_site_id
 _symmetry_equiv_pos_as_xyz
  1  'x, y, z'
loop_
 _atom_site_type_symbol
 _atom_site_label
 _atom_site_symmetry_multiplicity
 _atom_site_fract_x
 _atom_site_fract_y
 _atom_site_fract_z
 _atom_site_occupancy
  Ni  Ni0  1  0.00000000  0.00000000  0.50000000  1
  Ni  Ni1  1  0.50000000  0.50000000  0.50000000  1
  Ni  Ni2  1  0.50000000  0.00000000  0.00000000  1
  Ni  Ni3  1  0.00000000  0.50000000  0.00000000  1
  Ni  Ni4  1  0.00000000  0.34602500  0.34602500  1
  Ni  Ni5  1  0.00000000  0.65397500  0.65397500  1
  Ni  Ni6  1  0.65397500  0.00000000  0.65397500  1
  Ni  Ni7  1  0.34602500  0.00000000  0.34602500  1
  Ni  Ni8  1  0.50000000  0.29034200  0.79034200  1
  Ni  Ni9  1  0.50000000  0.70965800  0.20965800  1
  Ni  Ni10  1  0.70965800  0.50000000  0.20965800  1
  Ni  Ni11  1  0.29034200  0.50000000  0.79034200  1
  Cu  Cu12  1  0.00000000  0.00000000  0.00000000  1
