# generated using pymatgen
data_Cu2Ni2C
_symmetry_space_group_name_H-M   'P 1'
_cell_length_a   6.98709800
_cell_length_b   7.22861037
_cell_length_c   7.58652055
_cell_angle_alpha   103.52367950
_cell_angle_beta   87.27873953
_cell_angle_gamma   112.10658212
_symmetry_Int_Tables_number   1
_chemical_formula_structural   Cu2Ni2C
_chemical_formula_sum   'Cu6 Ni6 C3'
_cell_volume   344.81113755
_cell_formula_units_Z   3
loop_
 _symmetry_equiv_pos_site_id
 _symmetry_equiv_pos_as_xyz
  1  'x, y, z'
loop_
 _atom_site_type_symbol
 _atom_site_label
 _atom_site_symmetry_multiplicity
 _atom_site_fract_x
 _atom_site_fract_y
 _atom_site_fract_z
 _atom_site_occupancy
  C  C0  1  0.74895900  0.43998400  0.72637500  1
  C  C1  1  0.25104100  0.56001600  0.27362500  1
  C  C2  1  0.00000000  0.00000000  0.00000000  1
  Ni  Ni3  1  0.21280500  0.83495200  0.06431000  1
  Ni  Ni4  1  0.78719500  0.16504800  0.93569000  1
  Ni  Ni5  1  0.00647700  0.85703800  0.68870300  1
  Ni  Ni6  1  0.99352300  0.14296200  0.31129700  1
  Ni  Ni7  1  0.69654500  0.71631700  0.01514100  1
  Ni  Ni8  1  0.30345500  0.28368300  0.98485900  1
  Cu  Cu9  1  0.50263900  0.93696500  0.43049500  1
  Cu  Cu10  1  0.49736100  0.06303500  0.56950500  1
  Cu  Cu11  1  0.69798500  0.49752500  0.37968900  1
  Cu  Cu12  1  0.30201500  0.50247500  0.62031100  1
  Cu  Cu13  1  0.15195800  0.47860200  0.71786600  1
  Cu  Cu14  1  0.84804200  0.52139800  0.28213400  1
