# generated using pymatgen
data_Cu(Ni5C)8
_symmetry_space_group_name_H-M   'P 1'
_cell_length_a   9.59798076
_cell_length_b   9.59798076
_cell_length_c   9.59798017
_cell_angle_alpha   94.76219048
_cell_angle_beta   94.76219048
_cell_angle_gamma   94.76219528
_symmetry_Int_Tables_number   1
_chemical_formula_structural   Cu(Ni5C)8
_chemical_formula_sum   'Cu1 Ni40 C8'
_cell_volume   874.47752788
_cell_formula_units_Z   1
loop_
 _symmetry_equiv_pos_site_id
 _symmetry_equiv_pos_as_xyz
  1  'x, y, z'
loop_
 _atom_site_type_symbol
 _atom_site_label
 _atom_site_symmetry_multiplicity
 _atom_site_fract_x
 _atom_site_fract_y
 _atom_site_fract_z
 _atom_site_occupancy
  Ni  Ni0  1  0.50000000  0.50000000  0.50000000  1
  Ni  Ni1  1  0.00000000  0.50000000  0.50000000  1
  Ni  Ni2  1  0.50000000  0.00000000  0.50000000  1
  Ni  Ni3  1  0.50000000  0.50000000  0.00000000  1
  Ni  Ni4  1  0.26596500  0.63446700  0.61135700  1
  Ni  Ni5  1  0.61135700  0.26596500  0.63446700  1
  Ni  Ni6  1  0.63446700  0.61135700  0.26596500  1
  Ni  Ni7  1  0.73403500  0.36553300  0.38864300  1
  Ni  Ni8  1  0.38864300  0.73403500  0.36553300  1
  Ni  Ni9  1  0.36553300  0.38864300  0.73403500  1
  Ni  Ni10  1  0.67508000  0.77902900  0.53762500  1
  Ni  Ni11  1  0.53762500  0.67508000  0.77902900  1
  Ni  Ni12  1  0.77902900  0.53762500  0.67508000  1
  Ni  Ni13  1  0.32492000  0.22097100  0.46237500  1
  Ni  Ni14  1  0.46237500  0.32492000  0.22097100  1
  Ni  Ni15  1  0.22097100  0.46237500  0.32492000  1
  Ni  Ni16  1  0.77867200  0.07438300  0.44955200  1
  Ni  Ni17  1  0.44955200  0.77867200  0.07438300  1
  Ni  Ni18  1  0.07438300  0.44955200  0.77867200  1
  Ni  Ni19  1  0.22132800  0.92561700  0.55044800  1
  Ni  Ni20  1  0.55044800  0.22132800  0.92561700  1
  Ni  Ni21  1  0.92561700  0.55044800  0.22132800  1
  Ni  Ni22  1  0.96835000  0.78676500  0.59952200  1
  Ni  Ni23  1  0.59952200  0.96835000  0.78676500  1
  Ni  Ni24  1  0.78676500  0.59952200  0.96835000  1
  Ni  Ni25  1  0.03165000  0.21323500  0.40047800  1
  Ni  Ni26  1  0.40047800  0.03165000  0.21323500  1
  Ni  Ni27  1  0.21323500  0.40047800  0.03165000  1
  Ni  Ni28  1  0.05526100  0.74148200  0.87422600  1
  Ni  Ni29  1  0.87422600  0.05526100  0.74148200  1
  Ni  Ni30  1  0.74148200  0.87422600  0.05526100  1
  Ni  Ni31  1  0.94473900  0.25851800  0.12577400  1
  Ni  Ni32  1  0.12577400  0.94473900  0.25851800  1
  Ni  Ni33  1  0.25851800  0.12577400  0.94473900  1
  Ni  Ni34  1  0.12517000  0.17663100  0.67904800  1
  Ni  Ni35  1  0.67904800  0.12517000  0.17663100  1
  Ni  Ni36  1  0.17663100  0.67904800  0.12517000  1
  Ni  Ni37  1  0.87483000  0.82336900  0.32095200  1
  Ni  Ni38  1  0.32095200  0.87483000  0.82336900  1
  Ni  Ni39  1  0.82336900  0.32095200  0.87483000  1
  C  C40  1  0.79959100  0.79959100  0.79959100  1
  C  C41  1  0.20040900  0.20040900  0.20040900  1
  C  C42  1  0.29114000  0.61256300  0.88781400  1
  C  C43  1  0.88781400  0.29114000  0.61256300  1
  C  C44  1  0.61256300  0.88781400  0.29114000  1
  C  C45  1  0.70886000  0.38743700  0.11218600  1
  C  C46  1  0.11218600  0.70886000  0.38743700  1
  C  C47  1  0.38743700  0.11218600  0.70886000  1
  Cu  Cu48  1  0.00000000  0.00000000  0.00000000  1
