# generated using pymatgen
data_CuNiC5
_symmetry_space_group_name_H-M   'P 1'
_cell_length_a   5.20623900
_cell_length_b   7.33620300
_cell_length_c   13.25249800
_cell_angle_alpha   90.00000000
_cell_angle_beta   90.00000000
_cell_angle_gamma   90.00000000
_symmetry_Int_Tables_number   1
_chemical_formula_structural   CuNiC5
_chemical_formula_sum   'Cu4 Ni4 C20'
_cell_volume   506.16625544
_cell_formula_units_Z   4
loop_
 _symmetry_equiv_pos_site_id
 _symmetry_equiv_pos_as_xyz
  1  'x, y, z'
loop_
 _atom_site_type_symbol
 _atom_site_label
 _atom_site_symmetry_multiplicity
 _atom_site_fract_x
 _atom_site_fract_y
 _atom_site_fract_z
 _atom_site_occupancy
  C  C0  1  0.63503700  0.31725100  0.74336000  1
  C  C1  1  0.36496300  0.81725100  0.25664000  1
  C  C2  1  0.13503700  0.81725100  0.75664000  1
  C  C3  1  0.86496300  0.31725100  0.24336000  1
  Ni  Ni4  1  0.61107000  0.97317200  0.62907100  1
  Ni  Ni5  1  0.38893000  0.47317200  0.37092900  1
  Ni  Ni6  1  0.11107000  0.47317200  0.87092900  1
  Ni  Ni7  1  0.88893000  0.97317200  0.12907100  1
  Cu  Cu8  1  0.94621200  0.58923700  0.54399100  1
  Cu  Cu9  1  0.05378800  0.08923700  0.45600900  1
  Cu  Cu10  1  0.44621200  0.08923700  0.95600900  1
  Cu  Cu11  1  0.55378800  0.58923700  0.04399100  1
  C  C12  1  0.41156900  0.82186100  0.64948100  1
  C  C13  1  0.58843100  0.32186100  0.35051900  1
  C  C14  1  0.91156900  0.32186100  0.85051900  1
  C  C15  1  0.08843100  0.82186100  0.14948100  1
  C  C16  1  0.49311600  0.16712300  0.62616900  1
  C  C17  1  0.50688400  0.66712300  0.37383100  1
  C  C18  1  0.99311600  0.66712300  0.87383100  1
  C  C19  1  0.00688400  0.16712300  0.12616900  1
  C  C20  1  0.87888500  0.51143300  0.61462000  1
  C  C21  1  0.12111500  0.01143300  0.38538000  1
  C  C22  1  0.37888500  0.01143300  0.88538000  1
  C  C23  1  0.62111500  0.51143300  0.11462000  1
  C  C24  1  0.83496000  0.97412300  0.70676100  1
  C  C25  1  0.16504000  0.47412300  0.29323900  1
  C  C26  1  0.33496000  0.47412300  0.79323900  1
  C  C27  1  0.66504000  0.97412300  0.20676100  1
