# generated using pymatgen
data_CuNi4C27
_symmetry_space_group_name_H-M   'P 1'
_cell_length_a   5.97359386
_cell_length_b   5.97359386
_cell_length_c   16.83119100
_cell_angle_alpha   90.00000000
_cell_angle_beta   90.00000000
_cell_angle_gamma   119.99999850
_symmetry_Int_Tables_number   1
_chemical_formula_structural   CuNi4C27
_chemical_formula_sum   'Cu1 Ni4 C27'
_cell_volume   520.13594935
_cell_formula_units_Z   1
loop_
 _symmetry_equiv_pos_site_id
 _symmetry_equiv_pos_as_xyz
  1  'x, y, z'
loop_
 _atom_site_type_symbol
 _atom_site_label
 _atom_site_symmetry_multiplicity
 _atom_site_fract_x
 _atom_site_fract_y
 _atom_site_fract_z
 _atom_site_occupancy
  C  C0  1  0.33333300  0.66666700  0.82330900  1
  C  C1  1  0.66666700  0.33333300  0.17762900  1
  C  C2  1  0.00000000  0.00000000  0.99224700  1
  C  C3  1  0.33333300  0.66666700  0.57390200  1
  C  C4  1  0.66666700  0.33333300  0.42653900  1
  C  C5  1  0.00000000  0.00000000  0.28819500  1
  C  C6  1  0.00000000  0.00000000  0.72111200  1
  Ni  Ni7  1  0.66666700  0.33333300  0.90535200  1
  Ni  Ni8  1  0.33333300  0.66666700  0.34981300  1
  Ni  Ni9  1  0.66666700  0.33333300  0.65083000  1
  Ni  Ni10  1  0.00000000  0.00000000  0.50141300  1
  Cu  Cu11  1  0.33333300  0.66666700  0.09600200  1
  C  C12  1  0.66252900  0.83126500  0.13045400  1
  C  C13  1  0.16873500  0.83126500  0.13045400  1
  C  C14  1  0.16873500  0.33747100  0.13045400  1
  C  C15  1  0.32513800  0.16256900  0.86868600  1
  C  C16  1  0.83743100  0.16256900  0.86868600  1
  C  C17  1  0.83743100  0.67486200  0.86868600  1
  C  C18  1  0.49409800  0.50590200  0.29483600  1
  C  C19  1  0.49409800  0.98819500  0.29483600  1
  C  C20  1  0.01180500  0.50590200  0.29483600  1
  C  C21  1  0.50516500  0.49483500  0.70357800  1
  C  C22  1  0.50516500  0.01032900  0.70357800  1
  C  C23  1  0.98967100  0.49483500  0.70357800  1
  C  C24  1  0.67477200  0.83738600  0.43052500  1
  C  C25  1  0.16261400  0.83738600  0.43052500  1
  C  C26  1  0.16261400  0.32522800  0.43052500  1
  C  C27  1  0.32567400  0.16283700  0.56771700  1
  C  C28  1  0.83716300  0.16283700  0.56771700  1
  C  C29  1  0.83716300  0.67432600  0.56771700  1
  C  C30  1  0.33333300  0.66666700  0.98933600  1
  C  C31  1  0.66666700  0.33333300  0.01694400  1
