# generated using pymatgen
data_CuNiC3
_symmetry_space_group_name_H-M   'P 1'
_cell_length_a   5.77030300
_cell_length_b   5.98980200
_cell_length_c   8.34453800
_cell_angle_alpha   90.00000000
_cell_angle_beta   90.00000000
_cell_angle_gamma   90.00000000
_symmetry_Int_Tables_number   1
_chemical_formula_structural   CuNiC3
_chemical_formula_sum   'Cu4 Ni4 C12'
_cell_volume   288.41203700
_cell_formula_units_Z   4
loop_
 _symmetry_equiv_pos_site_id
 _symmetry_equiv_pos_as_xyz
  1  'x, y, z'
loop_
 _atom_site_type_symbol
 _atom_site_label
 _atom_site_symmetry_multiplicity
 _atom_site_fract_x
 _atom_site_fract_y
 _atom_site_fract_z
 _atom_site_occupancy
  Ni  Ni0  1  0.01310500  0.44526400  0.25000000  1
  Ni  Ni1  1  0.98689500  0.55473600  0.75000000  1
  Ni  Ni2  1  0.51310500  0.05473600  0.75000000  1
  Ni  Ni3  1  0.48689500  0.94526400  0.25000000  1
  Cu  Cu4  1  0.00000000  0.00000000  0.00000000  1
  Cu  Cu5  1  0.50000000  0.50000000  0.00000000  1
  Cu  Cu6  1  0.00000000  0.00000000  0.50000000  1
  Cu  Cu7  1  0.50000000  0.50000000  0.50000000  1
  C  C8  1  0.31286100  0.18906500  0.06467300  1
  C  C9  1  0.68713900  0.81093500  0.93532700  1
  C  C10  1  0.81286100  0.31093500  0.93532700  1
  C  C11  1  0.68713900  0.81093500  0.56467300  1
  C  C12  1  0.18713900  0.68906500  0.06467300  1
  C  C13  1  0.31286100  0.18906500  0.43532700  1
  C  C14  1  0.18713900  0.68906500  0.43532700  1
  C  C15  1  0.81286100  0.31093500  0.56467300  1
  C  C16  1  0.62453800  0.55202900  0.25000000  1
  C  C17  1  0.37546200  0.44797100  0.75000000  1
  C  C18  1  0.12453800  0.94797100  0.75000000  1
  C  C19  1  0.87546200  0.05202900  0.25000000  1
