# generated using pymatgen
data_Cu9Ni3C7
_symmetry_space_group_name_H-M   'P 1'
_cell_length_a   5.49466800
_cell_length_b   5.70534910
_cell_length_c   9.13027394
_cell_angle_alpha   104.57634488
_cell_angle_beta   89.50847620
_cell_angle_gamma   117.85924825
_symmetry_Int_Tables_number   1
_chemical_formula_structural   Cu9Ni3C7
_chemical_formula_sum   'Cu9 Ni3 C7'
_cell_volume   242.90975196
_cell_formula_units_Z   1
loop_
 _symmetry_equiv_pos_site_id
 _symmetry_equiv_pos_as_xyz
  1  'x, y, z'
loop_
 _atom_site_type_symbol
 _atom_site_label
 _atom_site_symmetry_multiplicity
 _atom_site_fract_x
 _atom_site_fract_y
 _atom_site_fract_z
 _atom_site_occupancy
  C  C0  1  0.21181700  0.36263100  0.07104500  1
  C  C1  1  0.03593600  0.37740600  0.66504700  1
  C  C2  1  0.47790200  0.13578400  0.81458900  1
  C  C3  1  0.32050900  0.14041300  0.43153500  1
  C  C4  1  0.49020400  0.89716900  0.17424400  1
  C  C5  1  0.94951600  0.62684700  0.31594600  1
  C  C6  1  0.78004600  0.91109900  0.58512700  1
  Ni  Ni7  1  0.18167600  0.10343000  0.62149600  1
  Ni  Ni8  1  0.24991400  0.01672600  0.23505300  1
  Ni  Ni9  1  0.75459500  0.27571400  0.47567500  1
  Cu  Cu10  1  0.19775300  0.46619900  0.27693600  1
  Cu  Cu11  1  0.24824100  0.77638800  0.96934500  1
  Cu  Cu12  1  0.35148200  0.72636200  0.54830500  1
  Cu  Cu13  1  0.28009400  0.34590200  0.86791700  1
  Cu  Cu14  1  0.63242600  0.62911400  0.14324700  1
  Cu  Cu15  1  0.72029200  0.97183000  0.77051100  1
  Cu  Cu16  1  0.76819400  0.20215800  0.01973800  1
  Cu  Cu17  1  0.77862500  0.53356000  0.69971100  1
  Cu  Cu18  1  0.78718700  0.86452200  0.38448400  1
