# generated using pymatgen
data_Cu12Ni9C11
_symmetry_space_group_name_H-M   'P 1'
_cell_length_a   12.47709066
_cell_length_b   12.47709066
_cell_length_c   12.47709066
_cell_angle_alpha   109.69349857
_cell_angle_beta   109.69349857
_cell_angle_gamma   109.02757358
_symmetry_Int_Tables_number   1
_chemical_formula_structural   Cu12Ni9C11
_chemical_formula_sum   'Cu24 Ni18 C22'
_cell_volume   1495.19759816
_cell_formula_units_Z   2
loop_
 _symmetry_equiv_pos_site_id
 _symmetry_equiv_pos_as_xyz
  1  'x, y, z'
loop_
 _atom_site_type_symbol
 _atom_site_label
 _atom_site_symmetry_multiplicity
 _atom_site_fract_x
 _atom_site_fract_y
 _atom_site_fract_z
 _atom_site_occupancy
  C  C0  1  0.75000000  0.25000000  0.50000000  1
  C  C1  1  0.00000000  0.00000000  0.00000000  1
  C  C2  1  0.50586100  0.13089000  0.19105900  1
  C  C3  1  0.81016900  0.11911000  0.87497100  1
  C  C4  1  0.93983100  0.31480200  0.80894100  1
  C  C5  1  0.24413900  0.93519800  0.12502900  1
  C  C6  1  0.68519800  0.49413900  0.62502900  1
  C  C7  1  0.88089000  0.75586100  0.69105900  1
  C  C8  1  0.86911000  0.06016900  0.37497100  1
  C  C9  1  0.06480200  0.18983100  0.30894100  1
  C  C10  1  0.57858800  0.45003900  0.29864400  1
  C  C11  1  0.59860500  0.79996100  0.62854900  1
  C  C12  1  0.15139500  0.27994400  0.70135600  1
  C  C13  1  0.17141200  0.97005600  0.37145100  1
  C  C14  1  0.72005600  0.42141200  0.87145100  1
  C  C15  1  0.20003900  0.82858800  0.79864400  1
  C  C16  1  0.54996100  0.84860500  0.12854900  1
  C  C17  1  0.02994400  0.40139500  0.20135600  1
  Ni  Ni18  1  0.25000000  0.75000000  0.50000000  1
  Ni  Ni19  1  0.50000000  0.50000000  0.00000000  1
  Ni  Ni20  1  0.89423500  0.39423500  0.50000000  1
  Ni  Ni21  1  0.85576500  0.85576500  0.00000000  1
  Ni  Ni22  1  0.60576500  0.10576500  0.50000000  1
  Ni  Ni23  1  0.14423500  0.14423500  0.00000000  1
  Ni  Ni24  1  0.78612400  0.62500000  0.66112400  1
  Ni  Ni25  1  0.96387600  0.12500000  0.33887600  1
  Ni  Ni26  1  0.87500000  0.21387600  0.83887600  1
  Ni  Ni27  1  0.37500000  0.03612400  0.16112400  1
  Ni  Ni28  1  0.28286200  0.74146100  0.75567600  1
  Ni  Ni29  1  0.76421500  0.50853900  0.04140200  1
  Ni  Ni30  1  0.98578500  0.52718600  0.24432400  1
  Ni  Ni31  1  0.46713800  0.72281400  0.95859800  1
  Ni  Ni32  1  0.47281400  0.71713800  0.45859800  1
  Ni  Ni33  1  0.49146100  0.53286200  0.25567600  1
  Ni  Ni34  1  0.25853900  0.01421500  0.54140200  1
  Ni  Ni35  1  0.27718600  0.23578500  0.74432400  1
  C  C36  1  0.30336800  0.12500000  0.67836800  1
  C  C37  1  0.44663200  0.62500000  0.32163200  1
  C  C38  1  0.37500000  0.69663200  0.82163200  1
  C  C39  1  0.87500000  0.55336800  0.17836800  1
  Cu  Cu40  1  0.71565300  0.54900000  0.38321000  1
  Cu  Cu41  1  0.58421000  0.70100000  0.66665200  1
  Cu  Cu42  1  0.16579000  0.33244200  0.61679000  1
  Cu  Cu43  1  0.03434700  0.91755800  0.33334800  1
  Cu  Cu44  1  0.66755800  0.28434700  0.83334800  1
  Cu  Cu45  1  0.29900000  0.96565300  0.88321000  1
  Cu  Cu46  1  0.45100000  0.83421000  0.16665200  1
  Cu  Cu47  1  0.08244200  0.41579000  0.11679000  1
  Cu  Cu48  1  0.51420600  0.39453700  0.36056800  1
  Cu  Cu49  1  0.71603100  0.85546400  0.61966900  1
  Cu  Cu50  1  0.03396900  0.15363800  0.63943200  1
  Cu  Cu51  1  0.23579400  0.09636200  0.38033100  1
  Cu  Cu52  1  0.84636200  0.48579400  0.88033100  1
  Cu  Cu53  1  0.14453700  0.76420600  0.86056800  1
  Cu  Cu54  1  0.60546300  0.96603100  0.11966900  1
  Cu  Cu55  1  0.90363800  0.28396900  0.13943200  1
  Cu  Cu56  1  0.54104600  0.35687400  0.16687400  1
  Cu  Cu57  1  0.56000000  0.89312600  0.68417200  1
  Cu  Cu58  1  0.19000000  0.37417200  0.83312600  1
  Cu  Cu59  1  0.20895400  0.87582800  0.31582800  1
  Cu  Cu60  1  0.62582800  0.45895400  0.81582800  1
  Cu  Cu61  1  0.10687400  0.79104600  0.66687400  1
  Cu  Cu62  1  0.64312600  0.81000000  0.18417200  1
  Cu  Cu63  1  0.12417200  0.44000000  0.33312600  1
