# generated using pymatgen
data_Cu16Ni2C19
_symmetry_space_group_name_H-M   'P 1'
_cell_length_a   8.48979699
_cell_length_b   8.48979699
_cell_length_c   4.76890575
_cell_angle_alpha   81.22873399
_cell_angle_beta   81.22873399
_cell_angle_gamma   105.23045377
_symmetry_Int_Tables_number   1
_chemical_formula_structural   Cu16Ni2C19
_chemical_formula_sum   'Cu16 Ni2 C19'
_cell_volume   321.02381906
_cell_formula_units_Z   1
loop_
 _symmetry_equiv_pos_site_id
 _symmetry_equiv_pos_as_xyz
  1  'x, y, z'
loop_
 _atom_site_type_symbol
 _atom_site_label
 _atom_site_symmetry_multiplicity
 _atom_site_fract_x
 _atom_site_fract_y
 _atom_site_fract_z
 _atom_site_occupancy
  C  C0  1  0.00000000  0.00000000  0.00000000  1
  C  C1  1  0.61634600  0.38365400  0.00000000  1
  C  C2  1  0.38365400  0.61634600  0.00000000  1
  Ni  Ni3  1  0.68415600  0.68415600  0.37783100  1
  Ni  Ni4  1  0.31584400  0.31584400  0.62216900  1
  Cu  Cu5  1  0.80342300  0.95883600  0.64462800  1
  Cu  Cu6  1  0.19657700  0.04116400  0.35537200  1
  Cu  Cu7  1  0.04116400  0.19657700  0.35537200  1
  Cu  Cu8  1  0.95883600  0.80342300  0.64462800  1
  Cu  Cu9  1  0.74458300  0.17398100  0.28277800  1
  Cu  Cu10  1  0.25541700  0.82601900  0.71722200  1
  Cu  Cu11  1  0.82601900  0.25541700  0.71722200  1
  Cu  Cu12  1  0.17398100  0.74458300  0.28277800  1
  Cu  Cu13  1  0.30846100  0.05541100  0.04506700  1
  Cu  Cu14  1  0.69153900  0.94458900  0.95493300  1
  Cu  Cu15  1  0.94458900  0.69153900  0.95493300  1
  Cu  Cu16  1  0.05541100  0.30846100  0.04506700  1
  Cu  Cu17  1  0.57452600  0.17246300  0.48643900  1
  Cu  Cu18  1  0.42547400  0.82753700  0.51356100  1
  Cu  Cu19  1  0.82753700  0.42547400  0.51356100  1
  Cu  Cu20  1  0.17246300  0.57452600  0.48643900  1
  C  C21  1  0.41214800  0.41214800  0.27163500  1
  C  C22  1  0.58785200  0.58785200  0.72836500  1
  C  C23  1  0.85108800  0.85108800  0.39748400  1
  C  C24  1  0.14891200  0.14891200  0.60251600  1
  C  C25  1  0.62792100  0.17299300  0.28525700  1
  C  C26  1  0.37207900  0.82700700  0.71474300  1
  C  C27  1  0.82700700  0.37207900  0.71474300  1
  C  C28  1  0.17299300  0.62792100  0.28525700  1
  C  C29  1  0.55168100  0.77153000  0.20784900  1
  C  C30  1  0.44831900  0.22847000  0.79215100  1
  C  C31  1  0.22847000  0.44831900  0.79215100  1
  C  C32  1  0.77153000  0.55168100  0.20784900  1
  C  C33  1  0.20511800  0.98331400  0.18558700  1
  C  C34  1  0.79488200  0.01668600  0.81441300  1
  C  C35  1  0.01668600  0.79488200  0.81441300  1
  C  C36  1  0.98331400  0.20511800  0.18558700  1
