# generated using pymatgen
data_Cu6NiC23
_symmetry_space_group_name_H-M   'P 1'
_cell_length_a   9.77712198
_cell_length_b   9.77712198
_cell_length_c   11.51372500
_cell_angle_alpha   90.00000000
_cell_angle_beta   90.00000000
_cell_angle_gamma   119.99999984
_symmetry_Int_Tables_number   1
_chemical_formula_structural   Cu6NiC23
_chemical_formula_sum   'Cu12 Ni2 C46'
_cell_volume   953.16601967
_cell_formula_units_Z   2
loop_
 _symmetry_equiv_pos_site_id
 _symmetry_equiv_pos_as_xyz
  1  'x, y, z'
loop_
 _atom_site_type_symbol
 _atom_site_label
 _atom_site_symmetry_multiplicity
 _atom_site_fract_x
 _atom_site_fract_y
 _atom_site_fract_z
 _atom_site_occupancy
  C  C0  1  0.33333300  0.66666700  0.56503700  1
  C  C1  1  0.66666700  0.33333300  0.43496300  1
  C  C2  1  0.33333300  0.66666700  0.12114400  1
  C  C3  1  0.66666700  0.33333300  0.87885600  1
  Ni  Ni4  1  0.00000000  0.00000000  0.76204800  1
  Ni  Ni5  1  0.00000000  0.00000000  0.23795200  1
  Cu  Cu6  1  0.67039400  0.75756500  0.33792200  1
  Cu  Cu7  1  0.08717100  0.32960600  0.33792200  1
  Cu  Cu8  1  0.24243500  0.91282900  0.33792200  1
  Cu  Cu9  1  0.32960600  0.24243500  0.66207800  1
  Cu  Cu10  1  0.91282900  0.67039400  0.66207800  1
  Cu  Cu11  1  0.75756500  0.08717100  0.66207800  1
  Cu  Cu12  1  0.66006000  0.86013300  0.84859600  1
  Cu  Cu13  1  0.20007300  0.33994000  0.84859600  1
  Cu  Cu14  1  0.13986700  0.79992700  0.84859600  1
  Cu  Cu15  1  0.33994000  0.13986700  0.15140400  1
  Cu  Cu16  1  0.79992700  0.66006000  0.15140400  1
  Cu  Cu17  1  0.86013300  0.20007300  0.15140400  1
  C  C18  1  0.67597900  0.02384500  0.79240000  1
  C  C19  1  0.34786600  0.32402100  0.79240000  1
  C  C20  1  0.97615500  0.65213400  0.79240000  1
  C  C21  1  0.32402100  0.97615500  0.20760000  1
  C  C22  1  0.65213400  0.67597900  0.20760000  1
  C  C23  1  0.02384500  0.34786600  0.20760000  1
  C  C24  1  0.83273200  0.90419700  0.33233300  1
  C  C25  1  0.07146500  0.16726800  0.33233300  1
  C  C26  1  0.09580300  0.92853500  0.33233300  1
  C  C27  1  0.16726800  0.09580300  0.66766700  1
  C  C28  1  0.92853500  0.83273200  0.66766700  1
  C  C29  1  0.90419700  0.07146500  0.66766700  1
  C  C30  1  0.83248200  0.90191700  0.85614900  1
  C  C31  1  0.06943500  0.16751800  0.85614900  1
  C  C32  1  0.09808300  0.93056500  0.85614900  1
  C  C33  1  0.16751800  0.09808300  0.14385100  1
  C  C34  1  0.93056500  0.83248200  0.14385100  1
  C  C35  1  0.90191700  0.06943500  0.14385100  1
  C  C36  1  0.54731000  0.79663000  0.33487200  1
  C  C37  1  0.24932000  0.45269000  0.33487200  1
  C  C38  1  0.20337000  0.75068000  0.33487200  1
  C  C39  1  0.45269000  0.20337000  0.66512800  1
  C  C40  1  0.75068000  0.54731000  0.66512800  1
  C  C41  1  0.79663000  0.24932000  0.66512800  1
  C  C42  1  0.60054800  0.85673500  0.96272700  1
  C  C43  1  0.25618700  0.39945200  0.96272700  1
  C  C44  1  0.14326500  0.74381300  0.96272700  1
  C  C45  1  0.39945200  0.14326500  0.03727300  1
  C  C46  1  0.74381300  0.60054800  0.03727300  1
  C  C47  1  0.85673500  0.25618700  0.03727300  1
  C  C48  1  0.57103600  0.73293900  0.76936700  1
  C  C49  1  0.16190300  0.42896400  0.76936700  1
  C  C50  1  0.26706100  0.83809700  0.76936700  1
  C  C51  1  0.42896400  0.26706100  0.23063300  1
  C  C52  1  0.83809700  0.57103600  0.23063300  1
  C  C53  1  0.73293900  0.16190300  0.23063300  1
  C  C54  1  0.66524600  0.65038300  0.42494100  1
  C  C55  1  0.98513700  0.33475400  0.42494100  1
  C  C56  1  0.34961700  0.01486300  0.42494100  1
  C  C57  1  0.33475400  0.34961700  0.57505900  1
  C  C58  1  0.01486300  0.66524600  0.57505900  1
  C  C59  1  0.65038300  0.98513700  0.57505900  1
