# generated using pymatgen
data_Cu2NiC12
_symmetry_space_group_name_H-M   'P 1'
_cell_length_a   5.77454194
_cell_length_b   5.77454194
_cell_length_c   14.11850400
_cell_angle_alpha   90.00000000
_cell_angle_beta   90.00000000
_cell_angle_gamma   119.99999933
_symmetry_Int_Tables_number   1
_chemical_formula_structural   Cu2NiC12
_chemical_formula_sum   'Cu4 Ni2 C24'
_cell_volume   407.71284673
_cell_formula_units_Z   2
loop_
 _symmetry_equiv_pos_site_id
 _symmetry_equiv_pos_as_xyz
  1  'x, y, z'
loop_
 _atom_site_type_symbol
 _atom_site_label
 _atom_site_symmetry_multiplicity
 _atom_site_fract_x
 _atom_site_fract_y
 _atom_site_fract_z
 _atom_site_occupancy
  C  C0  1  0.66666700  0.33333300  0.59677400  1
  C  C1  1  0.33333300  0.66666700  0.41688700  1
  C  C2  1  0.33333300  0.66666700  0.09677400  1
  C  C3  1  0.66666700  0.33333300  0.91688700  1
  C  C4  1  0.00000000  0.00000000  0.74750000  1
  C  C5  1  0.00000000  0.00000000  0.24750000  1
  Ni  Ni6  1  0.66666700  0.33333300  0.35181400  1
  Ni  Ni7  1  0.33333300  0.66666700  0.85181400  1
  Cu  Cu8  1  0.33333300  0.66666700  0.65804000  1
  Cu  Cu9  1  0.66666700  0.33333300  0.15804000  1
  Cu  Cu10  1  0.00000000  0.00000000  0.50179300  1
  Cu  Cu11  1  0.00000000  0.00000000  0.00179300  1
  C  C12  1  0.17107000  0.34214000  0.58135200  1
  C  C13  1  0.17107000  0.82893000  0.58135200  1
  C  C14  1  0.65786000  0.82893000  0.58135200  1
  C  C15  1  0.83240600  0.66481200  0.41633700  1
  C  C16  1  0.83240600  0.16759400  0.41633700  1
  C  C17  1  0.33518800  0.16759400  0.41633700  1
  C  C18  1  0.82893000  0.65786000  0.08135200  1
  C  C19  1  0.82893000  0.17107000  0.08135200  1
  C  C20  1  0.34214000  0.17107000  0.08135200  1
  C  C21  1  0.16759400  0.33518800  0.91633700  1
  C  C22  1  0.16759400  0.83240600  0.91633700  1
  C  C23  1  0.66481200  0.83240600  0.91633700  1
  C  C24  1  0.48007500  0.96015000  0.74470800  1
  C  C25  1  0.48007500  0.51992500  0.74470800  1
  C  C26  1  0.03985000  0.51992500  0.74470800  1
  C  C27  1  0.51992500  0.03985000  0.24470800  1
  C  C28  1  0.51992500  0.48007500  0.24470800  1
  C  C29  1  0.96015000  0.48007500  0.24470800  1
