# generated using pymatgen
data_Cu(NiC14)2
_symmetry_space_group_name_H-M   'P 1'
_cell_length_a   9.40459941
_cell_length_b   9.40459933
_cell_length_c   13.68930965
_cell_angle_alpha   86.00371959
_cell_angle_beta   86.00371938
_cell_angle_gamma   80.75489663
_symmetry_Int_Tables_number   1
_chemical_formula_structural   Cu(NiC14)2
_chemical_formula_sum   'Cu4 Ni8 C112'
_cell_volume   1190.03224939
_cell_formula_units_Z   4
loop_
 _symmetry_equiv_pos_site_id
 _symmetry_equiv_pos_as_xyz
  1  'x, y, z'
loop_
 _atom_site_type_symbol
 _atom_site_label
 _atom_site_symmetry_multiplicity
 _atom_site_fract_x
 _atom_site_fract_y
 _atom_site_fract_z
 _atom_site_occupancy
  C  C0  1  0.26345700  0.44740100  0.99533000  1
  C  C1  1  0.44740100  0.26345700  0.49533000  1
  C  C2  1  0.55259900  0.73654300  0.50467000  1
  C  C3  1  0.73654300  0.55259900  0.00467000  1
  Ni  Ni4  1  0.00656800  0.65798600  0.87466200  1
  Ni  Ni5  1  0.33822400  0.53364500  0.62610000  1
  Ni  Ni6  1  0.34201400  0.99343200  0.62533800  1
  Ni  Ni7  1  0.53364500  0.33822400  0.12610000  1
  Ni  Ni8  1  0.46635500  0.66177600  0.87390000  1
  Ni  Ni9  1  0.65798600  0.00656800  0.37466200  1
  Ni  Ni10  1  0.66177600  0.46635500  0.37390000  1
  Ni  Ni11  1  0.99343200  0.34201400  0.12533800  1
  C  C12  1  0.02571600  0.29176000  0.77051200  1
  C  C13  1  0.06419000  0.31568900  0.50962700  1
  C  C14  1  0.98828300  0.95891700  0.11519200  1
  C  C15  1  0.04143900  0.83621200  0.04258600  1
  C  C16  1  0.07628600  0.64886000  0.71490600  1
  C  C17  1  0.14612300  0.26861300  0.66726400  1
  C  C18  1  0.04108300  0.01171700  0.38480800  1
  C  C19  1  0.11843400  0.62867500  0.50615000  1
  C  C20  1  0.20367800  0.17733100  0.39965300  1
  C  C21  1  0.17733100  0.20367800  0.89965300  1
  C  C22  1  0.21228700  0.32418100  0.33943700  1
  C  C23  1  0.26861300  0.14612300  0.16726400  1
  C  C24  1  0.31568900  0.06419000  0.00962700  1
  C  C25  1  0.29176000  0.02571600  0.27051200  1
  C  C26  1  0.16378800  0.95856100  0.45741400  1
  C  C27  1  0.21296100  0.59771900  0.24978700  1
  C  C28  1  0.18929600  0.78546500  0.88158700  1
  C  C29  1  0.21453500  0.81070400  0.61841300  1
  C  C30  1  0.32418100  0.21228700  0.83943700  1
  C  C31  1  0.27901400  0.58142400  0.36752100  1
  C  C32  1  0.36260400  0.46865100  0.78438100  1
  C  C33  1  0.37132500  0.88156600  0.99385000  1
  C  C34  1  0.46865100  0.36260400  0.28438100  1
  C  C35  1  0.40228100  0.78703900  0.25021300  1
  C  C36  1  0.41857600  0.72098600  0.13247900  1
  C  C37  1  0.35114000  0.92371400  0.78509400  1
  C  C38  1  0.64886000  0.07628600  0.21490600  1
  C  C39  1  0.58142400  0.27901400  0.86752100  1
  C  C40  1  0.59771900  0.21296100  0.74978700  1
  C  C41  1  0.53134900  0.63739600  0.71561900  1
  C  C42  1  0.62867500  0.11843400  0.00615000  1
  C  C43  1  0.63739600  0.53134900  0.21561900  1
  C  C44  1  0.72098600  0.41857600  0.63247900  1
  C  C45  1  0.67581900  0.78771300  0.16056300  1
  C  C46  1  0.78546500  0.18929600  0.38158700  1
  C  C47  1  0.81070400  0.21453500  0.11841300  1
  C  C48  1  0.78703900  0.40228100  0.75021300  1
  C  C49  1  0.83621200  0.04143900  0.54258600  1
  C  C50  1  0.70824000  0.97428400  0.72948800  1
  C  C51  1  0.68431100  0.93581000  0.99037300  1
  C  C52  1  0.73138700  0.85387700  0.83273600  1
  C  C53  1  0.78771300  0.67581900  0.66056300  1
  C  C54  1  0.82266900  0.79632200  0.10034700  1
  C  C55  1  0.79632200  0.82266900  0.60034700  1
  C  C56  1  0.88156600  0.37132500  0.49385000  1
  C  C57  1  0.95891700  0.98828300  0.61519200  1
  C  C58  1  0.85387700  0.73138700  0.33273600  1
  C  C59  1  0.92371400  0.35114000  0.28509400  1
  C  C60  1  0.95856100  0.16378800  0.95741400  1
  C  C61  1  0.01171700  0.04108300  0.88480800  1
  C  C62  1  0.93581000  0.68431100  0.49037300  1
  C  C63  1  0.97428400  0.70824000  0.22948800  1
  Cu  Cu64  1  0.06235300  0.65389600  0.36217000  1
  Cu  Cu65  1  0.34610400  0.93764700  0.13783000  1
  Cu  Cu66  1  0.65389600  0.06235300  0.86217000  1
  Cu  Cu67  1  0.93764700  0.34610400  0.63783000  1
  C  C68  1  0.04610400  0.30706800  0.69677000  1
  C  C69  1  0.03843400  0.66245600  0.45931300  1
  C  C70  1  0.30706800  0.04610400  0.19677000  1
  C  C71  1  0.19467600  0.60519400  0.32357500  1
  C  C72  1  0.33754400  0.96156600  0.04068700  1
  C  C73  1  0.39480600  0.80532400  0.17642500  1
  C  C74  1  0.60519400  0.19467600  0.82357500  1
  C  C75  1  0.66245600  0.03843400  0.95931300  1
  C  C76  1  0.80532400  0.39480600  0.67642500  1
  C  C77  1  0.69293200  0.95389600  0.80323000  1
  C  C78  1  0.96156600  0.33754400  0.54068700  1
  C  C79  1  0.95389600  0.69293200  0.30323000  1
  C  C80  1  0.01067800  0.14342800  0.89390900  1
  C  C81  1  0.01535900  0.33693200  0.23902900  1
  C  C82  1  0.14342800  0.01067800  0.39390900  1
  C  C83  1  0.14518900  0.31341500  0.07633900  1
  C  C84  1  0.10048100  0.51770400  0.90643200  1
  C  C85  1  0.07852900  0.79417700  0.89726500  1
  C  C86  1  0.23231000  0.27418500  0.40322000  1
  C  C87  1  0.24892300  0.57751700  0.07067600  1
  C  C88  1  0.20522200  0.65230700  0.63869400  1
  C  C89  1  0.31341500  0.14518900  0.57633900  1
  C  C90  1  0.27418500  0.23231000  0.90322000  1
  C  C91  1  0.33693200  0.01535900  0.73902900  1
  C  C92  1  0.20582300  0.92147100  0.60273500  1
  C  C93  1  0.32029400  0.44481300  0.53965000  1
  C  C94  1  0.35075800  0.42516000  0.71975500  1
  C  C95  1  0.42516000  0.35075800  0.21975500  1
  C  C96  1  0.44481300  0.32029400  0.03965000  1
  C  C97  1  0.34769300  0.79477800  0.86130600  1
  C  C98  1  0.39578900  0.52187000  0.88407600  1
  C  C99  1  0.51770400  0.10048100  0.40643200  1
  C  C100  1  0.42248300  0.75107700  0.42932400  1
  C  C101  1  0.52187000  0.39578900  0.38407600  1
  C  C102  1  0.47813000  0.60421100  0.61592400  1
  C  C103  1  0.57751700  0.24892300  0.57067600  1
  C  C104  1  0.48229600  0.89951900  0.59356800  1
  C  C105  1  0.60421100  0.47813000  0.11592400  1
  C  C106  1  0.65230700  0.20522200  0.13869400  1
  C  C107  1  0.55518700  0.67970600  0.96035000  1
  C  C108  1  0.57484000  0.64924200  0.78024500  1
  C  C109  1  0.64924200  0.57484000  0.28024500  1
  C  C110  1  0.67970600  0.55518700  0.46035000  1
  C  C111  1  0.79417700  0.07852900  0.39726500  1
  C  C112  1  0.66306800  0.98464100  0.26097100  1
  C  C113  1  0.72581500  0.76769000  0.09678000  1
  C  C114  1  0.68658500  0.85481100  0.42366100  1
  C  C115  1  0.79477800  0.34769300  0.36130600  1
  C  C116  1  0.75107700  0.42248300  0.92932400  1
  C  C117  1  0.76769000  0.72581500  0.59678000  1
  C  C118  1  0.92147100  0.20582300  0.10273500  1
  C  C119  1  0.89951900  0.48229600  0.09356800  1
  C  C120  1  0.85481100  0.68658500  0.92366100  1
  C  C121  1  0.85657200  0.98932200  0.60609100  1
  C  C122  1  0.98464100  0.66306800  0.76097100  1
  C  C123  1  0.98932200  0.85657200  0.10609100  1
