# generated using pymatgen
data_Cu3NiC36
_symmetry_space_group_name_H-M   'P 1'
_cell_length_a   10.17380894
_cell_length_b   10.17380894
_cell_length_c   11.80617855
_cell_angle_alpha   55.20300812
_cell_angle_beta   55.20300812
_cell_angle_gamma   70.31933980
_symmetry_Int_Tables_number   1
_chemical_formula_structural   Cu3NiC36
_chemical_formula_sum   'Cu6 Ni2 C72'
_cell_volume   823.93579922
_cell_formula_units_Z   2
loop_
 _symmetry_equiv_pos_site_id
 _symmetry_equiv_pos_as_xyz
  1  'x, y, z'
loop_
 _atom_site_type_symbol
 _atom_site_label
 _atom_site_symmetry_multiplicity
 _atom_site_fract_x
 _atom_site_fract_y
 _atom_site_fract_z
 _atom_site_occupancy
  C  C0  1  0.25081500  0.24999000  0.37342200  1
  C  C1  1  0.62427400  0.37572600  0.75000000  1
  C  C2  1  0.87682900  0.37439800  0.87339900  1
  C  C3  1  0.12460000  0.87540000  0.75000000  1
  C  C4  1  0.62560200  0.12317100  0.62660100  1
  C  C5  1  0.24999000  0.25081500  0.87342200  1
  C  C6  1  0.75001000  0.74918500  0.12657800  1
  C  C7  1  0.37439800  0.87682900  0.37339900  1
  C  C8  1  0.87540000  0.12460000  0.25000000  1
  C  C9  1  0.12317100  0.62560200  0.12660100  1
  C  C10  1  0.37572600  0.62427400  0.25000000  1
  C  C11  1  0.74918500  0.75001000  0.62657800  1
  Ni  Ni12  1  0.00000000  0.00000000  0.00000000  1
  Ni  Ni13  1  0.00000000  0.00000000  0.50000000  1
  Cu  Cu14  1  0.00000000  0.50000000  0.50000000  1
  Cu  Cu15  1  0.50000000  0.50000000  0.00000000  1
  Cu  Cu16  1  0.50000000  0.50000000  0.50000000  1
  Cu  Cu17  1  0.00000000  0.50000000  0.00000000  1
  Cu  Cu18  1  0.50000000  0.00000000  0.00000000  1
  Cu  Cu19  1  0.50000000  0.00000000  0.50000000  1
  C  C20  1  0.87669400  0.37327900  0.37569900  1
  C  C21  1  0.62540900  0.37459100  0.25000000  1
  C  C22  1  0.87452300  0.12547700  0.75000000  1
  C  C23  1  0.25170900  0.25276400  0.62273700  1
  C  C24  1  0.25276400  0.25170900  0.12273700  1
  C  C25  1  0.62672100  0.12330600  0.12430100  1
  C  C26  1  0.37327900  0.87669400  0.87569900  1
  C  C27  1  0.74829100  0.74723600  0.37726300  1
  C  C28  1  0.74723600  0.74829100  0.87726300  1
  C  C29  1  0.12547700  0.87452300  0.25000000  1
  C  C30  1  0.37459100  0.62540900  0.75000000  1
  C  C31  1  0.12330600  0.62672100  0.62430100  1
  C  C32  1  0.29360200  0.39496100  0.11256600  1
  C  C33  1  0.70447500  0.38161800  0.50555300  1
  C  C34  1  0.40892100  0.49341500  0.70783400  1
  C  C35  1  0.00856700  0.40684100  0.38454400  1
  C  C36  1  0.49341500  0.40892100  0.20783400  1
  C  C37  1  0.21029700  0.39036000  0.49032800  1
  C  C38  1  0.88352500  0.29833700  0.70764500  1
  C  C39  1  0.00538600  0.08737200  0.61244700  1
  C  C40  1  0.70166300  0.11647500  0.79235500  1
  C  C41  1  0.39036000  0.21029600  0.99032800  1
  C  C42  1  0.61907300  0.20107600  0.38762500  1
  C  C43  1  0.09072800  0.49778400  0.79508200  1
  C  C44  1  0.61838200  0.29552500  0.99444700  1
  C  C45  1  0.39496100  0.29360200  0.61256600  1
  C  C46  1  0.29392300  0.11158200  0.58870900  1
  C  C47  1  0.11561100  0.21595500  0.79160100  1
  C  C48  1  0.88626100  0.19736200  0.40993700  1
  C  C49  1  0.79892400  0.38092700  0.11237500  1
  C  C50  1  0.91262800  0.99461400  0.88755300  1
  C  C51  1  0.21595500  0.11561100  0.29160100  1
  C  C52  1  0.59315900  0.99143300  0.11545600  1
  C  C53  1  0.80263800  0.11373900  0.09006300  1
  C  C54  1  0.50221600  0.90927200  0.70491800  1
  C  C55  1  0.11158200  0.29392300  0.08870900  1
  C  C56  1  0.88841800  0.70607700  0.91129100  1
  C  C57  1  0.49778400  0.09072800  0.29508200  1
  C  C58  1  0.19736200  0.88626100  0.90993700  1
  C  C59  1  0.40684100  0.00856700  0.88454400  1
  C  C60  1  0.78404500  0.88438900  0.70839900  1
  C  C61  1  0.08737200  0.00538600  0.11244700  1
  C  C62  1  0.20107600  0.61907300  0.88762500  1
  C  C63  1  0.11373900  0.80263800  0.59006300  1
  C  C64  1  0.88438900  0.78404500  0.20839900  1
  C  C65  1  0.70607700  0.88841800  0.41129100  1
  C  C66  1  0.60503900  0.70639800  0.38743400  1
  C  C67  1  0.38161800  0.70447500  0.00555300  1
  C  C68  1  0.90927200  0.50221600  0.20491800  1
  C  C69  1  0.38092700  0.79892400  0.61237500  1
  C  C70  1  0.60964000  0.78970300  0.00967200  1
  C  C71  1  0.29833700  0.88352500  0.20764500  1
  C  C72  1  0.99461400  0.91262800  0.38755300  1
  C  C73  1  0.11647500  0.70166300  0.29235500  1
  C  C74  1  0.78970300  0.60964000  0.50967200  1
  C  C75  1  0.50658500  0.59107900  0.79216600  1
  C  C76  1  0.99143300  0.59315900  0.61545600  1
  C  C77  1  0.59107900  0.50658500  0.29216600  1
  C  C78  1  0.29552500  0.61838200  0.49444700  1
  C  C79  1  0.70639800  0.60503900  0.88743400  1
