# generated using pymatgen
data_Cu8Ni2C9
_symmetry_space_group_name_H-M   'P 1'
_cell_length_a   3.91881600
_cell_length_b   13.71663400
_cell_length_c   13.81659384
_cell_angle_alpha   60.28748258
_cell_angle_beta   90.00000000
_cell_angle_gamma   90.00000000
_symmetry_Int_Tables_number   1
_chemical_formula_structural   Cu8Ni2C9
_chemical_formula_sum   'Cu16 Ni4 C18'
_cell_volume   645.03735127
_cell_formula_units_Z   2
loop_
 _symmetry_equiv_pos_site_id
 _symmetry_equiv_pos_as_xyz
  1  'x, y, z'
loop_
 _atom_site_type_symbol
 _atom_site_label
 _atom_site_symmetry_multiplicity
 _atom_site_fract_x
 _atom_site_fract_y
 _atom_site_fract_z
 _atom_site_occupancy
  C  C0  1  0.50000000  0.38842900  0.13843800  1
  C  C1  1  0.50000000  0.47342800  0.39642900  1
  C  C2  1  0.50000000  0.13783200  0.47634600  1
  C  C3  1  0.00000000  0.60197700  0.86032000  1
  C  C4  1  0.00000000  0.52482500  0.60183800  1
  C  C5  1  0.00000000  0.85755000  0.53639600  1
  C  C6  1  0.50000000  0.05506200  0.22700500  1
  C  C7  1  0.50000000  0.71807100  0.05591100  1
  C  C8  1  0.50000000  0.23651200  0.71243900  1
  C  C9  1  0.00000000  0.94720300  0.76218600  1
  C  C10  1  0.00000000  0.29159200  0.94632800  1
  C  C11  1  0.00000000  0.76352500  0.29291600  1
  C  C12  1  0.50000000  0.72851300  0.47053900  1
  C  C13  1  0.50000000  0.80243600  0.72202800  1
  C  C14  1  0.50000000  0.47246900  0.81010000  1
  C  C15  1  0.00000000  0.27582600  0.53125600  1
  C  C16  1  0.00000000  0.18659900  0.28066300  1
  C  C17  1  0.00000000  0.53433600  0.18311200  1
  Ni  Ni18  1  0.50000000  0.43310700  0.58725300  1
  Ni  Ni19  1  0.00000000  0.01692400  0.56497500  1
  Ni  Ni20  1  0.00000000  0.41630000  0.02133900  1
  Ni  Ni21  1  0.00000000  0.56813500  0.41140000  1
  Cu  Cu22  1  0.50000000  0.89359800  0.20313600  1
  Cu  Cu23  1  0.50000000  0.90210100  0.89171400  1
  Cu  Cu24  1  0.50000000  0.20628400  0.90361600  1
  Cu  Cu25  1  0.00000000  0.10656600  0.79548200  1
  Cu  Cu26  1  0.00000000  0.09622300  0.10439600  1
  Cu  Cu27  1  0.00000000  0.79985200  0.09732400  1
  Cu  Cu28  1  0.50000000  0.24658200  0.07233800  1
  Cu  Cu29  1  0.50000000  0.68284200  0.24730700  1
  Cu  Cu30  1  0.50000000  0.06997400  0.68152100  1
  Cu  Cu31  1  0.00000000  0.74763800  0.92856200  1
  Cu  Cu32  1  0.00000000  0.32057400  0.75404900  1
  Cu  Cu33  1  0.00000000  0.93250400  0.32224000  1
  Cu  Cu34  1  0.50000000  0.33401900  0.33339000  1
  Cu  Cu35  1  0.00000000  0.66213700  0.66640500  1
  Cu  Cu36  1  0.50000000  0.97794900  0.43334800  1
  Cu  Cu37  1  0.50000000  0.59050800  0.97595600  1
