# generated using pymatgen
data_Cu13Ni3C4
_symmetry_space_group_name_H-M   'P 1'
_cell_length_a   6.84282100
_cell_length_b   12.71690900
_cell_length_c   15.42850907
_cell_angle_alpha   75.55693592
_cell_angle_beta   90.00000000
_cell_angle_gamma   90.00000000
_symmetry_Int_Tables_number   1
_chemical_formula_structural   Cu13Ni3C4
_chemical_formula_sum   'Cu52 Ni12 C16'
_cell_volume   1300.15064718
_cell_formula_units_Z   4
loop_
 _symmetry_equiv_pos_site_id
 _symmetry_equiv_pos_as_xyz
  1  'x, y, z'
loop_
 _atom_site_type_symbol
 _atom_site_label
 _atom_site_symmetry_multiplicity
 _atom_site_fract_x
 _atom_site_fract_y
 _atom_site_fract_z
 _atom_site_occupancy
  C  C0  1  0.67226500  0.26569100  0.88159700  1
  C  C1  1  0.17226500  0.23430900  0.11840300  1
  C  C2  1  0.32773500  0.73430900  0.11840300  1
  C  C3  1  0.82773500  0.76569100  0.88159700  1
  C  C4  1  0.22494500  0.13350100  0.48813500  1
  C  C5  1  0.72494500  0.36649900  0.51186500  1
  C  C6  1  0.77505500  0.86649900  0.51186500  1
  C  C7  1  0.27505500  0.63350100  0.48813500  1
  C  C8  1  0.63687400  0.97910500  0.24909200  1
  C  C9  1  0.13687400  0.52089500  0.75090800  1
  C  C10  1  0.36312600  0.02089500  0.75090800  1
  C  C11  1  0.86312600  0.47910500  0.24909200  1
  C  C12  1  0.55202200  0.37403300  0.24410800  1
  C  C13  1  0.05202200  0.12596700  0.75589200  1
  C  C14  1  0.44797800  0.62596700  0.75589200  1
  C  C15  1  0.94797800  0.87403300  0.24410800  1
  Ni  Ni16  1  0.68863700  0.16444700  0.30690800  1
  Ni  Ni17  1  0.18863700  0.33555300  0.69309200  1
  Ni  Ni18  1  0.31136300  0.83555300  0.69309200  1
  Ni  Ni19  1  0.81136300  0.66444700  0.30690800  1
  Ni  Ni20  1  0.74345300  0.45799700  0.09027800  1
  Ni  Ni21  1  0.24345300  0.04200300  0.90972200  1
  Ni  Ni22  1  0.25654700  0.54200300  0.90972200  1
  Ni  Ni23  1  0.75654700  0.95799700  0.09027800  1
  Ni  Ni24  1  0.25817600  0.95094000  0.32066900  1
  Ni  Ni25  1  0.75817600  0.54906000  0.67933100  1
  Ni  Ni26  1  0.74182400  0.04906000  0.67933100  1
  Ni  Ni27  1  0.24182400  0.45094000  0.32066900  1
  Cu  Cu28  1  0.87913800  0.21093000  0.28345000  1
  Cu  Cu29  1  0.37913800  0.28907000  0.71655000  1
  Cu  Cu30  1  0.12086200  0.78907000  0.71655000  1
  Cu  Cu31  1  0.62086200  0.71093000  0.28345000  1
  Cu  Cu32  1  0.66234800  0.09831900  0.39766300  1
  Cu  Cu33  1  0.16234800  0.40168100  0.60233700  1
  Cu  Cu34  1  0.33765200  0.90168100  0.60233700  1
  Cu  Cu35  1  0.83765200  0.59831900  0.39766300  1
  Cu  Cu36  1  0.82211200  0.40411300  0.02621700  1
  Cu  Cu37  1  0.32211200  0.09588700  0.97378300  1
  Cu  Cu38  1  0.17788800  0.59588700  0.97378300  1
  Cu  Cu39  1  0.67788800  0.90411300  0.02621700  1
  Cu  Cu40  1  0.65703300  0.56400600  0.05708600  1
  Cu  Cu41  1  0.15703300  0.93599400  0.94291400  1
  Cu  Cu42  1  0.34296700  0.43599400  0.94291400  1
  Cu  Cu43  1  0.84296700  0.06400600  0.05708600  1
  Cu  Cu44  1  0.19562800  0.88436000  0.40693200  1
  Cu  Cu45  1  0.69562800  0.61564000  0.59306800  1
  Cu  Cu46  1  0.80437200  0.11564000  0.59306800  1
  Cu  Cu47  1  0.30437200  0.38436000  0.40693200  1
  Cu  Cu48  1  0.23047800  0.06663100  0.30664200  1
  Cu  Cu49  1  0.73047800  0.43336900  0.69335800  1
  Cu  Cu50  1  0.76952200  0.93336900  0.69335800  1
  Cu  Cu51  1  0.26952200  0.56663100  0.30664200  1
  Cu  Cu52  1  0.81642900  0.93273100  0.28372100  1
  Cu  Cu53  1  0.31642900  0.56726900  0.71627900  1
  Cu  Cu54  1  0.18357100  0.06726900  0.71627900  1
  Cu  Cu55  1  0.68357100  0.43273100  0.28372100  1
  Cu  Cu56  1  0.62479800  0.10032700  0.23808700  1
  Cu  Cu57  1  0.12479800  0.39967300  0.76191300  1
  Cu  Cu58  1  0.37520200  0.89967300  0.76191300  1
  Cu  Cu59  1  0.87520200  0.60032700  0.23808700  1
  Cu  Cu60  1  0.47533800  0.92300400  0.31121100  1
  Cu  Cu61  1  0.97533800  0.57699600  0.68878900  1
  Cu  Cu62  1  0.52466200  0.07699600  0.68878900  1
  Cu  Cu63  1  0.02466200  0.42300400  0.31121100  1
  Cu  Cu64  1  0.15920100  0.91265100  0.24337500  1
  Cu  Cu65  1  0.65920100  0.58734900  0.75662500  1
  Cu  Cu66  1  0.84079900  0.08734900  0.75662500  1
  Cu  Cu67  1  0.34079900  0.41265100  0.24337500  1
  Cu  Cu68  1  0.53026400  0.25462400  0.29219800  1
  Cu  Cu69  1  0.03026400  0.24537600  0.70780200  1
  Cu  Cu70  1  0.46973600  0.74537600  0.70780200  1
  Cu  Cu71  1  0.96973600  0.75462400  0.29219800  1
  Cu  Cu72  1  0.59222600  0.37787000  0.14800000  1
  Cu  Cu73  1  0.09222600  0.12213000  0.85200000  1
  Cu  Cu74  1  0.40777400  0.62213000  0.85200000  1
  Cu  Cu75  1  0.90777400  0.87787000  0.14800000  1
  Cu  Cu76  1  0.91031600  0.46332200  0.15814700  1
  Cu  Cu77  1  0.41031600  0.03667800  0.84185300  1
  Cu  Cu78  1  0.08968400  0.53667800  0.84185300  1
  Cu  Cu79  1  0.58968400  0.96332200  0.15814700  1
