# generated using pymatgen
data_Cu3Ni5C12
_symmetry_space_group_name_H-M   'P 1'
_cell_length_a   7.59775500
_cell_length_b   7.59775500
_cell_length_c   36.18337600
_cell_angle_alpha   90.00000000
_cell_angle_beta   90.00000000
_cell_angle_gamma   90.00000000
_symmetry_Int_Tables_number   1
_chemical_formula_structural   Cu3Ni5C12
_chemical_formula_sum   'Cu12 Ni20 C48'
_cell_volume   2088.71725860
_cell_formula_units_Z   4
loop_
 _symmetry_equiv_pos_site_id
 _symmetry_equiv_pos_as_xyz
  1  'x, y, z'
loop_
 _atom_site_type_symbol
 _atom_site_label
 _atom_site_symmetry_multiplicity
 _atom_site_fract_x
 _atom_site_fract_y
 _atom_site_fract_z
 _atom_site_occupancy
  Ni  Ni0  1  0.00000000  0.00000000  0.83331400  1
  Ni  Ni1  1  0.00000000  0.00000000  0.16668600  1
  Ni  Ni2  1  0.00000000  0.00000000  0.91769700  1
  Ni  Ni3  1  0.00000000  0.00000000  0.25000000  1
  Ni  Ni4  1  0.00000000  0.00000000  0.58230300  1
  Ni  Ni5  1  0.00000000  0.00000000  0.33331400  1
  Ni  Ni6  1  0.00000000  0.00000000  0.66668600  1
  Ni  Ni7  1  0.50000000  0.50000000  0.08309600  1
  Ni  Ni8  1  0.50000000  0.50000000  0.41690400  1
  Ni  Ni9  1  0.50000000  0.50000000  0.00000000  1
  Ni  Ni10  1  0.50000000  0.50000000  0.33267600  1
  Ni  Ni11  1  0.50000000  0.50000000  0.66732400  1
  Ni  Ni12  1  0.50000000  0.50000000  0.83267600  1
  Ni  Ni13  1  0.50000000  0.50000000  0.16732400  1
  Ni  Ni14  1  0.50000000  0.50000000  0.50000000  1
  Ni  Ni15  1  0.00000000  0.00000000  0.08230300  1
  Ni  Ni16  1  0.00000000  0.00000000  0.41769700  1
  Ni  Ni17  1  0.00000000  0.00000000  0.75000000  1
  Ni  Ni18  1  0.50000000  0.50000000  0.91690400  1
  Ni  Ni19  1  0.50000000  0.50000000  0.58309600  1
  Cu  Cu20  1  0.50000000  0.00000000  0.12696700  1
  Cu  Cu21  1  0.50000000  0.00000000  0.46149900  1
  Cu  Cu22  1  0.50000000  0.00000000  0.79277200  1
  Cu  Cu23  1  0.00000000  0.50000000  0.87303300  1
  Cu  Cu24  1  0.00000000  0.50000000  0.20722800  1
  Cu  Cu25  1  0.00000000  0.50000000  0.53850100  1
  Cu  Cu26  1  0.50000000  0.00000000  0.03850100  1
  Cu  Cu27  1  0.50000000  0.00000000  0.37303300  1
  Cu  Cu28  1  0.50000000  0.00000000  0.70722800  1
  Cu  Cu29  1  0.00000000  0.50000000  0.96149900  1
  Cu  Cu30  1  0.00000000  0.50000000  0.29277200  1
  Cu  Cu31  1  0.00000000  0.50000000  0.62696700  1
  C  C32  1  0.84112100  0.83975400  0.87479500  1
  C  C33  1  0.84109700  0.83865500  0.20832200  1
  C  C34  1  0.84629600  0.83331700  0.54280800  1
  C  C35  1  0.65902800  0.33893400  0.04158700  1
  C  C36  1  0.65786400  0.33897000  0.37524200  1
  C  C37  1  0.65021800  0.33003000  0.70671700  1
  C  C38  1  0.33893400  0.34097200  0.95841300  1
  C  C39  1  0.33003000  0.34978200  0.29328300  1
  C  C40  1  0.33897000  0.34213600  0.62475800  1
  C  C41  1  0.83975400  0.15887900  0.12520500  1
  C  C42  1  0.83331700  0.15370400  0.45719200  1
  C  C43  1  0.83865500  0.15890300  0.79167800  1
  C  C44  1  0.34097200  0.66106600  0.04158700  1
  C  C45  1  0.34213600  0.66103000  0.37524200  1
  C  C46  1  0.34978200  0.66997000  0.70671700  1
  C  C47  1  0.15887900  0.16024600  0.87479500  1
  C  C48  1  0.15890300  0.16134500  0.20832200  1
  C  C49  1  0.15370400  0.16668300  0.54280800  1
  C  C50  1  0.83331700  0.84629600  0.04280800  1
  C  C51  1  0.83975400  0.84112100  0.37479500  1
  C  C52  1  0.83865500  0.84109700  0.70832200  1
  C  C53  1  0.66106600  0.65902800  0.95841300  1
  C  C54  1  0.66997000  0.65021800  0.29328300  1
  C  C55  1  0.66103000  0.65786400  0.62475800  1
  C  C56  1  0.65786400  0.66103000  0.12475800  1
  C  C57  1  0.65902800  0.66106600  0.45841300  1
  C  C58  1  0.65021800  0.66997000  0.79328300  1
  C  C59  1  0.16024600  0.84112100  0.12520500  1
  C  C60  1  0.16668300  0.84629600  0.45719200  1
  C  C61  1  0.16134500  0.84109700  0.79167800  1
  C  C62  1  0.66103000  0.34213600  0.87524200  1
  C  C63  1  0.66997000  0.34978200  0.20671700  1
  C  C64  1  0.66106600  0.34097200  0.54158700  1
  C  C65  1  0.33897000  0.65786400  0.87524200  1
  C  C66  1  0.33003000  0.65021800  0.20671700  1
  C  C67  1  0.33893400  0.65902800  0.54158700  1
  C  C68  1  0.16668300  0.15370400  0.04280800  1
  C  C69  1  0.16024600  0.15887900  0.37479500  1
  C  C70  1  0.16134500  0.15890300  0.70832200  1
  C  C71  1  0.15370400  0.83331700  0.95719200  1
  C  C72  1  0.15890300  0.83865500  0.29167800  1
  C  C73  1  0.15887900  0.83975400  0.62520500  1
  C  C74  1  0.84629600  0.16668300  0.95719200  1
  C  C75  1  0.84109700  0.16134500  0.29167800  1
  C  C76  1  0.84112100  0.16024600  0.62520500  1
  C  C77  1  0.34213600  0.33897000  0.12475800  1
  C  C78  1  0.34097200  0.33893400  0.45841300  1
  C  C79  1  0.34978200  0.33003000  0.79328300  1
