# generated using pymatgen
data_CuNiC7
_symmetry_space_group_name_H-M   'P 1'
_cell_length_a   12.77335200
_cell_length_b   5.31704900
_cell_length_c   9.31703681
_cell_angle_alpha   85.31622221
_cell_angle_beta   90.00000000
_cell_angle_gamma   90.00000000
_symmetry_Int_Tables_number   1
_chemical_formula_structural   CuNiC7
_chemical_formula_sum   'Cu4 Ni4 C28'
_cell_volume   630.66774674
_cell_formula_units_Z   4
loop_
 _symmetry_equiv_pos_site_id
 _symmetry_equiv_pos_as_xyz
  1  'x, y, z'
loop_
 _atom_site_type_symbol
 _atom_site_label
 _atom_site_symmetry_multiplicity
 _atom_site_fract_x
 _atom_site_fract_y
 _atom_site_fract_z
 _atom_site_occupancy
  C  C0  1  0.83148100  0.26000500  0.03194300  1
  C  C1  1  0.16851900  0.73999500  0.96805700  1
  C  C2  1  0.33148100  0.73999500  0.46805700  1
  C  C3  1  0.66851900  0.26000500  0.53194300  1
  C  C4  1  0.92758900  0.71498000  0.46721000  1
  C  C5  1  0.07241100  0.28502000  0.53279000  1
  C  C6  1  0.42758900  0.28502000  0.03279000  1
  C  C7  1  0.57241100  0.71498000  0.96721000  1
  C  C8  1  0.31476700  0.83296200  0.15506900  1
  C  C9  1  0.68523300  0.16703800  0.84493100  1
  C  C10  1  0.81476700  0.16703800  0.34493100  1
  C  C11  1  0.18523300  0.83296200  0.65506900  1
  C  C12  1  0.77158100  0.10526900  0.30315900  1
  C  C13  1  0.22841900  0.89473100  0.69684100  1
  C  C14  1  0.27158100  0.89473100  0.19684100  1
  C  C15  1  0.72841900  0.10526900  0.80315900  1
  Ni  Ni16  1  0.95241900  0.75681700  0.24236800  1
  Ni  Ni17  1  0.04758100  0.24318300  0.75763200  1
  Ni  Ni18  1  0.45241900  0.24318300  0.25763200  1
  Ni  Ni19  1  0.54758100  0.75681700  0.74236800  1
  Cu  Cu20  1  0.64299600  0.64073700  0.18100700  1
  Cu  Cu21  1  0.35700400  0.35926300  0.81899300  1
  Cu  Cu22  1  0.14299600  0.35926300  0.31899300  1
  Cu  Cu23  1  0.85700400  0.64073700  0.68100700  1
  C  C24  1  0.95051300  0.79390300  0.36667600  1
  C  C25  1  0.04948700  0.20609700  0.63332400  1
  C  C26  1  0.45051300  0.20609700  0.13332400  1
  C  C27  1  0.54948700  0.79390300  0.86667600  1
  C  C28  1  0.68160300  0.92326800  0.16613600  1
  C  C29  1  0.31839700  0.07673200  0.83386400  1
  C  C30  1  0.18160300  0.07673200  0.33386400  1
  C  C31  1  0.81839700  0.92326800  0.66613600  1
  C  C32  1  0.95759200  0.74854400  0.11351700  1
  C  C33  1  0.04240800  0.25145600  0.88648300  1
  C  C34  1  0.45759200  0.25145600  0.38648300  1
  C  C35  1  0.54240800  0.74854400  0.61351700  1
