# generated using pymatgen
data_Cu6NiC16
_symmetry_space_group_name_H-M   'P 1'
_cell_length_a   8.14213900
_cell_length_b   10.13451500
_cell_length_c   12.91145000
_cell_angle_alpha   90.00000000
_cell_angle_beta   90.00000000
_cell_angle_gamma   90.00000000
_symmetry_Int_Tables_number   1
_chemical_formula_structural   Cu6NiC16
_chemical_formula_sum   'Cu24 Ni4 C64'
_cell_volume   1065.40934019
_cell_formula_units_Z   4
loop_
 _symmetry_equiv_pos_site_id
 _symmetry_equiv_pos_as_xyz
  1  'x, y, z'
loop_
 _atom_site_type_symbol
 _atom_site_label
 _atom_site_symmetry_multiplicity
 _atom_site_fract_x
 _atom_site_fract_y
 _atom_site_fract_z
 _atom_site_occupancy
  C  C0  1  0.76640700  0.49800900  0.99134600  1
  C  C1  1  0.73359300  0.00199100  0.49134600  1
  C  C2  1  0.23359300  0.99800900  0.00865400  1
  C  C3  1  0.26640700  0.50199100  0.50865400  1
  C  C4  1  0.23359300  0.50199100  0.00865400  1
  C  C5  1  0.26640700  0.99800900  0.50865400  1
  C  C6  1  0.76640700  0.00199100  0.99134600  1
  C  C7  1  0.73359300  0.49800900  0.49134600  1
  C  C8  1  0.59370500  0.75000000  0.76209100  1
  C  C9  1  0.90629500  0.75000000  0.26209100  1
  C  C10  1  0.40629500  0.25000000  0.23790900  1
  C  C11  1  0.09370500  0.25000000  0.73790900  1
  Ni  Ni12  1  0.79265900  0.25000000  0.15957700  1
  Ni  Ni13  1  0.70734100  0.25000000  0.65957700  1
  Ni  Ni14  1  0.20734100  0.75000000  0.84042300  1
  Ni  Ni15  1  0.29265900  0.75000000  0.34042300  1
  Cu  Cu16  1  0.97331400  0.12513200  0.31151300  1
  Cu  Cu17  1  0.52668600  0.37486800  0.81151300  1
  Cu  Cu18  1  0.02668600  0.62513200  0.68848700  1
  Cu  Cu19  1  0.47331400  0.87486800  0.18848700  1
  Cu  Cu20  1  0.02668600  0.87486800  0.68848700  1
  Cu  Cu21  1  0.47331400  0.62513200  0.18848700  1
  Cu  Cu22  1  0.97331400  0.37486800  0.31151300  1
  Cu  Cu23  1  0.52668600  0.12513200  0.81151300  1
  Cu  Cu24  1  0.28598500  0.51930400  0.76285500  1
  Cu  Cu25  1  0.21401500  0.98069600  0.26285500  1
  Cu  Cu26  1  0.71401500  0.01930400  0.23714500  1
  Cu  Cu27  1  0.78598500  0.48069600  0.73714500  1
  Cu  Cu28  1  0.71401500  0.48069600  0.23714500  1
  Cu  Cu29  1  0.78598500  0.01930400  0.73714500  1
  Cu  Cu30  1  0.28598500  0.98069600  0.76285500  1
  Cu  Cu31  1  0.21401500  0.51930400  0.26285500  1
  Cu  Cu32  1  0.97424000  0.25000000  0.96032900  1
  Cu  Cu33  1  0.52576000  0.25000000  0.46032900  1
  Cu  Cu34  1  0.02576000  0.75000000  0.03967100  1
  Cu  Cu35  1  0.47424000  0.75000000  0.53967100  1
  Cu  Cu36  1  0.56371600  0.75000000  0.02959700  1
  Cu  Cu37  1  0.93628400  0.75000000  0.52959700  1
  Cu  Cu38  1  0.43628400  0.25000000  0.97040300  1
  Cu  Cu39  1  0.06371600  0.25000000  0.47040300  1
  C  C40  1  0.37374100  0.40327700  0.75468600  1
  C  C41  1  0.12625900  0.09672300  0.25468600  1
  C  C42  1  0.62625900  0.90327700  0.24531400  1
  C  C43  1  0.87374100  0.59672300  0.74531400  1
  C  C44  1  0.62625900  0.59672300  0.24531400  1
  C  C45  1  0.87374100  0.90327700  0.74531400  1
  C  C46  1  0.37374100  0.09672300  0.75468600  1
  C  C47  1  0.12625900  0.40327700  0.25468600  1
  C  C48  1  0.66644400  0.75000000  0.94876700  1
  C  C49  1  0.83355600  0.75000000  0.44876700  1
  C  C50  1  0.33355600  0.25000000  0.05123300  1
  C  C51  1  0.16644400  0.25000000  0.55123300  1
  C  C52  1  0.90494600  0.25000000  0.27168700  1
  C  C53  1  0.59505400  0.25000000  0.77168700  1
  C  C54  1  0.09505400  0.75000000  0.72831300  1
  C  C55  1  0.40494600  0.75000000  0.22831300  1
  C  C56  1  0.64880100  0.48160000  0.80180900  1
  C  C57  1  0.85119900  0.01840000  0.30180900  1
  C  C58  1  0.35119900  0.98160000  0.19819100  1
  C  C59  1  0.14880100  0.51840000  0.69819100  1
  C  C60  1  0.35119900  0.51840000  0.19819100  1
  C  C61  1  0.14880100  0.98160000  0.69819100  1
  C  C62  1  0.64880100  0.01840000  0.80180900  1
  C  C63  1  0.85119900  0.48160000  0.30180900  1
  C  C64  1  0.67753600  0.38157200  0.17057600  1
  C  C65  1  0.82246400  0.11842800  0.67057600  1
  C  C66  1  0.32246400  0.88157200  0.82942400  1
  C  C67  1  0.17753600  0.61842800  0.32942400  1
  C  C68  1  0.32246400  0.61842800  0.82942400  1
  C  C69  1  0.17753600  0.88157200  0.32942400  1
  C  C70  1  0.67753600  0.11842800  0.17057600  1
  C  C71  1  0.82246400  0.38157200  0.67057600  1
  C  C72  1  0.87063500  0.25000000  0.04640700  1
  C  C73  1  0.62936500  0.25000000  0.54640700  1
  C  C74  1  0.12936500  0.75000000  0.95359300  1
  C  C75  1  0.37063500  0.75000000  0.45359300  1
  C  C76  1  0.98205200  0.63029100  0.08469700  1
  C  C77  1  0.51794800  0.86970900  0.58469700  1
  C  C78  1  0.01794800  0.13029100  0.91530300  1
  C  C79  1  0.48205200  0.36970900  0.41530300  1
  C  C80  1  0.01794800  0.36970900  0.91530300  1
  C  C81  1  0.48205200  0.13029100  0.41530300  1
  C  C82  1  0.98205200  0.86970900  0.08469700  1
  C  C83  1  0.51794800  0.63029100  0.58469700  1
  C  C84  1  0.51084200  0.86823200  0.07546800  1
  C  C85  1  0.98915800  0.63176800  0.57546800  1
  C  C86  1  0.48915800  0.36823200  0.92453200  1
  C  C87  1  0.01084200  0.13176800  0.42453200  1
  C  C88  1  0.48915800  0.13176800  0.92453200  1
  C  C89  1  0.01084200  0.36823200  0.42453200  1
  C  C90  1  0.51084200  0.63176800  0.07546800  1
  C  C91  1  0.98915800  0.86823200  0.57546800  1
