# generated using pymatgen
data_Cu2Ni2C11
_symmetry_space_group_name_H-M   'P 1'
_cell_length_a   9.56812857
_cell_length_b   9.56812857
_cell_length_c   6.72563640
_cell_angle_alpha   73.29364796
_cell_angle_beta   73.29364796
_cell_angle_gamma   46.81752523
_symmetry_Int_Tables_number   1
_chemical_formula_structural   Cu2Ni2C11
_chemical_formula_sum   'Cu4 Ni4 C22'
_cell_volume   426.37734448
_cell_formula_units_Z   2
loop_
 _symmetry_equiv_pos_site_id
 _symmetry_equiv_pos_as_xyz
  1  'x, y, z'
loop_
 _atom_site_type_symbol
 _atom_site_label
 _atom_site_symmetry_multiplicity
 _atom_site_fract_x
 _atom_site_fract_y
 _atom_site_fract_z
 _atom_site_occupancy
  C  C0  1  0.38394500  0.61605500  0.25000000  1
  C  C1  1  0.61605500  0.38394500  0.75000000  1
  Ni  Ni2  1  0.20831100  0.22103000  0.52888800  1
  Ni  Ni3  1  0.77897000  0.79168900  0.97111200  1
  Ni  Ni4  1  0.79168900  0.77897000  0.47111200  1
  Ni  Ni5  1  0.22103000  0.20831100  0.02888800  1
  Cu  Cu6  1  0.82990200  0.46684600  0.32674900  1
  Cu  Cu7  1  0.53315400  0.17009800  0.17325100  1
  Cu  Cu8  1  0.17009800  0.53315400  0.67325100  1
  Cu  Cu9  1  0.46684600  0.82990200  0.82674900  1
  C  C10  1  0.64064500  0.50245300  0.38942400  1
  C  C11  1  0.49754700  0.35935500  0.11057600  1
  C  C12  1  0.35935500  0.49754700  0.61057600  1
  C  C13  1  0.50245300  0.64064500  0.88942400  1
  C  C14  1  0.78070400  0.66858300  0.26858400  1
  C  C15  1  0.33141700  0.21929600  0.23141600  1
  C  C16  1  0.21929600  0.33141700  0.73141600  1
  C  C17  1  0.66858300  0.78070400  0.76858400  1
  C  C18  1  0.05049000  0.64507700  0.86258100  1
  C  C19  1  0.35492300  0.94951000  0.63741900  1
  C  C20  1  0.94951000  0.35492300  0.13741900  1
  C  C21  1  0.64507700  0.05049000  0.36258100  1
  C  C22  1  0.03737200  0.91814100  0.04650700  1
  C  C23  1  0.08185900  0.96262800  0.45349300  1
  C  C24  1  0.96262800  0.08185900  0.95349300  1
  C  C25  1  0.91814100  0.03737200  0.54650700  1
  C  C26  1  0.93402900  0.35983200  0.52687000  1
  C  C27  1  0.64016800  0.06597100  0.97313000  1
  C  C28  1  0.06597100  0.64016800  0.47313000  1
  C  C29  1  0.35983200  0.93402900  0.02687000  1
