# generated using pymatgen
data_CuNiC6
_symmetry_space_group_name_H-M   'P 1'
_cell_length_a   5.44094300
_cell_length_b   7.23349600
_cell_length_c   12.20081200
_cell_angle_alpha   90.00000000
_cell_angle_beta   90.00000000
_cell_angle_gamma   90.00000000
_symmetry_Int_Tables_number   1
_chemical_formula_structural   CuNiC6
_chemical_formula_sum   'Cu2 Ni2 C12'
_cell_volume   480.18783892
_cell_formula_units_Z   2
loop_
 _symmetry_equiv_pos_site_id
 _symmetry_equiv_pos_as_xyz
  1  'x, y, z'
loop_
 _atom_site_type_symbol
 _atom_site_label
 _atom_site_symmetry_multiplicity
 _atom_site_fract_x
 _atom_site_fract_y
 _atom_site_fract_z
 _atom_site_occupancy
  Ni  Ni0  1  0.50000000  0.50000000  0.83495900  1
  Ni  Ni1  1  0.50000000  0.00000000  0.33495900  1
  Cu  Cu2  1  0.50000000  0.50000000  0.33567700  1
  Cu  Cu3  1  0.50000000  0.00000000  0.83567700  1
  C  C4  1  0.50000000  0.24672000  0.08109200  1
  C  C5  1  0.50000000  0.75328000  0.08109200  1
  C  C6  1  0.00000000  0.23692500  0.92980900  1
  C  C7  1  0.00000000  0.76307500  0.92980900  1
  C  C8  1  0.00000000  0.50000000  0.15743300  1
  C  C9  1  0.00000000  0.50000000  0.65013500  1
  C  C10  1  0.50000000  0.74672000  0.58109200  1
  C  C11  1  0.50000000  0.25328000  0.58109200  1
  C  C12  1  0.00000000  0.73692500  0.42980900  1
  C  C13  1  0.00000000  0.26307500  0.42980900  1
  C  C14  1  0.00000000  0.00000000  0.65743300  1
  C  C15  1  0.00000000  0.00000000  0.15013500  1
