# generated using pymatgen
data_Cu2Ni3C7
_symmetry_space_group_name_H-M   'P 1'
_cell_length_a   9.68485588
_cell_length_b   9.68485588
_cell_length_c   5.47976300
_cell_angle_alpha   90.00000000
_cell_angle_beta   90.00000000
_cell_angle_gamma   147.48142266
_symmetry_Int_Tables_number   1
_chemical_formula_structural   Cu2Ni3C7
_chemical_formula_sum   'Cu4 Ni6 C14'
_cell_volume   276.30298635
_cell_formula_units_Z   2
loop_
 _symmetry_equiv_pos_site_id
 _symmetry_equiv_pos_as_xyz
  1  'x, y, z'
loop_
 _atom_site_type_symbol
 _atom_site_label
 _atom_site_symmetry_multiplicity
 _atom_site_fract_x
 _atom_site_fract_y
 _atom_site_fract_z
 _atom_site_occupancy
  Ni  Ni0  1  0.25812500  0.25812500  0.28377100  1
  Ni  Ni1  1  0.74187500  0.74187500  0.78377100  1
  Ni  Ni2  1  0.01880300  0.41875400  0.19535100  1
  Ni  Ni3  1  0.98119700  0.58124600  0.69535100  1
  Ni  Ni4  1  0.41875400  0.01880300  0.19535100  1
  Ni  Ni5  1  0.58124600  0.98119700  0.69535100  1
  Cu  Cu6  1  0.85232200  0.64234100  0.24662500  1
  Cu  Cu7  1  0.14767800  0.35765900  0.74662500  1
  Cu  Cu8  1  0.35765900  0.14767800  0.74662500  1
  Cu  Cu9  1  0.64234100  0.85232200  0.24662500  1
  C  C10  1  0.66136000  0.07735500  0.32454400  1
  C  C11  1  0.33864000  0.92264500  0.82454400  1
  C  C12  1  0.92264500  0.33864000  0.82454400  1
  C  C13  1  0.07735500  0.66136000  0.32454400  1
  C  C14  1  0.44582300  0.71491500  0.92360500  1
  C  C15  1  0.55417700  0.28508500  0.42360500  1
  C  C16  1  0.28508500  0.55417700  0.42360500  1
  C  C17  1  0.71491500  0.44582300  0.92360500  1
  C  C18  1  0.00887600  0.16319900  0.07934700  1
  C  C19  1  0.99112400  0.83680100  0.57934700  1
  C  C20  1  0.61886000  0.61886000  0.15728300  1
  C  C21  1  0.38114000  0.38114000  0.65728300  1
  C  C22  1  0.16319900  0.00887600  0.07934700  1
  C  C23  1  0.83680100  0.99112400  0.57934700  1
