# generated using pymatgen
data_Cu14NiC16
_symmetry_space_group_name_H-M   'P 1'
_cell_length_a   4.12988100
_cell_length_b   8.37808500
_cell_length_c   11.53405600
_cell_angle_alpha   90.00000000
_cell_angle_beta   90.00000000
_cell_angle_gamma   90.00000000
_symmetry_Int_Tables_number   1
_chemical_formula_structural   Cu14NiC16
_chemical_formula_sum   'Cu14 Ni1 C16'
_cell_volume   399.08403609
_cell_formula_units_Z   1
loop_
 _symmetry_equiv_pos_site_id
 _symmetry_equiv_pos_as_xyz
  1  'x, y, z'
loop_
 _atom_site_type_symbol
 _atom_site_label
 _atom_site_symmetry_multiplicity
 _atom_site_fract_x
 _atom_site_fract_y
 _atom_site_fract_z
 _atom_site_occupancy
  C  C0  1  0.00000000  0.00000000  0.92625000  1
  Ni  Ni1  1  0.00000000  0.50000000  0.02620400  1
  Cu  Cu2  1  0.00000000  0.00000000  0.47157700  1
  Cu  Cu3  1  0.00000000  0.50000000  0.46224800  1
  Cu  Cu4  1  0.50000000  0.76765400  0.10013400  1
  Cu  Cu5  1  0.50000000  0.23234600  0.10013400  1
  Cu  Cu6  1  0.50000000  0.74328600  0.47620100  1
  Cu  Cu7  1  0.50000000  0.25671400  0.47620100  1
  Cu  Cu8  1  0.50000000  0.00000000  0.65577800  1
  Cu  Cu9  1  0.50000000  0.50000000  0.73128100  1
  Cu  Cu10  1  0.50000000  0.00000000  0.27486700  1
  Cu  Cu11  1  0.50000000  0.50000000  0.27962000  1
  Cu  Cu12  1  0.00000000  0.75368200  0.66106800  1
  Cu  Cu13  1  0.00000000  0.24631800  0.66106800  1
  Cu  Cu14  1  0.00000000  0.75327600  0.27771000  1
  Cu  Cu15  1  0.00000000  0.24672400  0.27771000  1
  C  C16  1  0.00000000  0.00000000  0.66466300  1
  C  C17  1  0.00000000  0.00000000  0.29731700  1
  C  C18  1  0.00000000  0.50000000  0.28365200  1
  C  C19  1  0.50000000  0.74554400  0.67373300  1
  C  C20  1  0.50000000  0.25445600  0.67373300  1
  C  C21  1  0.50000000  0.74929900  0.27843700  1
  C  C22  1  0.50000000  0.25070100  0.27843700  1
  C  C23  1  0.50000000  0.00000000  0.09186900  1
  C  C24  1  0.50000000  0.50000000  0.07644300  1
  C  C25  1  0.50000000  0.00000000  0.47891300  1
  C  C26  1  0.50000000  0.50000000  0.46446100  1
  C  C27  1  0.00000000  0.72305700  0.08490200  1
  C  C28  1  0.00000000  0.27694300  0.08490200  1
  C  C29  1  0.00000000  0.74573100  0.48024500  1
  C  C30  1  0.00000000  0.25426900  0.48024500  1
