# generated using pymatgen
data_Cu2Ni6C19
_symmetry_space_group_name_H-M   'P 1'
_cell_length_a   6.03235900
_cell_length_b   8.04465200
_cell_length_c   18.63506328
_cell_angle_alpha   88.65985598
_cell_angle_beta   90.00000000
_cell_angle_gamma   90.00000000
_symmetry_Int_Tables_number   1
_chemical_formula_structural   Cu2Ni6C19
_chemical_formula_sum   'Cu4 Ni12 C38'
_cell_volume   904.07925434
_cell_formula_units_Z   2
loop_
 _symmetry_equiv_pos_site_id
 _symmetry_equiv_pos_as_xyz
  1  'x, y, z'
loop_
 _atom_site_type_symbol
 _atom_site_label
 _atom_site_symmetry_multiplicity
 _atom_site_fract_x
 _atom_site_fract_y
 _atom_site_fract_z
 _atom_site_occupancy
  Ni  Ni0  1  0.75613800  0.49864900  0.07848200  1
  Ni  Ni1  1  0.24386200  0.50135100  0.92151800  1
  Ni  Ni2  1  0.75613800  0.50135100  0.42151800  1
  Ni  Ni3  1  0.24386200  0.49864900  0.57848200  1
  Ni  Ni4  1  0.74486700  0.97203000  0.08956900  1
  Ni  Ni5  1  0.25513300  0.02797000  0.91043100  1
  Ni  Ni6  1  0.74486700  0.02797000  0.41043100  1
  Ni  Ni7  1  0.25513300  0.97203000  0.58956900  1
  Ni  Ni8  1  0.72211700  0.00000000  0.75000000  1
  Ni  Ni9  1  0.27788300  0.00000000  0.25000000  1
  Ni  Ni10  1  0.66790600  0.50000000  0.75000000  1
  Ni  Ni11  1  0.33209400  0.50000000  0.25000000  1
  Cu  Cu12  1  0.74495200  0.75140900  0.91017300  1
  Cu  Cu13  1  0.25504800  0.24859100  0.08982700  1
  Cu  Cu14  1  0.74495200  0.24859100  0.58982700  1
  Cu  Cu15  1  0.25504800  0.75140900  0.41017300  1
  C  C16  1  0.75078800  0.75373300  0.55842300  1
  C  C17  1  0.24921200  0.24626700  0.44157700  1
  C  C18  1  0.75078800  0.24626700  0.94157700  1
  C  C19  1  0.24921200  0.75373300  0.05842300  1
  C  C20  1  0.77509900  0.77018300  0.26641700  1
  C  C21  1  0.22490100  0.22981700  0.73358300  1
  C  C22  1  0.77509900  0.22981700  0.23358300  1
  C  C23  1  0.22490100  0.77018300  0.76641700  1
  C  C24  1  0.20577700  0.00000000  0.75000000  1
  C  C25  1  0.79422300  0.00000000  0.25000000  1
  C  C26  1  0.50373500  0.76493900  0.99981800  1
  C  C27  1  0.49626500  0.23506100  0.00018200  1
  C  C28  1  0.50373500  0.23506100  0.50018200  1
  C  C29  1  0.49626500  0.76493900  0.49981800  1
  C  C30  1  0.76087400  0.95379900  0.60796200  1
  C  C31  1  0.23912600  0.04620100  0.39203800  1
  C  C32  1  0.76087400  0.04620100  0.89203800  1
  C  C33  1  0.23912600  0.95379900  0.10796200  1
  C  C34  1  0.00348700  0.76340400  0.99462300  1
  C  C35  1  0.99651300  0.23659600  0.00537700  1
  C  C36  1  0.00348700  0.23659600  0.50537700  1
  C  C37  1  0.99651300  0.76340400  0.49462300  1
  C  C38  1  0.32582000  0.68846100  0.68211600  1
  C  C39  1  0.67418000  0.31153900  0.31788400  1
  C  C40  1  0.32582000  0.31153900  0.81788400  1
  C  C41  1  0.67418000  0.68846100  0.18211600  1
  C  C42  1  0.45212700  0.74920500  0.83592700  1
  C  C43  1  0.54787300  0.25079500  0.16407300  1
  C  C44  1  0.45212700  0.25079500  0.66407300  1
  C  C45  1  0.54787300  0.74920500  0.33592700  1
  C  C46  1  0.95629000  0.72623200  0.81083400  1
  C  C47  1  0.04371000  0.27376800  0.18916600  1
  C  C48  1  0.95629000  0.27376800  0.68916600  1
  C  C49  1  0.04371000  0.72623200  0.31083400  1
  C  C50  1  0.75536900  0.53180100  0.59163900  1
  C  C51  1  0.24463100  0.46819900  0.40836100  1
  C  C52  1  0.75536900  0.46819900  0.90836100  1
  C  C53  1  0.24463100  0.53180100  0.09163900  1
