# generated using pymatgen
data_Cu22Ni6C53
_symmetry_space_group_name_H-M   'P 1'
_cell_length_a   3.66987658
_cell_length_b   3.66987639
_cell_length_c   104.55733864
_cell_angle_alpha   60.56899816
_cell_angle_beta   60.56900010
_cell_angle_gamma   60.00059608
_symmetry_Int_Tables_number   1
_chemical_formula_structural   Cu22Ni6C53
_chemical_formula_sum   'Cu22 Ni6 C53'
_cell_volume   1004.21445065
_cell_formula_units_Z   1
loop_
 _symmetry_equiv_pos_site_id
 _symmetry_equiv_pos_as_xyz
  1  'x, y, z'
loop_
 _atom_site_type_symbol
 _atom_site_label
 _atom_site_symmetry_multiplicity
 _atom_site_fract_x
 _atom_site_fract_y
 _atom_site_fract_z
 _atom_site_occupancy
  Ni  Ni0  1  0.01927946  0.01927946  0.78364863  1
  Ni  Ni1  1  0.99897666  0.99897666  0.85725515  1
  Ni  Ni2  1  0.01594480  0.01594480  0.81971676  1
  Ni  Ni3  1  0.00051591  0.00051591  0.89280537  1
  Ni  Ni4  1  0.98425232  0.98425232  0.93026197  1
  Ni  Ni5  1  0.98168493  0.98168493  0.96624700  1
  Cu  Cu6  1  0.99326645  0.99326645  0.00071772  1
  Cu  Cu7  1  0.00498166  0.00498166  0.03517763  1
  Cu  Cu8  1  0.01270812  0.01270812  0.07006452  1
  Cu  Cu9  1  0.01658611  0.01658610  0.10536547  1
  Cu  Cu10  1  0.01796255  0.01796255  0.14093507  1
  Cu  Cu11  1  0.01803601  0.01803601  0.21235746  1
  Cu  Cu12  1  0.00152636  0.00152636  0.24984108  1
  Cu  Cu13  1  0.01792242  0.01792242  0.17665518  1
  Cu  Cu14  1  0.01395582  0.01395582  0.28421219  1
  Cu  Cu15  1  0.01355125  0.01355125  0.31997397  1
  Cu  Cu16  1  0.02638496  0.02638496  0.39003269  1
  Cu  Cu17  1  0.00640121  0.00640121  0.35645949  1
  Cu  Cu18  1  0.00950474  0.00950474  0.42755384  1
  Cu  Cu19  1  0.98923394  0.98923394  0.46543976  1
  Cu  Cu20  1  0.98454717  0.98454717  0.50165465  1
  Cu  Cu21  1  0.98332018  0.98332018  0.53750001  1
  Cu  Cu22  1  0.98277163  0.98277163  0.57327662  1
  Cu  Cu23  1  0.98291572  0.98291572  0.60897326  1
  Cu  Cu24  1  0.98897665  0.98897665  0.67975156  1
  Cu  Cu25  1  0.98450156  0.98450156  0.64451470  1
  Cu  Cu26  1  0.00856453  0.00856453  0.74907916  1
  Cu  Cu27  1  0.99681082  0.99681082  0.71462691  1
  C  C28  1  0.22513188  0.22513188  0.01158755  1
  C  C29  1  0.23460635  0.23460635  0.04629225  1
  C  C30  1  0.23984670  0.23984670  0.08144461  1
  C  C31  1  0.72530590  0.72530590  0.02942967  1
  C  C32  1  0.73354942  0.73354942  0.06426085  1
  C  C33  1  0.24215708  0.24215708  0.11691316  1
  C  C34  1  0.73741744  0.73741744  0.09956269  1
  C  C35  1  0.24278558  0.24278558  0.15256198  1
  C  C36  1  0.24249983  0.24249983  0.18830781  1
  C  C37  1  0.73857681  0.73857681  0.13515509  1
  C  C38  1  0.23604618  0.23604618  0.22471376  1
  C  C39  1  0.73867185  0.73867185  0.17086017  1
  C  C40  1  0.73977862  0.73977862  0.20645613  1
  C  C41  1  0.24891647  0.24891647  0.29475551  1
  C  C42  1  0.70170146  0.70170146  0.24624893  1
  C  C43  1  0.24424776  0.24424776  0.33097764  1
  C  C44  1  0.75744553  0.75744553  0.27598347  1
  C  C45  1  0.74544033  0.74544033  0.31298945  1
  C  C46  1  0.25119432  0.25119432  0.40165717  1
  C  C47  1  0.71981307  0.71981307  0.35145187  1
  C  C48  1  0.76481923  0.76481923  0.38234063  1
  C  C49  1  0.26918348  0.26918348  0.47115973  1
  C  C50  1  0.69998879  0.69998879  0.42500196  1
  C  C51  1  0.26131751  0.26131751  0.50771374  1
  C  C52  1  0.77770489  0.77770489  0.45239079  1
  C  C53  1  0.26031107  0.26031107  0.54353669  1
  C  C54  1  0.76047186  0.76047186  0.48994639  1
  C  C55  1  0.75790313  0.75790313  0.52593700  1
  C  C56  1  0.25995930  0.25995930  0.57929104  1
  C  C57  1  0.75703537  0.75703537  0.56174626  1
  C  C58  1  0.26023703  0.26023703  0.61497455  1
  C  C59  1  0.75690507  0.75690507  0.59747485  1
  C  C60  1  0.26155057  0.26155057  0.65054571  1
  C  C61  1  0.75753989  0.75753989  0.63311898  1
  C  C62  1  0.26587541  0.26587541  0.68579744  1
  C  C63  1  0.75992291  0.75992291  0.66857654  1
  C  C64  1  0.27462517  0.27462517  0.72057547  1
  C  C65  1  0.28996071  0.28996071  0.75464377  1
  C  C66  1  0.76545636  0.76545636  0.70370075  1
  C  C67  1  0.77536721  0.77536721  0.73835005  1
  C  C68  1  0.26666770  0.26666770  0.79285763  1
  C  C69  1  0.78896319  0.78896319  0.77261015  1
  C  C70  1  0.25133015  0.25133015  0.83021141  1
  C  C71  1  0.76179439  0.76179439  0.81123232  1
  C  C72  1  0.25278216  0.25278216  0.86577672  1
  C  C73  1  0.76400275  0.76400275  0.84671661  1
  C  C74  1  0.23662365  0.23662365  0.90322256  1
  C  C75  1  0.23855561  0.23855561  0.93872950  1
  C  C76  1  0.74729277  0.74729277  0.88422111  1
  C  C77  1  0.74854237  0.74854237  0.91980267  1
  C  C78  1  0.21200210  0.21200210  0.97728315  1
  C  C79  1  0.73438270  0.73438270  0.95702992  1
  C  C80  1  0.71070898  0.71070898  0.99527631  1
