# generated using pymatgen
data_Cu12Ni16C
_symmetry_space_group_name_H-M   'P 1'
_cell_length_a   9.10003109
_cell_length_b   9.10003109
_cell_length_c   9.10003090
_cell_angle_alpha   109.46593158
_cell_angle_beta   109.46593158
_cell_angle_gamma   109.46593675
_symmetry_Int_Tables_number   1
_chemical_formula_structural   Cu12Ni16C
_chemical_formula_sum   'Cu12 Ni16 C1'
_cell_volume   580.21869172
_cell_formula_units_Z   1
loop_
 _symmetry_equiv_pos_site_id
 _symmetry_equiv_pos_as_xyz
  1  'x, y, z'
loop_
 _atom_site_type_symbol
 _atom_site_label
 _atom_site_symmetry_multiplicity
 _atom_site_fract_x
 _atom_site_fract_y
 _atom_site_fract_z
 _atom_site_occupancy
  Ni  Ni0  1  0.40669100  0.40669100  0.70840000  1
  Ni  Ni1  1  0.99761500  0.99761500  0.99761500  1
  Ni  Ni2  1  0.99838700  0.99838700  0.34423700  1
  Ni  Ni3  1  0.68475400  0.68475400  0.28539500  1
  Ni  Ni4  1  0.59836000  0.31681500  0.99910100  1
  Ni  Ni5  1  0.70840000  0.40669100  0.40669100  1
  Ni  Ni6  1  0.31681500  0.99910100  0.59836000  1
  Ni  Ni7  1  0.34423700  0.99838700  0.99838700  1
  Ni  Ni8  1  0.68475400  0.28539500  0.68475400  1
  Ni  Ni9  1  0.99910100  0.59836000  0.31681500  1
  Ni  Ni10  1  0.59836000  0.99910100  0.31681500  1
  Ni  Ni11  1  0.28539500  0.68475400  0.68475400  1
  Ni  Ni12  1  0.99838700  0.34423700  0.99838700  1
  Ni  Ni13  1  0.99910100  0.31681500  0.59836000  1
  Ni  Ni14  1  0.40669100  0.70840000  0.40669100  1
  Ni  Ni15  1  0.31681500  0.59836000  0.99910100  1
  Cu  Cu16  1  0.35963600  0.35963600  0.17313500  1
  Cu  Cu17  1  0.18583900  0.18583900  0.81233400  1
  Cu  Cu18  1  0.81618900  0.63314200  0.00172000  1
  Cu  Cu19  1  0.00172000  0.81618900  0.63314200  1
  Cu  Cu20  1  0.35963600  0.17313500  0.35963600  1
  Cu  Cu21  1  0.00172000  0.63314200  0.81618900  1
  Cu  Cu22  1  0.18583900  0.81233400  0.18583900  1
  Cu  Cu23  1  0.81233400  0.18583900  0.18583900  1
  Cu  Cu24  1  0.63314200  0.00172000  0.81618900  1
  Cu  Cu25  1  0.17313500  0.35963600  0.35963600  1
  Cu  Cu26  1  0.81618900  0.00172000  0.63314200  1
  Cu  Cu27  1  0.63314200  0.81618900  0.00172000  1
  C  C28  1  0.67761000  0.67761000  0.67761000  1
