# generated using pymatgen
data_Cu(NiC8)2
_symmetry_space_group_name_H-M   'P 1'
_cell_length_a   10.28606600
_cell_length_b   11.13870607
_cell_length_c   12.18601567
_cell_angle_alpha   104.29226565
_cell_angle_beta   90.00000000
_cell_angle_gamma   117.49855556
_symmetry_Int_Tables_number   1
_chemical_formula_structural   Cu(NiC8)2
_chemical_formula_sum   'Cu4 Ni8 C64'
_cell_volume   1189.52534137
_cell_formula_units_Z   4
loop_
 _symmetry_equiv_pos_site_id
 _symmetry_equiv_pos_as_xyz
  1  'x, y, z'
loop_
 _atom_site_type_symbol
 _atom_site_label
 _atom_site_symmetry_multiplicity
 _atom_site_fract_x
 _atom_site_fract_y
 _atom_site_fract_z
 _atom_site_occupancy
  C  C0  1  0.98660000  0.64880200  0.22750200  1
  C  C1  1  0.33779800  0.35119800  0.77249800  1
  C  C2  1  0.33714800  0.98180100  0.75310900  1
  C  C3  1  0.35534700  0.01819900  0.24689100  1
  C  C4  1  0.74517400  0.35871800  0.90745200  1
  C  C5  1  0.38645600  0.64128200  0.09254800  1
  C  C6  1  0.92224500  0.62880500  0.59152600  1
  C  C7  1  0.29344000  0.37119500  0.40847400  1
  C  C8  1  0.69063100  0.00000000  0.00000000  1
  C  C9  1  0.73904100  0.70647300  0.89689600  1
  C  C10  1  0.03256800  0.29352700  0.10310400  1
  C  C11  1  0.10141400  0.80232800  0.96114100  1
  C  C12  1  0.29908500  0.19767200  0.03885900  1
  C  C13  1  0.64233600  0.71078300  0.38076900  1
  C  C14  1  0.93155300  0.28921700  0.61923100  1
  C  C15  1  0.36953100  0.80193600  0.44567300  1
  C  C16  1  0.56759400  0.19806400  0.55432700  1
  C  C17  1  0.98116200  0.00000000  0.50000000  1
  Ni  Ni18  1  0.95680200  0.42646100  0.36642200  1
  Ni  Ni19  1  0.53034100  0.57353900  0.63357800  1
  Ni  Ni20  1  0.79231500  0.39252800  0.36102200  1
  Ni  Ni21  1  0.39978700  0.60747200  0.63897800  1
  Ni  Ni22  1  0.71563600  0.33356600  0.15693900  1
  Ni  Ni23  1  0.38207000  0.66643400  0.84306100  1
  Ni  Ni24  1  0.63313500  0.42193300  0.16609000  1
  Ni  Ni25  1  0.21120200  0.57806700  0.83391000  1
  Cu  Cu26  1  0.98073900  0.01926000  0.83015200  1
  Cu  Cu27  1  0.96147900  0.98074000  0.16984800  1
  Cu  Cu28  1  0.67972200  0.96060100  0.66385100  1
  Cu  Cu29  1  0.71912000  0.03939900  0.33614900  1
  C  C30  1  0.89281200  0.47033300  0.37174700  1
  C  C31  1  0.42247900  0.52966700  0.62825300  1
  C  C32  1  0.16710800  0.11738800  0.85581000  1
  C  C33  1  0.04972000  0.88261200  0.14419000  1
  C  C34  1  0.72158200  0.41771600  0.14126700  1
  C  C35  1  0.30386600  0.58228400  0.85873300  1
  C  C36  1  0.91849900  0.11325500  0.93372000  1
  C  C37  1  0.80524400  0.88674500  0.06628000  1
  C  C38  1  0.95880300  0.87991200  0.88521800  1
  C  C39  1  0.07889200  0.12008800  0.11478200  1
  C  C40  1  0.49419800  0.86057300  0.62798400  1
  C  C41  1  0.63362500  0.13942700  0.37201600  1
  C  C42  1  0.74969400  0.88058300  0.55623800  1
  C  C43  1  0.86911100  0.11941700  0.44376200  1
  C  C44  1  0.71005600  0.11334900  0.62616800  1
  C  C45  1  0.59670700  0.88665100  0.37383200  1
  C  C46  1  0.89168800  0.66742700  0.95159800  1
  C  C47  1  0.22426200  0.33257300  0.04840200  1
  C  C48  1  0.66377700  0.83623300  0.87754600  1
  C  C49  1  0.82754400  0.16376700  0.12245400  1
  C  C50  1  0.18105500  0.73748700  0.04116300  1
  C  C51  1  0.44356800  0.26251300  0.95883700  1
  C  C52  1  0.59016100  0.58976200  0.95079400  1
  C  C53  1  0.00040000  0.41023800  0.04920600  1
  C  C54  1  0.84938300  0.84504000  0.36879200  1
  C  C55  1  0.00434400  0.15496000  0.63120800  1
  C  C56  1  0.66874600  0.59547400  0.44057300  1
  C  C57  1  0.07327200  0.40452600  0.55942700  1
  C  C58  1  0.13801400  0.74737900  0.82195500  1
  C  C59  1  0.39063500  0.25262100  0.17804500  1
  C  C60  1  0.44229600  0.66559600  0.42326200  1
  C  C61  1  0.77670000  0.33440400  0.57673800  1
  C  C62  1  0.42347200  0.00000000  0.50000000  1
  C  C63  1  0.28752700  0.76744600  0.30614700  1
  C  C64  1  0.52008100  0.23255400  0.69385300  1
  C  C65  1  0.04311400  0.91519500  0.57344800  1
  C  C66  1  0.12792000  0.08480500  0.42655200  1
  C  C67  1  0.54897500  0.92649200  0.08120000  1
  C  C68  1  0.62248300  0.07350800  0.91880000  1
  C  C69  1  0.71339200  0.62038400  0.75126700  1
  C  C70  1  0.09300800  0.37961600  0.24873300  1
  C  C71  1  0.59269000  0.62458000  0.23484000  1
  C  C72  1  0.96811000  0.37542000  0.76516000  1
  C  C73  1  0.21686400  0.72737800  0.51545500  1
  C  C74  1  0.48948600  0.27262200  0.48454500  1
  C  C75  1  0.25025500  0.00000000  0.00000000  1
