# generated using pymatgen
data_Cu12Ni2C5
_symmetry_space_group_name_H-M   'P 1'
_cell_length_a   9.90657900
_cell_length_b   9.90657900
_cell_length_c   9.90657900
_cell_angle_alpha   90.00000000
_cell_angle_beta   90.00000000
_cell_angle_gamma   90.00000000
_symmetry_Int_Tables_number   1
_chemical_formula_structural   Cu12Ni2C5
_chemical_formula_sum   'Cu48 Ni8 C20'
_cell_volume   972.23470917
_cell_formula_units_Z   4
loop_
 _symmetry_equiv_pos_site_id
 _symmetry_equiv_pos_as_xyz
  1  'x, y, z'
loop_
 _atom_site_type_symbol
 _atom_site_label
 _atom_site_symmetry_multiplicity
 _atom_site_fract_x
 _atom_site_fract_y
 _atom_site_fract_z
 _atom_site_occupancy
  C  C0  1  0.33686000  0.33686000  0.33686000  1
  C  C1  1  0.16314000  0.66314000  0.83686000  1
  C  C2  1  0.66314000  0.83686000  0.16314000  1
  C  C3  1  0.83686000  0.16314000  0.66314000  1
  C  C4  1  0.59965500  0.59965500  0.59965500  1
  C  C5  1  0.90034500  0.40034500  0.09965500  1
  C  C6  1  0.40034500  0.09965500  0.90034500  1
  C  C7  1  0.09965500  0.90034500  0.40034500  1
  C  C8  1  0.01755400  0.21655000  0.37609300  1
  C  C9  1  0.48244600  0.78345000  0.87609300  1
  C  C10  1  0.98244600  0.71655000  0.12390700  1
  C  C11  1  0.37609300  0.01755400  0.21655000  1
  C  C12  1  0.51755400  0.28345000  0.62390700  1
  C  C13  1  0.87609300  0.48244600  0.78345000  1
  C  C14  1  0.12390700  0.98244600  0.71655000  1
  C  C15  1  0.62390700  0.51755400  0.28345000  1
  C  C16  1  0.21655000  0.37609300  0.01755400  1
  C  C17  1  0.71655000  0.12390700  0.98244600  1
  C  C18  1  0.28345000  0.62390700  0.51755400  1
  C  C19  1  0.78345000  0.87609300  0.48244600  1
  Ni  Ni20  1  0.04792000  0.04792000  0.04792000  1
  Ni  Ni21  1  0.45208000  0.95208000  0.54792000  1
  Ni  Ni22  1  0.95208000  0.54792000  0.45208000  1
  Ni  Ni23  1  0.54792000  0.45208000  0.95208000  1
  Ni  Ni24  1  0.81655700  0.81655700  0.81655700  1
  Ni  Ni25  1  0.68344300  0.18344300  0.31655700  1
  Ni  Ni26  1  0.18344300  0.31655700  0.68344300  1
  Ni  Ni27  1  0.31655700  0.68344300  0.18344300  1
  Cu  Cu28  1  0.01116300  0.07276900  0.33217500  1
  Cu  Cu29  1  0.48883700  0.92723100  0.83217500  1
  Cu  Cu30  1  0.98883700  0.57276900  0.16782500  1
  Cu  Cu31  1  0.33217500  0.01116300  0.07276900  1
  Cu  Cu32  1  0.51116300  0.42723100  0.66782500  1
  Cu  Cu33  1  0.83217500  0.48883700  0.92723100  1
  Cu  Cu34  1  0.16782500  0.98883700  0.57276900  1
  Cu  Cu35  1  0.66782500  0.51116300  0.42723100  1
  Cu  Cu36  1  0.07276900  0.33217500  0.01116300  1
  Cu  Cu37  1  0.57276900  0.16782500  0.98883700  1
  Cu  Cu38  1  0.42723100  0.66782500  0.51116300  1
  Cu  Cu39  1  0.92723100  0.83217500  0.48883700  1
  Cu  Cu40  1  0.26650000  0.49659800  0.44024200  1
  Cu  Cu41  1  0.23350000  0.50340200  0.94024200  1
  Cu  Cu42  1  0.73350000  0.99659800  0.05975800  1
  Cu  Cu43  1  0.44024200  0.26650000  0.49659800  1
  Cu  Cu44  1  0.76650000  0.00340200  0.55975800  1
  Cu  Cu45  1  0.94024200  0.23350000  0.50340200  1
  Cu  Cu46  1  0.05975800  0.73350000  0.99659800  1
  Cu  Cu47  1  0.55975800  0.76650000  0.00340200  1
  Cu  Cu48  1  0.49659800  0.44024200  0.26650000  1
  Cu  Cu49  1  0.99659800  0.05975800  0.73350000  1
  Cu  Cu50  1  0.00340200  0.55975800  0.76650000  1
  Cu  Cu51  1  0.50340200  0.94024200  0.23350000  1
  Cu  Cu52  1  0.04141700  0.80450300  0.22708000  1
  Cu  Cu53  1  0.45858300  0.19549700  0.72708000  1
  Cu  Cu54  1  0.95858300  0.30450300  0.27292000  1
  Cu  Cu55  1  0.22708000  0.04141700  0.80450300  1
  Cu  Cu56  1  0.54141700  0.69549700  0.77292000  1
  Cu  Cu57  1  0.72708000  0.45858300  0.19549700  1
  Cu  Cu58  1  0.27292000  0.95858300  0.30450300  1
  Cu  Cu59  1  0.77292000  0.54141700  0.69549700  1
  Cu  Cu60  1  0.80450300  0.22708000  0.04141700  1
  Cu  Cu61  1  0.30450300  0.27292000  0.95858300  1
  Cu  Cu62  1  0.69549700  0.77292000  0.54141700  1
  Cu  Cu63  1  0.19549700  0.72708000  0.45858300  1
  Cu  Cu64  1  0.16088600  0.25358200  0.40050600  1
  Cu  Cu65  1  0.33911400  0.74641700  0.90050600  1
  Cu  Cu66  1  0.83911400  0.75358300  0.09949400  1
  Cu  Cu67  1  0.40050600  0.16088600  0.25358200  1
  Cu  Cu68  1  0.66088600  0.24641800  0.59949400  1
  Cu  Cu69  1  0.90050600  0.33911400  0.74641700  1
  Cu  Cu70  1  0.09949400  0.83911400  0.75358300  1
  Cu  Cu71  1  0.59949400  0.66088600  0.24641800  1
  Cu  Cu72  1  0.25358200  0.40050600  0.16088600  1
  Cu  Cu73  1  0.75358300  0.09949400  0.83911400  1
  Cu  Cu74  1  0.24641800  0.59949400  0.66088600  1
  Cu  Cu75  1  0.74641700  0.90050600  0.33911400  1
