# generated using pymatgen
data_Cu15Ni7C
_symmetry_space_group_name_H-M   'P 1'
_cell_length_a   11.16375797
_cell_length_b   11.16375797
_cell_length_c   9.30528400
_cell_angle_alpha   90.00000000
_cell_angle_beta   90.00000000
_cell_angle_gamma   119.99999985
_symmetry_Int_Tables_number   1
_chemical_formula_structural   Cu15Ni7C
_chemical_formula_sum   'Cu45 Ni21 C3'
_cell_volume   1004.34076376
_cell_formula_units_Z   3
loop_
 _symmetry_equiv_pos_site_id
 _symmetry_equiv_pos_as_xyz
  1  'x, y, z'
loop_
 _atom_site_type_symbol
 _atom_site_label
 _atom_site_symmetry_multiplicity
 _atom_site_fract_x
 _atom_site_fract_y
 _atom_site_fract_z
 _atom_site_occupancy
  C  C0  1  0.32909200  0.32909200  0.00000000  1
  C  C1  1  0.67090800  0.00000000  0.33333300  1
  C  C2  1  0.00000000  0.67090800  0.66666700  1
  Ni  Ni3  1  0.73782900  0.10051700  0.04255100  1
  Ni  Ni4  1  0.89948300  0.63731200  0.37588400  1
  Ni  Ni5  1  0.36268800  0.26217100  0.70921800  1
  Ni  Ni6  1  0.07938600  0.07938600  0.00000000  1
  Ni  Ni7  1  0.92061400  0.00000000  0.33333300  1
  Ni  Ni8  1  0.00000000  0.92061400  0.66666700  1
  Ni  Ni9  1  0.66424100  0.24898000  0.39527000  1
  Ni  Ni10  1  0.75102000  0.41526000  0.72860400  1
  Ni  Ni11  1  0.58474000  0.33575900  0.06193700  1
  Ni  Ni12  1  0.00000000  0.45496600  0.16666700  1
  Ni  Ni13  1  0.54503400  0.54503400  0.50000000  1
  Ni  Ni14  1  0.45496600  0.00000000  0.83333300  1
  Ni  Ni15  1  0.33575900  0.58474000  0.93806300  1
  Ni  Ni16  1  0.41526000  0.75102000  0.27139600  1
  Ni  Ni17  1  0.24898000  0.66424100  0.60473000  1
  Ni  Ni18  1  0.26217100  0.36268800  0.29078200  1
  Ni  Ni19  1  0.63731200  0.89948300  0.62411600  1
  Ni  Ni20  1  0.10051700  0.73782900  0.95744900  1
  Ni  Ni21  1  0.72708800  0.72708800  0.00000000  1
  Ni  Ni22  1  0.27291200  0.00000000  0.33333300  1
  Ni  Ni23  1  0.00000000  0.27291200  0.66666700  1
  Cu  Cu24  1  0.17566500  0.33435700  0.18670300  1
  Cu  Cu25  1  0.66564300  0.84130900  0.52003700  1
  Cu  Cu26  1  0.15869100  0.82433500  0.85337000  1
  Cu  Cu27  1  0.23028900  0.37328100  0.41592600  1
  Cu  Cu28  1  0.62671900  0.85700800  0.74925900  1
  Cu  Cu29  1  0.14299200  0.76971100  0.08259300  1
  Cu  Cu30  1  0.43597200  0.57324000  0.97697600  1
  Cu  Cu31  1  0.42676000  0.86273200  0.31030900  1
  Cu  Cu32  1  0.13726800  0.56402800  0.64364200  1
  Cu  Cu33  1  0.62346800  0.00313800  0.59013300  1
  Cu  Cu34  1  0.99686200  0.62033000  0.92346600  1
  Cu  Cu35  1  0.37967000  0.37653200  0.25680000  1
  Cu  Cu36  1  0.21859900  0.46730500  0.92271400  1
  Cu  Cu37  1  0.53269500  0.75129400  0.25604700  1
  Cu  Cu38  1  0.24870600  0.78140100  0.58938000  1
  Cu  Cu39  1  0.89900200  0.08491100  0.40665500  1
  Cu  Cu40  1  0.91508900  0.81409100  0.73998800  1
  Cu  Cu41  1  0.18590900  0.10099800  0.07332100  1
  Cu  Cu42  1  0.76971100  0.14299200  0.91740700  1
  Cu  Cu43  1  0.85700800  0.62671900  0.25074100  1
  Cu  Cu44  1  0.37328100  0.23028900  0.58407400  1
  Cu  Cu45  1  0.82433500  0.15869100  0.14663000  1
  Cu  Cu46  1  0.84130900  0.66564300  0.47996300  1
  Cu  Cu47  1  0.33435700  0.17566500  0.81329700  1
  Cu  Cu48  1  0.30223300  0.64315000  0.25049700  1
  Cu  Cu49  1  0.35685000  0.65908300  0.58383000  1
  Cu  Cu50  1  0.34091700  0.69776700  0.91716300  1
  Cu  Cu51  1  0.56402800  0.13726800  0.35635800  1
  Cu  Cu52  1  0.86273200  0.42676000  0.68969100  1
  Cu  Cu53  1  0.57324000  0.43597200  0.02302400  1
  Cu  Cu54  1  0.00000000  0.02879000  0.66666700  1
  Cu  Cu55  1  0.97121000  0.97121000  0.00000000  1
  Cu  Cu56  1  0.02879000  0.00000000  0.33333300  1
  Cu  Cu57  1  0.62033000  0.99686200  0.07653400  1
  Cu  Cu58  1  0.00313800  0.62346800  0.40986700  1
  Cu  Cu59  1  0.37653200  0.37967000  0.74320000  1
  Cu  Cu60  1  0.69776700  0.34091700  0.08283700  1
  Cu  Cu61  1  0.65908300  0.35685000  0.41617000  1
  Cu  Cu62  1  0.64315000  0.30223300  0.74950300  1
  Cu  Cu63  1  0.10099800  0.18590900  0.92667900  1
  Cu  Cu64  1  0.81409100  0.91508900  0.26001200  1
  Cu  Cu65  1  0.08491100  0.89900200  0.59334500  1
  Cu  Cu66  1  0.78140100  0.24870600  0.41062000  1
  Cu  Cu67  1  0.75129400  0.53269500  0.74395300  1
  Cu  Cu68  1  0.46730500  0.21859900  0.07728600  1
