# generated using pymatgen
data_Cu6NiC3
_symmetry_space_group_name_H-M   'P 1'
_cell_length_a   8.86416563
_cell_length_b   8.86416563
_cell_length_c   8.86416523
_cell_angle_alpha   108.92575420
_cell_angle_beta   108.92575420
_cell_angle_gamma   108.92575047
_symmetry_Int_Tables_number   1
_chemical_formula_structural   Cu6NiC3
_chemical_formula_sum   'Cu36 Ni6 C18'
_cell_volume   546.71641865
_cell_formula_units_Z   6
loop_
 _symmetry_equiv_pos_site_id
 _symmetry_equiv_pos_as_xyz
  1  'x, y, z'
loop_
 _atom_site_type_symbol
 _atom_site_label
 _atom_site_symmetry_multiplicity
 _atom_site_fract_x
 _atom_site_fract_y
 _atom_site_fract_z
 _atom_site_occupancy
  C  C0  1  0.94282500  0.77690100  0.42429700  1
  C  C1  1  0.42429700  0.94282500  0.77690100  1
  C  C2  1  0.77690100  0.42429700  0.94282500  1
  C  C3  1  0.05717500  0.22309900  0.57570300  1
  C  C4  1  0.57570300  0.05717500  0.22309900  1
  C  C5  1  0.22309900  0.57570300  0.05717500  1
  C  C6  1  0.38545800  0.30260900  0.57094200  1
  C  C7  1  0.57094200  0.38545800  0.30260900  1
  C  C8  1  0.30260900  0.57094200  0.38545800  1
  C  C9  1  0.61454200  0.69739100  0.42905800  1
  C  C10  1  0.42905800  0.61454200  0.69739100  1
  C  C11  1  0.69739100  0.42905800  0.61454200  1
  Ni  Ni12  1  0.24661200  0.07849000  0.64961900  1
  Ni  Ni13  1  0.64961900  0.24661200  0.07849000  1
  Ni  Ni14  1  0.07849000  0.64961900  0.24661200  1
  Ni  Ni15  1  0.75338800  0.92151000  0.35038100  1
  Ni  Ni16  1  0.35038100  0.75338800  0.92151000  1
  Ni  Ni17  1  0.92151000  0.35038100  0.75338800  1
  Cu  Cu18  1  0.71140700  0.65556900  0.87768500  1
  Cu  Cu19  1  0.87768500  0.71140700  0.65556900  1
  Cu  Cu20  1  0.65556900  0.87768500  0.71140700  1
  Cu  Cu21  1  0.28859300  0.34443100  0.12231500  1
  Cu  Cu22  1  0.12231500  0.28859300  0.34443100  1
  Cu  Cu23  1  0.34443100  0.12231500  0.28859300  1
  Cu  Cu24  1  0.11253800  0.44020000  0.49384800  1
  Cu  Cu25  1  0.49384800  0.11253800  0.44020000  1
  Cu  Cu26  1  0.44020000  0.49384800  0.11253800  1
  Cu  Cu27  1  0.88746200  0.55980000  0.50615200  1
  Cu  Cu28  1  0.50615200  0.88746200  0.55980000  1
  Cu  Cu29  1  0.55980000  0.50615200  0.88746200  1
  Cu  Cu30  1  0.26106200  0.21966200  0.75434400  1
  Cu  Cu31  1  0.75434400  0.26106200  0.21966200  1
  Cu  Cu32  1  0.21966200  0.75434400  0.26106200  1
  Cu  Cu33  1  0.73893800  0.78033800  0.24565600  1
  Cu  Cu34  1  0.24565600  0.73893800  0.78033800  1
  Cu  Cu35  1  0.78033800  0.24565600  0.73893800  1
  Cu  Cu36  1  0.14719800  0.03084100  0.49030100  1
  Cu  Cu37  1  0.49030100  0.14719800  0.03084100  1
  Cu  Cu38  1  0.03084100  0.49030100  0.14719800  1
  Cu  Cu39  1  0.85280200  0.96915900  0.50969900  1
  Cu  Cu40  1  0.50969900  0.85280200  0.96915900  1
  Cu  Cu41  1  0.96915900  0.50969900  0.85280200  1
  Cu  Cu42  1  0.39796300  0.10829600  0.66588300  1
  Cu  Cu43  1  0.66588300  0.39796300  0.10829600  1
  Cu  Cu44  1  0.10829600  0.66588300  0.39796300  1
  Cu  Cu45  1  0.60203700  0.89170400  0.33411700  1
  Cu  Cu46  1  0.33411700  0.60203700  0.89170400  1
  Cu  Cu47  1  0.89170400  0.33411700  0.60203700  1
  Cu  Cu48  1  0.18572000  0.95958800  0.68818500  1
  Cu  Cu49  1  0.68818500  0.18572000  0.95958800  1
  Cu  Cu50  1  0.95958800  0.68818500  0.18572000  1
  Cu  Cu51  1  0.81428000  0.04041200  0.31181500  1
  Cu  Cu52  1  0.31181500  0.81428000  0.04041200  1
  Cu  Cu53  1  0.04041200  0.31181500  0.81428000  1
  C  C54  1  0.61628200  0.52061000  0.80504500  1
  C  C55  1  0.80504500  0.61628200  0.52061000  1
  C  C56  1  0.52061000  0.80504500  0.61628200  1
  C  C57  1  0.38371800  0.47939000  0.19495500  1
  C  C58  1  0.19495500  0.38371800  0.47939000  1
  C  C59  1  0.47939000  0.19495500  0.38371800  1
