# generated using pymatgen
data_CuNiC5
_symmetry_space_group_name_H-M   'P 1'
_cell_length_a   3.84299695
_cell_length_b   6.76848547
_cell_length_c   6.14183609
_cell_angle_alpha   89.60312598
_cell_angle_beta   89.95024798
_cell_angle_gamma   90.00896603
_symmetry_Int_Tables_number   1
_chemical_formula_structural   CuNiC5
_chemical_formula_sum   'Cu1 Ni1 C5'
_cell_volume   159.75305576
_cell_formula_units_Z   1
loop_
 _symmetry_equiv_pos_site_id
 _symmetry_equiv_pos_as_xyz
  1  'x, y, z'
loop_
 _atom_site_type_symbol
 _atom_site_label
 _atom_site_symmetry_multiplicity
 _atom_site_fract_x
 _atom_site_fract_y
 _atom_site_fract_z
 _atom_site_occupancy
  C  C0  1  0.50014900  0.17079000  0.01134000  1
  Ni  Ni1  1  0.50018300  0.83301200  0.49343800  1
  Cu  Cu2  1  0.00002800  0.33456700  0.49376400  1
  C  C3  1  0.99974200  0.30022000  0.13219100  1
  C  C4  1  0.49995400  0.86259400  0.09039500  1
  C  C5  1  0.49992400  0.18620700  0.63976700  1
  C  C6  1  0.99997000  0.64596000  0.63910500  1
