# generated using pymatgen
data_Cu3NiC12
_symmetry_space_group_name_H-M   'P 1'
_cell_length_a   10.32503475
_cell_length_b   10.32503475
_cell_length_c   10.32503403
_cell_angle_alpha   42.06208890
_cell_angle_beta   42.06208890
_cell_angle_gamma   42.06209126
_symmetry_Int_Tables_number   1
_chemical_formula_structural   Cu3NiC12
_chemical_formula_sum   'Cu6 Ni2 C24'
_cell_volume   446.92740707
_cell_formula_units_Z   2
loop_
 _symmetry_equiv_pos_site_id
 _symmetry_equiv_pos_as_xyz
  1  'x, y, z'
loop_
 _atom_site_type_symbol
 _atom_site_label
 _atom_site_symmetry_multiplicity
 _atom_site_fract_x
 _atom_site_fract_y
 _atom_site_fract_z
 _atom_site_occupancy
  Ni  Ni0  1  0.43255900  0.43255900  0.43255900  1
  Ni  Ni1  1  0.93255900  0.93255900  0.93255900  1
  Cu  Cu2  1  0.64969700  0.23983900  0.14709300  1
  Cu  Cu3  1  0.14709300  0.64969700  0.23983900  1
  Cu  Cu4  1  0.23983900  0.14709300  0.64969600  1
  Cu  Cu5  1  0.64709300  0.73983900  0.14969600  1
  Cu  Cu6  1  0.14969600  0.64709300  0.73983900  1
  Cu  Cu7  1  0.73983900  0.14969700  0.64709300  1
  C  C8  1  0.11780000  0.11780000  0.11780000  1
  C  C9  1  0.61780000  0.61780000  0.61780000  1
  C  C10  1  0.49333000  0.54065100  0.14859100  1
  C  C11  1  0.14859100  0.49333000  0.54065100  1
  C  C12  1  0.54065100  0.14859100  0.49333000  1
  C  C13  1  0.64859100  0.04065100  0.99333000  1
  C  C14  1  0.99333000  0.64859100  0.04065100  1
  C  C15  1  0.04065100  0.99333000  0.64859100  1
  C  C16  1  0.40311100  0.33266700  0.70015100  1
  C  C17  1  0.70015100  0.40311100  0.33266700  1
  C  C18  1  0.33266700  0.70015100  0.40311100  1
  C  C19  1  0.20015100  0.83266700  0.90311100  1
  C  C20  1  0.90311100  0.20015100  0.83266700  1
  C  C21  1  0.83266700  0.90311100  0.20015100  1
  C  C22  1  0.30783000  0.30783000  0.30783000  1
  C  C23  1  0.80783000  0.80783000  0.80783000  1
  C  C24  1  0.06368100  0.06368100  0.06368100  1
  C  C25  1  0.56368100  0.56368100  0.56368100  1
  C  C26  1  0.01108500  0.03625100  0.35262200  1
  C  C27  1  0.35262200  0.01108500  0.03625100  1
  C  C28  1  0.03625100  0.35262200  0.01108500  1
  C  C29  1  0.85262200  0.53625100  0.51108500  1
  C  C30  1  0.51108500  0.85262200  0.53625100  1
  C  C31  1  0.53625100  0.51108500  0.85262200  1
