# generated using pymatgen
data_Cu(NiC4)3
_symmetry_space_group_name_H-M   'P 1'
_cell_length_a   4.01216900
_cell_length_b   4.01216900
_cell_length_c   18.33828900
_cell_angle_alpha   90.00000000
_cell_angle_beta   90.00000000
_cell_angle_gamma   90.00000000
_symmetry_Int_Tables_number   1
_chemical_formula_structural   Cu(NiC4)3
_chemical_formula_sum   'Cu1 Ni3 C12'
_cell_volume   295.20060873
_cell_formula_units_Z   1
loop_
 _symmetry_equiv_pos_site_id
 _symmetry_equiv_pos_as_xyz
  1  'x, y, z'
loop_
 _atom_site_type_symbol
 _atom_site_label
 _atom_site_symmetry_multiplicity
 _atom_site_fract_x
 _atom_site_fract_y
 _atom_site_fract_z
 _atom_site_occupancy
  C  C0  1  0.50000000  0.00000000  0.18641400  1
  C  C1  1  0.50000000  0.00000000  0.68851500  1
  C  C2  1  0.00000000  0.50000000  0.81358600  1
  C  C3  1  0.00000000  0.50000000  0.31148500  1
  Ni  Ni4  1  0.50000000  0.50000000  0.50000000  1
  Ni  Ni5  1  0.00000000  0.00000000  0.00000000  1
  Ni  Ni6  1  0.00000000  0.00000000  0.50000000  1
  Cu  Cu7  1  0.50000000  0.50000000  0.00000000  1
  C  C8  1  0.50000000  0.00000000  0.91205600  1
  C  C9  1  0.50000000  0.00000000  0.40904800  1
  C  C10  1  0.00000000  0.50000000  0.08794400  1
  C  C11  1  0.00000000  0.50000000  0.59095200  1
  C  C12  1  0.50000000  0.50000000  0.75103000  1
  C  C13  1  0.50000000  0.50000000  0.24897000  1
  C  C14  1  0.00000000  0.00000000  0.75078500  1
  C  C15  1  0.00000000  0.00000000  0.24921500  1
