# generated using pymatgen
data_Cu4NiC11
_symmetry_space_group_name_H-M   'P 1'
_cell_length_a   7.25721900
_cell_length_b   7.25721900
_cell_length_c   14.95452400
_cell_angle_alpha   90.00000000
_cell_angle_beta   90.00000000
_cell_angle_gamma   90.00000000
_symmetry_Int_Tables_number   1
_chemical_formula_structural   Cu4NiC11
_chemical_formula_sum   'Cu16 Ni4 C44'
_cell_volume   787.61331937
_cell_formula_units_Z   4
loop_
 _symmetry_equiv_pos_site_id
 _symmetry_equiv_pos_as_xyz
  1  'x, y, z'
loop_
 _atom_site_type_symbol
 _atom_site_label
 _atom_site_symmetry_multiplicity
 _atom_site_fract_x
 _atom_site_fract_y
 _atom_site_fract_z
 _atom_site_occupancy
  C  C0  1  0.50000000  0.50000000  0.50000000  1
  C  C1  1  0.00000000  0.00000000  0.50000000  1
  C  C2  1  0.00000000  0.00000000  0.00000000  1
  C  C3  1  0.50000000  0.50000000  0.00000000  1
  Ni  Ni4  1  0.50000000  0.00000000  0.57317800  1
  Ni  Ni5  1  0.00000000  0.50000000  0.92682200  1
  Ni  Ni6  1  0.00000000  0.50000000  0.42682200  1
  Ni  Ni7  1  0.50000000  0.00000000  0.07317800  1
  Cu  Cu8  1  0.16584600  0.24156600  0.64466100  1
  Cu  Cu9  1  0.83415400  0.75843400  0.64466100  1
  Cu  Cu10  1  0.24156600  0.16584600  0.85533900  1
  Cu  Cu11  1  0.74156600  0.33415400  0.64466100  1
  Cu  Cu12  1  0.25843400  0.66584600  0.64466100  1
  Cu  Cu13  1  0.33415400  0.74156600  0.85533900  1
  Cu  Cu14  1  0.66584600  0.25843400  0.85533900  1
  Cu  Cu15  1  0.75843400  0.83415400  0.85533900  1
  Cu  Cu16  1  0.33415400  0.25843400  0.35533900  1
  Cu  Cu17  1  0.66584600  0.74156600  0.35533900  1
  Cu  Cu18  1  0.25843400  0.33415400  0.14466100  1
  Cu  Cu19  1  0.75843400  0.16584600  0.35533900  1
  Cu  Cu20  1  0.24156600  0.83415400  0.35533900  1
  Cu  Cu21  1  0.16584600  0.75843400  0.14466100  1
  Cu  Cu22  1  0.83415400  0.24156600  0.14466100  1
  Cu  Cu23  1  0.74156600  0.66584600  0.14466100  1
  C  C24  1  0.23813700  0.08391100  0.57602700  1
  C  C25  1  0.76186300  0.91608900  0.57602700  1
  C  C26  1  0.08391100  0.23813700  0.92397300  1
  C  C27  1  0.58391100  0.26186300  0.57602700  1
  C  C28  1  0.41608900  0.73813700  0.57602700  1
  C  C29  1  0.26186300  0.58391100  0.92397300  1
  C  C30  1  0.73813700  0.41608900  0.92397300  1
  C  C31  1  0.91608900  0.76186300  0.92397300  1
  C  C32  1  0.26186300  0.41608900  0.42397300  1
  C  C33  1  0.73813700  0.58391100  0.42397300  1
  C  C34  1  0.41608900  0.26186300  0.07602700  1
  C  C35  1  0.91608900  0.23813700  0.42397300  1
  C  C36  1  0.08391100  0.76186300  0.42397300  1
  C  C37  1  0.23813700  0.91608900  0.07602700  1
  C  C38  1  0.76186300  0.08391100  0.07602700  1
  C  C39  1  0.24893200  0.05496100  0.37548700  1
  C  C40  1  0.58391100  0.73813700  0.07602700  1
  C  C41  1  0.74893200  0.55496100  0.62451300  1
  C  C42  1  0.44503900  0.25106800  0.87548700  1
  C  C43  1  0.94503900  0.24893200  0.62451300  1
  C  C44  1  0.05496100  0.75106800  0.62451300  1
  C  C45  1  0.24893200  0.94503900  0.87548700  1
  C  C46  1  0.75106800  0.05496100  0.87548700  1
  C  C47  1  0.55496100  0.74893200  0.87548700  1
  C  C48  1  0.69855700  0.69855700  0.25000000  1
  C  C49  1  0.80144300  0.19855700  0.25000000  1
  C  C50  1  0.19855700  0.80144300  0.25000000  1
  C  C51  1  0.30144300  0.30144300  0.25000000  1
  C  C52  1  0.80144300  0.80144300  0.75000000  1
  C  C53  1  0.69855700  0.30144300  0.75000000  1
  C  C54  1  0.30144300  0.69855700  0.75000000  1
  C  C55  1  0.19855700  0.19855700  0.75000000  1
  C  C56  1  0.94503900  0.75106800  0.12451300  1
  C  C57  1  0.74893200  0.44503900  0.12451300  1
  C  C58  1  0.25106800  0.55496100  0.12451300  1
  C  C59  1  0.44503900  0.74893200  0.37548700  1
  C  C60  1  0.55496100  0.25106800  0.37548700  1
  C  C61  1  0.05496100  0.24893200  0.12451300  1
  C  C62  1  0.75106800  0.94503900  0.37548700  1
  C  C63  1  0.25106800  0.44503900  0.62451300  1
