# generated using pymatgen
data_Cu(NiC3)3
_symmetry_space_group_name_H-M   'P 1'
_cell_length_a   7.41637100
_cell_length_b   7.16685400
_cell_length_c   10.36864976
_cell_angle_alpha   87.68316284
_cell_angle_beta   90.00000000
_cell_angle_gamma   90.00000000
_symmetry_Int_Tables_number   1
_chemical_formula_structural   Cu(NiC3)3
_chemical_formula_sum   'Cu4 Ni12 C36'
_cell_volume   550.66446746
_cell_formula_units_Z   4
loop_
 _symmetry_equiv_pos_site_id
 _symmetry_equiv_pos_as_xyz
  1  'x, y, z'
loop_
 _atom_site_type_symbol
 _atom_site_label
 _atom_site_symmetry_multiplicity
 _atom_site_fract_x
 _atom_site_fract_y
 _atom_site_fract_z
 _atom_site_occupancy
  C  C0  1  0.00000000  0.00000000  0.00000000  1
  C  C1  1  0.50000000  0.00000000  0.50000000  1
  C  C2  1  0.00000000  0.50000000  0.00000000  1
  C  C3  1  0.25174000  0.74856100  0.25278600  1
  C  C4  1  0.74826000  0.25143900  0.74721400  1
  C  C5  1  0.74826000  0.74856100  0.25278600  1
  C  C6  1  0.25174000  0.25143900  0.74721400  1
  Ni  Ni7  1  0.00000000  0.02172500  0.69881600  1
  Ni  Ni8  1  0.50000000  0.51761100  0.20428200  1
  Ni  Ni9  1  0.78124600  0.81027400  0.49186800  1
  Ni  Ni10  1  0.29006400  0.31224900  0.98800100  1
  Ni  Ni11  1  0.21875400  0.81027400  0.49186800  1
  Ni  Ni12  1  0.70993600  0.31224900  0.98800100  1
  Ni  Ni13  1  0.00000000  0.97827500  0.30118400  1
  Ni  Ni14  1  0.50000000  0.48238900  0.79571800  1
  Ni  Ni15  1  0.21875400  0.18972600  0.50813200  1
  Ni  Ni16  1  0.70993600  0.68775100  0.01199900  1
  Ni  Ni17  1  0.78124600  0.18972600  0.50813200  1
  Ni  Ni18  1  0.29006400  0.68775100  0.01199900  1
  Cu  Cu19  1  0.00000000  0.61419400  0.69375100  1
  Cu  Cu20  1  0.50000000  0.11555700  0.19221800  1
  Cu  Cu21  1  0.00000000  0.38580600  0.30624900  1
  Cu  Cu22  1  0.50000000  0.88444300  0.80778200  1
  C  C23  1  0.00000000  0.66797300  0.83219800  1
  C  C24  1  0.50000000  0.17147900  0.32840100  1
  C  C25  1  0.83558500  0.50105500  0.66819500  1
  C  C26  1  0.33524700  0.00032100  0.16646200  1
  C  C27  1  0.16441500  0.50105500  0.66819500  1
  C  C28  1  0.66475300  0.00032100  0.16646200  1
  C  C29  1  0.00000000  0.33202700  0.16780200  1
  C  C30  1  0.50000000  0.82852100  0.67159900  1
  C  C31  1  0.16441500  0.49894500  0.33180500  1
  C  C32  1  0.66475300  0.99967900  0.83353800  1
  C  C33  1  0.83558500  0.49894500  0.33180500  1
  C  C34  1  0.33524700  0.99967900  0.83353800  1
  C  C35  1  0.00000000  0.78413700  0.60889600  1
  C  C36  1  0.50000000  0.28305600  0.10475500  1
  C  C37  1  0.00000000  0.21586300  0.39110400  1
  C  C38  1  0.50000000  0.71694400  0.89524500  1
  C  C39  1  0.00000000  0.14536500  0.73682300  1
  C  C40  1  0.50000000  0.64561700  0.23517600  1
  C  C41  1  0.68687700  0.84097800  0.42781400  1
  C  C42  1  0.18935200  0.33439600  0.92721300  1
  C  C43  1  0.31312300  0.84097800  0.42781400  1
  C  C44  1  0.81064800  0.33439600  0.92721300  1
  C  C45  1  0.00000000  0.85463500  0.26317700  1
  C  C46  1  0.50000000  0.35438300  0.76482400  1
  C  C47  1  0.31312300  0.15902200  0.57218600  1
  C  C48  1  0.81064800  0.66560400  0.07278700  1
  C  C49  1  0.68687700  0.15902200  0.57218600  1
  C  C50  1  0.18935200  0.66560400  0.07278700  1
  C  C51  1  0.50000000  0.50000000  0.50000000  1
