# generated using pymatgen
data_Cu8Ni2C17
_symmetry_space_group_name_H-M   'P 1'
_cell_length_a   8.95912717
_cell_length_b   8.95912717
_cell_length_c   10.18149900
_cell_angle_alpha   90.00000000
_cell_angle_beta   90.00000000
_cell_angle_gamma   121.06989974
_symmetry_Int_Tables_number   1
_chemical_formula_structural   Cu8Ni2C17
_chemical_formula_sum   'Cu16 Ni4 C34'
_cell_volume   699.98692222
_cell_formula_units_Z   2
loop_
 _symmetry_equiv_pos_site_id
 _symmetry_equiv_pos_as_xyz
  1  'x, y, z'
loop_
 _atom_site_type_symbol
 _atom_site_label
 _atom_site_symmetry_multiplicity
 _atom_site_fract_x
 _atom_site_fract_y
 _atom_site_fract_z
 _atom_site_occupancy
  C  C0  1  0.00000000  0.00000000  0.00000000  1
  C  C1  1  0.50000000  0.50000000  0.50000000  1
  C  C2  1  0.12883300  0.87116700  0.81227400  1
  C  C3  1  0.87116700  0.12883300  0.18772600  1
  C  C4  1  0.37116700  0.62883300  0.31227400  1
  C  C5  1  0.62883300  0.37116700  0.68772600  1
  C  C6  1  0.17695900  0.82304100  0.94940800  1
  C  C7  1  0.82304100  0.17695900  0.05059200  1
  C  C8  1  0.32304100  0.67695900  0.44940800  1
  C  C9  1  0.67695900  0.32304100  0.55059200  1
  C  C10  1  0.99986400  0.82040400  0.21260400  1
  C  C11  1  0.82040400  0.99986400  0.78739600  1
  C  C12  1  0.32040400  0.49986400  0.71260400  1
  C  C13  1  0.49986400  0.32040400  0.28739600  1
  C  C14  1  0.00013600  0.17959600  0.78739600  1
  C  C15  1  0.17959600  0.00013600  0.21260400  1
  C  C16  1  0.67959600  0.50013600  0.28739600  1
  C  C17  1  0.50013600  0.67959600  0.71260400  1
  C  C18  1  0.42268900  0.03867200  0.32474000  1
  C  C19  1  0.03867200  0.42268900  0.67526000  1
  C  C20  1  0.53867200  0.92268900  0.82474000  1
  C  C21  1  0.92268900  0.53867200  0.17526000  1
  C  C22  1  0.57731100  0.96132800  0.67526000  1
  C  C23  1  0.96132800  0.57731100  0.32474000  1
  C  C24  1  0.46132800  0.07731100  0.17526000  1
  C  C25  1  0.07731100  0.46132800  0.82474000  1
  C  C26  1  0.74201800  0.64718300  0.97264200  1
  C  C27  1  0.64718300  0.74201800  0.02735800  1
  C  C28  1  0.14718300  0.24201800  0.47264200  1
  C  C29  1  0.24201800  0.14718300  0.52735800  1
  C  C30  1  0.25798200  0.35281700  0.02735800  1
  C  C31  1  0.35281700  0.25798200  0.97264200  1
  C  C32  1  0.85281700  0.75798200  0.52735800  1
  C  C33  1  0.75798200  0.85281700  0.47264200  1
  Ni  Ni34  1  0.17423000  0.82577000  0.56321200  1
  Ni  Ni35  1  0.82577000  0.17423000  0.43678800  1
  Ni  Ni36  1  0.32577000  0.67423000  0.06321200  1
  Ni  Ni37  1  0.67423000  0.32577000  0.93678800  1
  Cu  Cu38  1  0.11994800  0.88005200  0.90809500  1
  Cu  Cu39  1  0.88005200  0.11994800  0.09190500  1
  Cu  Cu40  1  0.38005200  0.61994800  0.40809500  1
  Cu  Cu41  1  0.61994800  0.38005200  0.59190500  1
  Cu  Cu42  1  0.40406200  0.09593800  0.25000000  1
  Cu  Cu43  1  0.09593800  0.40406200  0.75000000  1
  Cu  Cu44  1  0.59593800  0.90406200  0.75000000  1
  Cu  Cu45  1  0.90406200  0.59593800  0.25000000  1
  Cu  Cu46  1  0.76123100  0.76123100  0.00000000  1
  Cu  Cu47  1  0.26123100  0.26123100  0.50000000  1
  Cu  Cu48  1  0.23876900  0.23876900  0.00000000  1
  Cu  Cu49  1  0.73876900  0.73876900  0.50000000  1
  Cu  Cu50  1  0.05688000  0.94312000  0.18316100  1
  Cu  Cu51  1  0.94312000  0.05688000  0.81683900  1
  Cu  Cu52  1  0.44312000  0.55688000  0.68316100  1
  Cu  Cu53  1  0.55688000  0.44312000  0.31683900  1
