# generated using pymatgen
data_CuNi6C
_symmetry_space_group_name_H-M   'P 1'
_cell_length_a   3.98800600
_cell_length_b   8.51374900
_cell_length_c   9.70724100
_cell_angle_alpha   90.00000000
_cell_angle_beta   90.00000000
_cell_angle_gamma   90.00000000
_symmetry_Int_Tables_number   1
_chemical_formula_structural   CuNi6C
_chemical_formula_sum   'Cu2 Ni12 C2'
_cell_volume   329.58880914
_cell_formula_units_Z   2
loop_
 _symmetry_equiv_pos_site_id
 _symmetry_equiv_pos_as_xyz
  1  'x, y, z'
loop_
 _atom_site_type_symbol
 _atom_site_label
 _atom_site_symmetry_multiplicity
 _atom_site_fract_x
 _atom_site_fract_y
 _atom_site_fract_z
 _atom_site_occupancy
  Ni  Ni0  1  0.50000000  0.75383100  0.85798800  1
  Ni  Ni1  1  0.50000000  0.24616900  0.85798800  1
  Ni  Ni2  1  0.00000000  0.67549800  0.11796200  1
  Ni  Ni3  1  0.00000000  0.32450200  0.11796200  1
  Ni  Ni4  1  0.00000000  0.50000000  0.83599200  1
  Ni  Ni5  1  0.00000000  0.50000000  0.37821300  1
  Ni  Ni6  1  0.50000000  0.25383100  0.35798800  1
  Ni  Ni7  1  0.50000000  0.74616900  0.35798800  1
  Ni  Ni8  1  0.00000000  0.17549800  0.61796200  1
  Ni  Ni9  1  0.00000000  0.82450200  0.61796200  1
  Ni  Ni10  1  0.00000000  0.00000000  0.33599200  1
  Ni  Ni11  1  0.00000000  0.00000000  0.87821300  1
  Cu  Cu12  1  0.50000000  0.50000000  0.60986000  1
  Cu  Cu13  1  0.50000000  0.00000000  0.10986000  1
  C  C14  1  0.50000000  0.50000000  0.22403100  1
  C  C15  1  0.50000000  0.00000000  0.72403100  1
