# generated using pymatgen
data_Cu5Ni3C4
_symmetry_space_group_name_H-M   'P 1'
_cell_length_a   5.87316081
_cell_length_b   5.87316081
_cell_length_c   10.76666784
_cell_angle_alpha   85.44401583
_cell_angle_beta   85.44401583
_cell_angle_gamma   45.79473601
_symmetry_Int_Tables_number   1
_chemical_formula_structural   Cu5Ni3C4
_chemical_formula_sum   'Cu5 Ni3 C4'
_cell_volume   265.23494085
_cell_formula_units_Z   1
loop_
 _symmetry_equiv_pos_site_id
 _symmetry_equiv_pos_as_xyz
  1  'x, y, z'
loop_
 _atom_site_type_symbol
 _atom_site_label
 _atom_site_symmetry_multiplicity
 _atom_site_fract_x
 _atom_site_fract_y
 _atom_site_fract_z
 _atom_site_occupancy
  C  C0  1  0.68621500  0.68621500  0.68901700  1
  C  C1  1  0.18798200  0.18798200  0.18231500  1
  C  C2  1  0.39084300  0.39084300  0.89792800  1
  C  C3  1  0.89160500  0.89160500  0.39499000  1
  Ni  Ni4  1  0.17434600  0.17434600  0.48776100  1
  Ni  Ni5  1  0.98605100  0.98605100  0.66823000  1
  Ni  Ni6  1  0.48556400  0.48556400  0.18344900  1
  Cu  Cu7  1  0.68161100  0.68161100  0.99146400  1
  Cu  Cu8  1  0.38693100  0.38693100  0.60267700  1
  Cu  Cu9  1  0.90438300  0.90438300  0.10876300  1
  Cu  Cu10  1  0.09448400  0.09448400  0.87772600  1
  Cu  Cu11  1  0.60238400  0.60238400  0.38808100  1
