# generated using pymatgen
data_Cu8NiC16
_symmetry_space_group_name_H-M   'P 1'
_cell_length_a   7.11363339
_cell_length_b   5.72867025
_cell_length_c   6.63644909
_cell_angle_alpha   88.78763161
_cell_angle_beta   93.15190251
_cell_angle_gamma   84.95133581
_symmetry_Int_Tables_number   1
_chemical_formula_structural   Cu8NiC16
_chemical_formula_sum   'Cu8 Ni1 C16'
_cell_volume   268.89764581
_cell_formula_units_Z   1
loop_
 _symmetry_equiv_pos_site_id
 _symmetry_equiv_pos_as_xyz
  1  'x, y, z'
loop_
 _atom_site_type_symbol
 _atom_site_label
 _atom_site_symmetry_multiplicity
 _atom_site_fract_x
 _atom_site_fract_y
 _atom_site_fract_z
 _atom_site_occupancy
  Ni  Ni0  1  0.11117800  0.40143000  0.87764900  1
  Cu  Cu1  1  0.40792800  0.36160500  0.13930700  1
  Cu  Cu2  1  0.13461000  0.70987600  0.38619700  1
  Cu  Cu3  1  0.85996900  0.14177700  0.12417700  1
  Cu  Cu4  1  0.38150700  0.12193700  0.63628500  1
  Cu  Cu5  1  0.13922800  0.87647000  0.87533300  1
  Cu  Cu6  1  0.62506500  0.84540800  0.36734400  1
  Cu  Cu7  1  0.61917100  0.64109800  0.86543400  1
  Cu  Cu8  1  0.83501100  0.31676900  0.60164200  1
  C  C9  1  0.12733000  0.11559700  0.07318300  1
  C  C10  1  0.18658000  0.62289100  0.09700100  1
  C  C11  1  0.59075400  0.61919600  0.15334700  1
  C  C12  1  0.09806200  0.65895900  0.66566100  1
  C  C13  1  0.35828000  0.89617300  0.42315300  1
  C  C14  1  0.09998200  0.13385500  0.67815300  1
  C  C15  1  0.59758400  0.10804300  0.16976800  1
  C  C16  1  0.39983300  0.88706200  0.83791100  1
  C  C17  1  0.63660800  0.07643500  0.58223200  1
  C  C18  1  0.88945100  0.89170500  0.33164400  1
  C  C19  1  0.40386500  0.36010500  0.84705200  1
  C  C20  1  0.66080500  0.59390600  0.57885600  1
  C  C21  1  0.82439800  0.37731600  0.89128600  1
  C  C22  1  0.33298500  0.37881000  0.42545500  1
  C  C23  1  0.93358600  0.39184800  0.34522400  1
  C  C24  1  0.86623400  0.86458500  0.90670500  1
