# generated using pymatgen
data_Cu9(NiC4)2
_symmetry_space_group_name_H-M   'P 1'
_cell_length_a   7.92372492
_cell_length_b   3.84273544
_cell_length_c   6.14698736
_cell_angle_alpha   90.00000045
_cell_angle_beta   77.87777917
_cell_angle_gamma   75.96686898
_symmetry_Int_Tables_number   1
_chemical_formula_structural   Cu9(NiC4)2
_chemical_formula_sum   'Cu9 Ni2 C8'
_cell_volume   177.27738804
_cell_formula_units_Z   1
loop_
 _symmetry_equiv_pos_site_id
 _symmetry_equiv_pos_as_xyz
  1  'x, y, z'
loop_
 _atom_site_type_symbol
 _atom_site_label
 _atom_site_symmetry_multiplicity
 _atom_site_fract_x
 _atom_site_fract_y
 _atom_site_fract_z
 _atom_site_occupancy
  Ni  Ni0  1  0.41308077  0.79345962  0.81944149  1
  Ni  Ni1  1  0.58691923  0.20654038  0.18055851  1
  Cu  Cu2  1  0.00000000  0.50000000  0.50000000  1
  Cu  Cu3  1  0.00539273  0.99730313  0.76939570  1
  Cu  Cu4  1  0.99460727  0.00269687  0.23060430  1
  Cu  Cu5  1  0.69385725  0.65307188  0.40723603  1
  Cu  Cu6  1  0.30614275  0.34692812  0.59276397  1
  Cu  Cu7  1  0.80498783  0.59750559  0.95515758  1
  Cu  Cu8  1  0.19501217  0.40249441  0.04484242  1
  Cu  Cu9  1  0.64585459  0.17707320  0.67867552  1
  Cu  Cu10  1  0.35414541  0.82292680  0.32132448  1
  C  C11  1  0.23963888  0.88018056  0.07462093  1
  C  C12  1  0.76036112  0.11981944  0.92537907  1
  C  C13  1  0.26203505  0.86898298  0.62997681  1
  C  C14  1  0.73796495  0.13101702  0.37002319  1
  C  C15  1  0.65989467  0.67005267  0.72382592  1
  C  C16  1  0.34010533  0.32994733  0.27617408  1
  C  C17  1  0.05849746  0.47075127  0.78791302  1
  C  C18  1  0.94150254  0.52924873  0.21208698  1
