# generated using pymatgen
data_Cu4Ni12C11
_symmetry_space_group_name_H-M   'P 1'
_cell_length_a   13.62444701
_cell_length_b   13.62444701
_cell_length_c   13.62444701
_cell_angle_alpha   90.00000000
_cell_angle_beta   90.00000000
_cell_angle_gamma   90.00000000
_symmetry_Int_Tables_number   1
_chemical_formula_structural   Cu4Ni12C11
_chemical_formula_sum   'Cu32 Ni96 C88'
_cell_volume   2529.04555590
_cell_formula_units_Z   8
loop_
 _symmetry_equiv_pos_site_id
 _symmetry_equiv_pos_as_xyz
  1  'x, y, z'
loop_
 _atom_site_type_symbol
 _atom_site_label
 _atom_site_symmetry_multiplicity
 _atom_site_fract_x
 _atom_site_fract_y
 _atom_site_fract_z
 _atom_site_occupancy
  C  C0  1  0.50000000  0.50000000  0.50000000  1
  C  C1  1  0.50000000  -0.00000000  -0.00000000  1
  C  C2  1  0.00000000  0.50000000  -0.00000000  1
  C  C3  1  0.00000000  -0.00000000  0.50000000  1
  Ni  Ni4  1  0.28677870  0.20616849  0.60149706  1
  Ni  Ni5  1  0.71322130  0.70616849  0.89850294  1
  Ni  Ni6  1  0.21322130  0.79383151  0.10149706  1
  Ni  Ni7  1  0.78677870  0.29383151  0.39850294  1
  Ni  Ni8  1  0.60149706  0.28677870  0.20616849  1
  Ni  Ni9  1  0.89850294  0.71322130  0.70616849  1
  Ni  Ni10  1  0.10149706  0.21322130  0.79383151  1
  Ni  Ni11  1  0.39850294  0.78677870  0.29383151  1
  Ni  Ni12  1  0.20616849  0.60149706  0.28677870  1
  Ni  Ni13  1  0.70616849  0.89850294  0.71322130  1
  Ni  Ni14  1  0.79383151  0.10149706  0.21322130  1
  Ni  Ni15  1  0.29383151  0.39850294  0.78677870  1
  Ni  Ni16  1  0.71322130  0.79383151  0.39850294  1
  Ni  Ni17  1  0.28677870  0.29383151  0.10149706  1
  Ni  Ni18  1  0.78677870  0.20616849  0.89850294  1
  Ni  Ni19  1  0.21322130  0.70616849  0.60149706  1
  Ni  Ni20  1  0.39850294  0.71322130  0.79383151  1
  Ni  Ni21  1  0.10149706  0.28677870  0.29383151  1
  Ni  Ni22  1  0.89850294  0.78677870  0.20616849  1
  Ni  Ni23  1  0.60149706  0.21322130  0.70616849  1
  Ni  Ni24  1  0.79383151  0.39850294  0.71322130  1
  Ni  Ni25  1  0.29383151  0.10149706  0.28677870  1
  Ni  Ni26  1  0.20616849  0.89850294  0.78677870  1
  Ni  Ni27  1  0.70616849  0.60149706  0.21322130  1
  Ni  Ni28  1  0.17312836  0.15421995  0.64420311  1
  Ni  Ni29  1  0.82687164  0.65421995  0.85579689  1
  Ni  Ni30  1  0.32687164  0.84578005  0.14420311  1
  Ni  Ni31  1  0.67312836  0.34578005  0.35579689  1
  Ni  Ni32  1  0.64420311  0.17312836  0.15421995  1
  Ni  Ni33  1  0.85579689  0.82687164  0.65421995  1
  Ni  Ni34  1  0.14420311  0.32687164  0.84578005  1
  Ni  Ni35  1  0.35579689  0.67312836  0.34578005  1
  Ni  Ni36  1  0.15421995  0.64420311  0.17312836  1
  Ni  Ni37  1  0.65421995  0.85579689  0.82687164  1
  Ni  Ni38  1  0.84578005  0.14420311  0.32687164  1
  Ni  Ni39  1  0.34578005  0.35579689  0.67312836  1
  Ni  Ni40  1  0.82687164  0.84578005  0.35579689  1
  Ni  Ni41  1  0.17312836  0.34578005  0.14420311  1
  Ni  Ni42  1  0.67312836  0.15421995  0.85579689  1
  Ni  Ni43  1  0.32687164  0.65421995  0.64420311  1
  Ni  Ni44  1  0.35579689  0.82687164  0.84578005  1
  Ni  Ni45  1  0.14420311  0.17312836  0.34578005  1
  Ni  Ni46  1  0.85579689  0.67312836  0.15421995  1
  Ni  Ni47  1  0.64420311  0.32687164  0.65421995  1
  Ni  Ni48  1  0.84578005  0.35579689  0.82687164  1
  Ni  Ni49  1  0.34578005  0.14420311  0.17312836  1
  Ni  Ni50  1  0.15421995  0.85579689  0.67312836  1
  Ni  Ni51  1  0.65421995  0.64420311  0.32687164  1
  Ni  Ni52  1  0.17316051  0.27241235  0.58473126  1
  Ni  Ni53  1  0.82683949  0.77241235  0.91526874  1
  Ni  Ni54  1  0.32683949  0.72758765  0.08473126  1
  Ni  Ni55  1  0.67316051  0.22758765  0.41526874  1
  Ni  Ni56  1  0.58473126  0.17316051  0.27241235  1
  Ni  Ni57  1  0.91526874  0.82683949  0.77241235  1
  Ni  Ni58  1  0.08473126  0.32683949  0.72758765  1
  Ni  Ni59  1  0.41526874  0.67316051  0.22758765  1
  Ni  Ni60  1  0.27241235  0.58473126  0.17316051  1
  Ni  Ni61  1  0.77241235  0.91526874  0.82683949  1
  Ni  Ni62  1  0.72758765  0.08473126  0.32683949  1
  Ni  Ni63  1  0.22758765  0.41526874  0.67316051  1
  Ni  Ni64  1  0.82683949  0.72758765  0.41526874  1
  Ni  Ni65  1  0.17316051  0.22758765  0.08473126  1
  Ni  Ni66  1  0.67316051  0.27241235  0.91526874  1
  Ni  Ni67  1  0.32683949  0.77241235  0.58473126  1
  Ni  Ni68  1  0.41526874  0.82683949  0.72758765  1
  Ni  Ni69  1  0.08473126  0.17316051  0.22758765  1
  Ni  Ni70  1  0.91526874  0.67316051  0.27241235  1
  Ni  Ni71  1  0.58473126  0.32683949  0.77241235  1
  Ni  Ni72  1  0.72758765  0.41526874  0.82683949  1
  Ni  Ni73  1  0.22758765  0.08473126  0.17316051  1
  Ni  Ni74  1  0.27241235  0.91526874  0.67316051  1
  Ni  Ni75  1  0.77241235  0.58473126  0.32683949  1
  Ni  Ni76  1  0.29790462  0.24287293  0.86398436  1
  Ni  Ni77  1  0.70209538  0.74287293  0.63601564  1
  Ni  Ni78  1  0.20209538  0.75712707  0.36398436  1
  Ni  Ni79  1  0.79790462  0.25712707  0.13601564  1
  Ni  Ni80  1  0.86398436  0.29790462  0.24287293  1
  Ni  Ni81  1  0.63601564  0.70209538  0.74287293  1
  Ni  Ni82  1  0.36398436  0.20209538  0.75712707  1
  Ni  Ni83  1  0.13601564  0.79790462  0.25712707  1
  Ni  Ni84  1  0.24287293  0.86398436  0.29790462  1
  Ni  Ni85  1  0.74287293  0.63601564  0.70209538  1
  Ni  Ni86  1  0.75712707  0.36398436  0.20209538  1
  Ni  Ni87  1  0.25712707  0.13601564  0.79790462  1
  Ni  Ni88  1  0.70209538  0.75712707  0.13601564  1
  Ni  Ni89  1  0.29790462  0.25712707  0.36398436  1
  Ni  Ni90  1  0.79790462  0.24287293  0.63601564  1
  Ni  Ni91  1  0.20209538  0.74287293  0.86398436  1
  Ni  Ni92  1  0.13601564  0.70209538  0.75712707  1
  Ni  Ni93  1  0.36398436  0.29790462  0.25712707  1
  Ni  Ni94  1  0.63601564  0.79790462  0.24287293  1
  Ni  Ni95  1  0.86398436  0.20209538  0.74287293  1
  Ni  Ni96  1  0.75712707  0.13601564  0.70209538  1
  Ni  Ni97  1  0.25712707  0.36398436  0.29790462  1
  Ni  Ni98  1  0.24287293  0.63601564  0.79790462  1
  Ni  Ni99  1  0.74287293  0.86398436  0.20209538  1
  C  C100  1  0.50000000  -0.00000000  0.50000000  1
  C  C101  1  0.50000000  0.50000000  -0.00000000  1
  C  C102  1  0.00000000  -0.00000000  -0.00000000  1
  C  C103  1  0.00000000  0.50000000  0.50000000  1
  Cu  Cu104  1  0.29201712  0.20798288  0.79201712  1
  Cu  Cu105  1  0.70798288  0.70798288  0.70798288  1
  Cu  Cu106  1  0.20798288  0.79201712  0.29201712  1
  Cu  Cu107  1  0.79201712  0.29201712  0.20798288  1
  Cu  Cu108  1  0.70798288  0.79201712  0.20798288  1
  Cu  Cu109  1  0.29201712  0.29201712  0.29201712  1
  Cu  Cu110  1  0.79201712  0.20798288  0.70798288  1
  Cu  Cu111  1  0.20798288  0.70798288  0.79201712  1
  Cu  Cu112  1  0.21429032  0.22209668  0.63198515  1
  Cu  Cu113  1  0.78570968  0.72209668  0.86801485  1
  Cu  Cu114  1  0.28570968  0.77790332  0.13198515  1
  Cu  Cu115  1  0.71429032  0.27790332  0.36801485  1
  Cu  Cu116  1  0.63198515  0.21429032  0.22209668  1
  Cu  Cu117  1  0.86801485  0.78570968  0.72209668  1
  Cu  Cu118  1  0.13198515  0.28570968  0.77790332  1
  Cu  Cu119  1  0.36801485  0.71429032  0.27790332  1
  Cu  Cu120  1  0.22209668  0.63198515  0.21429032  1
  Cu  Cu121  1  0.72209668  0.86801485  0.78570968  1
  Cu  Cu122  1  0.77790332  0.13198515  0.28570968  1
  Cu  Cu123  1  0.27790332  0.36801485  0.71429032  1
  Cu  Cu124  1  0.78570968  0.77790332  0.36801485  1
  Cu  Cu125  1  0.21429032  0.27790332  0.13198515  1
  Cu  Cu126  1  0.71429032  0.22209668  0.86801485  1
  Cu  Cu127  1  0.28570968  0.72209668  0.63198515  1
  Cu  Cu128  1  0.36801485  0.78570968  0.77790332  1
  Cu  Cu129  1  0.13198515  0.21429032  0.27790332  1
  Cu  Cu130  1  0.86801485  0.71429032  0.22209668  1
  Cu  Cu131  1  0.63198515  0.28570968  0.72209668  1
  Cu  Cu132  1  0.77790332  0.36801485  0.78570968  1
  Cu  Cu133  1  0.27790332  0.13198515  0.21429032  1
  Cu  Cu134  1  0.22209668  0.86801485  0.71429032  1
  Cu  Cu135  1  0.72209668  0.63198515  0.28570968  1
  C  C136  1  0.46855436  0.21777532  0.48341080  1
  C  C137  1  0.53144564  0.71777532  0.01658920  1
  C  C138  1  0.03144564  0.78222468  0.98341080  1
  C  C139  1  0.96855436  0.28222468  0.51658920  1
  C  C140  1  0.48341080  0.46855436  0.21777532  1
  C  C141  1  0.01658920  0.53144564  0.71777532  1
  C  C142  1  0.98341080  0.03144564  0.78222468  1
  C  C143  1  0.51658920  0.96855436  0.28222468  1
  C  C144  1  0.21777532  0.48341080  0.46855436  1
  C  C145  1  0.71777532  0.01658920  0.53144564  1
  C  C146  1  0.78222468  0.98341080  0.03144564  1
  C  C147  1  0.28222468  0.51658920  0.96855436  1
  C  C148  1  0.53144564  0.78222468  0.51658920  1
  C  C149  1  0.46855436  0.28222468  0.98341080  1
  C  C150  1  0.96855436  0.21777532  0.01658920  1
  C  C151  1  0.03144564  0.71777532  0.48341080  1
  C  C152  1  0.51658920  0.53144564  0.78222468  1
  C  C153  1  0.98341080  0.46855436  0.28222468  1
  C  C154  1  0.01658920  0.96855436  0.21777532  1
  C  C155  1  0.48341080  0.03144564  0.71777532  1
  C  C156  1  0.78222468  0.51658920  0.53144564  1
  C  C157  1  0.28222468  0.98341080  0.46855436  1
  C  C158  1  0.21777532  0.01658920  0.96855436  1
  C  C159  1  0.71777532  0.48341080  0.03144564  1
  C  C160  1  0.46041298  0.13776229  0.44754444  1
  C  C161  1  0.53958702  0.63776229  0.05245556  1
  C  C162  1  0.03958702  0.86223771  0.94754444  1
  C  C163  1  0.96041298  0.36223771  0.55245556  1
  C  C164  1  0.44754444  0.46041298  0.13776229  1
  C  C165  1  0.05245556  0.53958702  0.63776229  1
  C  C166  1  0.94754444  0.03958702  0.86223771  1
  C  C167  1  0.55245556  0.96041298  0.36223771  1
  C  C168  1  0.13776229  0.44754444  0.46041298  1
  C  C169  1  0.63776229  0.05245556  0.53958702  1
  C  C170  1  0.86223771  0.94754444  0.03958702  1
  C  C171  1  0.36223771  0.55245556  0.96041298  1
  C  C172  1  0.53958702  0.86223771  0.55245556  1
  C  C173  1  0.46041298  0.36223771  0.94754444  1
  C  C174  1  0.96041298  0.13776229  0.05245556  1
  C  C175  1  0.03958702  0.63776229  0.44754444  1
  C  C176  1  0.55245556  0.53958702  0.86223771  1
  C  C177  1  0.94754444  0.46041298  0.36223771  1
  C  C178  1  0.05245556  0.96041298  0.13776229  1
  C  C179  1  0.44754444  0.03958702  0.63776229  1
  C  C180  1  0.86223771  0.55245556  0.53958702  1
  C  C181  1  0.36223771  0.94754444  0.46041298  1
  C  C182  1  0.13776229  0.05245556  0.96041298  1
  C  C183  1  0.63776229  0.44754444  0.03958702  1
  C  C184  1  0.47249717  0.29934309  0.51183401  1
  C  C185  1  0.52750283  0.79934309  0.98816599  1
  C  C186  1  0.02750283  0.70065691  0.01183401  1
  C  C187  1  0.97249717  0.20065691  0.48816599  1
  C  C188  1  0.51183401  0.47249717  0.29934309  1
  C  C189  1  0.98816599  0.52750283  0.79934309  1
  C  C190  1  0.01183401  0.02750283  0.70065691  1
  C  C191  1  0.48816599  0.97249717  0.20065691  1
  C  C192  1  0.29934309  0.51183401  0.47249717  1
  C  C193  1  0.79934309  0.98816599  0.52750283  1
  C  C194  1  0.70065691  0.01183401  0.02750283  1
  C  C195  1  0.20065691  0.48816599  0.97249717  1
  C  C196  1  0.52750283  0.70065691  0.48816599  1
  C  C197  1  0.47249717  0.20065691  0.01183401  1
  C  C198  1  0.97249717  0.29934309  0.98816599  1
  C  C199  1  0.02750283  0.79934309  0.51183401  1
  C  C200  1  0.48816599  0.52750283  0.70065691  1
  C  C201  1  0.01183401  0.47249717  0.20065691  1
  C  C202  1  0.98816599  0.97249717  0.29934309  1
  C  C203  1  0.51183401  0.02750283  0.79934309  1
  C  C204  1  0.70065691  0.48816599  0.52750283  1
  C  C205  1  0.20065691  0.01183401  0.47249717  1
  C  C206  1  0.29934309  0.98816599  0.97249717  1
  C  C207  1  0.79934309  0.51183401  0.02750283  1
  C  C208  1  0.22886935  0.27113065  0.72886935  1
  C  C209  1  0.77113065  0.77113065  0.77113065  1
  C  C210  1  0.27113065  0.72886935  0.22886935  1
  C  C211  1  0.72886935  0.22886935  0.27113065  1
  C  C212  1  0.77113065  0.72886935  0.27113065  1
  C  C213  1  0.22886935  0.22886935  0.22886935  1
  C  C214  1  0.72886935  0.27113065  0.77113065  1
  C  C215  1  0.27113065  0.77113065  0.72886935  1
