# generated using pymatgen
data_Cu2NiC7
_symmetry_space_group_name_H-M   'P 1'
_cell_length_a   9.17544500
_cell_length_b   5.31371000
_cell_length_c   10.24948610
_cell_angle_alpha   75.94710051
_cell_angle_beta   90.00000000
_cell_angle_gamma   90.00000000
_symmetry_Int_Tables_number   1
_chemical_formula_structural   Cu2NiC7
_chemical_formula_sum   'Cu8 Ni4 C28'
_cell_volume   484.76474101
_cell_formula_units_Z   4
loop_
 _symmetry_equiv_pos_site_id
 _symmetry_equiv_pos_as_xyz
  1  'x, y, z'
loop_
 _atom_site_type_symbol
 _atom_site_label
 _atom_site_symmetry_multiplicity
 _atom_site_fract_x
 _atom_site_fract_y
 _atom_site_fract_z
 _atom_site_occupancy
  C  C0  1  0.45382300  0.52940800  0.27552400  1
  C  C1  1  0.95382300  0.97059200  0.72447600  1
  C  C2  1  0.54617700  0.47059200  0.72447600  1
  C  C3  1  0.04617700  0.02940800  0.27552400  1
  Ni  Ni4  1  0.66459700  0.03462700  0.23388600  1
  Ni  Ni5  1  0.16459700  0.46537300  0.76611400  1
  Ni  Ni6  1  0.33540300  0.96537300  0.76611400  1
  Ni  Ni7  1  0.83540300  0.53462700  0.23388600  1
  Cu  Cu8  1  0.34656500  0.16866400  0.04427600  1
  Cu  Cu9  1  0.84656500  0.33133600  0.95572400  1
  Cu  Cu10  1  0.65343500  0.83133600  0.95572400  1
  Cu  Cu11  1  0.15343500  0.66866400  0.04427600  1
  Cu  Cu12  1  0.35113600  0.90835000  0.48804200  1
  Cu  Cu13  1  0.85113600  0.59165000  0.51195800  1
  Cu  Cu14  1  0.64886400  0.09165000  0.51195800  1
  Cu  Cu15  1  0.14886400  0.40835000  0.48804200  1
  C  C16  1  0.24753000  0.68947800  0.39672500  1
  C  C17  1  0.74753000  0.81052200  0.60327500  1
  C  C18  1  0.75247000  0.31052200  0.60327500  1
  C  C19  1  0.25247000  0.18947800  0.39672500  1
  C  C20  1  0.30944900  0.82432100  0.10109400  1
  C  C21  1  0.80944900  0.67567900  0.89890600  1
  C  C22  1  0.69055100  0.17567900  0.89890600  1
  C  C23  1  0.19055100  0.32432100  0.10109400  1
  C  C24  1  0.97568000  0.34864900  0.41834900  1
  C  C25  1  0.47568000  0.15135100  0.58165100  1
  C  C26  1  0.02432000  0.65135100  0.58165100  1
  C  C27  1  0.52432000  0.84864900  0.41834900  1
  C  C28  1  0.01136200  0.73590400  0.13993700  1
  C  C29  1  0.51136200  0.76409600  0.86006300  1
  C  C30  1  0.98863800  0.26409600  0.86006300  1
  C  C31  1  0.48863800  0.23590400  0.13993700  1
  C  C32  1  0.34561000  0.25260800  0.86757300  1
  C  C33  1  0.84561000  0.24739200  0.13242700  1
  C  C34  1  0.65439000  0.74739200  0.13242700  1
  C  C35  1  0.15439000  0.75260800  0.86757300  1
  C  C36  1  0.32692200  0.70612400  0.65248100  1
  C  C37  1  0.82692200  0.79387600  0.34751900  1
  C  C38  1  0.67307800  0.29387600  0.34751900  1
  C  C39  1  0.17307800  0.20612400  0.65248100  1
