# generated using pymatgen
data_Cu8(NiC11)3
_symmetry_space_group_name_H-M   'P 1'
_cell_length_a   6.40787687
_cell_length_b   6.48533999
_cell_length_c   16.40977063
_cell_angle_alpha   79.31169542
_cell_angle_beta   86.79184061
_cell_angle_gamma   102.99198850
_symmetry_Int_Tables_number   1
_chemical_formula_structural   Cu8(NiC11)3
_chemical_formula_sum   'Cu8 Ni3 C33'
_cell_volume   649.55471765
_cell_formula_units_Z   1
loop_
 _symmetry_equiv_pos_site_id
 _symmetry_equiv_pos_as_xyz
  1  'x, y, z'
loop_
 _atom_site_type_symbol
 _atom_site_label
 _atom_site_symmetry_multiplicity
 _atom_site_fract_x
 _atom_site_fract_y
 _atom_site_fract_z
 _atom_site_occupancy
  Ni  Ni0  1  0.73936100  0.43012900  0.88539000  1
  Ni  Ni1  1  0.26107900  0.57070000  0.11326200  1
  Ni  Ni2  1  0.76050700  0.07012800  0.61533000  1
  C  C3  1  0.75051600  0.75101000  0.25011800  1
  C  C4  1  0.25029500  0.25090600  0.75031500  1
  C  C5  1  0.99928300  0.99985100  0.99968000  1
  C  C6  1  0.50023500  0.50076600  0.50015200  1
  C  C7  1  0.23919400  0.92765200  0.38617500  1
  Cu  Cu8  1  0.17880200  0.42553600  0.33001600  1
  Cu  Cu9  1  0.67854400  0.92654200  0.83185900  1
  Cu  Cu10  1  0.32143800  0.07505800  0.16500000  1
  Cu  Cu11  1  0.82054700  0.57329100  0.66853900  1
  Cu  Cu12  1  0.72925600  0.43609300  0.09277100  1
  Cu  Cu13  1  0.22889300  0.93413400  0.59656700  1
  Cu  Cu14  1  0.77157700  0.06726000  0.40764100  1
  Cu  Cu15  1  0.27166900  0.56467300  0.90684600  1
  C  C16  1  0.95471500  0.53915100  0.13632600  1
  C  C17  1  0.45501400  0.04200900  0.63867100  1
  C  C18  1  0.55495300  0.96348500  0.35979400  1
  C  C19  1  0.04577200  0.46070300  0.86368900  1
  C  C20  1  0.29997500  0.51752600  0.23131900  1
  C  C21  1  0.80020800  0.01676100  0.73294900  1
  C  C22  1  0.19148300  0.98416400  0.26259100  1
  C  C23  1  0.69919200  0.48254500  0.76749100  1
  C  C24  1  0.91945100  0.87819600  0.41095200  1
  C  C25  1  0.43038900  0.38512500  0.90715600  1
  C  C26  1  0.57040300  0.61528700  0.09257500  1
  C  C27  1  0.06991500  0.11450900  0.59318900  1
  C  C28  1  0.77074800  0.35161900  0.00296500  1
  C  C29  1  0.27656800  0.84320600  0.50899100  1
  C  C30  1  0.72763400  0.15179700  0.49705700  1
  C  C31  1  0.22894700  0.64897500  0.99641500  1
  C  C32  1  0.60235900  0.19402200  0.17006100  1
  C  C33  1  0.10102600  0.69280200  0.67348800  1
  C  C34  1  0.89789400  0.30455500  0.32828500  1
  C  C35  1  0.39701000  0.80611800  0.82922900  1
  C  C36  1  0.29354000  0.24248200  0.38831900  1
  C  C37  1  0.78657000  0.73352600  0.88797700  1
  C  C38  1  0.21452300  0.26920500  0.10927700  1
  C  C39  1  0.71370000  0.76712600  0.61225500  1
  C  C40  1  0.18846500  0.61517600  0.38841900  1
  C  C41  1  0.69490000  0.12493300  0.88699300  1
  C  C42  1  0.30755600  0.87566500  0.11070000  1
  C  C43  1  0.80589500  0.37560500  0.61320600  1
