# generated using pymatgen
data_Cu3Ni3C20
_symmetry_space_group_name_H-M   'P 1'
_cell_length_a   11.47908400
_cell_length_b   6.34027700
_cell_length_c   8.95015395
_cell_angle_alpha   80.73688967
_cell_angle_beta   90.00000000
_cell_angle_gamma   90.00000000
_symmetry_Int_Tables_number   1
_chemical_formula_structural   Cu3Ni3C20
_chemical_formula_sum   'Cu6 Ni6 C40'
_cell_volume   642.90281828
_cell_formula_units_Z   2
loop_
 _symmetry_equiv_pos_site_id
 _symmetry_equiv_pos_as_xyz
  1  'x, y, z'
loop_
 _atom_site_type_symbol
 _atom_site_label
 _atom_site_symmetry_multiplicity
 _atom_site_fract_x
 _atom_site_fract_y
 _atom_site_fract_z
 _atom_site_occupancy
  Ni  Ni0  1  0.61479900  0.59712100  0.06132800  1
  Ni  Ni1  1  0.11479900  0.40287900  0.93867200  1
  Ni  Ni2  1  0.42761700  0.41656800  0.72680200  1
  Ni  Ni3  1  0.92761700  0.58343200  0.27319800  1
  Ni  Ni4  1  0.57012000  0.07965000  0.27980300  1
  Ni  Ni5  1  0.07012000  0.92035000  0.72019700  1
  Cu  Cu6  1  0.30407300  0.63715700  0.36567400  1
  Cu  Cu7  1  0.80407300  0.36284300  0.63432600  1
  Cu  Cu8  1  0.69618300  0.86181400  0.63290800  1
  Cu  Cu9  1  0.19618300  0.13818600  0.36709200  1
  Cu  Cu10  1  0.38589100  0.88712500  0.92890000  1
  Cu  Cu11  1  0.88589100  0.11287500  0.07110000  1
  C  C12  1  0.36066600  0.37074100  0.09218200  1
  C  C13  1  0.86066600  0.62925900  0.90781800  1
  C  C14  1  0.63976200  0.13042800  0.90825500  1
  C  C15  1  0.13976200  0.86957200  0.09174500  1
  C  C16  1  0.41454900  0.94279600  0.60731700  1
  C  C17  1  0.91454900  0.05720400  0.39268300  1
  C  C18  1  0.58537600  0.55668700  0.39291600  1
  C  C19  1  0.08537600  0.44331300  0.60708400  1
  C  C20  1  0.29439900  0.36636200  0.94166600  1
  C  C21  1  0.79439900  0.63363800  0.05833400  1
  C  C22  1  0.71087200  0.13217700  0.05580200  1
  C  C23  1  0.21087200  0.86782300  0.94419800  1
  C  C24  1  0.32474900  0.92843200  0.48033400  1
  C  C25  1  0.82474900  0.07156800  0.51966600  1
  C  C26  1  0.67460800  0.57016800  0.52110600  1
  C  C27  1  0.17460800  0.42983200  0.47889400  1
  C  C28  1  0.41410600  0.73589100  0.72720200  1
  C  C29  1  0.91410600  0.26410900  0.27279800  1
  C  C30  1  0.58714900  0.76325100  0.27388000  1
  C  C31  1  0.08714900  0.23674900  0.72612000  1
  C  C32  1  0.53870400  0.98376000  0.53679400  1
  C  C33  1  0.03870400  0.01624000  0.46320600  1
  C  C34  1  0.46084700  0.51554900  0.46306700  1
  C  C35  1  0.96084700  0.48445100  0.53693300  1
  C  C36  1  0.43240800  0.58217300  0.07436200  1
  C  C37  1  0.93240800  0.41782700  0.92563800  1
  C  C38  1  0.56404900  0.92319900  0.92971600  1
  C  C39  1  0.06404900  0.07680100  0.07028400  1
  C  C40  1  0.37833400  0.11648300  0.70196400  1
  C  C41  1  0.87833400  0.88351700  0.29803600  1
  C  C42  1  0.62247300  0.38154000  0.29958500  1
  C  C43  1  0.12247300  0.61846000  0.70041500  1
  C  C44  1  0.43373600  0.16617700  0.13008800  1
  C  C45  1  0.93373600  0.83382300  0.86991200  1
  C  C46  1  0.56888700  0.33951500  0.87616300  1
  C  C47  1  0.06888700  0.66048500  0.12383700  1
  C  C48  1  0.27377400  0.38392100  0.22526400  1
  C  C49  1  0.77377400  0.61607900  0.77473600  1
  C  C50  1  0.72186800  0.11541600  0.77139900  1
  C  C51  1  0.22186800  0.88458400  0.22860100  1
