# generated using pymatgen
data_CuNi2C17
_symmetry_space_group_name_H-M   'P 1'
_cell_length_a   7.54865000
_cell_length_b   10.57866500
_cell_length_c   13.21825000
_cell_angle_alpha   90.00000000
_cell_angle_beta   90.00000000
_cell_angle_gamma   90.00000000
_symmetry_Int_Tables_number   1
_chemical_formula_structural   CuNi2C17
_chemical_formula_sum   'Cu4 Ni8 C68'
_cell_volume   1055.53858926
_cell_formula_units_Z   4
loop_
 _symmetry_equiv_pos_site_id
 _symmetry_equiv_pos_as_xyz
  1  'x, y, z'
loop_
 _atom_site_type_symbol
 _atom_site_label
 _atom_site_symmetry_multiplicity
 _atom_site_fract_x
 _atom_site_fract_y
 _atom_site_fract_z
 _atom_site_occupancy
  C  C0  1  0.96654400  0.68226600  0.25000000  1
  C  C1  1  0.53345600  0.18226600  0.25000000  1
  C  C2  1  0.03345600  0.31773400  0.75000000  1
  C  C3  1  0.46654400  0.81773400  0.75000000  1
  C  C4  1  0.25164500  0.93673200  0.12296400  1
  C  C5  1  0.24835500  0.43673200  0.37703600  1
  C  C6  1  0.74835500  0.06326800  0.62296400  1
  C  C7  1  0.75164500  0.56326800  0.87703600  1
  C  C8  1  0.74835500  0.06326800  0.87703600  1
  C  C9  1  0.75164500  0.56326800  0.62296400  1
  C  C10  1  0.25164500  0.93673200  0.37703600  1
  C  C11  1  0.24835500  0.43673200  0.12296400  1
  Ni  Ni12  1  0.08303900  0.68547000  0.00063500  1
  Ni  Ni13  1  0.41696100  0.18547000  0.49936500  1
  Ni  Ni14  1  0.91696100  0.31453000  0.50063500  1
  Ni  Ni15  1  0.58303900  0.81453000  0.99936500  1
  Ni  Ni16  1  0.91696100  0.31453000  0.99936500  1
  Ni  Ni17  1  0.58303900  0.81453000  0.50063500  1
  Ni  Ni18  1  0.08303900  0.68547000  0.49936500  1
  Ni  Ni19  1  0.41696100  0.18547000  0.00063500  1
  Cu  Cu20  1  0.89647700  0.98462900  0.25000000  1
  Cu  Cu21  1  0.60352300  0.48462900  0.25000000  1
  Cu  Cu22  1  0.10352300  0.01537100  0.75000000  1
  Cu  Cu23  1  0.39647700  0.51537100  0.75000000  1
  C  C24  1  0.83014400  0.85107000  0.25000000  1
  C  C25  1  0.66985600  0.35107000  0.25000000  1
  C  C26  1  0.16985600  0.14893000  0.75000000  1
  C  C27  1  0.33014400  0.64893000  0.75000000  1
  C  C28  1  0.75380900  0.57128100  0.25000000  1
  C  C29  1  0.74619100  0.07128100  0.25000000  1
  C  C30  1  0.24619100  0.42871900  0.75000000  1
  C  C31  1  0.25380900  0.92871900  0.75000000  1
  C  C32  1  0.00484900  0.00566300  0.15711800  1
  C  C33  1  0.49515100  0.50566300  0.34288200  1
  C  C34  1  0.99515100  0.99433700  0.65711800  1
  C  C35  1  0.50484900  0.49433700  0.84288200  1
  C  C36  1  0.99515100  0.99433700  0.84288200  1
  C  C37  1  0.50484900  0.49433700  0.65711800  1
  C  C38  1  0.00484900  0.00566300  0.34288200  1
  C  C39  1  0.49515100  0.50566300  0.15711800  1
  C  C40  1  0.20363400  0.58360800  0.01935800  1
  C  C41  1  0.29636600  0.08360800  0.48064200  1
  C  C42  1  0.79636600  0.41639200  0.51935800  1
  C  C43  1  0.70363400  0.91639200  0.98064200  1
  C  C44  1  0.79636600  0.41639200  0.98064200  1
  C  C45  1  0.70363400  0.91639200  0.51935800  1
  C  C46  1  0.20363400  0.58360800  0.48064200  1
  C  C47  1  0.29636600  0.08360800  0.01935800  1
  C  C48  1  0.97705700  0.68394900  0.09240300  1
  C  C49  1  0.52294300  0.18394900  0.40759700  1
  C  C50  1  0.02294300  0.31605100  0.59240300  1
  C  C51  1  0.47705700  0.81605100  0.90759700  1
  C  C52  1  0.02294300  0.31605100  0.90759700  1
  C  C53  1  0.47705700  0.81605100  0.59240300  1
  C  C54  1  0.97705700  0.68394900  0.40759700  1
  C  C55  1  0.52294300  0.18394900  0.09240300  1
  C  C56  1  0.16120100  0.80942800  0.01297100  1
  C  C57  1  0.33879900  0.30942800  0.48702900  1
  C  C58  1  0.83879900  0.19057200  0.51297100  1
  C  C59  1  0.66120100  0.69057200  0.98702900  1
  C  C60  1  0.83879900  0.19057200  0.98702900  1
  C  C61  1  0.66120100  0.69057200  0.51297100  1
  C  C62  1  0.16120100  0.80942800  0.48702900  1
  C  C63  1  0.33879900  0.30942800  0.01297100  1
  C  C64  1  0.97858400  0.65851800  0.91347000  1
  C  C65  1  0.52141600  0.15851800  0.58653000  1
  C  C66  1  0.02141600  0.34148200  0.41347000  1
  C  C67  1  0.47858400  0.84148200  0.08653000  1
  C  C68  1  0.02141600  0.34148200  0.08653000  1
  C  C69  1  0.47858400  0.84148200  0.41347000  1
  C  C70  1  0.97858400  0.65851800  0.58653000  1
  C  C71  1  0.52141600  0.15851800  0.91347000  1
  C  C72  1  0.14172600  0.53174000  0.25000000  1
  C  C73  1  0.35827400  0.03174000  0.25000000  1
  C  C74  1  0.85827400  0.46826000  0.75000000  1
  C  C75  1  0.64172600  0.96826000  0.75000000  1
  C  C76  1  0.18222500  0.81221800  0.25000000  1
  C  C77  1  0.31777500  0.31221800  0.25000000  1
  C  C78  1  0.81777500  0.18778200  0.75000000  1
  C  C79  1  0.68222500  0.68778200  0.75000000  1
