# generated using pymatgen
data_Cu2NiC5
_symmetry_space_group_name_H-M   'P 1'
_cell_length_a   11.28521720
_cell_length_b   9.99412444
_cell_length_c   9.17613121
_cell_angle_alpha   71.98374329
_cell_angle_beta   57.37025513
_cell_angle_gamma   50.64600158
_symmetry_Int_Tables_number   1
_chemical_formula_structural   Cu2NiC5
_chemical_formula_sum   'Cu8 Ni4 C20'
_cell_volume   673.10908886
_cell_formula_units_Z   4
loop_
 _symmetry_equiv_pos_site_id
 _symmetry_equiv_pos_as_xyz
  1  'x, y, z'
loop_
 _atom_site_type_symbol
 _atom_site_label
 _atom_site_symmetry_multiplicity
 _atom_site_fract_x
 _atom_site_fract_y
 _atom_site_fract_z
 _atom_site_occupancy
  C  C0  1  0.28870100  0.71129900  0.28870100  1
  C  C1  1  0.53870100  0.96129900  0.53870100  1
  Ni  Ni2  1  0.31165600  0.95645100  0.96028900  1
  Ni  Ni3  1  0.96028900  0.77160400  0.31165600  1
  Ni  Ni4  1  0.47839600  0.28971100  0.29354900  1
  Ni  Ni5  1  0.29354900  0.93834400  0.47839600  1
  Cu  Cu6  1  0.05142000  0.06043000  0.02624100  1
  Cu  Cu7  1  0.02624100  0.86191000  0.05142000  1
  Cu  Cu8  1  0.38809000  0.22375900  0.18957000  1
  Cu  Cu9  1  0.18957000  0.19858000  0.38809000  1
  Cu  Cu10  1  0.21894600  0.10772500  0.17381200  1
  Cu  Cu11  1  0.17381200  0.49951800  0.21894600  1
  Cu  Cu12  1  0.75048200  0.07618800  0.14227500  1
  Cu  Cu13  1  0.14227500  0.03105400  0.75048200  1
  C  C14  1  0.37545800  0.79222900  0.05624000  1
  C  C15  1  0.05624000  0.77607300  0.37545800  1
  C  C16  1  0.47392700  0.19376000  0.45777100  1
  C  C17  1  0.45777100  0.87454200  0.47392700  1
  C  C18  1  0.44283400  0.46166700  0.29429200  1
  C  C19  1  0.29429200  0.80120700  0.44283400  1
  C  C20  1  0.44879300  0.95570800  0.78833300  1
  C  C21  1  0.78833300  0.80716600  0.44879300  1
  C  C22  1  0.16457600  0.99363600  0.92578700  1
  C  C23  1  0.92578700  0.91600100  0.16457600  1
  C  C24  1  0.33399900  0.32421300  0.25636400  1
  C  C25  1  0.25636400  0.08542400  0.33399900  1
  C  C26  1  0.19320900  0.12459700  0.07883900  1
  C  C27  1  0.07883900  0.60335500  0.19320900  1
  C  C28  1  0.64664500  0.17116100  0.12540300  1
  C  C29  1  0.12540300  0.05679100  0.64664500  1
  C  C30  1  0.89829600  0.60170400  0.89829600  1
  C  C31  1  0.64829600  0.35170400  0.64829600  1
