# generated using pymatgen
data_Cu2Ni5C3
_symmetry_space_group_name_H-M   'P 1'
_cell_length_a   8.12450600
_cell_length_b   20.62812700
_cell_length_c   13.44389700
_cell_angle_alpha   90.00000000
_cell_angle_beta   90.00000000
_cell_angle_gamma   90.00000000
_symmetry_Int_Tables_number   1
_chemical_formula_structural   Cu2Ni5C3
_chemical_formula_sum   'Cu16 Ni40 C24'
_cell_volume   2253.10762209
_cell_formula_units_Z   8
loop_
 _symmetry_equiv_pos_site_id
 _symmetry_equiv_pos_as_xyz
  1  'x, y, z'
loop_
 _atom_site_type_symbol
 _atom_site_label
 _atom_site_symmetry_multiplicity
 _atom_site_fract_x
 _atom_site_fract_y
 _atom_site_fract_z
 _atom_site_occupancy
  C  C0  1  0.50783000  0.53451700  0.18769700  1
  C  C1  1  0.00783000  0.96548300  0.31230300  1
  C  C2  1  0.49217000  0.03451700  0.81230300  1
  C  C3  1  0.99217000  0.46548300  0.68769700  1
  C  C4  1  0.49217000  0.46548300  0.81230300  1
  C  C5  1  0.99217000  0.03451700  0.68769700  1
  C  C6  1  0.50783000  0.96548300  0.18769700  1
  C  C7  1  0.00783000  0.53451700  0.31230300  1
  C  C8  1  0.67504400  0.75000000  0.83608000  1
  C  C9  1  0.17504400  0.75000000  0.66392000  1
  C  C10  1  0.32495600  0.25000000  0.16392000  1
  C  C11  1  0.82495600  0.25000000  0.33608000  1
  C  C12  1  0.53272100  0.75000000  0.16141000  1
  C  C13  1  0.03272100  0.75000000  0.33859000  1
  C  C14  1  0.46727900  0.25000000  0.83859000  1
  C  C15  1  0.96727900  0.25000000  0.66141000  1
  C  C16  1  0.60412400  0.64183200  0.49035900  1
  C  C17  1  0.10412400  0.85816800  0.00964100  1
  C  C18  1  0.39587600  0.14183200  0.50964100  1
  C  C19  1  0.89587600  0.35816800  0.99035900  1
  C  C20  1  0.39587600  0.35816800  0.50964100  1
  C  C21  1  0.89587600  0.14183200  0.99035900  1
  C  C22  1  0.60412400  0.85816800  0.49035900  1
  C  C23  1  0.10412400  0.64183200  0.00964100  1
  Ni  Ni24  1  0.87847800  0.57456400  0.53299900  1
  Ni  Ni25  1  0.37847800  0.92543600  0.96700100  1
  Ni  Ni26  1  0.12152200  0.07456400  0.46700100  1
  Ni  Ni27  1  0.62152200  0.42543600  0.03299900  1
  Ni  Ni28  1  0.12152200  0.42543600  0.46700100  1
  Ni  Ni29  1  0.62152200  0.07456400  0.03299900  1
  Ni  Ni30  1  0.87847800  0.92543600  0.53299900  1
  Ni  Ni31  1  0.37847800  0.57456400  0.96700100  1
  Ni  Ni32  1  0.39182000  0.56124100  0.41997200  1
  Ni  Ni33  1  0.89182000  0.93875900  0.08002800  1
  Ni  Ni34  1  0.60818000  0.06124100  0.58002800  1
  Ni  Ni35  1  0.10818000  0.43875900  0.91997200  1
  Ni  Ni36  1  0.60818000  0.43875900  0.58002800  1
  Ni  Ni37  1  0.10818000  0.06124100  0.91997200  1
  Ni  Ni38  1  0.39182000  0.93875900  0.41997200  1
  Ni  Ni39  1  0.89182000  0.56124100  0.08002800  1
  Ni  Ni40  1  0.39977100  0.75000000  0.44837800  1
  Ni  Ni41  1  0.89977100  0.75000000  0.05162200  1
  Ni  Ni42  1  0.60022900  0.25000000  0.55162200  1
  Ni  Ni43  1  0.10022900  0.25000000  0.94837800  1
  Ni  Ni44  1  0.81207300  0.75000000  0.55805500  1
  Ni  Ni45  1  0.31207300  0.75000000  0.94194500  1
  Ni  Ni46  1  0.18792700  0.25000000  0.44194500  1
  Ni  Ni47  1  0.68792700  0.25000000  0.05805500  1
  Ni  Ni48  1  0.72938900  0.65153800  0.30413100  1
  Ni  Ni49  1  0.22938900  0.84846200  0.19586900  1
  Ni  Ni50  1  0.27061100  0.15153800  0.69586900  1
  Ni  Ni51  1  0.77061100  0.34846200  0.80413100  1
  Ni  Ni52  1  0.27061100  0.34846200  0.69586900  1
  Ni  Ni53  1  0.77061100  0.15153800  0.80413100  1
  Ni  Ni54  1  0.72938900  0.84846200  0.30413100  1
  Ni  Ni55  1  0.22938900  0.65153800  0.19586900  1
  Ni  Ni56  1  0.47155000  0.63800300  0.68206500  1
  Ni  Ni57  1  0.97155000  0.86199700  0.81793500  1
  Ni  Ni58  1  0.52845000  0.13800300  0.31793500  1
  Ni  Ni59  1  0.02845000  0.36199700  0.18206500  1
  Ni  Ni60  1  0.52845000  0.36199700  0.31793500  1
  Ni  Ni61  1  0.02845000  0.13800300  0.18206500  1
  Ni  Ni62  1  0.47155000  0.86199700  0.68206500  1
  Ni  Ni63  1  0.97155000  0.63800300  0.81793500  1
  Cu  Cu64  1  0.80872600  0.54436900  0.81499300  1
  Cu  Cu65  1  0.30872600  0.95563100  0.68500700  1
  Cu  Cu66  1  0.19127400  0.04436900  0.18500700  1
  Cu  Cu67  1  0.69127400  0.45563100  0.31499300  1
  Cu  Cu68  1  0.19127400  0.45563100  0.18500700  1
  Cu  Cu69  1  0.69127400  0.04436900  0.31499300  1
  Cu  Cu70  1  0.80872600  0.95563100  0.81499300  1
  Cu  Cu71  1  0.30872600  0.54436900  0.68500700  1
  Cu  Cu72  1  0.55178700  0.67007400  0.99226300  1
  Cu  Cu73  1  0.05178700  0.82992600  0.50773700  1
  Cu  Cu74  1  0.44821300  0.17007400  0.00773700  1
  Cu  Cu75  1  0.94821300  0.32992600  0.49226300  1
  Cu  Cu76  1  0.44821300  0.32992600  0.00773700  1
  Cu  Cu77  1  0.94821300  0.17007400  0.49226300  1
  Cu  Cu78  1  0.55178700  0.82992600  0.99226300  1
  Cu  Cu79  1  0.05178700  0.67007400  0.50773700  1
