# generated using pymatgen
data_CuNi20C17
_symmetry_space_group_name_H-M   'P 1'
_cell_length_a   9.83235370
_cell_length_b   9.83235370
_cell_length_c   10.67765300
_cell_angle_alpha   90.00000000
_cell_angle_beta   90.00000000
_cell_angle_gamma   119.99999800
_symmetry_Int_Tables_number   1
_chemical_formula_structural   CuNi20C17
_chemical_formula_sum   'Cu2 Ni40 C34'
_cell_volume   893.96688162
_cell_formula_units_Z   2
loop_
 _symmetry_equiv_pos_site_id
 _symmetry_equiv_pos_as_xyz
  1  'x, y, z'
loop_
 _atom_site_type_symbol
 _atom_site_label
 _atom_site_symmetry_multiplicity
 _atom_site_fract_x
 _atom_site_fract_y
 _atom_site_fract_z
 _atom_site_occupancy
  C  C0  1  0.12867700  0.26223100  0.17412100  1
  C  C1  1  0.13355300  0.87132300  0.17412100  1
  C  C2  1  0.73776900  0.86644700  0.17412100  1
  C  C3  1  0.86644700  0.73776900  0.67412100  1
  C  C4  1  0.26223100  0.12867700  0.67412100  1
  C  C5  1  0.87132300  0.13355300  0.67412100  1
  C  C6  1  0.20318100  0.40054600  0.50036300  1
  C  C7  1  0.19736500  0.79681900  0.50036300  1
  C  C8  1  0.59945400  0.80263500  0.50036300  1
  C  C9  1  0.80263500  0.59945400  0.00036300  1
  C  C10  1  0.40054600  0.20318100  0.00036300  1
  C  C11  1  0.79681900  0.19736500  0.00036300  1
  C  C12  1  0.00000000  0.00000000  0.43381600  1
  C  C13  1  0.00000000  0.00000000  0.93381600  1
  C  C14  1  0.53610700  0.01044400  0.24546900  1
  C  C15  1  0.47433700  0.46389300  0.24546900  1
  C  C16  1  0.98955600  0.52566300  0.24546900  1
  C  C17  1  0.52566300  0.98955600  0.74546900  1
  C  C18  1  0.01044400  0.53610700  0.74546900  1
  C  C19  1  0.46389300  0.47433700  0.74546900  1
  C  C20  1  0.13188700  0.57376300  0.00725400  1
  C  C21  1  0.44187600  0.86811300  0.00725400  1
  C  C22  1  0.42623700  0.55812400  0.00725400  1
  C  C23  1  0.55812400  0.42623700  0.50725400  1
  C  C24  1  0.57376300  0.13188700  0.50725400  1
  C  C25  1  0.86811300  0.44187600  0.50725400  1
  C  C26  1  0.33333300  0.66666700  0.30841600  1
  C  C27  1  0.66666700  0.33333300  0.80841600  1
  C  C28  1  0.34122900  0.15798500  0.35682300  1
  C  C29  1  0.81675600  0.65877100  0.35682300  1
  C  C30  1  0.84201500  0.18324400  0.35682300  1
  C  C31  1  0.18324400  0.84201500  0.85682300  1
  C  C32  1  0.15798500  0.34122900  0.85682300  1
  C  C33  1  0.65877100  0.81675600  0.85682300  1
  Ni  Ni34  1  0.01451900  0.17593700  0.37715500  1
  Ni  Ni35  1  0.16141800  0.98548100  0.37715500  1
  Ni  Ni36  1  0.82406300  0.83858200  0.37715500  1
  Ni  Ni37  1  0.83858200  0.82406300  0.87715500  1
  Ni  Ni38  1  0.17593700  0.01451900  0.87715500  1
  Ni  Ni39  1  0.98548100  0.16141800  0.87715500  1
  Ni  Ni40  1  0.36545500  0.25773800  0.21507500  1
  Ni  Ni41  1  0.89228300  0.63454500  0.21507500  1
  Ni  Ni42  1  0.74226200  0.10771700  0.21507500  1
  Ni  Ni43  1  0.10771700  0.74226200  0.71507500  1
  Ni  Ni44  1  0.25773800  0.36545500  0.71507500  1
  Ni  Ni45  1  0.63454500  0.89228300  0.71507500  1
  Ni  Ni46  1  0.00000000  0.00000000  0.09752100  1
  Ni  Ni47  1  0.00000000  0.00000000  0.59752100  1
  Ni  Ni48  1  0.33333300  0.66666700  0.04289200  1
  Ni  Ni49  1  0.66666700  0.33333300  0.54289200  1
  Ni  Ni50  1  0.31502600  0.48605400  0.28910000  1
  Ni  Ni51  1  0.17102800  0.68497400  0.28910000  1
  Ni  Ni52  1  0.51394600  0.82897200  0.28910000  1
  Ni  Ni53  1  0.82897200  0.51394600  0.78910000  1
  Ni  Ni54  1  0.48605400  0.31502600  0.78910000  1
  Ni  Ni55  1  0.68497400  0.17102800  0.78910000  1
  Ni  Ni56  1  0.36448400  0.27714500  0.48705800  1
  Ni  Ni57  1  0.91266200  0.63551600  0.48705800  1
  Ni  Ni58  1  0.72285500  0.08733800  0.48705800  1
  Ni  Ni59  1  0.08733800  0.72285500  0.98705800  1
  Ni  Ni60  1  0.27714500  0.36448400  0.98705800  1
  Ni  Ni61  1  0.63551600  0.91266200  0.98705800  1
  Ni  Ni62  1  0.47986800  0.09588000  0.36269100  1
  Ni  Ni63  1  0.61601200  0.52013200  0.36269100  1
  Ni  Ni64  1  0.90412000  0.38398800  0.36269100  1
  Ni  Ni65  1  0.38398800  0.90412000  0.86269100  1
  Ni  Ni66  1  0.09588000  0.47986800  0.86269100  1
  Ni  Ni67  1  0.52013200  0.61601200  0.86269100  1
  Ni  Ni68  1  0.00819300  0.42973300  0.11333300  1
  Ni  Ni69  1  0.42154000  0.99180700  0.11333300  1
  Ni  Ni70  1  0.57026700  0.57846000  0.11333300  1
  Ni  Ni71  1  0.57846000  0.57026700  0.61333300  1
  Ni  Ni72  1  0.42973300  0.00819300  0.61333300  1
  Ni  Ni73  1  0.99180700  0.42154000  0.61333300  1
  Cu  Cu74  1  0.33333300  0.66666700  0.47909700  1
  Cu  Cu75  1  0.66666700  0.33333300  0.97909700  1
