# generated using pymatgen
data_CuNi3C2
_symmetry_space_group_name_H-M   'P 1'
_cell_length_a   3.46318099
_cell_length_b   3.46318099
_cell_length_c   39.22580700
_cell_angle_alpha   90.00000000
_cell_angle_beta   90.00000000
_cell_angle_gamma   120.00001890
_symmetry_Int_Tables_number   1
_chemical_formula_structural   CuNi3C2
_chemical_formula_sum   'Cu2 Ni6 C4'
_cell_volume   407.42982157
_cell_formula_units_Z   2
loop_
 _symmetry_equiv_pos_site_id
 _symmetry_equiv_pos_as_xyz
  1  'x, y, z'
loop_
 _atom_site_type_symbol
 _atom_site_label
 _atom_site_symmetry_multiplicity
 _atom_site_fract_x
 _atom_site_fract_y
 _atom_site_fract_z
 _atom_site_occupancy
  Ni  Ni0  1  0.00000000  0.00000000  0.32882600  1
  Ni  Ni1  1  0.00000000  0.00000000  0.70458700  1
  Ni  Ni2  1  0.33333300  0.66666700  0.42263200  1
  Ni  Ni3  1  0.33333300  0.66666700  0.51669400  1
  Ni  Ni4  1  0.00000000  0.00000000  0.23471100  1
  Ni  Ni5  1  0.00000000  0.00000000  0.61049800  1
  C  C6  1  0.00000000  0.00000000  0.09392400  1
  C  C7  1  0.00000000  0.00000000  0.46965800  1
  C  C8  1  0.33333300  0.66666700  0.28176000  1
  C  C9  1  0.33333300  0.66666700  0.65755600  1
  Cu  Cu10  1  0.33333300  0.66666700  0.05596400  1
  Cu  Cu11  1  0.33333300  0.66666700  0.13193800  1
