# generated using pymatgen
data_Cu2(NiC6)3
_symmetry_space_group_name_H-M   'P 1'
_cell_length_a   8.65367938
_cell_length_b   8.65367938
_cell_length_c   5.27118500
_cell_angle_alpha   90.00000000
_cell_angle_beta   90.00000000
_cell_angle_gamma   119.99999526
_symmetry_Int_Tables_number   1
_chemical_formula_structural   Cu2(NiC6)3
_chemical_formula_sum   'Cu2 Ni3 C18'
_cell_volume   341.85387893
_cell_formula_units_Z   1
loop_
 _symmetry_equiv_pos_site_id
 _symmetry_equiv_pos_as_xyz
  1  'x, y, z'
loop_
 _atom_site_type_symbol
 _atom_site_label
 _atom_site_symmetry_multiplicity
 _atom_site_fract_x
 _atom_site_fract_y
 _atom_site_fract_z
 _atom_site_occupancy
  C  C0  1  0.57168900  0.57168900  0.00000000  1
  C  C1  1  0.00000000  0.42831100  0.00000000  1
  C  C2  1  0.42831100  0.00000000  0.00000000  1
  C  C3  1  0.00000000  0.00000000  0.00000000  1
  Ni  Ni4  1  0.25812800  0.25812800  0.50000000  1
  Ni  Ni5  1  0.00000000  0.74187200  0.50000000  1
  Ni  Ni6  1  0.74187200  0.00000000  0.50000000  1
  Cu  Cu7  1  0.66666700  0.33333300  0.51939100  1
  Cu  Cu8  1  0.33333300  0.66666700  0.48060900  1
  C  C9  1  0.10970700  0.21755300  0.77338100  1
  C  C10  1  0.78244700  0.89215400  0.77338100  1
  C  C11  1  0.10784600  0.89029300  0.77338100  1
  C  C12  1  0.89215400  0.78244700  0.22661900  1
  C  C13  1  0.89029300  0.10784600  0.22661900  1
  C  C14  1  0.21755300  0.10970700  0.22661900  1
  C  C15  1  0.30180100  0.47657900  0.35381800  1
  C  C16  1  0.52342100  0.82522100  0.35381800  1
  C  C17  1  0.17477900  0.69819900  0.35381800  1
  C  C18  1  0.33333300  0.66666700  0.78606700  1
  C  C19  1  0.66666700  0.33333300  0.21393300  1
  C  C20  1  0.47657900  0.30180100  0.64618200  1
  C  C21  1  0.69819900  0.17477900  0.64618200  1
  C  C22  1  0.82522100  0.52342100  0.64618200  1
