# generated using pymatgen
data_Cu2Ni4C5
_symmetry_space_group_name_H-M   'P 1'
_cell_length_a   3.61790000
_cell_length_b   8.11565700
_cell_length_c   18.24215100
_cell_angle_alpha   90.00000000
_cell_angle_beta   90.00000000
_cell_angle_gamma   90.00000000
_symmetry_Int_Tables_number   1
_chemical_formula_structural   Cu2Ni4C5
_chemical_formula_sum   'Cu4 Ni8 C10'
_cell_volume   535.61938767
_cell_formula_units_Z   2
loop_
 _symmetry_equiv_pos_site_id
 _symmetry_equiv_pos_as_xyz
  1  'x, y, z'
loop_
 _atom_site_type_symbol
 _atom_site_label
 _atom_site_symmetry_multiplicity
 _atom_site_fract_x
 _atom_site_fract_y
 _atom_site_fract_z
 _atom_site_occupancy
  C  C0  1  0.00000000  0.50000000  0.50000000  1
  C  C1  1  0.00000000  0.00000000  0.00000000  1
  C  C2  1  0.00000000  0.74014500  0.28004000  1
  C  C3  1  0.00000000  0.25985500  0.71996000  1
  C  C4  1  0.00000000  0.75985500  0.78004000  1
  C  C5  1  0.00000000  0.24014500  0.21996000  1
  C  C6  1  0.00000000  0.61304000  0.08212200  1
  C  C7  1  0.00000000  0.38696000  0.91787800  1
  C  C8  1  0.00000000  0.88696000  0.58212200  1
  C  C9  1  0.00000000  0.11304000  0.41787800  1
  Ni  Ni10  1  0.50000000  0.71276600  0.93090400  1
  Ni  Ni11  1  0.50000000  0.28723400  0.06909600  1
  Ni  Ni12  1  0.50000000  0.78723400  0.43090400  1
  Ni  Ni13  1  0.50000000  0.21276600  0.56909600  1
  Ni  Ni14  1  0.50000000  0.58110200  0.64895700  1
  Ni  Ni15  1  0.50000000  0.41889800  0.35104300  1
  Ni  Ni16  1  0.50000000  0.91889800  0.14895700  1
  Ni  Ni17  1  0.50000000  0.08110200  0.85104300  1
  Cu  Cu18  1  0.50000000  0.52479600  0.19620000  1
  Cu  Cu19  1  0.50000000  0.47520400  0.80380000  1
  Cu  Cu20  1  0.50000000  0.97520400  0.69620000  1
  Cu  Cu21  1  0.50000000  0.02479600  0.30380000  1
