# generated using pymatgen
data_Cu5(Ni2C)3
_symmetry_space_group_name_H-M   'P 1'
_cell_length_a   8.66703109
_cell_length_b   9.18588620
_cell_length_c   9.18588620
_cell_angle_alpha   76.00759498
_cell_angle_beta   69.72167103
_cell_angle_gamma   69.72167103
_symmetry_Int_Tables_number   1
_chemical_formula_structural   Cu5(Ni2C)3
_chemical_formula_sum   'Cu10 Ni12 C6'
_cell_volume   637.30019556
_cell_formula_units_Z   2
loop_
 _symmetry_equiv_pos_site_id
 _symmetry_equiv_pos_as_xyz
  1  'x, y, z'
loop_
 _atom_site_type_symbol
 _atom_site_label
 _atom_site_symmetry_multiplicity
 _atom_site_fract_x
 _atom_site_fract_y
 _atom_site_fract_z
 _atom_site_occupancy
  C  C0  1  0.25000000  0.06244300  0.93755700  1
  C  C1  1  0.75000000  0.93755700  0.06244300  1
  C  C2  1  0.50925500  0.58922200  0.71197800  1
  C  C3  1  0.99074500  0.28802200  0.41077800  1
  C  C4  1  0.49074500  0.41077800  0.28802200  1
  C  C5  1  0.00925500  0.71197800  0.58922200  1
  Ni  Ni6  1  0.13972000  0.59875800  0.86178800  1
  Ni  Ni7  1  0.36028000  0.13821200  0.40124200  1
  Ni  Ni8  1  0.86028000  0.40124200  0.13821200  1
  Ni  Ni9  1  0.63972000  0.86178800  0.59875800  1
  Ni  Ni10  1  0.60512700  0.30303300  0.56356900  1
  Ni  Ni11  1  0.89487300  0.43643100  0.69696700  1
  Ni  Ni12  1  0.39487300  0.69696700  0.43643100  1
  Ni  Ni13  1  0.10512700  0.56356900  0.30303300  1
  Ni  Ni14  1  0.48653900  0.30453800  0.99765800  1
  Ni  Ni15  1  0.01346100  0.00234200  0.69546200  1
  Ni  Ni16  1  0.51346100  0.69546200  0.00234200  1
  Ni  Ni17  1  0.98653900  0.99765800  0.30453800  1
  Cu  Cu18  1  0.24399000  0.82786900  0.79347600  1
  Cu  Cu19  1  0.25601000  0.20652400  0.17213100  1
  Cu  Cu20  1  0.75601000  0.17213100  0.20652400  1
  Cu  Cu21  1  0.74399000  0.79347600  0.82786900  1
  Cu  Cu22  1  0.06547600  0.87241100  0.04056300  1
  Cu  Cu23  1  0.43452400  0.95943700  0.12758900  1
  Cu  Cu24  1  0.93452400  0.12758900  0.95943700  1
  Cu  Cu25  1  0.56547600  0.04056300  0.87241100  1
  Cu  Cu26  1  0.25000000  0.30774500  0.69225500  1
  Cu  Cu27  1  0.75000000  0.69225500  0.30774500  1
