# generated using pymatgen
data_Cu2Ni2C
_symmetry_space_group_name_H-M   'P 1'
_cell_length_a   6.40498600
_cell_length_b   12.25743400
_cell_length_c   14.68957582
_cell_angle_alpha   82.90867574
_cell_angle_beta   90.00000000
_cell_angle_gamma   90.00000000
_symmetry_Int_Tables_number   1
_chemical_formula_structural   Cu2Ni2C
_chemical_formula_sum   'Cu24 Ni24 C12'
_cell_volume   1144.43770711
_cell_formula_units_Z   12
loop_
 _symmetry_equiv_pos_site_id
 _symmetry_equiv_pos_as_xyz
  1  'x, y, z'
loop_
 _atom_site_type_symbol
 _atom_site_label
 _atom_site_symmetry_multiplicity
 _atom_site_fract_x
 _atom_site_fract_y
 _atom_site_fract_z
 _atom_site_occupancy
  C  C0  1  0.60171900  0.74339800  0.52383800  1
  C  C1  1  0.10171900  0.25660200  0.97616200  1
  C  C2  1  0.39828100  0.25660200  0.47616200  1
  C  C3  1  0.89828100  0.74339800  0.02383800  1
  C  C4  1  0.43377700  0.88668500  0.36971900  1
  C  C5  1  0.93377700  0.11331500  0.13028100  1
  C  C6  1  0.56622300  0.11331500  0.63028100  1
  C  C7  1  0.06622300  0.88668500  0.86971900  1
  C  C8  1  0.41685600  0.65157800  0.37102900  1
  C  C9  1  0.91685600  0.34842200  0.12897100  1
  C  C10  1  0.58314400  0.34842200  0.62897100  1
  C  C11  1  0.08314400  0.65157800  0.87102900  1
  Ni  Ni12  1  0.57994600  0.86464300  0.46228900  1
  Ni  Ni13  1  0.07994600  0.13535700  0.03771100  1
  Ni  Ni14  1  0.42005400  0.13535700  0.53771100  1
  Ni  Ni15  1  0.92005400  0.86464300  0.96228900  1
  Ni  Ni16  1  0.42140400  0.77696900  0.31604700  1
  Ni  Ni17  1  0.92140400  0.22303100  0.18395300  1
  Ni  Ni18  1  0.57859600  0.22303100  0.68395300  1
  Ni  Ni19  1  0.07859600  0.77696900  0.81604700  1
  Ni  Ni20  1  0.56811500  0.64226100  0.46190900  1
  Ni  Ni21  1  0.06811500  0.35773900  0.03809100  1
  Ni  Ni22  1  0.43188500  0.35773900  0.53809100  1
  Ni  Ni23  1  0.93188500  0.64226100  0.96190900  1
  Ni  Ni24  1  0.09793100  0.91686800  0.60647600  1
  Ni  Ni25  1  0.59793100  0.08313200  0.89352400  1
  Ni  Ni26  1  0.90206900  0.08313200  0.39352400  1
  Ni  Ni27  1  0.40206900  0.91686800  0.10647600  1
  Ni  Ni28  1  0.11518900  0.54719000  0.60975400  1
  Ni  Ni29  1  0.61518900  0.45281000  0.89024600  1
  Ni  Ni30  1  0.88481100  0.45281000  0.39024600  1
  Ni  Ni31  1  0.38481100  0.54719000  0.10975400  1
  Ni  Ni32  1  0.89652100  0.78323900  0.27392500  1
  Ni  Ni33  1  0.39652100  0.21676100  0.22607500  1
  Ni  Ni34  1  0.10347900  0.21676100  0.72607500  1
  Ni  Ni35  1  0.60347900  0.78323900  0.77392500  1
  Cu  Cu36  1  0.42569400  0.73881700  0.58647000  1
  Cu  Cu37  1  0.92569400  0.26118300  0.91353000  1
  Cu  Cu38  1  0.57430600  0.26118300  0.41353000  1
  Cu  Cu39  1  0.07430600  0.73881700  0.08647000  1
  Cu  Cu40  1  0.80971000  0.73490300  0.55906700  1
  Cu  Cu41  1  0.30971000  0.26509700  0.94093300  1
  Cu  Cu42  1  0.19029000  0.26509700  0.44093300  1
  Cu  Cu43  1  0.69029000  0.73490300  0.05906700  1
  Cu  Cu44  1  0.22567900  0.90214800  0.40473300  1
  Cu  Cu45  1  0.72567900  0.09785200  0.09526700  1
  Cu  Cu46  1  0.77432100  0.09785200  0.59526700  1
  Cu  Cu47  1  0.27432100  0.90214800  0.90473300  1
  Cu  Cu48  1  0.53076600  0.97187400  0.30881100  1
  Cu  Cu49  1  0.03076600  0.02812600  0.19118900  1
  Cu  Cu50  1  0.46923400  0.02812600  0.69118900  1
  Cu  Cu51  1  0.96923400  0.97187400  0.80881100  1
  Cu  Cu52  1  0.20544400  0.63448200  0.40554000  1
  Cu  Cu53  1  0.70544400  0.36551800  0.09446000  1
  Cu  Cu54  1  0.79455600  0.36551800  0.59446000  1
  Cu  Cu55  1  0.29455600  0.63448200  0.90554000  1
  Cu  Cu56  1  0.49949300  0.57945500  0.31031100  1
  Cu  Cu57  1  0.99949300  0.42054500  0.18968900  1
  Cu  Cu58  1  0.50050700  0.42054500  0.68968900  1
  Cu  Cu59  1  0.00050700  0.57945500  0.81031100  1
