# generated using pymatgen
data_Cu3NiC15
_symmetry_space_group_name_H-M   'P 1'
_cell_length_a   9.91426921
_cell_length_b   9.91426921
_cell_length_c   9.91426921
_cell_angle_alpha   109.47122063
_cell_angle_beta   109.47122063
_cell_angle_gamma   109.47122063
_symmetry_Int_Tables_number   1
_chemical_formula_structural   Cu3NiC15
_chemical_formula_sum   'Cu12 Ni4 C60'
_cell_volume   750.17093272
_cell_formula_units_Z   4
loop_
 _symmetry_equiv_pos_site_id
 _symmetry_equiv_pos_as_xyz
  1  'x, y, z'
loop_
 _atom_site_type_symbol
 _atom_site_label
 _atom_site_symmetry_multiplicity
 _atom_site_fract_x
 _atom_site_fract_y
 _atom_site_fract_z
 _atom_site_occupancy
  Ni  Ni0  1  0.00000000  0.00000000  0.00000000  1
  Ni  Ni1  1  0.50000000  0.50000000  0.00000000  1
  Ni  Ni2  1  0.00000000  0.50000000  0.50000000  1
  Ni  Ni3  1  0.50000000  0.00000000  0.50000000  1
  C  C4  1  0.88546200  0.63546200  0.25000000  1
  C  C5  1  0.63546200  0.25000000  0.88546200  1
  C  C6  1  0.86453800  0.75000000  0.61453800  1
  C  C7  1  0.75000000  0.61453800  0.86453800  1
  C  C8  1  0.25000000  0.88546200  0.63546200  1
  C  C9  1  0.61453800  0.86453800  0.75000000  1
  C  C10  1  0.11453800  0.36453800  0.75000000  1
  C  C11  1  0.36453800  0.75000000  0.11453800  1
  C  C12  1  0.13546200  0.25000000  0.38546200  1
  C  C13  1  0.25000000  0.38546200  0.13546200  1
  C  C14  1  0.75000000  0.11453800  0.36453800  1
  C  C15  1  0.38546200  0.13546200  0.25000000  1
  Cu  Cu16  1  0.12439300  0.87439300  0.25000000  1
  Cu  Cu17  1  0.25000000  0.12439300  0.87439300  1
  Cu  Cu18  1  0.75000000  0.37560700  0.62560700  1
  Cu  Cu19  1  0.62439300  0.37439300  0.25000000  1
  Cu  Cu20  1  0.62560700  0.75000000  0.37560700  1
  Cu  Cu21  1  0.37560700  0.62560700  0.75000000  1
  Cu  Cu22  1  0.12560700  0.75000000  0.87560700  1
  Cu  Cu23  1  0.75000000  0.87560700  0.12560700  1
  Cu  Cu24  1  0.87439300  0.25000000  0.12439300  1
  Cu  Cu25  1  0.37439300  0.25000000  0.62439300  1
  Cu  Cu26  1  0.25000000  0.62439300  0.37439300  1
  Cu  Cu27  1  0.87560700  0.12560700  0.75000000  1
  C  C28  1  0.46356300  0.36580700  0.26827400  1
  C  C29  1  0.30471100  0.90224400  0.03643700  1
  C  C30  1  0.59775600  0.90246700  0.13419300  1
  C  C31  1  0.59753300  0.19528900  0.23172600  1
  C  C32  1  0.12123200  0.02082600  0.20520800  1
  C  C33  1  0.19528900  0.23172600  0.59753300  1
  C  C34  1  0.18438200  0.47917400  0.60040600  1
  C  C35  1  0.23172600  0.59753300  0.19528900  1
  C  C36  1  0.37876800  0.58397700  0.89959400  1
  C  C37  1  0.91602300  0.29479200  0.31561800  1
  C  C38  1  0.29479200  0.31561800  0.91602300  1
  C  C39  1  0.20520800  0.12123200  0.02082600  1
  C  C40  1  0.47917400  0.60040600  0.18438200  1
  C  C41  1  0.89959400  0.37876800  0.58397700  1
  C  C42  1  0.02082600  0.20520800  0.12123200  1
  C  C43  1  0.60040600  0.18438200  0.47917400  1
  C  C44  1  0.58397700  0.89959400  0.37876800  1
  C  C45  1  0.03643700  0.30471100  0.90224400  1
  C  C46  1  0.90246700  0.13419300  0.59775600  1
  C  C47  1  0.62123200  0.41602300  0.10040600  1
  C  C48  1  0.36580700  0.26827400  0.46356300  1
  C  C49  1  0.26827400  0.46356300  0.36580700  1
  C  C50  1  0.90224400  0.03643700  0.30471100  1
  C  C51  1  0.31561800  0.91602300  0.29479200  1
  C  C52  1  0.53643700  0.63419300  0.73172600  1
  C  C53  1  0.69528900  0.09775600  0.96356300  1
  C  C54  1  0.40224400  0.09753300  0.86580700  1
  C  C55  1  0.40246700  0.80471100  0.76827400  1
  C  C56  1  0.87876800  0.97917400  0.79479200  1
  C  C57  1  0.80471100  0.76827400  0.40246700  1
  C  C58  1  0.81561800  0.52082600  0.39959400  1
  C  C59  1  0.76827400  0.40246700  0.80471100  1
  C  C60  1  0.68438200  0.08397700  0.70520800  1
  C  C61  1  0.09775600  0.96356300  0.69528900  1
  C  C62  1  0.73172600  0.53643700  0.63419300  1
  C  C63  1  0.63419300  0.73172600  0.53643700  1
  C  C64  1  0.86580700  0.40224400  0.09753300  1
  C  C65  1  0.09753300  0.86580700  0.40224400  1
  C  C66  1  0.96356300  0.69528900  0.09775600  1
  C  C67  1  0.41602300  0.10040600  0.62123200  1
  C  C68  1  0.39959400  0.81561800  0.52082600  1
  C  C69  1  0.97917400  0.79479200  0.87876800  1
  C  C70  1  0.10040600  0.62123200  0.41602300  1
  C  C71  1  0.52082600  0.39959400  0.81561800  1
  C  C72  1  0.79479200  0.87876800  0.97917400  1
  C  C73  1  0.70520800  0.68438200  0.08397700  1
  C  C74  1  0.08397700  0.70520800  0.68438200  1
  C  C75  1  0.13419300  0.59775600  0.90246700  1
