# generated using pymatgen
data_CuNiC2
_symmetry_space_group_name_H-M   'P 1'
_cell_length_a   6.13407800
_cell_length_b   7.51035200
_cell_length_c   5.24492300
_cell_angle_alpha   90.00000000
_cell_angle_beta   90.00000000
_cell_angle_gamma   90.00000000
_symmetry_Int_Tables_number   1
_chemical_formula_structural   CuNiC2
_chemical_formula_sum   'Cu4 Ni4 C8'
_cell_volume   241.62880338
_cell_formula_units_Z   4
loop_
 _symmetry_equiv_pos_site_id
 _symmetry_equiv_pos_as_xyz
  1  'x, y, z'
loop_
 _atom_site_type_symbol
 _atom_site_label
 _atom_site_symmetry_multiplicity
 _atom_site_fract_x
 _atom_site_fract_y
 _atom_site_fract_z
 _atom_site_occupancy
  Ni  Ni0  1  0.52528300  0.37015700  0.00036300  1
  Ni  Ni1  1  0.47471700  0.62984300  0.50036300  1
  Ni  Ni2  1  0.97471700  0.87015700  0.50036300  1
  Ni  Ni3  1  0.02528300  0.12984300  0.00036300  1
  Cu  Cu4  1  0.61905800  0.86737800  0.01827300  1
  Cu  Cu5  1  0.38094200  0.13262200  0.51827300  1
  Cu  Cu6  1  0.88094200  0.36737800  0.51827300  1
  Cu  Cu7  1  0.11905800  0.63262200  0.01827300  1
  C  C8  1  0.52312300  0.39242100  0.36397300  1
  C  C9  1  0.47687700  0.60757900  0.86397300  1
  C  C10  1  0.97687700  0.89242100  0.86397300  1
  C  C11  1  0.02312300  0.10757900  0.36397300  1
  C  C12  1  0.72026700  0.76014900  0.38739100  1
  C  C13  1  0.27973300  0.23985100  0.88739100  1
  C  C14  1  0.77973300  0.26014900  0.88739100  1
  C  C15  1  0.22026700  0.73985100  0.38739100  1
