# generated using pymatgen
data_CuNi3C8
_symmetry_space_group_name_H-M   'P 1'
_cell_length_a   10.02619339
_cell_length_b   10.02619339
_cell_length_c   6.91805100
_cell_angle_alpha   90.00000000
_cell_angle_beta   90.00000000
_cell_angle_gamma   119.99999596
_symmetry_Int_Tables_number   1
_chemical_formula_structural   CuNi3C8
_chemical_formula_sum   'Cu2 Ni6 C16'
_cell_volume   602.26352673
_cell_formula_units_Z   2
loop_
 _symmetry_equiv_pos_site_id
 _symmetry_equiv_pos_as_xyz
  1  'x, y, z'
loop_
 _atom_site_type_symbol
 _atom_site_label
 _atom_site_symmetry_multiplicity
 _atom_site_fract_x
 _atom_site_fract_y
 _atom_site_fract_z
 _atom_site_occupancy
  C  C0  1  0.17265900  0.82734100  0.51037500  1
  C  C1  1  0.65468200  0.82734100  0.51037500  1
  C  C2  1  0.17265900  0.34531800  0.51037500  1
  C  C3  1  0.82734100  0.17265900  0.01037500  1
  C  C4  1  0.34531800  0.17265900  0.01037500  1
  C  C5  1  0.82734100  0.65468200  0.01037500  1
  C  C6  1  0.33333300  0.66666700  0.82761400  1
  C  C7  1  0.66666700  0.33333300  0.32761400  1
  C  C8  1  0.46339400  0.53660600  0.20737800  1
  C  C9  1  0.07321100  0.53660600  0.20737800  1
  C  C10  1  0.46339400  0.92678900  0.20737800  1
  C  C11  1  0.53660600  0.46339400  0.70737800  1
  C  C12  1  0.92678900  0.46339400  0.70737800  1
  C  C13  1  0.53660600  0.07321100  0.70737800  1
  C  C14  1  0.00000000  0.00000000  0.23142900  1
  C  C15  1  0.00000000  0.00000000  0.73142900  1
  Ni  Ni16  1  0.16338800  0.83661200  0.96021100  1
  Ni  Ni17  1  0.67322400  0.83661200  0.96021100  1
  Ni  Ni18  1  0.16338800  0.32677600  0.96021100  1
  Ni  Ni19  1  0.83661200  0.16338800  0.46021100  1
  Ni  Ni20  1  0.32677600  0.16338800  0.46021100  1
  Ni  Ni21  1  0.83661200  0.67322400  0.46021100  1
  Cu  Cu22  1  0.33333300  0.66666700  0.44448300  1
  Cu  Cu23  1  0.66666700  0.33333300  0.94448300  1
