# generated using pymatgen
data_CuNi2C3
_symmetry_space_group_name_H-M   'P 1'
_cell_length_a   6.35666600
_cell_length_b   7.66068800
_cell_length_c   11.20529200
_cell_angle_alpha   90.00000000
_cell_angle_beta   90.00000000
_cell_angle_gamma   90.00000000
_symmetry_Int_Tables_number   1
_chemical_formula_structural   CuNi2C3
_chemical_formula_sum   'Cu8 Ni16 C24'
_cell_volume   545.65777293
_cell_formula_units_Z   8
loop_
 _symmetry_equiv_pos_site_id
 _symmetry_equiv_pos_as_xyz
  1  'x, y, z'
loop_
 _atom_site_type_symbol
 _atom_site_label
 _atom_site_symmetry_multiplicity
 _atom_site_fract_x
 _atom_site_fract_y
 _atom_site_fract_z
 _atom_site_occupancy
  C  C0  1  0.00000000  0.00000000  0.00000000  1
  C  C1  1  0.50000000  0.00000000  0.50000000  1
  C  C2  1  0.00000000  0.50000000  0.00000000  1
  C  C3  1  0.50000000  0.50000000  0.50000000  1
  Ni  Ni4  1  0.50493000  0.25000000  0.77504500  1
  Ni  Ni5  1  0.49507000  0.75000000  0.22495500  1
  Ni  Ni6  1  0.99507000  0.75000000  0.27504500  1
  Ni  Ni7  1  0.00493000  0.25000000  0.72495500  1
  Ni  Ni8  1  0.35975700  0.25000000  0.90066000  1
  Ni  Ni9  1  0.64024300  0.75000000  0.09934000  1
  Ni  Ni10  1  0.14024300  0.75000000  0.40066000  1
  Ni  Ni11  1  0.85975700  0.25000000  0.59934000  1
  Ni  Ni12  1  0.08898300  0.13909100  0.60433500  1
  Ni  Ni13  1  0.91101700  0.86090900  0.39566500  1
  Ni  Ni14  1  0.41101700  0.86090900  0.10433500  1
  Ni  Ni15  1  0.91101700  0.63909100  0.39566500  1
  Ni  Ni16  1  0.58898300  0.13909100  0.89566500  1
  Ni  Ni17  1  0.08898300  0.36090900  0.60433500  1
  Ni  Ni18  1  0.58898300  0.36090900  0.89566500  1
  Ni  Ni19  1  0.41101700  0.63909100  0.10433500  1
  Cu  Cu20  1  0.01020500  0.25000000  0.63305500  1
  Cu  Cu21  1  0.98979500  0.75000000  0.36694500  1
  Cu  Cu22  1  0.48979500  0.75000000  0.13305500  1
  Cu  Cu23  1  0.51020500  0.25000000  0.86694500  1
  Cu  Cu24  1  0.02545200  0.25000000  0.32262900  1
  Cu  Cu25  1  0.97454800  0.75000000  0.67737100  1
  Cu  Cu26  1  0.47454800  0.75000000  0.82262900  1
  Cu  Cu27  1  0.52545200  0.25000000  0.17737100  1
  C  C28  1  0.40008700  0.55434800  0.35111100  1
  C  C29  1  0.59991300  0.44565200  0.64888900  1
  C  C30  1  0.09991300  0.44565200  0.85111100  1
  C  C31  1  0.59991300  0.05434800  0.64888900  1
  C  C32  1  0.90008700  0.55434800  0.14888900  1
  C  C33  1  0.40008700  0.94565200  0.35111100  1
  C  C34  1  0.90008700  0.94565200  0.14888900  1
  C  C35  1  0.09991300  0.05434800  0.85111100  1
  C  C36  1  0.26380200  0.04955800  0.06321200  1
  C  C37  1  0.73619800  0.95044200  0.93678800  1
  C  C38  1  0.23619800  0.95044200  0.56321200  1
  C  C39  1  0.73619800  0.54955800  0.93678800  1
  C  C40  1  0.76380200  0.04955800  0.43678800  1
  C  C41  1  0.26380200  0.45044200  0.06321200  1
  C  C42  1  0.76380200  0.45044200  0.43678800  1
  C  C43  1  0.23619800  0.54955800  0.56321200  1
  C  C44  1  0.40878300  0.25000000  0.48010100  1
  C  C45  1  0.59121700  0.75000000  0.51989900  1
  C  C46  1  0.09121700  0.75000000  0.98010100  1
  C  C47  1  0.90878300  0.25000000  0.01989900  1
