# generated using pymatgen
data_Cu7Ni8C7
_symmetry_space_group_name_H-M   'P 1'
_cell_length_a   8.33778321
_cell_length_b   8.33778321
_cell_length_c   11.96887000
_cell_angle_alpha   90.00000000
_cell_angle_beta   90.00000000
_cell_angle_gamma   118.94144936
_symmetry_Int_Tables_number   1
_chemical_formula_structural   Cu7Ni8C7
_chemical_formula_sum   'Cu14 Ni16 C14'
_cell_volume   728.14742209
_cell_formula_units_Z   2
loop_
 _symmetry_equiv_pos_site_id
 _symmetry_equiv_pos_as_xyz
  1  'x, y, z'
loop_
 _atom_site_type_symbol
 _atom_site_label
 _atom_site_symmetry_multiplicity
 _atom_site_fract_x
 _atom_site_fract_y
 _atom_site_fract_z
 _atom_site_occupancy
  C  C0  1  0.96003300  0.30726300  0.65747400  1
  C  C1  1  0.69273700  0.03996800  0.34252600  1
  C  C2  1  0.46003200  0.80726300  0.84252600  1
  C  C3  1  0.19273700  0.53996800  0.15747400  1
  C  C4  1  0.80574500  0.76746800  0.56695900  1
  C  C5  1  0.23253200  0.19425500  0.43304100  1
  C  C6  1  0.30574500  0.26746800  0.93304100  1
  C  C7  1  0.73253200  0.69425500  0.06695900  1
  C  C8  1  0.20495300  0.79504700  0.50000000  1
  C  C9  1  0.70495300  0.29504700  0.00000000  1
  C  C10  1  0.47910100  0.35967800  0.66918300  1
  C  C11  1  0.64032200  0.52089900  0.33081700  1
  C  C12  1  0.97910100  0.85967800  0.83081700  1
  C  C13  1  0.14032200  0.02089900  0.16918300  1
  Ni  Ni14  1  0.32207200  0.30280900  0.58653400  1
  Ni  Ni15  1  0.69719100  0.67792800  0.41346600  1
  Ni  Ni16  1  0.82207200  0.80280900  0.91346600  1
  Ni  Ni17  1  0.19719100  0.17792800  0.08653400  1
  Ni  Ni18  1  0.66215900  0.51805100  0.63222300  1
  Ni  Ni19  1  0.48194900  0.33784100  0.36777700  1
  Ni  Ni20  1  0.16215900  0.01805100  0.86777700  1
  Ni  Ni21  1  0.98194900  0.83784100  0.13222300  1
  Ni  Ni22  1  0.92670000  0.88357300  0.71312600  1
  Ni  Ni23  1  0.11642700  0.07330000  0.28687400  1
  Ni  Ni24  1  0.42670000  0.38357300  0.78687400  1
  Ni  Ni25  1  0.61642700  0.57330000  0.21312600  1
  Ni  Ni26  1  0.00523500  0.69272000  0.52563300  1
  Ni  Ni27  1  0.30728000  0.99476500  0.47436700  1
  Ni  Ni28  1  0.50523500  0.19272000  0.97436700  1
  Ni  Ni29  1  0.80728000  0.49476500  0.02563300  1
  Cu  Cu30  1  0.65359300  0.87456600  0.58843200  1
  Cu  Cu31  1  0.12543400  0.34640700  0.41156800  1
  Cu  Cu32  1  0.15359300  0.37456600  0.91156800  1
  Cu  Cu33  1  0.62543400  0.84640700  0.08843200  1
  Cu  Cu34  1  0.52138600  0.19091500  0.67701300  1
  Cu  Cu35  1  0.80908500  0.47861400  0.32298700  1
  Cu  Cu36  1  0.02138600  0.69091500  0.82298700  1
  Cu  Cu37  1  0.30908500  0.97861400  0.17701300  1
  Cu  Cu38  1  0.98542000  0.01458000  0.50000000  1
  Cu  Cu39  1  0.48542000  0.51458000  0.00000000  1
  Cu  Cu40  1  0.30158400  0.74856000  0.59801100  1
  Cu  Cu41  1  0.25144000  0.69841600  0.40198900  1
  Cu  Cu42  1  0.80158400  0.24856000  0.90198900  1
  Cu  Cu43  1  0.75144000  0.19841600  0.09801100  1
