# generated using pymatgen
data_Cu3NiC2
_symmetry_space_group_name_H-M   'P 1'
_cell_length_a   7.90419165
_cell_length_b   7.90419165
_cell_length_c   10.16420076
_cell_angle_alpha   58.49954015
_cell_angle_beta   58.49954015
_cell_angle_gamma   54.89609876
_symmetry_Int_Tables_number   1
_chemical_formula_structural   Cu3NiC2
_chemical_formula_sum   'Cu6 Ni2 C4'
_cell_volume   419.92042886
_cell_formula_units_Z   2
loop_
 _symmetry_equiv_pos_site_id
 _symmetry_equiv_pos_as_xyz
  1  'x, y, z'
loop_
 _atom_site_type_symbol
 _atom_site_label
 _atom_site_symmetry_multiplicity
 _atom_site_fract_x
 _atom_site_fract_y
 _atom_site_fract_z
 _atom_site_occupancy
  C  C0  1  0.91995100  0.91995100  0.86005100  1
  C  C1  1  0.08004900  0.08004900  0.13994900  1
  C  C2  1  0.69787900  0.69787900  0.68640000  1
  C  C3  1  0.30212100  0.30212100  0.31360000  1
  Ni  Ni4  1  0.61148600  0.61148600  0.32765500  1
  Ni  Ni5  1  0.38851400  0.38851400  0.67234500  1
  Cu  Cu6  1  0.72292100  0.27707900  0.50000000  1
  Cu  Cu7  1  0.27707900  0.72292100  0.50000000  1
  Cu  Cu8  1  0.60896100  0.60896100  0.12429100  1
  Cu  Cu9  1  0.39103900  0.39103900  0.87570900  1
  Cu  Cu10  1  0.77853800  0.77853800  0.28078200  1
  Cu  Cu11  1  0.22146200  0.22146200  0.71921800  1
