# generated using pymatgen
data_Cu5NiC9
_symmetry_space_group_name_H-M   'P 1'
_cell_length_a   6.57983322
_cell_length_b   8.50743882
_cell_length_c   11.15036100
_cell_angle_alpha   90.00000000
_cell_angle_beta   90.00000000
_cell_angle_gamma   105.31605637
_symmetry_Int_Tables_number   1
_chemical_formula_structural   Cu5NiC9
_chemical_formula_sum   'Cu20 Ni4 C36'
_cell_volume   602.00128866
_cell_formula_units_Z   4
loop_
 _symmetry_equiv_pos_site_id
 _symmetry_equiv_pos_as_xyz
  1  'x, y, z'
loop_
 _atom_site_type_symbol
 _atom_site_label
 _atom_site_symmetry_multiplicity
 _atom_site_fract_x
 _atom_site_fract_y
 _atom_site_fract_z
 _atom_site_occupancy
  C  C0  1  0.47433900  0.05003100  0.80483400  1
  C  C1  1  0.97433900  0.55003100  0.69516600  1
  C  C2  1  0.52566100  0.94996900  0.19516600  1
  C  C3  1  0.02566100  0.44996900  0.30483400  1
  C  C4  1  0.30665400  0.12262100  0.57621900  1
  C  C5  1  0.80665400  0.62262100  0.92378100  1
  C  C6  1  0.69334600  0.87737900  0.42378100  1
  C  C7  1  0.19334600  0.37737900  0.07621900  1
  Ni  Ni8  1  0.62755400  0.20649200  0.38296000  1
  Ni  Ni9  1  0.12755400  0.70649200  0.11704000  1
  Ni  Ni10  1  0.37244600  0.79350800  0.61704000  1
  Ni  Ni11  1  0.87244600  0.29350800  0.88296000  1
  Cu  Cu12  1  0.95678400  0.13626300  0.53729500  1
  Cu  Cu13  1  0.45678400  0.63626300  0.96270500  1
  Cu  Cu14  1  0.04321600  0.86373700  0.46270500  1
  Cu  Cu15  1  0.54321600  0.36373700  0.03729500  1
  Cu  Cu16  1  0.04794800  0.24230000  0.65547500  1
  Cu  Cu17  1  0.54794800  0.74230000  0.84452500  1
  Cu  Cu18  1  0.95205200  0.75770000  0.34452500  1
  Cu  Cu19  1  0.45205200  0.25770000  0.15547500  1
  Cu  Cu20  1  0.55213100  0.27361900  0.68836100  1
  Cu  Cu21  1  0.05213100  0.77361900  0.81163900  1
  Cu  Cu22  1  0.44786900  0.72638100  0.31163900  1
  Cu  Cu23  1  0.94786900  0.22638100  0.18836100  1
  Cu  Cu24  1  0.20498500  0.12436400  0.91526000  1
  Cu  Cu25  1  0.70498500  0.62436400  0.58474000  1
  Cu  Cu26  1  0.79501500  0.87563600  0.08474000  1
  Cu  Cu27  1  0.29501500  0.37563600  0.41526000  1
  Cu  Cu28  1  0.28134600  0.98230900  0.98138300  1
  Cu  Cu29  1  0.78134600  0.48230900  0.51861700  1
  Cu  Cu30  1  0.71865400  0.01769100  0.01861700  1
  Cu  Cu31  1  0.21865400  0.51769100  0.48138300  1
  C  C32  1  0.07940500  0.16589500  0.59384500  1
  C  C33  1  0.57940500  0.66589500  0.90615500  1
  C  C34  1  0.92059500  0.83410500  0.40615500  1
  C  C35  1  0.42059500  0.33410500  0.09384500  1
  C  C36  1  0.27067800  0.03178100  0.90081800  1
  C  C37  1  0.77067800  0.53178100  0.59918200  1
  C  C38  1  0.72932200  0.96821900  0.09918200  1
  C  C39  1  0.22932200  0.46821900  0.40081800  1
  C  C40  1  0.45064700  0.16747200  0.69541400  1
  C  C41  1  0.95064700  0.66747200  0.80458600  1
  C  C42  1  0.54935300  0.83252800  0.30458600  1
  C  C43  1  0.04935300  0.33252800  0.19541400  1
  C  C44  1  0.69314600  0.10594000  0.88225800  1
  C  C45  1  0.19314600  0.60594000  0.61774200  1
  C  C46  1  0.30685400  0.89406000  0.11774200  1
  C  C47  1  0.80685400  0.39406000  0.38225800  1
  C  C48  1  0.44850600  0.86029600  0.75978700  1
  C  C49  1  0.94850600  0.36029600  0.74021300  1
  C  C50  1  0.55149400  0.13970400  0.24021300  1
  C  C51  1  0.05149400  0.63970400  0.25978700  1
  C  C52  1  0.41427700  0.23310300  0.46049700  1
  C  C53  1  0.91427700  0.73310300  0.03950300  1
  C  C54  1  0.58572300  0.76689700  0.53950300  1
  C  C55  1  0.08572300  0.26689700  0.96049700  1
  C  C56  1  0.25616700  0.92782700  0.54758800  1
  C  C57  1  0.75616700  0.42782700  0.95241200  1
  C  C58  1  0.74383300  0.07217300  0.45241200  1
  C  C59  1  0.24383300  0.57217300  0.04758800  1
