# generated using pymatgen
data_CuNi2C7
_symmetry_space_group_name_H-M   'P 1'
_cell_length_a   6.03023701
_cell_length_b   6.03023701
_cell_length_c   6.08487041
_cell_angle_alpha   59.67145368
_cell_angle_beta   59.67145368
_cell_angle_gamma   60.57396130
_symmetry_Int_Tables_number   1
_chemical_formula_structural   CuNi2C7
_chemical_formula_sum   'Cu1 Ni2 C7'
_cell_volume   156.33627881
_cell_formula_units_Z   1
loop_
 _symmetry_equiv_pos_site_id
 _symmetry_equiv_pos_as_xyz
  1  'x, y, z'
loop_
 _atom_site_type_symbol
 _atom_site_label
 _atom_site_symmetry_multiplicity
 _atom_site_fract_x
 _atom_site_fract_y
 _atom_site_fract_z
 _atom_site_occupancy
  Ni  Ni0  1  0.24890900  0.24890900  0.25554400  1
  Ni  Ni1  1  0.75109100  0.75109100  0.74445600  1
  Cu  Cu2  1  0.50000000  0.50000000  0.50000000  1
  C  C3  1  0.00000000  0.00000000  0.00000000  1
  C  C4  1  0.76851100  0.76851100  0.20216900  1
  C  C5  1  0.23148900  0.23148900  0.79783100  1
  C  C6  1  0.74463700  0.22122000  0.25505900  1
  C  C7  1  0.25536300  0.77878000  0.74494100  1
  C  C8  1  0.77878000  0.25536300  0.74494100  1
  C  C9  1  0.22122000  0.74463700  0.25505900  1
