# generated using pymatgen
data_Cu5Ni3C13
_symmetry_space_group_name_H-M   'P 1'
_cell_length_a   10.30365973
_cell_length_b   10.30365973
_cell_length_c   7.60669900
_cell_angle_alpha   90.00000000
_cell_angle_beta   90.00000000
_cell_angle_gamma   119.99999827
_symmetry_Int_Tables_number   1
_chemical_formula_structural   Cu5Ni3C13
_chemical_formula_sum   'Cu10 Ni6 C26'
_cell_volume   699.37465032
_cell_formula_units_Z   2
loop_
 _symmetry_equiv_pos_site_id
 _symmetry_equiv_pos_as_xyz
  1  'x, y, z'
loop_
 _atom_site_type_symbol
 _atom_site_label
 _atom_site_symmetry_multiplicity
 _atom_site_fract_x
 _atom_site_fract_y
 _atom_site_fract_z
 _atom_site_occupancy
  Ni  Ni0  1  0.39831200  0.02758200  0.25000000  1
  Ni  Ni1  1  0.60168800  0.97241800  0.75000000  1
  Ni  Ni2  1  0.97241800  0.37073000  0.25000000  1
  Ni  Ni3  1  0.02758200  0.62927000  0.75000000  1
  Ni  Ni4  1  0.62927000  0.60168800  0.25000000  1
  Ni  Ni5  1  0.37073000  0.39831200  0.75000000  1
  Cu  Cu6  1  0.33333300  0.66666700  0.00272900  1
  Cu  Cu7  1  0.66666700  0.33333300  0.99727100  1
  Cu  Cu8  1  0.66666700  0.33333300  0.50272900  1
  Cu  Cu9  1  0.33333300  0.66666700  0.49727100  1
  Cu  Cu10  1  0.24593800  0.24342400  0.25000000  1
  Cu  Cu11  1  0.75406200  0.75657600  0.75000000  1
  Cu  Cu12  1  0.75657600  0.00251400  0.25000000  1
  Cu  Cu13  1  0.24342400  0.99748600  0.75000000  1
  Cu  Cu14  1  0.99748600  0.75406200  0.25000000  1
  Cu  Cu15  1  0.00251400  0.24593800  0.75000000  1
  C  C16  1  0.16390300  0.49000900  0.25000000  1
  C  C17  1  0.83609700  0.50999100  0.75000000  1
  C  C18  1  0.50999100  0.67389400  0.25000000  1
  C  C19  1  0.49000900  0.32610600  0.75000000  1
  C  C20  1  0.32610600  0.83609700  0.25000000  1
  C  C21  1  0.67389400  0.16390300  0.75000000  1
  C  C22  1  0.59350700  0.12190900  0.25000000  1
  C  C23  1  0.40649300  0.87809100  0.75000000  1
  C  C24  1  0.87809100  0.47159800  0.25000000  1
  C  C25  1  0.12190900  0.52840200  0.75000000  1
  C  C26  1  0.52840200  0.40649300  0.25000000  1
  C  C27  1  0.47159800  0.59350700  0.75000000  1
  C  C28  1  0.34219600  0.08992000  0.06997700  1
  C  C29  1  0.65780400  0.91008000  0.93002300  1
  C  C30  1  0.91008000  0.25227500  0.06997700  1
  C  C31  1  0.65780400  0.91008000  0.56997700  1
  C  C32  1  0.08992000  0.74772500  0.93002300  1
  C  C33  1  0.34219600  0.08992000  0.43002300  1
  C  C34  1  0.74772500  0.65780400  0.06997700  1
  C  C35  1  0.08992000  0.74772500  0.56997700  1
  C  C36  1  0.25227500  0.34219600  0.93002300  1
  C  C37  1  0.91008000  0.25227500  0.43002300  1
  C  C38  1  0.25227500  0.34219600  0.56997700  1
  C  C39  1  0.74772500  0.65780400  0.43002300  1
  C  C40  1  0.00000000  0.00000000  0.25000000  1
  C  C41  1  0.00000000  0.00000000  0.75000000  1
