# generated using pymatgen
data_Cu11Ni9C11
_symmetry_space_group_name_H-M   'P 1'
_cell_length_a   4.93596409
_cell_length_b   4.87331522
_cell_length_c   15.44554791
_cell_angle_alpha   90.00000000
_cell_angle_beta   90.00000000
_cell_angle_gamma   96.21247239
_symmetry_Int_Tables_number   1
_chemical_formula_structural   Cu11Ni9C11
_chemical_formula_sum   'Cu11 Ni9 C11'
_cell_volume   369.35320503
_cell_formula_units_Z   1
loop_
 _symmetry_equiv_pos_site_id
 _symmetry_equiv_pos_as_xyz
  1  'x, y, z'
loop_
 _atom_site_type_symbol
 _atom_site_label
 _atom_site_symmetry_multiplicity
 _atom_site_fract_x
 _atom_site_fract_y
 _atom_site_fract_z
 _atom_site_occupancy
  C  C0  1  0.54068020  0.02493144  0.70000000  1
  C  C1  1  0.00116895  0.98090368  0.00175553  1
  C  C2  1  0.00520615  0.98605101  0.20000000  1
  C  C3  1  0.00116895  0.98090368  0.39824447  1
  C  C4  1  0.03912046  0.00476848  0.58924112  1
  C  C5  1  0.03912046  0.00476848  0.81075888  1
  C  C6  1  0.50427421  0.48657876  0.10302404  1
  C  C7  1  0.49942768  0.47367245  0.48877170  1
  C  C8  1  0.50427421  0.48657876  0.29697596  1
  C  C9  1  0.27236808  0.47735459  0.70000000  1
  C  C10  1  0.49942768  0.47367245  0.91122830  1
  Ni  Ni11  1  0.17052092  0.84591933  0.70000000  1
  Ni  Ni12  1  0.31174260  0.27181580  0.00614656  1
  Ni  Ni13  1  0.30803554  0.28118583  0.20000000  1
  Ni  Ni14  1  0.31174260  0.27181580  0.39385344  1
  Ni  Ni15  1  0.36779108  0.28564767  0.59183658  1
  Ni  Ni16  1  0.36779108  0.28564767  0.80816342  1
  Ni  Ni17  1  0.69638353  0.69161025  0.00278240  1
  Ni  Ni18  1  0.70064980  0.69010818  0.20000000  1
  Ni  Ni19  1  0.69638353  0.69161025  0.39721760  1
  Cu  Cu20  1  0.18502733  0.78712084  0.10239556  1
  Cu  Cu21  1  0.18502733  0.78712084  0.29760444  1
  Cu  Cu22  1  0.19235355  0.76312904  0.48870491  1
  Cu  Cu23  1  0.19235355  0.76312904  0.91129509  1
  Cu  Cu24  1  0.66631237  0.78125926  0.60031278  1
  Cu  Cu25  1  0.66631237  0.78125926  0.79968722  1
  Cu  Cu26  1  0.82203762  0.17889312  0.10225465  1
  Cu  Cu27  1  0.82928295  0.20954595  0.48805990  1
  Cu  Cu28  1  0.82203762  0.17889312  0.29774535  1
  Cu  Cu29  1  0.82928295  0.20954595  0.91194010  1
  Cu  Cu30  1  0.86991866  0.26733402  0.70000000  1
