# generated using pymatgen
data_CuNiC15
_symmetry_space_group_name_H-M   'P 1'
_cell_length_a   8.73553900
_cell_length_b   8.73553900
_cell_length_c   11.93550800
_cell_angle_alpha   90.00000000
_cell_angle_beta   90.00000000
_cell_angle_gamma   90.00000000
_symmetry_Int_Tables_number   1
_chemical_formula_structural   CuNiC15
_chemical_formula_sum   'Cu4 Ni4 C60'
_cell_volume   910.79433804
_cell_formula_units_Z   4
loop_
 _symmetry_equiv_pos_site_id
 _symmetry_equiv_pos_as_xyz
  1  'x, y, z'
loop_
 _atom_site_type_symbol
 _atom_site_label
 _atom_site_symmetry_multiplicity
 _atom_site_fract_x
 _atom_site_fract_y
 _atom_site_fract_z
 _atom_site_occupancy
  Ni  Ni0  1  0.23381100  0.76618900  0.50000000  1
  Ni  Ni1  1  0.76618900  0.23381100  0.50000000  1
  Ni  Ni2  1  0.26618900  0.26618900  0.00000000  1
  Ni  Ni3  1  0.73381100  0.73381100  0.00000000  1
  Cu  Cu4  1  0.64540500  0.64540500  0.50000000  1
  Cu  Cu5  1  0.35459500  0.35459500  0.50000000  1
  Cu  Cu6  1  0.85459500  0.14540500  0.00000000  1
  Cu  Cu7  1  0.14540500  0.85459500  0.00000000  1
  C  C8  1  0.93229000  0.72483500  0.37245400  1
  C  C9  1  0.06771000  0.27516500  0.37245400  1
  C  C10  1  0.56771000  0.22483500  0.87245400  1
  C  C11  1  0.43229000  0.77516500  0.87245400  1
  C  C12  1  0.06771000  0.27516500  0.62754600  1
  C  C13  1  0.93229000  0.72483500  0.62754600  1
  C  C14  1  0.43229000  0.77516500  0.12754600  1
  C  C15  1  0.56771000  0.22483500  0.12754600  1
  C  C16  1  0.72483500  0.93229000  0.37245400  1
  C  C17  1  0.27516500  0.06771000  0.37245400  1
  C  C18  1  0.22483500  0.56771000  0.87245400  1
  C  C19  1  0.77516500  0.43229000  0.87245400  1
  C  C20  1  0.27516500  0.06771000  0.62754600  1
  C  C21  1  0.72483500  0.93229000  0.62754600  1
  C  C22  1  0.77516500  0.43229000  0.12754600  1
  C  C23  1  0.22483500  0.56771000  0.12754600  1
  C  C24  1  0.14048600  0.53560000  0.32457900  1
  C  C25  1  0.85951400  0.46440000  0.32457900  1
  C  C26  1  0.35951400  0.03560000  0.82457900  1
  C  C27  1  0.64048600  0.96440000  0.82457900  1
  C  C28  1  0.85951400  0.46440000  0.67542100  1
  C  C29  1  0.14048600  0.53560000  0.67542100  1
  C  C30  1  0.64048600  0.96440000  0.17542100  1
  C  C31  1  0.35951400  0.03560000  0.17542100  1
  C  C32  1  0.53560000  0.14048600  0.32457900  1
  C  C33  1  0.46440000  0.85951400  0.32457900  1
  C  C34  1  0.03560000  0.35951400  0.82457900  1
  C  C35  1  0.96440000  0.64048600  0.82457900  1
  C  C36  1  0.46440000  0.85951400  0.67542100  1
  C  C37  1  0.53560000  0.14048600  0.67542100  1
  C  C38  1  0.96440000  0.64048600  0.17542100  1
  C  C39  1  0.03560000  0.35951400  0.17542100  1
  C  C40  1  0.18246100  0.81753900  0.25266900  1
  C  C41  1  0.81753900  0.18246100  0.25266900  1
  C  C42  1  0.31753900  0.31753900  0.75266900  1
  C  C43  1  0.68246100  0.68246100  0.75266900  1
  C  C44  1  0.81753900  0.18246100  0.74733100  1
  C  C45  1  0.18246100  0.81753900  0.74733100  1
  C  C46  1  0.68246100  0.68246100  0.24733100  1
  C  C47  1  0.31753900  0.31753900  0.24733100  1
  C  C48  1  0.40299200  0.59700800  0.30073300  1
  C  C49  1  0.59700800  0.40299200  0.30073300  1
  C  C50  1  0.09700800  0.09700800  0.80073300  1
  C  C51  1  0.90299200  0.90299200  0.80073300  1
  C  C52  1  0.59700800  0.40299200  0.69926700  1
  C  C53  1  0.40299200  0.59700800  0.69926700  1
  C  C54  1  0.90299200  0.90299200  0.19926700  1
  C  C55  1  0.09700800  0.09700800  0.19926700  1
  C  C56  1  0.50000000  0.50000000  0.11724200  1
  C  C57  1  0.00000000  0.00000000  0.61724200  1
  C  C58  1  0.50000000  0.50000000  0.88275800  1
  C  C59  1  0.00000000  0.00000000  0.38275800  1
  C  C60  1  0.00000000  0.50000000  0.50000000  1
  C  C61  1  0.50000000  0.00000000  0.00000000  1
  C  C62  1  0.50000000  0.00000000  0.50000000  1
  C  C63  1  0.00000000  0.50000000  0.00000000  1
  C  C64  1  0.87684600  0.87684600  0.50000000  1
  C  C65  1  0.12315400  0.12315400  0.50000000  1
  C  C66  1  0.62315400  0.37684600  0.00000000  1
  C  C67  1  0.37684600  0.62315400  0.00000000  1
