# generated using pymatgen
data_Cu(Ni2C5)2
_symmetry_space_group_name_H-M   'P 1'
_cell_length_a   13.94176885
_cell_length_b   13.94176885
_cell_length_c   13.94176885
_cell_angle_alpha   164.14478367
_cell_angle_beta   164.14478367
_cell_angle_gamma   22.49539348
_symmetry_Int_Tables_number   1
_chemical_formula_structural   Cu(Ni2C5)2
_chemical_formula_sum   'Cu1 Ni4 C10'
_cell_volume   202.23528688
_cell_formula_units_Z   1
loop_
 _symmetry_equiv_pos_site_id
 _symmetry_equiv_pos_as_xyz
  1  'x, y, z'
loop_
 _atom_site_type_symbol
 _atom_site_label
 _atom_site_symmetry_multiplicity
 _atom_site_fract_x
 _atom_site_fract_y
 _atom_site_fract_z
 _atom_site_occupancy
  Ni  Ni0  1  0.39818100  0.39818100  0.00000000  1
  Ni  Ni1  1  0.79943800  0.79943800  0.00000000  1
  Ni  Ni2  1  0.20056200  0.20056200  0.00000000  1
  Ni  Ni3  1  0.60181900  0.60181900  0.00000000  1
  Cu  Cu4  1  0.00000000  0.00000000  0.00000000  1
  C  C5  1  0.04686100  0.54686100  0.50000000  1
  C  C6  1  0.25000000  0.75000000  0.50000000  1
  C  C7  1  0.64940800  0.14940800  0.50000000  1
  C  C8  1  0.45313900  0.95313900  0.50000000  1
  C  C9  1  0.85059200  0.35059200  0.50000000  1
  C  C10  1  0.95313900  0.45313900  0.50000000  1
  C  C11  1  0.14940800  0.64940800  0.50000000  1
  C  C12  1  0.54686100  0.04686100  0.50000000  1
  C  C13  1  0.35059200  0.85059200  0.50000000  1
  C  C14  1  0.75000000  0.25000000  0.50000000  1
