# generated using pymatgen
data_Cu24NiC21
_symmetry_space_group_name_H-M   'P 1'
_cell_length_a   8.98899100
_cell_length_b   8.98899100
_cell_length_c   8.98899100
_cell_angle_alpha   90.00000000
_cell_angle_beta   90.00000000
_cell_angle_gamma   90.00000000
_symmetry_Int_Tables_number   1
_chemical_formula_structural   Cu24NiC21
_chemical_formula_sum   'Cu24 Ni1 C21'
_cell_volume   726.32808401
_cell_formula_units_Z   1
loop_
 _symmetry_equiv_pos_site_id
 _symmetry_equiv_pos_as_xyz
  1  'x, y, z'
loop_
 _atom_site_type_symbol
 _atom_site_label
 _atom_site_symmetry_multiplicity
 _atom_site_fract_x
 _atom_site_fract_y
 _atom_site_fract_z
 _atom_site_occupancy
  C  C0  1  0.31891100  0.68108900  0.31891100  1
  C  C1  1  0.68108900  0.31891100  0.31891100  1
  C  C2  1  0.31891100  0.31891100  0.68108900  1
  C  C3  1  0.68108900  0.68108900  0.68108900  1
  C  C4  1  0.81725400  0.81725400  0.18274600  1
  C  C5  1  0.18274600  0.81725400  0.81725400  1
  C  C6  1  0.81725400  0.18274600  0.81725400  1
  C  C7  1  0.18274600  0.18274600  0.18274600  1
  C  C8  1  0.50000000  0.00000000  0.24999100  1
  C  C9  1  0.00000000  0.75000900  0.50000000  1
  C  C10  1  0.24999100  0.50000000  0.00000000  1
  C  C11  1  0.00000000  0.24999100  0.50000000  1
  C  C12  1  0.75000900  0.50000000  0.00000000  1
  C  C13  1  0.50000000  0.00000000  0.75000900  1
  C  C14  1  0.00000000  0.50000000  0.25001400  1
  C  C15  1  0.50000000  0.74998600  0.00000000  1
  C  C16  1  0.25001400  0.00000000  0.50000000  1
  C  C17  1  0.50000000  0.25001400  0.00000000  1
  C  C18  1  0.74998600  0.00000000  0.50000000  1
  C  C19  1  0.00000000  0.50000000  0.74998600  1
  C  C20  1  0.00000000  0.00000000  0.00000000  1
  Ni  Ni21  1  0.50000000  0.50000000  0.50000000  1
  Cu  Cu22  1  0.35001600  0.93980600  0.35984900  1
  Cu  Cu23  1  0.06019400  0.64015100  0.35001600  1
  Cu  Cu24  1  0.35984900  0.64998400  0.06019400  1
  Cu  Cu25  1  0.64998400  0.06019400  0.35984900  1
  Cu  Cu26  1  0.93980600  0.35984900  0.35001600  1
  Cu  Cu27  1  0.64015100  0.35001600  0.06019400  1
  Cu  Cu28  1  0.35001600  0.06019400  0.64015100  1
  Cu  Cu29  1  0.06019400  0.35984900  0.64998400  1
  Cu  Cu30  1  0.35984900  0.35001600  0.93980600  1
  Cu  Cu31  1  0.64998400  0.93980600  0.64015100  1
  Cu  Cu32  1  0.93980600  0.64015100  0.64998400  1
  Cu  Cu33  1  0.64015100  0.64998400  0.93980600  1
  Cu  Cu34  1  0.84998000  0.85980500  0.43987300  1
  Cu  Cu35  1  0.56012700  0.84998000  0.14019500  1
  Cu  Cu36  1  0.85980500  0.56012700  0.15002000  1
  Cu  Cu37  1  0.15002000  0.85980500  0.56012700  1
  Cu  Cu38  1  0.43987300  0.84998000  0.85980500  1
  Cu  Cu39  1  0.14019500  0.56012700  0.84998000  1
  Cu  Cu40  1  0.84998000  0.14019500  0.56012700  1
  Cu  Cu41  1  0.56012700  0.15002000  0.85980500  1
  Cu  Cu42  1  0.85980500  0.43987300  0.84998000  1
  Cu  Cu43  1  0.15002000  0.14019500  0.43987300  1
  Cu  Cu44  1  0.43987300  0.15002000  0.14019500  1
  Cu  Cu45  1  0.14019500  0.43987300  0.15002000  1
