# generated using pymatgen
data_Cu2Ni2C9
_symmetry_space_group_name_H-M   'P 1'
_cell_length_a   5.01003246
_cell_length_b   17.64930400
_cell_length_c   10.81854015
_cell_angle_alpha   90.00000000
_cell_angle_beta   94.72321432
_cell_angle_gamma   90.00000000
_symmetry_Int_Tables_number   1
_chemical_formula_structural   Cu2Ni2C9
_chemical_formula_sum   'Cu8 Ni8 C36'
_cell_volume   953.36555523
_cell_formula_units_Z   4
loop_
 _symmetry_equiv_pos_site_id
 _symmetry_equiv_pos_as_xyz
  1  'x, y, z'
loop_
 _atom_site_type_symbol
 _atom_site_label
 _atom_site_symmetry_multiplicity
 _atom_site_fract_x
 _atom_site_fract_y
 _atom_site_fract_z
 _atom_site_occupancy
  C  C0  1  0.83642400  0.40108900  0.93757500  1
  C  C1  1  0.16357600  0.90108900  0.56242500  1
  C  C2  1  0.16357600  0.59891100  0.06242500  1
  C  C3  1  0.83642400  0.09891100  0.43757500  1
  C  C4  1  0.89692100  0.18516800  0.15207100  1
  C  C5  1  0.10307900  0.68516800  0.34792900  1
  C  C6  1  0.10307900  0.81483200  0.84792900  1
  C  C7  1  0.89692100  0.31483200  0.65207100  1
  Ni  Ni8  1  0.37744000  0.32459800  0.14122300  1
  Ni  Ni9  1  0.62256000  0.82459800  0.35877700  1
  Ni  Ni10  1  0.62256000  0.67540200  0.85877700  1
  Ni  Ni11  1  0.37744000  0.17540200  0.64122300  1
  Ni  Ni12  1  0.28052000  0.04020800  0.23526200  1
  Ni  Ni13  1  0.71948000  0.54020800  0.26473800  1
  Ni  Ni14  1  0.71948000  0.95979200  0.76473800  1
  Ni  Ni15  1  0.28052000  0.45979200  0.73526200  1
  Cu  Cu16  1  0.49347600  0.38881400  0.25981900  1
  Cu  Cu17  1  0.50652400  0.88881400  0.24018100  1
  Cu  Cu18  1  0.50652400  0.61118600  0.74018100  1
  Cu  Cu19  1  0.49347600  0.11118600  0.75981900  1
  Cu  Cu20  1  0.38680200  0.94690900  0.20676800  1
  Cu  Cu21  1  0.61319800  0.44690800  0.29323200  1
  Cu  Cu22  1  0.61319800  0.05309100  0.79323200  1
  Cu  Cu23  1  0.38680200  0.55309100  0.70676800  1
  C  C24  1  0.23189300  0.25495200  0.19060300  1
  C  C25  1  0.76810700  0.75495200  0.30939700  1
  C  C26  1  0.76810700  0.74504800  0.80939700  1
  C  C27  1  0.23189300  0.24504800  0.69060300  1
  C  C28  1  0.19883100  0.37381600  0.05292100  1
  C  C29  1  0.80116900  0.87381600  0.44707900  1
  C  C30  1  0.80116900  0.62618400  0.94707900  1
  C  C31  1  0.19883100  0.12618400  0.55292100  1
  C  C32  1  0.63800300  0.30006000  0.08705600  1
  C  C33  1  0.36199700  0.80006000  0.41294300  1
  C  C34  1  0.36199700  0.69994000  0.91294300  1
  C  C35  1  0.63800300  0.19994000  0.58705700  1
  C  C36  1  0.11305700  0.02930900  0.34872900  1
  C  C37  1  0.88694300  0.52930900  0.15127100  1
  C  C38  1  0.88694300  0.97069100  0.65127100  1
  C  C39  1  0.11305700  0.47069100  0.84872900  1
  C  C40  1  0.11123000  0.07837500  0.12729100  1
  C  C41  1  0.88877000  0.57837500  0.37270900  1
  C  C42  1  0.88877000  0.92162500  0.87270900  1
  C  C43  1  0.11123000  0.42162500  0.62729100  1
  C  C44  1  0.54247500  0.08408300  0.26436900  1
  C  C45  1  0.45752500  0.58408300  0.23563100  1
  C  C46  1  0.45752500  0.91591700  0.73563100  1
  C  C47  1  0.54247500  0.41591700  0.76436900  1
  C  C48  1  0.91190000  0.31270200  0.83457000  1
  C  C49  1  0.08810000  0.81270200  0.66543000  1
  C  C50  1  0.08810000  0.68729800  0.16543000  1
  C  C51  1  0.91190000  0.18729800  0.33457000  1
