# generated using pymatgen
data_Cu5(Ni3C)2
_symmetry_space_group_name_H-M   'P 1'
_cell_length_a   12.49120000
_cell_length_b   6.06811200
_cell_length_c   17.61632800
_cell_angle_alpha   90.00000000
_cell_angle_beta   90.00000000
_cell_angle_gamma   90.00000000
_symmetry_Int_Tables_number   1
_chemical_formula_structural   Cu5(Ni3C)2
_chemical_formula_sum   'Cu20 Ni24 C8'
_cell_volume   1335.28244057
_cell_formula_units_Z   4
loop_
 _symmetry_equiv_pos_site_id
 _symmetry_equiv_pos_as_xyz
  1  'x, y, z'
loop_
 _atom_site_type_symbol
 _atom_site_label
 _atom_site_symmetry_multiplicity
 _atom_site_fract_x
 _atom_site_fract_y
 _atom_site_fract_z
 _atom_site_occupancy
  C  C0  1  0.01768400  0.53683300  0.75314300  1
  C  C1  1  0.98231600  0.46316700  0.25314300  1
  C  C2  1  0.48231600  0.53683300  0.25314300  1
  C  C3  1  0.51768400  0.46316700  0.75314300  1
  C  C4  1  0.74487400  0.91885700  0.49977000  1
  C  C5  1  0.25512600  0.08114300  0.99977000  1
  C  C6  1  0.75512600  0.91885700  0.99977000  1
  C  C7  1  0.24487400  0.08114300  0.49977000  1
  Ni  Ni8  1  0.02788400  0.91478200  0.74382800  1
  Ni  Ni9  1  0.97211600  0.08521800  0.24382800  1
  Ni  Ni10  1  0.47211600  0.91478200  0.24382800  1
  Ni  Ni11  1  0.52788400  0.08521800  0.74382800  1
  Ni  Ni12  1  0.19601000  0.44614900  0.75531500  1
  Ni  Ni13  1  0.80399000  0.55385100  0.25531500  1
  Ni  Ni14  1  0.30399000  0.44614900  0.25531500  1
  Ni  Ni15  1  0.69601000  0.55385100  0.75531500  1
  Ni  Ni16  1  0.94510800  0.44050700  0.86079400  1
  Ni  Ni17  1  0.05489200  0.55949300  0.36079400  1
  Ni  Ni18  1  0.55489200  0.44050700  0.36079400  1
  Ni  Ni19  1  0.44510800  0.55949300  0.86079400  1
  Ni  Ni20  1  0.94495000  0.41738800  0.64836000  1
  Ni  Ni21  1  0.05505000  0.58261200  0.14836000  1
  Ni  Ni22  1  0.55505000  0.41738800  0.14836000  1
  Ni  Ni23  1  0.44495000  0.58261200  0.64836000  1
  Ni  Ni24  1  0.67037400  0.21374000  0.55829700  1
  Ni  Ni25  1  0.32962600  0.78626000  0.05829700  1
  Ni  Ni26  1  0.82962600  0.21374000  0.05829700  1
  Ni  Ni27  1  0.17037400  0.78626000  0.55829700  1
  Ni  Ni28  1  0.87317200  0.11842600  0.44124300  1
  Ni  Ni29  1  0.12682800  0.88157400  0.94124300  1
  Ni  Ni30  1  0.62682800  0.11842600  0.94124300  1
  Ni  Ni31  1  0.37317200  0.88157400  0.44124300  1
  Cu  Cu32  1  0.20829800  0.82596000  0.74360800  1
  Cu  Cu33  1  0.79170200  0.17404000  0.24360800  1
  Cu  Cu34  1  0.29170200  0.82596000  0.24360800  1
  Cu  Cu35  1  0.70829800  0.17404000  0.74360800  1
  Cu  Cu36  1  0.77941500  0.90929900  0.59982000  1
  Cu  Cu37  1  0.22058500  0.09070100  0.09982000  1
  Cu  Cu38  1  0.72058500  0.90929900  0.09982000  1
  Cu  Cu39  1  0.27941500  0.09070100  0.59982000  1
  Cu  Cu40  1  0.64339500  0.73529700  0.52938600  1
  Cu  Cu41  1  0.35660500  0.26470300  0.02938600  1
  Cu  Cu42  1  0.85660500  0.73529700  0.02938600  1
  Cu  Cu43  1  0.14339500  0.26470300  0.52938600  1
  Cu  Cu44  1  0.71178500  0.94279500  0.39947700  1
  Cu  Cu45  1  0.28821500  0.05720500  0.89947700  1
  Cu  Cu46  1  0.78821500  0.94279500  0.89947700  1
  Cu  Cu47  1  0.21178500  0.05720500  0.39947700  1
  Cu  Cu48  1  0.79774600  0.66374100  0.46985700  1
  Cu  Cu49  1  0.20225400  0.33625900  0.96985700  1
  Cu  Cu50  1  0.70225400  0.66374100  0.96985700  1
  Cu  Cu51  1  0.29774600  0.33625900  0.46985700  1
