# generated using pymatgen
data_Cu2NiC4
_symmetry_space_group_name_H-M   'P 1'
_cell_length_a   3.18526600
_cell_length_b   9.82492100
_cell_length_c   10.82439900
_cell_angle_alpha   90.00000000
_cell_angle_beta   90.00000000
_cell_angle_gamma   90.00000000
_symmetry_Int_Tables_number   1
_chemical_formula_structural   Cu2NiC4
_chemical_formula_sum   'Cu8 Ni4 C16'
_cell_volume   338.74942397
_cell_formula_units_Z   4
loop_
 _symmetry_equiv_pos_site_id
 _symmetry_equiv_pos_as_xyz
  1  'x, y, z'
loop_
 _atom_site_type_symbol
 _atom_site_label
 _atom_site_symmetry_multiplicity
 _atom_site_fract_x
 _atom_site_fract_y
 _atom_site_fract_z
 _atom_site_occupancy
  Ni  Ni0  1  0.34415800  0.75000000  0.85141600  1
  Ni  Ni1  1  0.34415800  0.25000000  0.64858400  1
  Ni  Ni2  1  0.65584200  0.75000000  0.35141600  1
  Ni  Ni3  1  0.65584200  0.25000000  0.14858400  1
  Cu  Cu4  1  0.83451000  0.57151600  0.61537800  1
  Cu  Cu5  1  0.83451000  0.07151600  0.88462200  1
  Cu  Cu6  1  0.16549000  0.07151600  0.38462200  1
  Cu  Cu7  1  0.83451000  0.42848400  0.88462200  1
  Cu  Cu8  1  0.16549000  0.42848400  0.38462200  1
  Cu  Cu9  1  0.83451000  0.92848400  0.61537800  1
  Cu  Cu10  1  0.16549000  0.92848400  0.11537800  1
  Cu  Cu11  1  0.16549000  0.57151600  0.11537800  1
  C  C12  1  0.13273700  0.87496600  0.45023300  1
  C  C13  1  0.86726300  0.12503400  0.54976700  1
  C  C14  1  0.46359100  0.00000000  0.75000000  1
  C  C15  1  0.86726300  0.87496600  0.95023300  1
  C  C16  1  0.86726300  0.62503400  0.95023300  1
  C  C17  1  0.83609600  0.25000000  0.78478200  1
  C  C18  1  0.13273700  0.12503400  0.04976700  1
  C  C19  1  0.16390400  0.25000000  0.28478200  1
  C  C20  1  0.46359100  0.50000000  0.75000000  1
  C  C21  1  0.53640900  0.00000000  0.25000000  1
  C  C22  1  0.13273700  0.62503400  0.45023300  1
  C  C23  1  0.16390400  0.75000000  0.21521800  1
  C  C24  1  0.83609600  0.75000000  0.71521800  1
  C  C25  1  0.53640900  0.50000000  0.25000000  1
  C  C26  1  0.13273700  0.37496600  0.04976700  1
  C  C27  1  0.86726300  0.37496600  0.54976700  1
