# generated using pymatgen
data_Cu3NiC6
_symmetry_space_group_name_H-M   'P 1'
_cell_length_a   9.64874959
_cell_length_b   9.64874959
_cell_length_c   9.64875004
_cell_angle_alpha   112.71662046
_cell_angle_beta   112.71662046
_cell_angle_gamma   112.71661657
_symmetry_Int_Tables_number   1
_chemical_formula_structural   Cu3NiC6
_chemical_formula_sum   'Cu18 Ni6 C36'
_cell_volume   594.11049151
_cell_formula_units_Z   6
loop_
 _symmetry_equiv_pos_site_id
 _symmetry_equiv_pos_as_xyz
  1  'x, y, z'
loop_
 _atom_site_type_symbol
 _atom_site_label
 _atom_site_symmetry_multiplicity
 _atom_site_fract_x
 _atom_site_fract_y
 _atom_site_fract_z
 _atom_site_occupancy
  C  C0  1  0.07505900  0.79205100  0.54088700  1
  C  C1  1  0.54088700  0.07505900  0.79205100  1
  C  C2  1  0.79205100  0.54088700  0.07505900  1
  C  C3  1  0.92494100  0.20794900  0.45911300  1
  C  C4  1  0.45911300  0.92494100  0.20794900  1
  C  C5  1  0.20794900  0.45911300  0.92494100  1
  Ni  Ni6  1  0.31073200  0.67280100  0.75336100  1
  Ni  Ni7  1  0.75336100  0.31073200  0.67280100  1
  Ni  Ni8  1  0.67280100  0.75336100  0.31073200  1
  Ni  Ni9  1  0.68926800  0.32719900  0.24663900  1
  Ni  Ni10  1  0.24663900  0.68926800  0.32719900  1
  Ni  Ni11  1  0.32719900  0.24663900  0.68926800  1
  Cu  Cu12  1  0.52073100  0.61692100  0.82376000  1
  Cu  Cu13  1  0.82376000  0.52073100  0.61692100  1
  Cu  Cu14  1  0.61692100  0.82376000  0.52073100  1
  Cu  Cu15  1  0.47926900  0.38307900  0.17624000  1
  Cu  Cu16  1  0.17624000  0.47926900  0.38307900  1
  Cu  Cu17  1  0.38307900  0.17624000  0.47926900  1
  Cu  Cu18  1  0.13058500  0.04070900  0.83951500  1
  Cu  Cu19  1  0.83951500  0.13058500  0.04070900  1
  Cu  Cu20  1  0.04070900  0.83951500  0.13058500  1
  Cu  Cu21  1  0.86941500  0.95929100  0.16048500  1
  Cu  Cu22  1  0.16048500  0.86941500  0.95929100  1
  Cu  Cu23  1  0.95929100  0.16048500  0.86941500  1
  Cu  Cu24  1  0.91253400  0.85840800  0.67743100  1
  Cu  Cu25  1  0.67743100  0.91253400  0.85840800  1
  Cu  Cu26  1  0.85840800  0.67743100  0.91253400  1
  Cu  Cu27  1  0.08746600  0.14159200  0.32256900  1
  Cu  Cu28  1  0.32256900  0.08746600  0.14159200  1
  Cu  Cu29  1  0.14159200  0.32256900  0.08746600  1
  C  C30  1  0.14677300  0.47334100  0.55406400  1
  C  C31  1  0.55406400  0.14677300  0.47334100  1
  C  C32  1  0.47334100  0.55406400  0.14677300  1
  C  C33  1  0.85322700  0.52665900  0.44593600  1
  C  C34  1  0.44593600  0.85322700  0.52665900  1
  C  C35  1  0.52665900  0.44593600  0.85322700  1
  C  C36  1  0.30239200  0.68282800  0.91451300  1
  C  C37  1  0.91451300  0.30239200  0.68282800  1
  C  C38  1  0.68282800  0.91451300  0.30239200  1
  C  C39  1  0.69760800  0.31717200  0.08548700  1
  C  C40  1  0.08548700  0.69760800  0.31717200  1
  C  C41  1  0.31717200  0.08548700  0.69760800  1
  C  C42  1  0.32530700  0.83571900  0.75117100  1
  C  C43  1  0.75117100  0.32530700  0.83571900  1
  C  C44  1  0.83571900  0.75117100  0.32530700  1
  C  C45  1  0.67469300  0.16428100  0.24882900  1
  C  C46  1  0.24882900  0.67469300  0.16428100  1
  C  C47  1  0.16428100  0.24882900  0.67469300  1
  C  C48  1  0.51179400  0.71291200  0.81189100  1
  C  C49  1  0.81189100  0.51179400  0.71291200  1
  C  C50  1  0.71291200  0.81189100  0.51179400  1
  C  C51  1  0.48820600  0.28708800  0.18810900  1
  C  C52  1  0.18810900  0.48820600  0.28708800  1
  C  C53  1  0.28708800  0.18810900  0.48820600  1
  C  C54  1  0.04492100  0.89831900  0.75292600  1
  C  C55  1  0.75292600  0.04492100  0.89831900  1
  C  C56  1  0.89831900  0.75292600  0.04492100  1
  C  C57  1  0.95507900  0.10168100  0.24707400  1
  C  C58  1  0.24707400  0.95507900  0.10168100  1
  C  C59  1  0.10168100  0.24707400  0.95507900  1
