# generated using pymatgen
data_Cu10Ni2C5
_symmetry_space_group_name_H-M   'P 1'
_cell_length_a   13.68044800
_cell_length_b   7.05453800
_cell_length_c   12.09039848
_cell_angle_alpha   60.58665062
_cell_angle_beta   90.00000000
_cell_angle_gamma   90.00000000
_symmetry_Int_Tables_number   1
_chemical_formula_structural   Cu10Ni2C5
_chemical_formula_sum   'Cu20 Ni4 C10'
_cell_volume   1016.42943149
_cell_formula_units_Z   2
loop_
 _symmetry_equiv_pos_site_id
 _symmetry_equiv_pos_as_xyz
  1  'x, y, z'
loop_
 _atom_site_type_symbol
 _atom_site_label
 _atom_site_symmetry_multiplicity
 _atom_site_fract_x
 _atom_site_fract_y
 _atom_site_fract_z
 _atom_site_occupancy
  C  C0  1  0.33013900  0.45789000  0.16225200  1
  C  C1  1  0.16986100  0.45789000  0.66225200  1
  C  C2  1  0.66986100  0.54211000  0.83774800  1
  C  C3  1  0.83013900  0.54211000  0.33774800  1
  C  C4  1  0.00000000  0.50000000  0.00000000  1
  C  C5  1  0.50000000  0.50000000  0.50000000  1
  C  C6  1  0.05378000  0.10993800  0.34746600  1
  C  C7  1  0.44622000  0.10993800  0.84746600  1
  C  C8  1  0.94622000  0.89006200  0.65253400  1
  C  C9  1  0.55378000  0.89006200  0.15253400  1
  Ni  Ni10  1  0.14676500  0.00944300  0.09387700  1
  Ni  Ni11  1  0.35323500  0.00944300  0.59387700  1
  Ni  Ni12  1  0.85323500  0.99055700  0.90612300  1
  Ni  Ni13  1  0.64676500  0.99055700  0.40612300  1
  Cu  Cu14  1  0.17438000  0.40534500  0.96330300  1
  Cu  Cu15  1  0.32562000  0.40534500  0.46330300  1
  Cu  Cu16  1  0.82562000  0.59465500  0.03669700  1
  Cu  Cu17  1  0.67438000  0.59465500  0.53669700  1
  Cu  Cu18  1  0.97409200  0.07554600  0.12967000  1
  Cu  Cu19  1  0.52590800  0.07554600  0.62967000  1
  Cu  Cu20  1  0.02590800  0.92445400  0.87033000  1
  Cu  Cu21  1  0.47409200  0.92445400  0.37033000  1
  Cu  Cu22  1  0.94521500  0.50079400  0.79265100  1
  Cu  Cu23  1  0.55478500  0.50079400  0.29265100  1
  Cu  Cu24  1  0.05478500  0.49920600  0.20734900  1
  Cu  Cu25  1  0.44521500  0.49920600  0.70734900  1
  Cu  Cu26  1  0.19584800  0.93798100  0.31408400  1
  Cu  Cu27  1  0.30415200  0.93798100  0.81408400  1
  Cu  Cu28  1  0.80415200  0.06201900  0.68591600  1
  Cu  Cu29  1  0.69584800  0.06201900  0.18591600  1
  Cu  Cu30  1  0.89904600  0.92386400  0.44155800  1
  Cu  Cu31  1  0.60095400  0.92386400  0.94155800  1
  Cu  Cu32  1  0.10095400  0.07613600  0.55844200  1
  Cu  Cu33  1  0.39904600  0.07613600  0.05844200  1
