# generated using pymatgen
data_Cu2Ni6C25
_symmetry_space_group_name_H-M   'P 1'
_cell_length_a   7.44694215
_cell_length_b   7.32572218
_cell_length_c   9.46477879
_cell_angle_alpha   74.76764666
_cell_angle_beta   76.01260775
_cell_angle_gamma   75.60583054
_symmetry_Int_Tables_number   1
_chemical_formula_structural   Cu2Ni6C25
_chemical_formula_sum   'Cu2 Ni6 C25'
_cell_volume   473.89097197
_cell_formula_units_Z   1
loop_
 _symmetry_equiv_pos_site_id
 _symmetry_equiv_pos_as_xyz
  1  'x, y, z'
loop_
 _atom_site_type_symbol
 _atom_site_label
 _atom_site_symmetry_multiplicity
 _atom_site_fract_x
 _atom_site_fract_y
 _atom_site_fract_z
 _atom_site_occupancy
  C  C0  1  0.42353900  0.54638600  0.27903900  1
  C  C1  1  0.50054800  0.45189700  0.80640700  1
  C  C2  1  0.89066400  0.10881300  0.53167900  1
  C  C3  1  0.97896800  0.50900700  0.98639200  1
  C  C4  1  0.48554300  0.01053400  0.49883700  1
  Ni  Ni5  1  0.28065400  0.14365100  0.18421900  1
  Ni  Ni6  1  0.14422500  0.29268400  0.68075800  1
  Ni  Ni7  1  0.15228100  0.88053900  0.78936300  1
  Ni  Ni8  1  0.87374900  0.11694700  0.22417100  1
  Ni  Ni9  1  0.81785600  0.71065100  0.30552100  1
  Ni  Ni10  1  0.73061000  0.89127800  0.80440900  1
  Cu  Cu11  1  0.98291900  0.51526400  0.46972700  1
  Cu  Cu12  1  0.49661000  0.98613300  0.02843700  1
  C  C13  1  0.07456800  0.08439000  0.27801600  1
  C  C14  1  0.98864200  0.30192200  0.59015500  1
  C  C15  1  0.24181300  0.32560900  0.06730400  1
  C  C16  1  0.14203800  0.09166500  0.81197200  1
  C  C17  1  0.36806600  0.16159700  0.30677600  1
  C  C18  1  0.09696300  0.44971700  0.76677200  1
  C  C19  1  0.33942000  0.27474100  0.58184400  1
  C  C20  1  0.14276700  0.73779300  0.93552300  1
  C  C21  1  0.38193900  0.96042300  0.11899300  1
  C  C22  1  0.74095200  0.15766200  0.36873300  1
  C  C23  1  0.31071200  0.83420500  0.66235600  1
  C  C24  1  0.64821900  0.03289400  0.90599800  1
  C  C25  1  0.85403500  0.25889400  0.08187600  1
  C  C26  1  0.63198000  0.75099600  0.41142000  1
  C  C27  1  0.82366000  0.58468500  0.20158100  1
  C  C28  1  0.67315400  0.97106000  0.65016400  1
  C  C29  1  0.86901300  0.91248400  0.20023400  1
  C  C30  1  0.73073700  0.68107700  0.87551500  1
  C  C31  1  0.99195200  0.63840100  0.39077500  1
  C  C32  1  0.95972100  0.91171300  0.72646100  1
