# generated using pymatgen
data_Cu4NiC
_symmetry_space_group_name_H-M   'P 1'
_cell_length_a   4.87233708
_cell_length_b   4.87233708
_cell_length_c   7.64881000
_cell_angle_alpha   90.00000000
_cell_angle_beta   90.00000000
_cell_angle_gamma   120.00001468
_symmetry_Int_Tables_number   1
_chemical_formula_structural   Cu4NiC
_chemical_formula_sum   'Cu8 Ni2 C2'
_cell_volume   157.25305560
_cell_formula_units_Z   2
loop_
 _symmetry_equiv_pos_site_id
 _symmetry_equiv_pos_as_xyz
  1  'x, y, z'
loop_
 _atom_site_type_symbol
 _atom_site_label
 _atom_site_symmetry_multiplicity
 _atom_site_fract_x
 _atom_site_fract_y
 _atom_site_fract_z
 _atom_site_occupancy
  Ni  Ni0  1  0.33333300  0.66666700  0.43263900  1
  Ni  Ni1  1  0.66666700  0.33333300  0.56736100  1
  Cu  Cu2  1  0.00000000  0.00000000  0.50000000  1
  Cu  Cu3  1  0.00000000  0.00000000  0.00000000  1
  Cu  Cu4  1  0.82856500  0.17143500  0.23816700  1
  Cu  Cu5  1  0.82856500  0.65712900  0.23816700  1
  Cu  Cu6  1  0.34287100  0.17143500  0.23816700  1
  Cu  Cu7  1  0.17143500  0.82856500  0.76183300  1
  Cu  Cu8  1  0.17143500  0.34287100  0.76183300  1
  Cu  Cu9  1  0.65712900  0.82856500  0.76183300  1
  C  C10  1  0.66666700  0.33333300  0.93238800  1
  C  C11  1  0.33333300  0.66666700  0.06761200  1
