# generated using pymatgen
data_Cu3NiC
_symmetry_space_group_name_H-M   'P 1'
_cell_length_a   6.39363900
_cell_length_b   7.69701157
_cell_length_c   12.74171304
_cell_angle_alpha   93.77095471
_cell_angle_beta   98.92079031
_cell_angle_gamma   106.22137435
_symmetry_Int_Tables_number   1
_chemical_formula_structural   Cu3NiC
_chemical_formula_sum   'Cu30 Ni10 C10'
_cell_volume   590.85196897
_cell_formula_units_Z   10
loop_
 _symmetry_equiv_pos_site_id
 _symmetry_equiv_pos_as_xyz
  1  'x, y, z'
loop_
 _atom_site_type_symbol
 _atom_site_label
 _atom_site_symmetry_multiplicity
 _atom_site_fract_x
 _atom_site_fract_y
 _atom_site_fract_z
 _atom_site_occupancy
  C  C0  1  0.66369400  0.35028000  0.44255100  1
  C  C1  1  0.33630600  0.64972000  0.55744900  1
  C  C2  1  0.22722300  0.12013100  0.61862100  1
  C  C3  1  0.77277700  0.87986900  0.38137900  1
  C  C4  1  0.97319800  0.51817500  0.21247400  1
  C  C5  1  0.02680200  0.48182500  0.78752600  1
  C  C6  1  0.08964800  0.07126200  0.17228900  1
  C  C7  1  0.91035200  0.92873800  0.82771100  1
  C  C8  1  0.48741000  0.24894500  0.97851200  1
  C  C9  1  0.51259000  0.75105500  0.02148800  1
  Ni  Ni10  1  0.50190000  0.47972600  0.21070500  1
  Ni  Ni11  1  0.49810000  0.52027400  0.78929500  1
  Ni  Ni12  1  0.12367800  0.32165400  0.40097300  1
  Ni  Ni13  1  0.87632200  0.67834600  0.59902700  1
  Ni  Ni14  1  0.94189000  0.26284800  0.99386200  1
  Ni  Ni15  1  0.05811000  0.73715200  0.00613800  1
  Ni  Ni16  1  0.44997400  0.97109900  0.79940300  1
  Ni  Ni17  1  0.55002600  0.02890100  0.20059700  1
  Ni  Ni18  1  0.78342400  0.16087300  0.61559600  1
  Ni  Ni19  1  0.21657600  0.83912700  0.38440400  1
  Cu  Cu20  1  0.09522200  0.18836600  0.97848300  1
  Cu  Cu21  1  0.90477800  0.81163400  0.02151700  1
  Cu  Cu22  1  0.57756600  0.49530800  0.11988200  1
  Cu  Cu23  1  0.42243400  0.50469200  0.88011800  1
  Cu  Cu24  1  0.29736800  0.40527100  0.21216700  1
  Cu  Cu25  1  0.70263200  0.59472900  0.78783300  1
  Cu  Cu26  1  0.85153500  0.11804600  0.52857500  1
  Cu  Cu27  1  0.14846500  0.88195400  0.47142500  1
  Cu  Cu28  1  0.64886300  0.54011100  0.29812200  1
  Cu  Cu29  1  0.35113700  0.45988900  0.70187800  1
  Cu  Cu30  1  0.29703000  0.33631400  0.47390800  1
  Cu  Cu31  1  0.70297000  0.66368600  0.52609200  1
  Cu  Cu32  1  0.04203200  0.45967300  0.39758800  1
  Cu  Cu33  1  0.95796800  0.54032700  0.60241200  1
  Cu  Cu34  1  0.86404100  0.24600500  0.08324100  1
  Cu  Cu35  1  0.13595900  0.75399500  0.91675900  1
  Cu  Cu36  1  0.32683500  0.08084200  0.80372000  1
  Cu  Cu37  1  0.67316500  0.91915800  0.19628000  1
  Cu  Cu38  1  0.44909300  0.87953100  0.71179400  1
  Cu  Cu39  1  0.55090700  0.12046900  0.28820600  1
  Cu  Cu40  1  0.58148100  0.96372300  0.88810300  1
  Cu  Cu41  1  0.41851900  0.03627700  0.11189700  1
  Cu  Cu42  1  0.60276300  0.20392800  0.60751600  1
  Cu  Cu43  1  0.39723700  0.79607200  0.39248400  1
  Cu  Cu44  1  0.85386300  0.34429200  0.92231400  1
  Cu  Cu45  1  0.14613700  0.65570800  0.07768600  1
  Cu  Cu46  1  0.03090300  0.17719600  0.33594400  1
  Cu  Cu47  1  0.96909700  0.82280400  0.66405600  1
  Cu  Cu48  1  0.91249300  0.17264500  0.70764300  1
  Cu  Cu49  1  0.08750700  0.82735500  0.29235700  1
