# generated using pymatgen
data_Cu8NiC16
_symmetry_space_group_name_H-M   'P 1'
_cell_length_a   4.83592320
_cell_length_b   4.82042540
_cell_length_c   11.83163047
_cell_angle_alpha   90.09700240
_cell_angle_beta   90.41397306
_cell_angle_gamma   90.57944584
_symmetry_Int_Tables_number   1
_chemical_formula_structural   Cu8NiC16
_chemical_formula_sum   'Cu8 Ni1 C16'
_cell_volume   275.78785404
_cell_formula_units_Z   1
loop_
 _symmetry_equiv_pos_site_id
 _symmetry_equiv_pos_as_xyz
  1  'x, y, z'
loop_
 _atom_site_type_symbol
 _atom_site_label
 _atom_site_symmetry_multiplicity
 _atom_site_fract_x
 _atom_site_fract_y
 _atom_site_fract_z
 _atom_site_occupancy
  Ni  Ni0  1  0.50348200  0.99801800  0.24820200  1
  Cu  Cu1  1  0.00167900  0.99278800  0.00595500  1
  Cu  Cu2  1  0.00234100  0.99677600  0.25291200  1
  Cu  Cu3  1  0.02884600  0.02424500  0.50487300  1
  Cu  Cu4  1  0.00010200  0.98768900  0.74780900  1
  Cu  Cu5  1  0.50248300  0.49634900  0.12063000  1
  Cu  Cu6  1  0.49434600  0.48780600  0.63509100  1
  Cu  Cu7  1  0.46726300  0.52283300  0.87686400  1
  Cu  Cu8  1  0.49674100  0.49677900  0.37771000  1
  C  C9  1  0.21926800  0.83763600  0.13635100  1
  C  C10  1  0.20284700  0.80705000  0.62567500  1
  C  C11  1  0.17359300  0.81605200  0.87856700  1
  C  C12  1  0.23106800  0.84304200  0.36843500  1
  C  C13  1  0.29790300  0.31987300  0.00274200  1
  C  C14  1  0.29219100  0.33467200  0.24599500  1
  C  C15  1  0.31475300  0.32548700  0.50359100  1
  C  C16  1  0.29793800  0.30718200  0.75998900  1
  C  C17  1  0.68779000  0.68219700  0.00186800  1
  C  C18  1  0.71219800  0.66002400  0.24770900  1
  C  C19  1  0.68137300  0.68662500  0.75673000  1
  C  C20  1  0.78288600  0.15658400  0.13503100  1
  C  C21  1  0.78554000  0.15790700  0.36820200  1
  C  C22  1  0.80999000  0.18710800  0.62819900  1
  C  C23  1  0.71876100  0.68543600  0.50099600  1
  C  C24  1  0.79461600  0.18985100  0.88098400  1
