# generated using pymatgen
data_CuNi3C20
_symmetry_space_group_name_H-M   'P 1'
_cell_length_a   5.53442800
_cell_length_b   5.48607100
_cell_length_c   20.96113527
_cell_angle_alpha   82.48065682
_cell_angle_beta   90.00000000
_cell_angle_gamma   90.00000000
_symmetry_Int_Tables_number   1
_chemical_formula_structural   CuNi3C20
_chemical_formula_sum   'Cu2 Ni6 C40'
_cell_volume   630.95473632
_cell_formula_units_Z   2
loop_
 _symmetry_equiv_pos_site_id
 _symmetry_equiv_pos_as_xyz
  1  'x, y, z'
loop_
 _atom_site_type_symbol
 _atom_site_label
 _atom_site_symmetry_multiplicity
 _atom_site_fract_x
 _atom_site_fract_y
 _atom_site_fract_z
 _atom_site_occupancy
  Ni  Ni0  1  0.28475100  0.09896900  0.30330000  1
  Ni  Ni1  1  0.28808100  0.40223400  0.69576600  1
  Ni  Ni2  1  0.78475100  0.90103100  0.69670000  1
  Ni  Ni3  1  0.78808100  0.59776600  0.30423400  1
  Ni  Ni4  1  0.29458700  0.30545300  0.90317100  1
  Ni  Ni5  1  0.79458700  0.69454700  0.09682900  1
  Cu  Cu6  1  0.29625100  0.20586000  0.09639500  1
  Cu  Cu7  1  0.79625100  0.79414000  0.90360500  1
  C  C8  1  0.22904800  0.50502900  0.43838200  1
  C  C9  1  0.22716000  0.94393800  0.56180700  1
  C  C10  1  0.72904800  0.49497100  0.56161800  1
  C  C11  1  0.72716000  0.05606200  0.43819300  1
  C  C12  1  0.24127600  0.65299200  0.20500500  1
  C  C13  1  0.23629200  0.85714900  0.79374500  1
  C  C14  1  0.74127600  0.34700800  0.79499500  1
  C  C15  1  0.73629200  0.14285100  0.20625500  1
  C  C16  1  0.25449000  0.76018100  0.00304000  1
  C  C17  1  0.75449000  0.23981900  0.99696000  1
  C  C18  1  0.08628000  0.81806600  0.29600900  1
  C  C19  1  0.08864500  0.11484700  0.70370400  1
  C  C20  1  0.58628000  0.18193400  0.70399100  1
  C  C21  1  0.58864500  0.88515300  0.29629600  1
  C  C22  1  0.53918400  0.38085200  0.27482700  1
  C  C23  1  0.53790600  0.65511500  0.72423200  1
  C  C24  1  0.03918400  0.61914800  0.72517300  1
  C  C25  1  0.03790600  0.34488500  0.27576800  1
  C  C26  1  0.61702200  0.39891500  0.10835800  1
  C  C27  1  0.61784100  0.49105800  0.89319000  1
  C  C28  1  0.11702200  0.60108500  0.89164200  1
  C  C29  1  0.11784100  0.50894200  0.10681000  1
  C  C30  1  0.29906800  0.11573100  0.38737000  1
  C  C31  1  0.29652700  0.50265400  0.61202700  1
  C  C32  1  0.79906800  0.88426900  0.61263000  1
  C  C33  1  0.79652700  0.49734600  0.38797300  1
  C  C34  1  0.03153500  0.99283300  0.07450000  1
  C  C35  1  0.03681500  0.07810400  0.92271900  1
  C  C36  1  0.53153500  0.00716700  0.92550000  1
  C  C37  1  0.53681500  0.92189600  0.07728100  1
  C  C38  1  0.33881600  0.33640200  0.99893100  1
  C  C39  1  0.83881600  0.66359800  0.00106900  1
  C  C40  1  0.33302900  0.08241100  0.19132700  1
  C  C41  1  0.33251000  0.27548000  0.81107600  1
  C  C42  1  0.83302900  0.91758900  0.80867300  1
  C  C43  1  0.83251000  0.72452000  0.18892400  1
  C  C44  1  0.99956200  0.74351000  0.49866400  1
  C  C45  1  0.99952300  0.24232000  0.50131700  1
  C  C46  1  0.49956200  0.25649000  0.50133600  1
  C  C47  1  0.49952300  0.75768000  0.49868300  1
