# generated using pymatgen
data_Cu3NiC10
_symmetry_space_group_name_H-M   'P 1'
_cell_length_a   3.45544400
_cell_length_b   5.97181200
_cell_length_c   10.03064813
_cell_angle_alpha   89.74527504
_cell_angle_beta   90.00000000
_cell_angle_gamma   90.00000000
_symmetry_Int_Tables_number   1
_chemical_formula_structural   Cu3NiC10
_chemical_formula_sum   'Cu3 Ni1 C10'
_cell_volume   206.98300606
_cell_formula_units_Z   1
loop_
 _symmetry_equiv_pos_site_id
 _symmetry_equiv_pos_as_xyz
  1  'x, y, z'
loop_
 _atom_site_type_symbol
 _atom_site_label
 _atom_site_symmetry_multiplicity
 _atom_site_fract_x
 _atom_site_fract_y
 _atom_site_fract_z
 _atom_site_occupancy
  Ni  Ni0  1  0.50000000  0.42723300  0.18099400  1
  Cu  Cu1  1  0.50000000  0.57514300  0.81394700  1
  Cu  Cu2  1  0.50000000  0.92972300  0.32580300  1
  Cu  Cu3  1  0.50000000  0.07363200  0.68341900  1
  C  C4  1  0.00000000  0.50257700  0.50447700  1
  C  C5  1  0.00000000  0.99855500  0.99556800  1
  C  C6  1  0.50000000  0.26179000  0.45511900  1
  C  C7  1  0.50000000  0.73932200  0.55277700  1
  C  C8  1  0.50000000  0.76252300  0.03739400  1
  C  C9  1  0.50000000  0.23701100  0.94480000  1
  C  C10  1  0.00000000  0.12108700  0.19953700  1
  C  C11  1  0.00000000  0.86051300  0.79604300  1
  C  C12  1  0.00000000  0.65090500  0.30869400  1
  C  C13  1  0.00000000  0.35998600  0.70142700  1
