# generated using pymatgen
data_Cu26Ni8C3
_symmetry_space_group_name_H-M   'P 1'
_cell_length_a   7.72249800
_cell_length_b   8.85841554
_cell_length_c   9.53331092
_cell_angle_alpha   107.89444058
_cell_angle_beta   88.93529249
_cell_angle_gamma   107.32116989
_symmetry_Int_Tables_number   1
_chemical_formula_structural   Cu26Ni8C3
_chemical_formula_sum   'Cu26 Ni8 C3'
_cell_volume   590.56118636
_cell_formula_units_Z   1
loop_
 _symmetry_equiv_pos_site_id
 _symmetry_equiv_pos_as_xyz
  1  'x, y, z'
loop_
 _atom_site_type_symbol
 _atom_site_label
 _atom_site_symmetry_multiplicity
 _atom_site_fract_x
 _atom_site_fract_y
 _atom_site_fract_z
 _atom_site_occupancy
  C  C0  1  0.13207200  0.26982900  0.88443200  1
  C  C1  1  0.86792800  0.73017100  0.11556800  1
  C  C2  1  0.50000000  0.50000000  0.50000000  1
  Ni  Ni3  1  0.67004200  0.36005500  0.70821800  1
  Ni  Ni4  1  0.32995800  0.63994500  0.29178200  1
  Ni  Ni5  1  0.87572500  0.19112900  0.48293600  1
  Ni  Ni6  1  0.12427500  0.80887100  0.51706400  1
  Ni  Ni7  1  0.38854800  0.15160900  0.22569800  1
  Ni  Ni8  1  0.61145200  0.84839100  0.77430200  1
  Ni  Ni9  1  0.78793600  0.22239500  0.19675200  1
  Ni  Ni10  1  0.21206400  0.77760500  0.80324800  1
  Cu  Cu11  1  0.70026300  0.18637500  0.57248300  1
  Cu  Cu12  1  0.29973700  0.81362500  0.42751700  1
  Cu  Cu13  1  0.70008000  0.48455600  0.62667900  1
  Cu  Cu14  1  0.29992000  0.51544400  0.37332100  1
  Cu  Cu15  1  0.81414700  0.40975300  0.82189200  1
  Cu  Cu16  1  0.18585300  0.59024700  0.17810800  1
  Cu  Cu17  1  0.84780200  0.29933100  0.37610300  1
  Cu  Cu18  1  0.15219800  0.70066900  0.62389700  1
  Cu  Cu19  1  0.03740800  0.29619700  0.57451000  1
  Cu  Cu20  1  0.96259200  0.70380300  0.42549000  1
  Cu  Cu21  1  0.48564700  0.29082800  0.73682900  1
  Cu  Cu22  1  0.51435300  0.70917200  0.26317100  1
  Cu  Cu23  1  0.85354500  0.02341200  0.39531800  1
  Cu  Cu24  1  0.14645500  0.97658800  0.60468200  1
  Cu  Cu25  1  0.42370300  0.24710400  0.38649500  1
  Cu  Cu26  1  0.57629700  0.75289600  0.61350500  1
  Cu  Cu27  1  0.59443300  0.09459200  0.18715900  1
  Cu  Cu28  1  0.40556700  0.90540800  0.81284100  1
  Cu  Cu29  1  0.78303600  0.36642400  0.16144900  1
  Cu  Cu30  1  0.21696400  0.63357600  0.83855100  1
  Cu  Cu31  1  0.90579500  0.12837500  0.12824100  1
  Cu  Cu32  1  0.09420500  0.87162500  0.87175900  1
  Cu  Cu33  1  0.38021300  0.24469200  0.12792000  1
  Cu  Cu34  1  0.61978700  0.75530800  0.87208000  1
  Cu  Cu35  1  0.26628600  0.98676200  0.19871300  1
  Cu  Cu36  1  0.73371400  0.01323800  0.80128700  1
