# generated using pymatgen
data_Cu2NiC9
_symmetry_space_group_name_H-M   'P 1'
_cell_length_a   5.70382500
_cell_length_b   8.53300100
_cell_length_c   19.04683147
_cell_angle_alpha   68.48049359
_cell_angle_beta   90.00000000
_cell_angle_gamma   90.00000000
_symmetry_Int_Tables_number   1
_chemical_formula_structural   Cu2NiC9
_chemical_formula_sum   'Cu8 Ni4 C36'
_cell_volume   862.40319906
_cell_formula_units_Z   4
loop_
 _symmetry_equiv_pos_site_id
 _symmetry_equiv_pos_as_xyz
  1  'x, y, z'
loop_
 _atom_site_type_symbol
 _atom_site_label
 _atom_site_symmetry_multiplicity
 _atom_site_fract_x
 _atom_site_fract_y
 _atom_site_fract_z
 _atom_site_occupancy
  Ni  Ni0  1  0.75883600  0.24796700  0.02312900  1
  Ni  Ni1  1  0.74116400  0.24796700  0.52312900  1
  Ni  Ni2  1  0.24116400  0.75203300  0.97687100  1
  Ni  Ni3  1  0.25883600  0.75203300  0.47687100  1
  Cu  Cu4  1  0.23658900  0.08017100  0.05358500  1
  Cu  Cu5  1  0.26341100  0.08017100  0.55358500  1
  Cu  Cu6  1  0.76341100  0.91982900  0.94641500  1
  Cu  Cu7  1  0.73658900  0.91982900  0.44641500  1
  Cu  Cu8  1  0.69260900  0.55416200  0.09870100  1
  Cu  Cu9  1  0.80739100  0.55416200  0.59870100  1
  Cu  Cu10  1  0.30739100  0.44583800  0.90129900  1
  Cu  Cu11  1  0.19260900  0.44583800  0.40129900  1
  C  C12  1  0.31305800  0.89883700  0.04159200  1
  C  C13  1  0.18694200  0.89883700  0.54159200  1
  C  C14  1  0.68694200  0.10116300  0.95840800  1
  C  C15  1  0.81305800  0.10116300  0.45840800  1
  C  C16  1  0.97193700  0.06337800  0.09848800  1
  C  C17  1  0.52806300  0.06337800  0.59848800  1
  C  C18  1  0.02806300  0.93662200  0.90151200  1
  C  C19  1  0.47193700  0.93662200  0.40151200  1
  C  C20  1  0.46773200  0.15124800  0.09025600  1
  C  C21  1  0.03226800  0.15124800  0.59025600  1
  C  C22  1  0.53226800  0.84875200  0.90974400  1
  C  C23  1  0.96773200  0.84875200  0.40974400  1
  C  C24  1  0.29204100  0.84217400  0.21846200  1
  C  C25  1  0.20795900  0.84217400  0.71846200  1
  C  C26  1  0.70795900  0.15782600  0.78153800  1
  C  C27  1  0.79204100  0.15782600  0.28153800  1
  C  C28  1  0.86158300  0.74495700  0.02994900  1
  C  C29  1  0.63841700  0.74495700  0.52994900  1
  C  C30  1  0.13841700  0.25504300  0.97005100  1
  C  C31  1  0.36158300  0.25504300  0.47005100  1
  C  C32  1  0.41183100  0.56637200  0.06111000  1
  C  C33  1  0.08816900  0.56637200  0.56111000  1
  C  C34  1  0.58816900  0.43362800  0.93889000  1
  C  C35  1  0.91183100  0.43362800  0.43889000  1
  C  C36  1  0.85210000  0.40516100  0.07600800  1
  C  C37  1  0.64790000  0.40516100  0.57600800  1
  C  C38  1  0.14790000  0.59483900  0.92399200  1
  C  C39  1  0.35210000  0.59483900  0.42399200  1
  C  C40  1  0.72958200  0.54970200  0.18424200  1
  C  C41  1  0.77041800  0.54970200  0.68424200  1
  C  C42  1  0.27041800  0.45029800  0.81575800  1
  C  C43  1  0.22958200  0.45029800  0.31575800  1
  C  C44  1  0.99194700  0.21511300  0.26740400  1
  C  C45  1  0.50805300  0.21511300  0.76740400  1
  C  C46  1  0.00805300  0.78488700  0.73259600  1
  C  C47  1  0.49194700  0.78488700  0.23259600  1
