# generated using pymatgen
data_CuNiC8
_symmetry_space_group_name_H-M   'P 1'
_cell_length_a   5.72743882
_cell_length_b   5.72743882
_cell_length_c   5.72743911
_cell_angle_alpha   58.88222053
_cell_angle_beta   58.88222053
_cell_angle_gamma   58.88222662
_symmetry_Int_Tables_number   1
_chemical_formula_structural   CuNiC8
_chemical_formula_sum   'Cu1 Ni1 C8'
_cell_volume   129.46184373
_cell_formula_units_Z   1
loop_
 _symmetry_equiv_pos_site_id
 _symmetry_equiv_pos_as_xyz
  1  'x, y, z'
loop_
 _atom_site_type_symbol
 _atom_site_label
 _atom_site_symmetry_multiplicity
 _atom_site_fract_x
 _atom_site_fract_y
 _atom_site_fract_z
 _atom_site_occupancy
  Ni  Ni0  1  0.78619500  0.78619500  0.78619500  1
  Cu  Cu1  1  0.28499400  0.28499400  0.28499400  1
  C  C2  1  0.50333000  0.50333000  0.50333000  1
  C  C3  1  0.01050600  0.01050600  0.01050600  1
  C  C4  1  0.12142600  0.98728500  0.55907100  1
  C  C5  1  0.55907100  0.12142600  0.98728500  1
  C  C6  1  0.98728500  0.55907100  0.12142600  1
  C  C7  1  0.08223900  0.45481300  0.62334200  1
  C  C8  1  0.62334200  0.08223900  0.45481300  1
  C  C9  1  0.45481300  0.62334200  0.08223900  1
