# generated using pymatgen
data_Cu2Ni4C15
_symmetry_space_group_name_H-M   'P 1'
_cell_length_a   8.91570038
_cell_length_b   9.74075517
_cell_length_c   12.38806400
_cell_angle_alpha   90.00000000
_cell_angle_beta   90.00000000
_cell_angle_gamma   90.99951938
_symmetry_Int_Tables_number   1
_chemical_formula_structural   Cu2Ni4C15
_chemical_formula_sum   'Cu8 Ni16 C60'
_cell_volume   1075.68582800
_cell_formula_units_Z   4
loop_
 _symmetry_equiv_pos_site_id
 _symmetry_equiv_pos_as_xyz
  1  'x, y, z'
loop_
 _atom_site_type_symbol
 _atom_site_label
 _atom_site_symmetry_multiplicity
 _atom_site_fract_x
 _atom_site_fract_y
 _atom_site_fract_z
 _atom_site_occupancy
  C  C0  1  0.90418500  0.37726900  0.88454500  1
  C  C1  1  0.09581500  0.12273100  0.38454500  1
  C  C2  1  0.09581500  0.62273100  0.11545500  1
  C  C3  1  0.90418500  0.87726900  0.61545500  1
  C  C4  1  0.75260300  0.49021300  0.51574000  1
  C  C5  1  0.24739700  0.00978700  0.01574000  1
  C  C6  1  0.24739700  0.50978700  0.48426000  1
  C  C7  1  0.75260300  0.99021300  0.98426000  1
  C  C8  1  0.40204500  0.12040100  0.61173800  1
  C  C9  1  0.59795500  0.37959900  0.11173800  1
  C  C10  1  0.59795500  0.87959900  0.38826200  1
  C  C11  1  0.40204500  0.62040100  0.88826200  1
  Ni  Ni12  1  0.96689400  0.40977300  0.27456300  1
  Ni  Ni13  1  0.03310600  0.09022700  0.77456300  1
  Ni  Ni14  1  0.03310600  0.59022700  0.72543700  1
  Ni  Ni15  1  0.96689400  0.90977300  0.22543700  1
  Ni  Ni16  1  0.75837700  0.20810000  0.67804900  1
  Ni  Ni17  1  0.24162300  0.29190000  0.17804900  1
  Ni  Ni18  1  0.24162300  0.79190000  0.32195100  1
  Ni  Ni19  1  0.75837700  0.70810000  0.82195100  1
  Ni  Ni20  1  0.52018200  0.41695300  0.72611800  1
  Ni  Ni21  1  0.47981800  0.08304700  0.22611800  1
  Ni  Ni22  1  0.47981800  0.58304700  0.27388200  1
  Ni  Ni23  1  0.52018200  0.91695300  0.77388200  1
  Ni  Ni24  1  0.24917400  0.28113000  0.82805300  1
  Ni  Ni25  1  0.75082600  0.21887000  0.32805300  1
  Ni  Ni26  1  0.75082600  0.71887000  0.17194700  1
  Ni  Ni27  1  0.24917400  0.78113000  0.67194700  1
  Cu  Cu28  1  0.98004600  0.22977600  0.12902400  1
  Cu  Cu29  1  0.01995400  0.27022400  0.62902400  1
  Cu  Cu30  1  0.01995400  0.77022400  0.87097600  1
  Cu  Cu31  1  0.98004600  0.72977600  0.37097600  1
  Cu  Cu32  1  0.51537100  0.23295300  0.86717500  1
  Cu  Cu33  1  0.48462900  0.26704700  0.36717500  1
  Cu  Cu34  1  0.48462900  0.76704700  0.13282500  1
  Cu  Cu35  1  0.51537100  0.73295300  0.63282500  1
  C  C36  1  0.95263500  0.34904000  0.50099100  1
  C  C37  1  0.04736500  0.15096000  0.00099100  1
  C  C38  1  0.04736500  0.65096000  0.49900900  1
  C  C39  1  0.95263500  0.84904000  0.99900900  1
  C  C40  1  0.92570300  0.40873100  0.71643100  1
  C  C41  1  0.07429700  0.09126900  0.21643100  1
  C  C42  1  0.07429700  0.59126900  0.28356900  1
  C  C43  1  0.92570300  0.90873100  0.78356900  1
  C  C44  1  0.91091600  0.32135800  0.26216100  1
  C  C45  1  0.08908400  0.17864200  0.76216100  1
  C  C46  1  0.08908400  0.67864200  0.73783900  1
  C  C47  1  0.91091600  0.82135800  0.23783900  1
  C  C48  1  0.90044100  0.38673800  0.05485900  1
  C  C49  1  0.09955900  0.11326200  0.55485900  1
  C  C50  1  0.09955900  0.61326200  0.94514100  1
  C  C51  1  0.90044100  0.88673800  0.44514100  1
  C  C52  1  0.83538500  0.15621900  0.63828100  1
  C  C53  1  0.16461500  0.34378100  0.13828100  1
  C  C54  1  0.16461500  0.84378100  0.36171900  1
  C  C55  1  0.83538500  0.65621900  0.86171900  1
  C  C56  1  0.79547600  0.13960600  0.13038900  1
  C  C57  1  0.20452400  0.36039400  0.63038900  1
  C  C58  1  0.20452400  0.86039400  0.86961100  1
  C  C59  1  0.79547600  0.63960600  0.36961100  1
  C  C60  1  0.70513500  0.15321000  0.85748300  1
  C  C61  1  0.29486500  0.34679000  0.35748300  1
  C  C62  1  0.29486500  0.84679000  0.14251700  1
  C  C63  1  0.70513500  0.65321000  0.64251700  1
  C  C64  1  0.59890900  0.39167500  0.94086600  1
  C  C65  1  0.40109100  0.10832500  0.44086600  1
  C  C66  1  0.40109100  0.60832500  0.05913400  1
  C  C67  1  0.59890900  0.89167500  0.55913400  1
  C  C68  1  0.57494300  0.32913700  0.73321000  1
  C  C69  1  0.42505700  0.17086300  0.23321000  1
  C  C70  1  0.42505700  0.67086300  0.26679000  1
  C  C71  1  0.57494300  0.82913700  0.76679000  1
  C  C72  1  0.46316800  0.14635300  0.99533200  1
  C  C73  1  0.53683200  0.35364700  0.49533200  1
  C  C74  1  0.53683200  0.85364700  0.00466800  1
  C  C75  1  0.46316800  0.64635300  0.50466800  1
  C  C76  1  0.42176600  0.09101700  0.78029700  1
  C  C77  1  0.57823400  0.40898300  0.28029700  1
  C  C78  1  0.57823400  0.90898300  0.21970300  1
  C  C79  1  0.42176600  0.59101700  0.71970300  1
  C  C80  1  0.32832300  0.33699100  0.86584900  1
  C  C81  1  0.67167700  0.16300900  0.36584900  1
  C  C82  1  0.67167700  0.66300900  0.13415100  1
  C  C83  1  0.32832300  0.83699100  0.63415100  1
