# generated using pymatgen
data_Cu4Ni4C25
_symmetry_space_group_name_H-M   'P 1'
_cell_length_a   8.67704809
_cell_length_b   9.05038983
_cell_length_c   9.80769456
_cell_angle_alpha   88.63625800
_cell_angle_beta   114.47687228
_cell_angle_gamma   90.23228637
_symmetry_Int_Tables_number   1
_chemical_formula_structural   Cu4Ni4C25
_chemical_formula_sum   'Cu4 Ni4 C25'
_cell_volume   700.77258696
_cell_formula_units_Z   1
loop_
 _symmetry_equiv_pos_site_id
 _symmetry_equiv_pos_as_xyz
  1  'x, y, z'
loop_
 _atom_site_type_symbol
 _atom_site_label
 _atom_site_symmetry_multiplicity
 _atom_site_fract_x
 _atom_site_fract_y
 _atom_site_fract_z
 _atom_site_occupancy
  C  C0  1  0.95677929  0.80032605  0.85875966  1
  C  C1  1  0.53406950  0.29741619  0.12760213  1
  C  C2  1  0.03827815  0.19170278  0.13489447  1
  C  C3  1  0.45939448  0.69494219  0.86239362  1
  C  C4  1  0.46132457  0.81764059  0.23046482  1
  C  C5  1  0.02744706  0.32929623  0.75232528  1
  C  C6  1  0.53157967  0.17275987  0.76103424  1
  C  C7  1  0.96560708  0.66118811  0.23904418  1
  C  C8  1  0.99393527  0.99994293  0.50123181  1
  Ni  Ni9  1  0.24001598  0.54582145  0.03875157  1
  Ni  Ni10  1  0.25113408  0.04911664  0.95174027  1
  Ni  Ni11  1  0.75369697  0.44527961  0.95275243  1
  Ni  Ni12  1  0.74367044  0.94238096  0.04107416  1
  Cu  Cu13  1  0.19482916  0.36228808  0.48595456  1
  Cu  Cu14  1  0.33633425  0.82125364  0.50706212  1
  Cu  Cu15  1  0.79786810  0.63594867  0.50505603  1
  Cu  Cu16  1  0.65014678  0.18729313  0.48334153  1
  C  C17  1  0.15537048  0.57521489  0.86520403  1
  C  C18  1  0.33743964  0.06959368  0.12539279  1
  C  C19  1  0.83554410  0.41599116  0.12641578  1
  C  C20  1  0.65920428  0.92155534  0.86731816  1
  C  C21  1  0.78066025  0.60935220  0.92135434  1
  C  C22  1  0.71506041  0.10476048  0.07205800  1
  C  C23  1  0.21427038  0.38187914  0.07126312  1
  C  C24  1  0.27906311  0.88671002  0.91993042  1
  C  C25  1  0.32331284  0.16640832  0.87515948  1
  C  C26  1  0.16841611  0.65889304  0.11522063  1
  C  C27  1  0.67028314  0.82517781  0.11668039  1
  C  C28  1  0.82722168  0.33241595  0.87786876  1
  C  C29  1  0.93802311  0.91149968  0.10002697  1
  C  C30  1  0.55878665  0.41673750  0.89244001  1
  C  C31  1  0.05711131  0.08015570  0.89484369  1
  C  C32  1  0.43474669  0.57477196  0.09676951  1
