# generated using pymatgen
data_CuNi14C17
_symmetry_space_group_name_H-M   'P 1'
_cell_length_a   8.81839982
_cell_length_b   8.76435439
_cell_length_c   4.39751080
_cell_angle_alpha   90.00000000
_cell_angle_beta   90.00000000
_cell_angle_gamma   90.00000000
_symmetry_Int_Tables_number   1
_chemical_formula_structural   CuNi14C17
_chemical_formula_sum   'Cu1 Ni14 C17'
_cell_volume   339.87297292
_cell_formula_units_Z   1
loop_
 _symmetry_equiv_pos_site_id
 _symmetry_equiv_pos_as_xyz
  1  'x, y, z'
loop_
 _atom_site_type_symbol
 _atom_site_label
 _atom_site_symmetry_multiplicity
 _atom_site_fract_x
 _atom_site_fract_y
 _atom_site_fract_z
 _atom_site_occupancy
  Ni  Ni0  1  0.50000000  0.00000000  0.00000000  1
  Ni  Ni1  1  0.50000000  0.50000000  0.00000000  1
  Ni  Ni2  1  0.00000000  0.23429673  0.50000000  1
  Ni  Ni3  1  0.00000000  0.76570327  0.50000000  1
  Ni  Ni4  1  0.50000000  0.24675434  0.50000000  1
  Ni  Ni5  1  0.50000000  0.75324566  0.50000000  1
  Ni  Ni6  1  0.25468561  0.00000000  0.50000000  1
  Ni  Ni7  1  0.26556488  0.50000000  0.50000000  1
  Ni  Ni8  1  0.74531439  0.00000000  0.50000000  1
  Ni  Ni9  1  0.73443512  0.50000000  0.50000000  1
  Ni  Ni10  1  0.25903699  0.24032206  0.00000000  1
  Ni  Ni11  1  0.25903699  0.75967794  0.00000000  1
  Ni  Ni12  1  0.74096301  0.24032206  0.00000000  1
  Ni  Ni13  1  0.74096301  0.75967794  0.00000000  1
  Cu  Cu14  1  0.00000000  0.00000000  0.00000000  1
  C  C15  1  0.00000000  0.50000000  0.00000000  1
  C  C16  1  0.27015379  0.00000000  0.00000000  1
  C  C17  1  0.26868484  0.50000000  0.00000000  1
  C  C18  1  0.72984621  0.00000000  0.00000000  1
  C  C19  1  0.73131516  0.50000000  0.00000000  1
  C  C20  1  0.24921210  0.25145292  0.50000000  1
  C  C21  1  0.24921210  0.74854708  0.50000000  1
  C  C22  1  0.75078790  0.25145292  0.50000000  1
  C  C23  1  0.75078790  0.74854708  0.50000000  1
  C  C24  1  0.00000000  0.00000000  0.50000000  1
  C  C25  1  0.00000000  0.50000000  0.50000000  1
  C  C26  1  0.50000000  0.00000000  0.50000000  1
  C  C27  1  0.50000000  0.50000000  0.50000000  1
  C  C28  1  0.00000000  0.23291590  0.00000000  1
  C  C29  1  0.00000000  0.76708410  0.00000000  1
  C  C30  1  0.50000000  0.25117792  0.00000000  1
  C  C31  1  0.50000000  0.74882208  0.00000000  1
