# generated using pymatgen
data_CuNi3C10
_symmetry_space_group_name_H-M   'P 1'
_cell_length_a   8.49646600
_cell_length_b   8.49646600
_cell_length_c   8.49646600
_cell_angle_alpha   90.00000000
_cell_angle_beta   90.00000000
_cell_angle_gamma   90.00000000
_symmetry_Int_Tables_number   1
_chemical_formula_structural   CuNi3C10
_chemical_formula_sum   'Cu4 Ni12 C40'
_cell_volume   613.35932393
_cell_formula_units_Z   4
loop_
 _symmetry_equiv_pos_site_id
 _symmetry_equiv_pos_as_xyz
  1  'x, y, z'
loop_
 _atom_site_type_symbol
 _atom_site_label
 _atom_site_symmetry_multiplicity
 _atom_site_fract_x
 _atom_site_fract_y
 _atom_site_fract_z
 _atom_site_occupancy
  C  C0  1  0.12596600  0.87403400  0.37403400  1
  C  C1  1  0.24667400  0.74667400  0.75332600  1
  C  C2  1  0.25332600  0.25332600  0.25332600  1
  C  C3  1  0.37403400  0.12596600  0.87403400  1
  C  C4  1  0.62596600  0.62596600  0.62596600  1
  C  C5  1  0.74667400  0.75332600  0.24667400  1
  C  C6  1  0.75332600  0.24667400  0.74667400  1
  C  C7  1  0.87403400  0.37403400  0.12596600  1
  Ni  Ni8  1  0.11641900  0.62180000  0.12840200  1
  Ni  Ni9  1  0.12180000  0.37159800  0.88358100  1
  Ni  Ni10  1  0.12840200  0.11641900  0.62180000  1
  Ni  Ni11  1  0.37159800  0.88358100  0.12180000  1
  Ni  Ni12  1  0.37820000  0.62840200  0.38358100  1
  Ni  Ni13  1  0.38358100  0.37820000  0.62840200  1
  Ni  Ni14  1  0.61641900  0.87820000  0.87159800  1
  Ni  Ni15  1  0.62180000  0.12840200  0.11641900  1
  Ni  Ni16  1  0.62840200  0.38358100  0.37820000  1
  Ni  Ni17  1  0.87159800  0.61641900  0.87820000  1
  Ni  Ni18  1  0.87820000  0.87159800  0.61641900  1
  Ni  Ni19  1  0.88358100  0.12180000  0.37159800  1
  Cu  Cu20  1  0.00154600  0.49845400  0.50154600  1
  Cu  Cu21  1  0.49845400  0.50154600  0.00154600  1
  Cu  Cu22  1  0.50154600  0.00154600  0.49845400  1
  Cu  Cu23  1  0.99845400  0.99845400  0.99845400  1
  C  C24  1  0.10334600  0.12681800  0.39049800  1
  C  C25  1  0.10950200  0.89665400  0.62681800  1
  C  C26  1  0.11067300  0.61067300  0.88932700  1
  C  C27  1  0.12681800  0.39049800  0.10334600  1
  C  C28  1  0.12227500  0.14611800  0.85895000  1
  C  C29  1  0.13860000  0.36140000  0.63860000  1
  C  C30  1  0.14105000  0.62227500  0.35388200  1
  C  C31  1  0.14611800  0.85895000  0.12227500  1
  C  C32  1  0.35388200  0.14105000  0.62227500  1
  C  C33  1  0.35895000  0.37772500  0.85388200  1
  C  C34  1  0.36140000  0.63860000  0.13860000  1
  C  C35  1  0.37772500  0.85388200  0.35895000  1
  C  C36  1  0.37318200  0.60950200  0.60334600  1
  C  C37  1  0.38932700  0.38932700  0.38932700  1
  C  C38  1  0.39049800  0.10334600  0.12681800  1
  C  C39  1  0.39665400  0.87318200  0.89049800  1
  C  C40  1  0.60334600  0.37318200  0.60950200  1
  C  C41  1  0.60950200  0.60334600  0.37318200  1
  C  C42  1  0.61067300  0.88932700  0.11067300  1
  C  C43  1  0.62681800  0.10950200  0.89665400  1
  C  C44  1  0.62227500  0.35388200  0.14105000  1
  C  C45  1  0.63860000  0.13860000  0.36140000  1
  C  C46  1  0.64105000  0.87772500  0.64611800  1
  C  C47  1  0.64611800  0.64105000  0.87772500  1
  C  C48  1  0.85388200  0.35895000  0.37772500  1
  C  C49  1  0.85895000  0.12227500  0.14611800  1
  C  C50  1  0.86140000  0.86140000  0.86140000  1
  C  C51  1  0.87772500  0.64611800  0.64105000  1
  C  C52  1  0.87318200  0.89049800  0.39665400  1
  C  C53  1  0.88932700  0.11067300  0.61067300  1
  C  C54  1  0.89049800  0.39665400  0.87318200  1
  C  C55  1  0.89665400  0.62681800  0.10950200  1
