# generated using pymatgen
data_CuNi5C22
_symmetry_space_group_name_H-M   'P 1'
_cell_length_a   7.64563400
_cell_length_b   7.64563400
_cell_length_c   11.67003300
_cell_angle_alpha   90.00000000
_cell_angle_beta   90.00000000
_cell_angle_gamma   90.00000000
_symmetry_Int_Tables_number   1
_chemical_formula_structural   CuNi5C22
_chemical_formula_sum   'Cu2 Ni10 C44'
_cell_volume   682.18017283
_cell_formula_units_Z   2
loop_
 _symmetry_equiv_pos_site_id
 _symmetry_equiv_pos_as_xyz
  1  'x, y, z'
loop_
 _atom_site_type_symbol
 _atom_site_label
 _atom_site_symmetry_multiplicity
 _atom_site_fract_x
 _atom_site_fract_y
 _atom_site_fract_z
 _atom_site_occupancy
  Ni  Ni0  1  0.00000000  0.00000000  0.50000000  1
  Ni  Ni1  1  0.50000000  0.50000000  0.00000000  1
  Ni  Ni2  1  0.31866000  0.82380700  0.70775800  1
  Ni  Ni3  1  0.81866000  0.67619300  0.79224200  1
  Ni  Ni4  1  0.68134000  0.17619300  0.70775800  1
  Ni  Ni5  1  0.18134000  0.32380700  0.79224200  1
  Ni  Ni6  1  0.82380700  0.68134000  0.29224200  1
  Ni  Ni7  1  0.67619300  0.18134000  0.20775800  1
  Ni  Ni8  1  0.17619300  0.31866000  0.29224200  1
  Ni  Ni9  1  0.32380700  0.81866000  0.20775800  1
  Cu  Cu10  1  0.50000000  0.50000000  0.50000000  1
  Cu  Cu11  1  0.00000000  0.00000000  0.00000000  1
  C  C12  1  0.57900700  0.93484500  0.88297100  1
  C  C13  1  0.07900700  0.56515500  0.61702900  1
  C  C14  1  0.42099300  0.06515500  0.88297100  1
  C  C15  1  0.92099300  0.43484500  0.61702900  1
  C  C16  1  0.93484500  0.42099300  0.11702900  1
  C  C17  1  0.56515500  0.92099300  0.38297100  1
  C  C18  1  0.06515500  0.57900700  0.11702900  1
  C  C19  1  0.43484500  0.07900700  0.38297100  1
  C  C20  1  0.31991000  0.21575400  0.57807200  1
  C  C21  1  0.81991000  0.28424600  0.92192800  1
  C  C22  1  0.68009000  0.78424600  0.57807200  1
  C  C23  1  0.18009000  0.71575400  0.92192800  1
  C  C24  1  0.21575400  0.68009000  0.42192800  1
  C  C25  1  0.28424600  0.18009000  0.07807200  1
  C  C26  1  0.78424600  0.31991000  0.42192800  1
  C  C27  1  0.71575400  0.81991000  0.07807200  1
  C  C28  1  0.50000000  0.00000000  0.83080000  1
  C  C29  1  0.00000000  0.50000000  0.66920000  1
  C  C30  1  0.00000000  0.50000000  0.16920000  1
  C  C31  1  0.50000000  0.00000000  0.33080000  1
  C  C32  1  0.24885800  0.66441700  0.53286800  1
  C  C33  1  0.74885800  0.83558300  0.96713200  1
  C  C34  1  0.75114200  0.33558300  0.53286800  1
  C  C35  1  0.25114200  0.16441700  0.96713200  1
  C  C36  1  0.66441700  0.75114200  0.46713200  1
  C  C37  1  0.83558300  0.25114200  0.03286800  1
  C  C38  1  0.33558300  0.24885800  0.46713200  1
  C  C39  1  0.16441700  0.74885800  0.03286800  1
  C  C40  1  0.40650300  0.32345100  0.64572700  1
  C  C41  1  0.90650300  0.17654900  0.85427300  1
  C  C42  1  0.59349700  0.67654900  0.64572700  1
  C  C43  1  0.09349700  0.82345100  0.85427300  1
  C  C44  1  0.32345100  0.59349700  0.35427300  1
  C  C45  1  0.17654900  0.09349700  0.14572700  1
  C  C46  1  0.67654900  0.40650300  0.35427300  1
  C  C47  1  0.82345100  0.90650300  0.14572700  1
  C  C48  1  0.22734600  0.09224100  0.61764900  1
  C  C49  1  0.72734600  0.40775900  0.88235100  1
  C  C50  1  0.77265400  0.90775900  0.61764900  1
  C  C51  1  0.27265400  0.59224100  0.88235100  1
  C  C52  1  0.09224100  0.77265400  0.38235100  1
  C  C53  1  0.40775900  0.27265400  0.11764900  1
  C  C54  1  0.90775900  0.22734600  0.38235100  1
  C  C55  1  0.59224100  0.72734600  0.11764900  1
