# generated using pymatgen
data_Cu2NiC33
_symmetry_space_group_name_H-M   'P 1'
_cell_length_a   8.61797643
_cell_length_b   8.61797643
_cell_length_c   8.61797735
_cell_angle_alpha   59.97746092
_cell_angle_beta   59.97746092
_cell_angle_gamma   59.97745855
_symmetry_Int_Tables_number   1
_chemical_formula_structural   Cu2NiC33
_chemical_formula_sum   'Cu2 Ni1 C33'
_cell_volume   452.35451216
_cell_formula_units_Z   1
loop_
 _symmetry_equiv_pos_site_id
 _symmetry_equiv_pos_as_xyz
  1  'x, y, z'
loop_
 _atom_site_type_symbol
 _atom_site_label
 _atom_site_symmetry_multiplicity
 _atom_site_fract_x
 _atom_site_fract_y
 _atom_site_fract_z
 _atom_site_occupancy
  C  C0  1  0.85695900  0.85695900  0.85695900  1
  C  C1  1  0.64352300  0.64352300  0.64352300  1
  C  C2  1  0.35617800  0.35617800  0.35617800  1
  Ni  Ni3  1  0.14354400  0.14354400  0.14354400  1
  Cu  Cu4  1  0.99962500  0.99962500  0.99962500  1
  Cu  Cu5  1  0.50008200  0.50008200  0.50008200  1
  C  C6  1  0.45703600  0.04156700  0.75092600  1
  C  C7  1  0.04156700  0.75092600  0.45703600  1
  C  C8  1  0.75092600  0.45703600  0.04156700  1
  C  C9  1  0.24943900  0.54243100  0.95728300  1
  C  C10  1  0.95728300  0.24943900  0.54243100  1
  C  C11  1  0.54243100  0.95728300  0.24943900  1
  C  C12  1  0.68878200  0.50591300  0.87876000  1
  C  C13  1  0.50591300  0.87876000  0.68878200  1
  C  C14  1  0.08475000  0.73720100  0.94348500  1
  C  C15  1  0.87876000  0.68878200  0.50591300  1
  C  C16  1  0.19279400  0.38777100  0.98605800  1
  C  C17  1  0.41679800  0.56483500  0.76639400  1
  C  C18  1  0.94348500  0.08475000  0.73720100  1
  C  C19  1  0.76639400  0.41679800  0.56483500  1
  C  C20  1  0.62188800  0.99784700  0.80929700  1
  C  C21  1  0.56483500  0.76639400  0.41679800  1
  C  C22  1  0.26512700  0.05133900  0.91302100  1
  C  C23  1  0.99784700  0.80929700  0.62188800  1
  C  C24  1  0.98605800  0.19279400  0.38777100  1
  C  C25  1  0.73720100  0.94348500  0.08475000  1
  C  C26  1  0.44489500  0.23310200  0.58373200  1
  C  C27  1  0.38777100  0.98605800  0.19279400  1
  C  C28  1  0.23310200  0.58373200  0.44489500  1
  C  C29  1  0.05133900  0.91302100  0.26512700  1
  C  C30  1  0.58373200  0.44489500  0.23310200  1
  C  C31  1  0.80929700  0.62188800  0.99784700  1
  C  C32  1  0.12349600  0.30679400  0.49732800  1
  C  C33  1  0.91302100  0.26512700  0.05133900  1
  C  C34  1  0.49732800  0.12349600  0.30679400  1
  C  C35  1  0.30679400  0.49732800  0.12349600  1
