# generated using pymatgen
data_Cu12Ni4C
_symmetry_space_group_name_H-M   'P 1'
_cell_length_a   16.79485944
_cell_length_b   16.79485944
_cell_length_c   16.79485944
_cell_angle_alpha   60.00000000
_cell_angle_beta   60.00000000
_cell_angle_gamma   60.00000000
_symmetry_Int_Tables_number   1
_chemical_formula_structural   Cu12Ni4C
_chemical_formula_sum   'Cu24 Ni8 C2'
_cell_volume   3349.76331995
_cell_formula_units_Z   2
loop_
 _symmetry_equiv_pos_site_id
 _symmetry_equiv_pos_as_xyz
  1  'x, y, z'
loop_
 _atom_site_type_symbol
 _atom_site_label
 _atom_site_symmetry_multiplicity
 _atom_site_fract_x
 _atom_site_fract_y
 _atom_site_fract_z
 _atom_site_occupancy
  C  C0  1  0.00000000  0.00000000  0.00000000  1
  C  C1  1  0.25000000  0.25000000  0.25000000  1
  Ni  Ni2  1  0.37419400  0.37419400  0.37419400  1
  Ni  Ni3  1  0.37419400  0.37419400  0.87741800  1
  Ni  Ni4  1  0.37419400  0.87741800  0.37419400  1
  Ni  Ni5  1  0.87580600  0.87580600  0.37258200  1
  Ni  Ni6  1  0.87580600  0.87580600  0.87580600  1
  Ni  Ni7  1  0.87741800  0.37419400  0.37419400  1
  Ni  Ni8  1  0.87580600  0.37258200  0.87580600  1
  Ni  Ni9  1  0.37258200  0.87580600  0.87580600  1
  Cu  Cu10  1  0.92344600  0.31546200  0.31546200  1
  Cu  Cu11  1  0.31546200  0.92344600  0.44562900  1
  Cu  Cu12  1  0.31546200  0.44562900  0.92344600  1
  Cu  Cu13  1  0.31546200  0.92344600  0.31546200  1
  Cu  Cu14  1  0.32655400  0.93453800  0.80437100  1
  Cu  Cu15  1  0.32655400  0.93453800  0.93453800  1
  Cu  Cu16  1  0.44562900  0.31546200  0.31546200  1
  Cu  Cu17  1  0.44562900  0.31546200  0.92344600  1
  Cu  Cu18  1  0.93453800  0.32655400  0.93453800  1
  Cu  Cu19  1  0.93453800  0.32655400  0.80437100  1
  Cu  Cu20  1  0.92344600  0.31546200  0.44562900  1
  Cu  Cu21  1  0.93453800  0.80437100  0.93453800  1
  Cu  Cu22  1  0.93453800  0.80437100  0.32655400  1
  Cu  Cu23  1  0.31546200  0.44562900  0.31546200  1
  Cu  Cu24  1  0.80437100  0.93453800  0.32655400  1
  Cu  Cu25  1  0.80437100  0.93453800  0.93453800  1
  Cu  Cu26  1  0.31546200  0.31546200  0.92344600  1
  Cu  Cu27  1  0.44562900  0.92344600  0.31546200  1
  Cu  Cu28  1  0.31546200  0.31546200  0.44562900  1
  Cu  Cu29  1  0.92344600  0.44562900  0.31546200  1
  Cu  Cu30  1  0.80437100  0.32655400  0.93453800  1
  Cu  Cu31  1  0.93453800  0.93453800  0.32655400  1
  Cu  Cu32  1  0.32655400  0.80437100  0.93453800  1
  Cu  Cu33  1  0.93453800  0.93453800  0.80437100  1
