# generated using pymatgen
data_Cu24Ni3C26
_symmetry_space_group_name_H-M   'P 1'
_cell_length_a   9.26859990
_cell_length_b   14.76483040
_cell_length_c   15.16411911
_cell_angle_alpha   90.24841978
_cell_angle_beta   90.00000150
_cell_angle_gamma   89.99999494
_symmetry_Int_Tables_number   1
_chemical_formula_structural   Cu24Ni3C26
_chemical_formula_sum   'Cu96 Ni12 C104'
_cell_volume   2075.17966510
_cell_formula_units_Z   4
loop_
 _symmetry_equiv_pos_site_id
 _symmetry_equiv_pos_as_xyz
  1  'x, y, z'
loop_
 _atom_site_type_symbol
 _atom_site_label
 _atom_site_symmetry_multiplicity
 _atom_site_fract_x
 _atom_site_fract_y
 _atom_site_fract_z
 _atom_site_occupancy
  C  C0  1  0.96633681  0.14267675  0.20931772  1
  C  C1  1  0.53366311  0.64267681  0.70931804  1
  C  C2  1  0.03366319  0.85732325  0.79068228  1
  C  C3  1  0.46633689  0.35732319  0.29068196  1
  C  C4  1  0.23562251  0.24717043  0.93772720  1
  C  C5  1  0.26437742  0.74717040  0.43772734  1
  C  C6  1  0.76437749  0.75282957  0.06227280  1
  C  C7  1  0.73562258  0.25282960  0.56227266  1
  C  C8  1  0.80867821  0.38600079  0.20401216  1
  C  C9  1  0.69132167  0.88600061  0.70401222  1
  C  C10  1  0.19132179  0.61399921  0.79598784  1
  C  C11  1  0.30867833  0.11399939  0.29598778  1
  C  C12  1  0.95671220  0.24881301  0.81981072  1
  C  C13  1  0.54328657  0.74881301  0.31981147  1
  C  C14  1  0.04328780  0.75118699  0.18018928  1
  C  C15  1  0.45671343  0.25118699  0.68018853  1
  Ni  Ni16  1  0.72737834  0.40441451  0.90128419  1
  Ni  Ni17  1  0.77262137  0.90441473  0.40128430  1
  Ni  Ni18  1  0.27262166  0.59558549  0.09871581  1
  Ni  Ni19  1  0.22737863  0.09558527  0.59871570  1
  Ni  Ni20  1  0.72103285  0.10835706  0.90932714  1
  Ni  Ni21  1  0.77896707  0.60835710  0.40932719  1
  Ni  Ni22  1  0.27896715  0.89164294  0.09067286  1
  Ni  Ni23  1  0.22103293  0.39164290  0.59067281  1
  Ni  Ni24  1  0.84320883  0.25961669  0.01664065  1
  Ni  Ni25  1  0.65679095  0.75961678  0.51664070  1
  Ni  Ni26  1  0.15679117  0.74038331  0.98335935  1
  Ni  Ni27  1  0.34320905  0.24038322  0.48335930  1
  Cu  Cu28  1  0.99720301  0.19487494  0.65343074  1
  Cu  Cu29  1  0.50279704  0.69487498  0.15343078  1
  Cu  Cu30  1  0.00279699  0.80512506  0.34656926  1
  Cu  Cu31  1  0.49720296  0.30512502  0.84656922  1
  Cu  Cu32  1  0.99378785  0.30432207  0.65561358  1
  Cu  Cu33  1  0.50621207  0.80432213  0.15561355  1
  Cu  Cu34  1  0.00621215  0.69567793  0.34438642  1
  Cu  Cu35  1  0.49378793  0.19567787  0.84438645  1
  Cu  Cu36  1  0.11428090  0.40402418  0.84487499  1
  Cu  Cu37  1  0.38571902  0.90402418  0.34487503  1
  Cu  Cu38  1  0.88571910  0.59597582  0.15512501  1
  Cu  Cu39  1  0.61428098  0.09597582  0.65512497  1
  Cu  Cu40  1  0.19379115  0.34749379  0.76768895  1
  Cu  Cu41  1  0.30620896  0.84749382  0.26768891  1
  Cu  Cu42  1  0.80620885  0.65250621  0.23231105  1
  Cu  Cu43  1  0.69379104  0.15250618  0.73231109  1
  Cu  Cu44  1  0.19295928  0.14655484  0.76998512  1
  Cu  Cu45  1  0.30704074  0.64655484  0.26998506  1
  Cu  Cu46  1  0.80704072  0.85344516  0.23001488  1
  Cu  Cu47  1  0.69295926  0.35344516  0.73001494  1
  Cu  Cu48  1  0.10967029  0.08782194  0.84394989  1
  Cu  Cu49  1  0.39032967  0.58782189  0.34394992  1
  Cu  Cu50  1  0.89032971  0.91217806  0.15605011  1
  Cu  Cu51  1  0.60967033  0.41217811  0.65605008  1
  Cu  Cu52  1  0.65117319  0.10161923  0.23954051  1
  Cu  Cu53  1  0.84882692  0.60161926  0.73954054  1
  Cu  Cu54  1  0.34882681  0.89838077  0.76045949  1
  Cu  Cu55  1  0.15117308  0.39838074  0.26045946  1
  Cu  Cu56  1  0.73196825  0.07808397  0.32697371  1
  Cu  Cu57  1  0.76803169  0.57808394  0.82697365  1
  Cu  Cu58  1  0.26803175  0.92191603  0.67302629  1
  Cu  Cu59  1  0.23196831  0.42191606  0.17302635  1
  Cu  Cu60  1  0.76300955  0.31421462  0.37791819  1
  Cu  Cu61  1  0.73699050  0.81421462  0.87791824  1
  Cu  Cu62  1  0.23699045  0.68578538  0.62208181  1
  Cu  Cu63  1  0.26300950  0.18578538  0.12208176  1
  Cu  Cu64  1  0.71367306  0.23559985  0.31334599  1
  Cu  Cu65  1  0.78632685  0.73559988  0.81334594  1
  Cu  Cu66  1  0.28632694  0.76440015  0.68665401  1
  Cu  Cu67  1  0.21367315  0.26440012  0.18665406  1
  Cu  Cu68  1  0.87489977  0.02107547  0.05454198  1
  Cu  Cu69  1  0.62510019  0.52107546  0.55454200  1
  Cu  Cu70  1  0.12510023  0.97892453  0.94545802  1
  Cu  Cu71  1  0.37489981  0.47892454  0.44545800  1
  Cu  Cu72  1  0.03325739  0.00074766  0.08738438  1
  Cu  Cu73  1  0.46674255  0.50074762  0.58738437  1
  Cu  Cu74  1  0.96674261  0.99925234  0.91261562  1
  Cu  Cu75  1  0.53325745  0.49925238  0.41261563  1
  Cu  Cu76  1  0.97756662  0.19631213  0.39634009  1
  Cu  Cu77  1  0.52243346  0.69631215  0.89634005  1
  Cu  Cu78  1  0.02243338  0.80368787  0.60365991  1
  Cu  Cu79  1  0.47756654  0.30368785  0.10365995  1
  Cu  Cu80  1  0.11954977  0.24451956  0.36363287  1
  Cu  Cu81  1  0.38045026  0.74451955  0.86363291  1
  Cu  Cu82  1  0.88045023  0.75548044  0.63636713  1
  Cu  Cu83  1  0.61954974  0.25548045  0.13636709  1
  Cu  Cu84  1  0.62681919  0.53504908  0.26136333  1
  Cu  Cu85  1  0.87318078  0.03504913  0.76136336  1
  Cu  Cu86  1  0.37318081  0.46495092  0.73863667  1
  Cu  Cu87  1  0.12681922  0.96495087  0.23863664  1
  Cu  Cu88  1  0.54436341  0.51718567  0.17418085  1
  Cu  Cu89  1  0.95563657  0.01718568  0.67418086  1
  Cu  Cu90  1  0.45563659  0.48281433  0.82581915  1
  Cu  Cu91  1  0.04436343  0.98281432  0.32581914  1
  Cu  Cu92  1  0.31805860  0.41194637  0.03930796  1
  Cu  Cu93  1  0.18194144  0.91194638  0.53930798  1
  Cu  Cu94  1  0.68194140  0.58805363  0.96069204  1
  Cu  Cu95  1  0.81805856  0.08805362  0.46069202  1
  Cu  Cu96  1  0.44490673  0.38157338  0.97577756  1
  Cu  Cu97  1  0.05509327  0.88157339  0.47577759  1
  Cu  Cu98  1  0.55509327  0.61842662  0.02422244  1
  Cu  Cu99  1  0.94490673  0.11842661  0.52422241  1
  Cu  Cu100  1  0.43353540  0.11513487  0.97795027  1
  Cu  Cu101  1  0.06646470  0.61513492  0.47795033  1
  Cu  Cu102  1  0.56646460  0.88486513  0.02204973  1
  Cu  Cu103  1  0.93353530  0.38486508  0.52204967  1
  Cu  Cu104  1  0.30111257  0.06924701  0.02696592  1
  Cu  Cu105  1  0.19888738  0.56924703  0.52696593  1
  Cu  Cu106  1  0.69888743  0.93075299  0.97303408  1
  Cu  Cu107  1  0.80111262  0.43075297  0.47303407  1
  Cu  Cu108  1  0.87469873  0.49283623  0.04774860  1
  Cu  Cu109  1  0.62530126  0.99283624  0.54774855  1
  Cu  Cu110  1  0.12530127  0.50716377  0.95225140  1
  Cu  Cu111  1  0.37469874  0.00716376  0.45225145  1
  Cu  Cu112  1  0.02577326  0.49483486  0.09727430  1
  Cu  Cu113  1  0.47422675  0.99483484  0.59727430  1
  Cu  Cu114  1  0.97422674  0.50516514  0.90272570  1
  Cu  Cu115  1  0.52577325  0.00516516  0.40272570  1
  Cu  Cu116  1  0.98220211  0.49425419  0.33681527  1
  Cu  Cu117  1  0.51779786  0.99425424  0.83681527  1
  Cu  Cu118  1  0.01779789  0.50574581  0.66318473  1
  Cu  Cu119  1  0.48220214  0.00574576  0.16318473  1
  Cu  Cu120  1  0.96790376  0.39197733  0.36146706  1
  Cu  Cu121  1  0.53209626  0.89197737  0.86146706  1
  Cu  Cu122  1  0.03209624  0.60802267  0.63853294  1
  Cu  Cu123  1  0.46790374  0.10802263  0.13853294  1
  C  C124  1  0.56294385  0.40417226  0.89184635  1
  C  C125  1  0.93705637  0.90417221  0.39184639  1
  C  C126  1  0.43705615  0.59582774  0.10815365  1
  C  C127  1  0.06294363  0.09582779  0.60815361  1
  C  C128  1  0.80203821  0.35052328  0.82804062  1
  C  C129  1  0.69796168  0.85052319  0.32804078  1
  C  C130  1  0.19796179  0.64947672  0.17195938  1
  C  C131  1  0.30203832  0.14947681  0.67195922  1
  C  C132  1  0.79086955  0.49962847  0.91694348  1
  C  C133  1  0.70913040  0.99962824  0.41694358  1
  C  C134  1  0.20913045  0.50037153  0.08305652  1
  C  C135  1  0.29086960  0.00037176  0.58305642  1
  C  C136  1  0.76137028  0.35361067  0.99555357  1
  C  C137  1  0.73862984  0.85361070  0.49555367  1
  C  C138  1  0.23862972  0.64638933  0.00444643  1
  C  C139  1  0.26137016  0.14638930  0.50444633  1
  C  C140  1  0.79340491  0.02454334  0.94861592  1
  C  C141  1  0.70659484  0.52454335  0.44861592  1
  C  C142  1  0.20659509  0.97545666  0.05138408  1
  C  C143  1  0.29340516  0.47545665  0.55138408  1
  C  C144  1  0.55930064  0.09753665  0.89117211  1
  C  C145  1  0.94069910  0.59753684  0.39117189  1
  C  C146  1  0.44069936  0.90246335  0.10882789  1
  C  C147  1  0.05930090  0.40246316  0.60882811  1
  C  C148  1  0.80371155  0.14449646  0.82856201  1
  C  C149  1  0.69628852  0.64449676  0.32856206  1
  C  C150  1  0.19628845  0.85550354  0.17143799  1
  C  C151  1  0.30371148  0.35550324  0.67143794  1
  C  C152  1  0.72347116  0.18654563  0.98619949  1
  C  C153  1  0.77652870  0.68654565  0.48619952  1
  C  C154  1  0.27652884  0.81345437  0.01380051  1
  C  C155  1  0.22347130  0.31345435  0.51380048  1
  C  C156  1  0.85419332  0.25598737  0.11498156  1
  C  C157  1  0.64580662  0.75598726  0.61498173  1
  C  C158  1  0.14580668  0.74401263  0.88501844  1
  C  C159  1  0.35419338  0.24401274  0.38501827  1
  C  C160  1  0.97568074  0.24969942  0.95906951  1
  C  C161  1  0.52431944  0.74969951  0.45906983  1
  C  C162  1  0.02431926  0.75030058  0.04093049  1
  C  C163  1  0.47568056  0.25030049  0.54093017  1
  C  C164  1  0.94877227  0.24857607  0.68116895  1
  C  C165  1  0.55122754  0.74857624  0.18116883  1
  C  C166  1  0.05122773  0.75142393  0.31883105  1
  C  C167  1  0.44877246  0.25142376  0.81883117  1
  C  C168  1  0.13109319  0.34160137  0.82051118  1
  C  C169  1  0.36890678  0.84160131  0.32051109  1
  C  C170  1  0.86890681  0.65839863  0.17948882  1
  C  C171  1  0.63109322  0.15839869  0.67948891  1
  C  C172  1  0.12773259  0.15093681  0.82184847  1
  C  C173  1  0.37226758  0.65093695  0.32184860  1
  C  C174  1  0.87226741  0.84906319  0.17815153  1
  C  C175  1  0.62773242  0.34906305  0.67815140  1
  C  C176  1  0.73408694  0.12100254  0.27704590  1
  C  C177  1  0.76591287  0.62100264  0.77704576  1
  C  C178  1  0.26591306  0.87899746  0.72295410  1
  C  C179  1  0.23408713  0.37899736  0.22295424  1
  C  C180  1  0.70386114  0.30167849  0.32565957  1
  C  C181  1  0.79613862  0.80167847  0.82565962  1
  C  C182  1  0.29613886  0.69832151  0.67434043  1
  C  C183  1  0.20386138  0.19832153  0.17434038  1
  C  C184  1  0.93332389  0.01296808  0.10878968  1
  C  C185  1  0.56667613  0.51296796  0.60878973  1
  C  C186  1  0.06667611  0.98703192  0.89121032  1
  C  C187  1  0.43332387  0.48703204  0.39121027  1
  C  C188  1  0.02443277  0.22407972  0.34418082  1
  C  C189  1  0.47556745  0.72407984  0.84418066  1
  C  C190  1  0.97556723  0.77592028  0.65581918  1
  C  C191  1  0.52443255  0.27592016  0.15581934  1
  C  C192  1  0.60561062  0.48663529  0.21856986  1
  C  C193  1  0.89438940  0.98663522  0.71856967  1
  C  C194  1  0.39438938  0.51336471  0.78143014  1
  C  C195  1  0.10561060  0.01336478  0.28143033  1
  C  C196  1  0.37079868  0.35786282  0.01737534  1
  C  C197  1  0.12920173  0.85786295  0.51737529  1
  C  C198  1  0.62920132  0.64213718  0.98262466  1
  C  C199  1  0.87079827  0.14213705  0.48262471  1
  C  C200  1  0.35234117  0.12825088  0.01902456  1
  C  C201  1  0.14765836  0.62825099  0.51902433  1
  C  C202  1  0.64765883  0.87174912  0.98097544  1
  C  C203  1  0.85234164  0.37174901  0.48097567  1
  C  C204  1  0.91884425  0.49610720  0.10651148  1
  C  C205  1  0.58115543  0.99610727  0.60651144  1
  C  C206  1  0.08115575  0.50389280  0.89348852  1
  C  C207  1  0.41884457  0.00389273  0.39348856  1
  C  C208  1  0.99018150  0.43201063  0.31163593  1
  C  C209  1  0.50981827  0.93201088  0.81163591  1
  C  C210  1  0.00981850  0.56798937  0.68836407  1
  C  C211  1  0.49018173  0.06798912  0.18836409  1
