# generated using pymatgen
data_Cu2Ni4C3
_symmetry_space_group_name_H-M   'P 1'
_cell_length_a   5.38017200
_cell_length_b   5.38017200
_cell_length_c   7.47309900
_cell_angle_alpha   90.00000000
_cell_angle_beta   90.00000000
_cell_angle_gamma   90.00000000
_symmetry_Int_Tables_number   1
_chemical_formula_structural   Cu2Ni4C3
_chemical_formula_sum   'Cu4 Ni8 C6'
_cell_volume   216.31819753
_cell_formula_units_Z   2
loop_
 _symmetry_equiv_pos_site_id
 _symmetry_equiv_pos_as_xyz
  1  'x, y, z'
loop_
 _atom_site_type_symbol
 _atom_site_label
 _atom_site_symmetry_multiplicity
 _atom_site_fract_x
 _atom_site_fract_y
 _atom_site_fract_z
 _atom_site_occupancy
  C  C0  1  0.50000000  0.00000000  0.24784300  1
  C  C1  1  0.00000000  0.50000000  0.74784300  1
  Ni  Ni2  1  0.32873900  0.50000000  0.40386500  1
  Ni  Ni3  1  0.67126100  0.50000000  0.40386500  1
  Ni  Ni4  1  0.50000000  0.32873900  0.90386500  1
  Ni  Ni5  1  0.50000000  0.67126100  0.90386500  1
  Ni  Ni6  1  0.17026100  0.00000000  0.59805400  1
  Ni  Ni7  1  0.82973900  0.00000000  0.59805400  1
  Ni  Ni8  1  0.00000000  0.17026100  0.09805400  1
  Ni  Ni9  1  0.00000000  0.82973900  0.09805400  1
  Cu  Cu10  1  0.75201400  0.50000000  0.10526200  1
  Cu  Cu11  1  0.24798600  0.50000000  0.10526200  1
  Cu  Cu12  1  0.50000000  0.75201400  0.60526200  1
  Cu  Cu13  1  0.50000000  0.24798600  0.60526200  1
  C  C14  1  0.74943600  0.00000000  0.89389600  1
  C  C15  1  0.25056400  0.00000000  0.89389600  1
  C  C16  1  0.00000000  0.74943600  0.39389600  1
  C  C17  1  0.00000000  0.25056400  0.39389600  1
