# generated using pymatgen
data_Cu6Ni3C25
_symmetry_space_group_name_H-M   'P 1'
_cell_length_a   8.74227100
_cell_length_b   8.53584600
_cell_length_c   14.63211486
_cell_angle_alpha   55.18493202
_cell_angle_beta   90.00000000
_cell_angle_gamma   90.00000000
_symmetry_Int_Tables_number   1
_chemical_formula_structural   Cu6Ni3C25
_chemical_formula_sum   'Cu12 Ni6 C50'
_cell_volume   896.43873492
_cell_formula_units_Z   2
loop_
 _symmetry_equiv_pos_site_id
 _symmetry_equiv_pos_as_xyz
  1  'x, y, z'
loop_
 _atom_site_type_symbol
 _atom_site_label
 _atom_site_symmetry_multiplicity
 _atom_site_fract_x
 _atom_site_fract_y
 _atom_site_fract_z
 _atom_site_occupancy
  C  C0  1  0.71841600  0.87342000  0.37715200  1
  C  C1  1  0.28158400  0.87342000  0.87715200  1
  Ni  Ni2  1  0.71732200  0.63488100  0.11587800  1
  Ni  Ni3  1  0.28267800  0.63488100  0.61587800  1
  Ni  Ni4  1  0.78400400  0.36531700  0.88510500  1
  Ni  Ni5  1  0.21599600  0.36531700  0.38510500  1
  Ni  Ni6  1  0.78409900  0.13237300  0.61592300  1
  Ni  Ni7  1  0.21590100  0.13237300  0.11592300  1
  Cu  Cu8  1  0.13263200  0.52743600  0.85530200  1
  Cu  Cu9  1  0.86736800  0.52743600  0.35530200  1
  Cu  Cu10  1  0.36684400  0.46034600  0.14690700  1
  Cu  Cu11  1  0.63315600  0.46034600  0.64690700  1
  Cu  Cu12  1  0.36090500  0.75979700  0.34651200  1
  Cu  Cu13  1  0.63909500  0.75979700  0.84651200  1
  Cu  Cu14  1  0.12818800  0.25532200  0.64169500  1
  Cu  Cu15  1  0.87181200  0.25532200  0.14169500  1
  Cu  Cu16  1  0.99755300  0.96164200  0.00572500  1
  Cu  Cu17  1  0.00244700  0.96164200  0.50572500  1
  Cu  Cu18  1  0.50562500  0.04364200  0.99819700  1
  Cu  Cu19  1  0.49437500  0.04364200  0.49819700  1
  C  C20  1  0.97832800  0.50117500  0.81112300  1
  C  C21  1  0.02167200  0.50117500  0.31112300  1
  C  C22  1  0.53406400  0.46567400  0.18388800  1
  C  C23  1  0.46593600  0.46567400  0.68388800  1
  C  C24  1  0.18708700  0.32428000  0.95324900  1
  C  C25  1  0.81291300  0.32428000  0.45324900  1
  C  C26  1  0.31669800  0.65584100  0.05212700  1
  C  C27  1  0.68330200  0.65584100  0.55212700  1
  C  C28  1  0.92099000  0.76153200  0.06171900  1
  C  C29  1  0.07901000  0.76153200  0.56171900  1
  C  C30  1  0.58734900  0.23655400  0.95891600  1
  C  C31  1  0.41265100  0.23655400  0.45891600  1
  C  C32  1  0.25271300  0.59667600  0.76099100  1
  C  C33  1  0.74728700  0.59667600  0.26099100  1
  C  C34  1  0.26186600  0.37424400  0.25081100  1
  C  C35  1  0.73813400  0.37424400  0.75081100  1
  C  C36  1  0.24937500  0.93386100  0.27798000  1
  C  C37  1  0.75062500  0.93386100  0.77798000  1
  C  C38  1  0.22520300  0.07781900  0.70345400  1
  C  C39  1  0.77479700  0.07781900  0.20345400  1
  C  C40  1  0.11289600  0.99748600  0.91998700  1
  C  C41  1  0.88710400  0.99748600  0.41998700  1
  C  C42  1  0.38355700  0.01539400  0.08449200  1
  C  C43  1  0.61644300  0.01539400  0.58449200  1
  C  C44  1  0.31581100  0.61318100  0.31965700  1
  C  C45  1  0.68418900  0.61318100  0.81965700  1
  C  C46  1  0.16698200  0.39710500  0.67272100  1
  C  C47  1  0.83301800  0.39710500  0.17272100  1
  C  C48  1  0.12222800  0.66864300  0.88584200  1
  C  C49  1  0.87777200  0.66864300  0.38584200  1
  C  C50  1  0.36560100  0.30779200  0.11901500  1
  C  C51  1  0.63439900  0.30779200  0.61901500  1
  C  C52  1  0.32917100  0.67223100  0.47111600  1
  C  C53  1  0.67082900  0.67223100  0.97111600  1
  C  C54  1  0.14377600  0.36568900  0.51321600  1
  C  C55  1  0.85622400  0.36568900  0.01321600  1
  C  C56  1  0.86621700  0.10950200  0.94788700  1
  C  C57  1  0.13378300  0.10950200  0.44788700  1
  C  C58  1  0.61984700  0.87653200  0.07223400  1
  C  C59  1  0.38015300  0.87653200  0.57223400  1
  C  C60  1  0.52745600  0.80616200  0.31680400  1
  C  C61  1  0.47254400  0.80616200  0.81680400  1
  C  C62  1  0.95260600  0.21793300  0.66848000  1
  C  C63  1  0.04739400  0.21793300  0.16848000  1
  C  C64  1  0.06576000  0.96474300  0.10410000  1
  C  C65  1  0.93424000  0.96474300  0.60410000  1
  C  C66  1  0.44322300  0.04577500  0.90179700  1
  C  C67  1  0.55677700  0.04577500  0.40179700  1
