# generated using pymatgen
data_CuNi4C11
_symmetry_space_group_name_H-M   'P 1'
_cell_length_a   6.04811847
_cell_length_b   6.03349812
_cell_length_c   10.55573889
_cell_angle_alpha   73.57559150
_cell_angle_beta   73.82313780
_cell_angle_gamma   60.31772349
_symmetry_Int_Tables_number   1
_chemical_formula_structural   CuNi4C11
_chemical_formula_sum   'Cu2 Ni8 C22'
_cell_volume   316.52364385
_cell_formula_units_Z   2
loop_
 _symmetry_equiv_pos_site_id
 _symmetry_equiv_pos_as_xyz
  1  'x, y, z'
loop_
 _atom_site_type_symbol
 _atom_site_label
 _atom_site_symmetry_multiplicity
 _atom_site_fract_x
 _atom_site_fract_y
 _atom_site_fract_z
 _atom_site_occupancy
  C  C0  1  0.75000100  0.74999800  0.25000000  1
  C  C1  1  0.24999700  0.25000200  0.75000100  1
  C  C2  1  0.00069500  0.50775700  0.99498800  1
  C  C3  1  0.49930500  0.99224300  0.50501200  1
  C  C4  1  0.00591000  0.50534400  0.49102400  1
  C  C5  1  0.49409100  0.99465500  0.00897800  1
  Ni  Ni6  1  0.74999900  0.75000100  0.75000100  1
  Ni  Ni7  1  0.25000000  0.24999900  0.25000000  1
  Ni  Ni8  1  0.00327200  0.00002000  0.99774900  1
  Ni  Ni9  1  0.49673000  0.49998100  0.50225000  1
  Ni  Ni10  1  0.75000200  0.24999900  0.24999900  1
  Ni  Ni11  1  0.24999900  0.75000100  0.75000100  1
  Ni  Ni12  1  0.25000000  0.74999900  0.24999900  1
  Ni  Ni13  1  0.74999800  0.25000100  0.74999900  1
  Cu  Cu14  1  0.99733500  0.99638600  0.50071600  1
  Cu  Cu15  1  0.50267400  0.50360800  0.99928500  1
  C  C16  1  0.88512700  0.87741500  0.37230700  1
  C  C17  1  0.37036400  0.40860900  0.86832100  1
  C  C18  1  0.12963300  0.09139500  0.63168000  1
  C  C19  1  0.61487200  0.62258400  0.12769300  1
  C  C20  1  0.90941400  0.87057600  0.86057600  1
  C  C21  1  0.37088700  0.40164600  0.36275200  1
  C  C22  1  0.12911200  0.09835300  0.13724600  1
  C  C23  1  0.59058300  0.62942700  0.63942500  1
  C  C24  1  0.63418400  0.12083400  0.62138200  1
  C  C25  1  0.13864400  0.62305300  0.12401700  1
  C  C26  1  0.11836400  0.62826400  0.61986600  1
  C  C27  1  0.62183900  0.13653800  0.11750700  1
  C  C28  1  0.87816100  0.36345900  0.38249300  1
  C  C29  1  0.38163600  0.87173500  0.88013500  1
  C  C30  1  0.36135500  0.87694600  0.37598100  1
  C  C31  1  0.86581800  0.37917000  0.87861700  1
