# generated using pymatgen
data_Cu2NiC9
_symmetry_space_group_name_H-M   'P 1'
_cell_length_a   7.90356400
_cell_length_b   7.90356400
_cell_length_c   10.61219300
_cell_angle_alpha   90.00000000
_cell_angle_beta   90.00000000
_cell_angle_gamma   90.00000000
_symmetry_Int_Tables_number   1
_chemical_formula_structural   Cu2NiC9
_chemical_formula_sum   'Cu8 Ni4 C36'
_cell_volume   662.90468525
_cell_formula_units_Z   4
loop_
 _symmetry_equiv_pos_site_id
 _symmetry_equiv_pos_as_xyz
  1  'x, y, z'
loop_
 _atom_site_type_symbol
 _atom_site_label
 _atom_site_symmetry_multiplicity
 _atom_site_fract_x
 _atom_site_fract_y
 _atom_site_fract_z
 _atom_site_occupancy
  Ni  Ni0  1  0.00000000  0.50000000  0.75000000  1
  Ni  Ni1  1  0.50000000  0.00000000  0.25000000  1
  Ni  Ni2  1  0.00000000  0.50000000  0.25000000  1
  Ni  Ni3  1  0.50000000  0.00000000  0.75000000  1
  C  C4  1  0.63949300  0.63949300  0.00000000  1
  C  C5  1  0.86050700  0.13949300  0.50000000  1
  C  C6  1  0.13949300  0.86050700  0.50000000  1
  C  C7  1  0.36050700  0.36050700  0.00000000  1
  C  C8  1  0.29918500  0.29918500  0.50000000  1
  C  C9  1  0.79918500  0.20081500  0.00000000  1
  C  C10  1  0.70081500  0.70081500  0.50000000  1
  C  C11  1  0.20081500  0.79918500  0.00000000  1
  Cu  Cu12  1  0.86277800  0.86277800  0.78864900  1
  Cu  Cu13  1  0.13722200  0.13722200  0.78864900  1
  Cu  Cu14  1  0.86277800  0.86277800  0.21135100  1
  Cu  Cu15  1  0.36277800  0.63722200  0.28864900  1
  Cu  Cu16  1  0.63722200  0.36277800  0.28864900  1
  Cu  Cu17  1  0.63722200  0.36277800  0.71135100  1
  Cu  Cu18  1  0.36277800  0.63722200  0.71135100  1
  Cu  Cu19  1  0.13722200  0.13722200  0.21135100  1
  C  C20  1  0.30498600  0.07983200  0.15022800  1
  C  C21  1  0.69501300  0.92016800  0.15022800  1
  C  C22  1  0.07983200  0.30498600  0.84977200  1
  C  C23  1  0.57983200  0.19501400  0.65022800  1
  C  C24  1  0.42016800  0.80498700  0.65022800  1
  C  C25  1  0.19501400  0.57983200  0.34977200  1
  C  C26  1  0.80498700  0.42016800  0.34977200  1
  C  C27  1  0.92016800  0.69501300  0.84977200  1
  C  C28  1  0.69501300  0.92016800  0.84977200  1
  C  C29  1  0.30498600  0.07983200  0.84977200  1
  C  C30  1  0.92016800  0.69501300  0.15022800  1
  C  C31  1  0.42016800  0.80498700  0.34977200  1
  C  C32  1  0.57983200  0.19501400  0.34977200  1
  C  C33  1  0.80498700  0.42016800  0.65022800  1
  C  C34  1  0.19501400  0.57983200  0.65022800  1
  C  C35  1  0.07983200  0.30498600  0.15022800  1
  C  C36  1  0.86537700  0.86537700  0.64525400  1
  C  C37  1  0.13462300  0.13462300  0.64525400  1
  C  C38  1  0.86537700  0.86537700  0.35474600  1
  C  C39  1  0.36537700  0.63462300  0.14525400  1
  C  C40  1  0.00000000  0.00000000  0.15729700  1
  C  C41  1  0.50000000  0.50000000  0.65729700  1
  C  C42  1  0.50000000  0.50000000  0.34270300  1
  C  C43  1  0.00000000  0.00000000  0.84270300  1
  C  C44  1  0.13462300  0.13462300  0.35474600  1
  C  C45  1  0.36537700  0.63462300  0.85474600  1
  C  C46  1  0.63462300  0.36537700  0.85474600  1
  C  C47  1  0.63462300  0.36537700  0.14525400  1
