# generated using pymatgen
data_Cu5NiC6
_symmetry_space_group_name_H-M   'P 1'
_cell_length_a   6.73013900
_cell_length_b   11.70859000
_cell_length_c   16.25054668
_cell_angle_alpha   78.37779922
_cell_angle_beta   90.00000000
_cell_angle_gamma   90.00000000
_symmetry_Int_Tables_number   1
_chemical_formula_structural   Cu5NiC6
_chemical_formula_sum   'Cu20 Ni4 C24'
_cell_volume   1254.29541569
_cell_formula_units_Z   4
loop_
 _symmetry_equiv_pos_site_id
 _symmetry_equiv_pos_as_xyz
  1  'x, y, z'
loop_
 _atom_site_type_symbol
 _atom_site_label
 _atom_site_symmetry_multiplicity
 _atom_site_fract_x
 _atom_site_fract_y
 _atom_site_fract_z
 _atom_site_occupancy
  C  C0  1  0.46815600  0.54525900  0.16051600  1
  C  C1  1  0.96815600  0.45474100  0.33948400  1
  C  C2  1  0.53184400  0.45474100  0.83948400  1
  C  C3  1  0.03184400  0.54525900  0.66051600  1
  C  C4  1  0.37202600  0.17351200  0.42376600  1
  C  C5  1  0.87202600  0.82648800  0.07623400  1
  C  C6  1  0.62797400  0.82648800  0.57623400  1
  C  C7  1  0.12797400  0.17351200  0.92376600  1
  C  C8  1  0.17154800  0.77599600  0.40967200  1
  C  C9  1  0.67154800  0.22400400  0.09032800  1
  C  C10  1  0.82845200  0.22400400  0.59032800  1
  C  C11  1  0.32845200  0.77599600  0.90967200  1
  Ni  Ni12  1  0.50748300  0.09057400  0.13996800  1
  Ni  Ni13  1  0.00748300  0.90942600  0.36003200  1
  Ni  Ni14  1  0.49251700  0.90942600  0.86003200  1
  Ni  Ni15  1  0.99251700  0.09057400  0.63996800  1
  Cu  Cu16  1  0.35868200  0.83717800  0.04312100  1
  Cu  Cu17  1  0.85868200  0.16282200  0.45687900  1
  Cu  Cu18  1  0.64131800  0.16282200  0.95687900  1
  Cu  Cu19  1  0.14131800  0.83717800  0.54312100  1
  Cu  Cu20  1  0.17541100  0.73621500  0.27205800  1
  Cu  Cu21  1  0.67541100  0.26378500  0.22794200  1
  Cu  Cu22  1  0.82458900  0.26378500  0.72794200  1
  Cu  Cu23  1  0.32458900  0.73621500  0.77205800  1
  Cu  Cu24  1  0.36560300  0.32614000  0.05882700  1
  Cu  Cu25  1  0.86560300  0.67386000  0.44117300  1
  Cu  Cu26  1  0.63439700  0.67386000  0.94117300  1
  Cu  Cu27  1  0.13439700  0.32614000  0.55882700  1
  Cu  Cu28  1  0.94736700  0.09268000  0.12499100  1
  Cu  Cu29  1  0.44736700  0.90732000  0.37500900  1
  Cu  Cu30  1  0.05263300  0.90732000  0.87500900  1
  Cu  Cu31  1  0.55263300  0.09268000  0.62499100  1
  Cu  Cu32  1  0.96897700  0.55464100  0.13635000  1
  Cu  Cu33  1  0.46897700  0.44535900  0.36365000  1
  Cu  Cu34  1  0.03102300  0.44535900  0.86365000  1
  Cu  Cu35  1  0.53102300  0.55464100  0.63635000  1
  C  C36  1  0.31559500  0.65651800  0.45092700  1
  C  C37  1  0.81559500  0.34348200  0.04907300  1
  C  C38  1  0.68440500  0.34348200  0.54907300  1
  C  C39  1  0.18440500  0.65651800  0.95092700  1
  C  C40  1  0.41023700  0.01316500  0.17269000  1
  C  C41  1  0.91023700  0.98683500  0.32731000  1
  C  C42  1  0.58976300  0.98683500  0.82731000  1
  C  C43  1  0.08976300  0.01316500  0.67269000  1
  C  C44  1  0.16178700  0.25993400  0.26379200  1
  C  C45  1  0.66178700  0.74006600  0.23620800  1
  C  C46  1  0.83821300  0.74006600  0.73620800  1
  C  C47  1  0.33821300  0.25993400  0.76379200  1
