# generated using pymatgen
data_Cu5Ni2C25
_symmetry_space_group_name_H-M   'P 1'
_cell_length_a   4.99134800
_cell_length_b   5.94208231
_cell_length_c   10.24446825
_cell_angle_alpha   105.99703325
_cell_angle_beta   100.31482759
_cell_angle_gamma   90.69194393
_symmetry_Int_Tables_number   1
_chemical_formula_structural   Cu5Ni2C25
_chemical_formula_sum   'Cu5 Ni2 C25'
_cell_volume   286.74778359
_cell_formula_units_Z   1
loop_
 _symmetry_equiv_pos_site_id
 _symmetry_equiv_pos_as_xyz
  1  'x, y, z'
loop_
 _atom_site_type_symbol
 _atom_site_label
 _atom_site_symmetry_multiplicity
 _atom_site_fract_x
 _atom_site_fract_y
 _atom_site_fract_z
 _atom_site_occupancy
  C  C0  1  0.25315100  0.86242500  0.74412500  1
  C  C1  1  0.24342200  0.37983700  0.25087900  1
  C  C2  1  0.75508200  0.62503300  0.75002900  1
  C  C3  1  0.75005100  0.13131700  0.25597600  1
  C  C4  1  0.24646700  0.37231400  0.74306100  1
  C  C5  1  0.24660700  0.87966500  0.25292100  1
  C  C6  1  0.75412500  0.12079400  0.74720000  1
  C  C7  1  0.74925200  0.62616300  0.25605000  1
  C  C8  1  0.99956500  0.49862600  0.49966800  1
  Ni  Ni9  1  0.00147200  0.00063800  0.00100500  1
  Ni  Ni10  1  0.49956600  0.74977700  0.49985200  1
  Cu  Cu11  1  0.49451900  0.74666000  0.99594200  1
  Cu  Cu12  1  0.50068400  0.26180500  0.50022300  1
  Cu  Cu13  1  0.99924200  0.50000900  0.99940100  1
  Cu  Cu14  1  0.00042200  0.99511100  0.50009700  1
  Cu  Cu15  1  0.50536800  0.25380000  0.00391000  1
  C  C16  1  0.13673700  0.18703300  0.88935400  1
  C  C17  1  0.13364300  0.71708400  0.39192000  1
  C  C18  1  0.63722400  0.94788800  0.88600000  1
  C  C19  1  0.59867600  0.45873000  0.38479800  1
  C  C20  1  0.14505900  0.67405400  0.87459100  1
  C  C21  1  0.13134000  0.17022900  0.39322100  1
  C  C22  1  0.64152600  0.44091000  0.88312100  1
  C  C23  1  0.63642100  0.93461500  0.38836100  1
  C  C24  1  0.40124400  0.57190100  0.61502100  1
  C  C25  1  0.36513000  0.05351300  0.11654800  1
  C  C26  1  0.86936300  0.27457000  0.60601800  1
  C  C27  1  0.86372800  0.81265500  0.11102600  1
  C  C28  1  0.36356900  0.04390700  0.61174100  1
  C  C29  1  0.35676100  0.55938900  0.11430600  1
  C  C30  1  0.86677300  0.82323400  0.60843900  1
  C  C31  1  0.85380900  0.32631300  0.12519600  1
