# generated using pymatgen
data_CuNi4C15
_symmetry_space_group_name_H-M   'P 1'
_cell_length_a   8.85128378
_cell_length_b   8.85128378
_cell_length_c   14.86305198
_cell_angle_alpha   68.82032419
_cell_angle_beta   68.82032419
_cell_angle_gamma   68.91977164
_symmetry_Int_Tables_number   1
_chemical_formula_structural   CuNi4C15
_chemical_formula_sum   'Cu4 Ni16 C60'
_cell_volume   976.65743969
_cell_formula_units_Z   4
loop_
 _symmetry_equiv_pos_site_id
 _symmetry_equiv_pos_as_xyz
  1  'x, y, z'
loop_
 _atom_site_type_symbol
 _atom_site_label
 _atom_site_symmetry_multiplicity
 _atom_site_fract_x
 _atom_site_fract_y
 _atom_site_fract_z
 _atom_site_occupancy
  C  C0  1  0.50000000  0.50000000  0.00000000  1
  C  C1  1  0.50000000  0.50000000  0.50000000  1
  C  C2  1  0.55931300  0.44068700  0.75000000  1
  C  C3  1  0.44068700  0.55931300  0.25000000  1
  C  C4  1  0.83715500  0.62585100  0.94144000  1
  C  C5  1  0.37414900  0.16284500  0.55856000  1
  C  C6  1  0.16284500  0.37414900  0.05856000  1
  C  C7  1  0.62585100  0.83715500  0.44144000  1
  C  C8  1  0.17253400  0.81266500  0.83935500  1
  C  C9  1  0.18733500  0.82746600  0.66064500  1
  C  C10  1  0.82746600  0.18733500  0.16064500  1
  C  C11  1  0.81266500  0.17253400  0.33935500  1
  C  C12  1  0.09500200  0.96136200  0.90943100  1
  C  C13  1  0.03863800  0.90499800  0.59056900  1
  C  C14  1  0.90499800  0.03863800  0.09056900  1
  C  C15  1  0.96136200  0.09500200  0.40943100  1
  C  C16  1  0.02205000  0.36206300  0.71971900  1
  C  C17  1  0.63793700  0.97795000  0.78028100  1
  C  C18  1  0.97795000  0.63793700  0.28028100  1
  C  C19  1  0.36206300  0.02205000  0.21971900  1
  C  C20  1  0.62335200  0.19802400  0.93324800  1
  C  C21  1  0.80197600  0.37664800  0.56675200  1
  C  C22  1  0.37664800  0.80197600  0.06675200  1
  C  C23  1  0.19802400  0.62335200  0.43324800  1
  C  C24  1  0.43327700  0.22776600  0.94401800  1
  C  C25  1  0.77223400  0.56672300  0.55598200  1
  C  C26  1  0.56672300  0.77223400  0.05598200  1
  C  C27  1  0.22776600  0.43327700  0.44401800  1
  Ni  Ni28  1  0.94169800  0.81491100  0.93698300  1
  Ni  Ni29  1  0.18508900  0.05830200  0.56301700  1
  Ni  Ni30  1  0.05830200  0.18508900  0.06301700  1
  Ni  Ni31  1  0.81491100  0.94169800  0.43698300  1
  Ni  Ni32  1  0.03853600  0.51829700  0.80441600  1
  Ni  Ni33  1  0.48170300  0.96146400  0.69558400  1
  Ni  Ni34  1  0.96146400  0.48170300  0.19558400  1
  Ni  Ni35  1  0.51829700  0.03853600  0.30441600  1
  Ni  Ni36  1  0.88796500  0.44629900  0.84705600  1
  Ni  Ni37  1  0.55370100  0.11203500  0.65294400  1
  Ni  Ni38  1  0.11203500  0.55370100  0.15294400  1
  Ni  Ni39  1  0.44629900  0.88796500  0.34705600  1
  Ni  Ni40  1  0.17743100  0.46970800  0.71696300  1
  Ni  Ni41  1  0.53029200  0.82256900  0.78303700  1
  Ni  Ni42  1  0.82256900  0.53029200  0.28303700  1
  Ni  Ni43  1  0.46970800  0.17743100  0.21696300  1
  Cu  Cu44  1  0.78183800  0.88902400  0.02823700  1
  Cu  Cu45  1  0.11097600  0.21816200  0.47176300  1
  Cu  Cu46  1  0.21816200  0.11097600  0.97176300  1
  Cu  Cu47  1  0.88902400  0.78183800  0.52823700  1
  C  C48  1  0.93465500  0.68533600  0.90938400  1
  C  C49  1  0.31466400  0.06534500  0.59061600  1
  C  C50  1  0.06534500  0.31466400  0.09061600  1
  C  C51  1  0.68533600  0.93465500  0.40938400  1
  C  C52  1  0.05439800  0.63308900  0.83376400  1
  C  C53  1  0.36691100  0.94560200  0.66623600  1
  C  C54  1  0.94560200  0.36691100  0.16623600  1
  C  C55  1  0.63308900  0.05439800  0.33376400  1
  C  C56  1  0.07657200  0.87322600  0.88822100  1
  C  C57  1  0.12677400  0.92342800  0.61177900  1
  C  C58  1  0.92342800  0.12677400  0.11177900  1
  C  C59  1  0.87322600  0.07657200  0.38822100  1
  C  C60  1  0.78588700  0.47084900  0.92884100  1
  C  C61  1  0.52915100  0.21411300  0.57115900  1
  C  C62  1  0.21411300  0.52915100  0.07115900  1
  C  C63  1  0.47084900  0.78588700  0.42884100  1
  C  C64  1  0.87240900  0.36683300  0.79503100  1
  C  C65  1  0.63316700  0.12759100  0.70496900  1
  C  C66  1  0.12759100  0.63316700  0.20496900  1
  C  C67  1  0.36683300  0.87240900  0.29503100  1
  C  C68  1  0.14589400  0.37916800  0.67548700  1
  C  C69  1  0.62083200  0.85410600  0.82451300  1
  C  C70  1  0.85410600  0.62083200  0.32451300  1
  C  C71  1  0.37916800  0.14589400  0.17548700  1
  C  C72  1  0.30999200  0.51309500  0.68524300  1
  C  C73  1  0.48690500  0.69000800  0.81475700  1
  C  C74  1  0.69000800  0.48690500  0.31475700  1
  C  C75  1  0.51309500  0.30999200  0.18524300  1
  C  C76  1  0.52302500  0.28609700  0.91900600  1
  C  C77  1  0.71390300  0.47697500  0.58099400  1
  C  C78  1  0.47697500  0.71390300  0.08099400  1
  C  C79  1  0.28609700  0.52302500  0.41900600  1
