# generated using pymatgen
data_Cu3NiC18
_symmetry_space_group_name_H-M   'P 1'
_cell_length_a   7.26054329
_cell_length_b   7.26054329
_cell_length_c   7.21034199
_cell_angle_alpha   60.67994720
_cell_angle_beta   60.67994720
_cell_angle_gamma   60.88331198
_symmetry_Int_Tables_number   1
_chemical_formula_structural   Cu3NiC18
_chemical_formula_sum   'Cu3 Ni1 C18'
_cell_volume   273.30115658
_cell_formula_units_Z   1
loop_
 _symmetry_equiv_pos_site_id
 _symmetry_equiv_pos_as_xyz
  1  'x, y, z'
loop_
 _atom_site_type_symbol
 _atom_site_label
 _atom_site_symmetry_multiplicity
 _atom_site_fract_x
 _atom_site_fract_y
 _atom_site_fract_z
 _atom_site_occupancy
  Ni  Ni0  1  0.00000000  0.00000000  0.00000000  1
  Cu  Cu1  1  0.00000000  0.00000000  0.50000000  1
  Cu  Cu2  1  0.50000000  0.00000000  0.00000000  1
  Cu  Cu3  1  0.00000000  0.50000000  0.00000000  1
  C  C4  1  0.50000000  0.50000000  0.50000000  1
  C  C5  1  0.50000000  0.50000000  0.00000000  1
  C  C6  1  0.00000000  0.50000000  0.50000000  1
  C  C7  1  0.50000000  0.00000000  0.50000000  1
  C  C8  1  0.57206200  0.57206200  0.18016600  1
  C  C9  1  0.16935500  0.16935500  0.57293000  1
  C  C10  1  0.17404800  0.57865800  0.57906400  1
  C  C11  1  0.56343300  0.17651800  0.17526200  1
  C  C12  1  0.17651800  0.56343300  0.17526200  1
  C  C13  1  0.57865800  0.17404800  0.57906400  1
  C  C14  1  0.42793800  0.42793800  0.81983400  1
  C  C15  1  0.83064500  0.83064500  0.42707000  1
  C  C16  1  0.82595200  0.42134200  0.42093600  1
  C  C17  1  0.43656700  0.82348200  0.82473800  1
  C  C18  1  0.82348200  0.43656700  0.82473800  1
  C  C19  1  0.42134200  0.82595200  0.42093600  1
  C  C20  1  0.86682200  0.86682200  0.86933700  1
  C  C21  1  0.13317800  0.13317800  0.13066300  1
