# generated using pymatgen
data_Cu2Ni2C9
_symmetry_space_group_name_H-M   'P 1'
_cell_length_a   9.91269432
_cell_length_b   9.91269432
_cell_length_c   9.91269432
_cell_angle_alpha   100.61980302
_cell_angle_beta   100.61980302
_cell_angle_gamma   129.15480738
_symmetry_Int_Tables_number   1
_chemical_formula_structural   Cu2Ni2C9
_chemical_formula_sum   'Cu8 Ni8 C36'
_cell_volume   682.16981672
_cell_formula_units_Z   4
loop_
 _symmetry_equiv_pos_site_id
 _symmetry_equiv_pos_as_xyz
  1  'x, y, z'
loop_
 _atom_site_type_symbol
 _atom_site_label
 _atom_site_symmetry_multiplicity
 _atom_site_fract_x
 _atom_site_fract_y
 _atom_site_fract_z
 _atom_site_occupancy
  C  C0  1  0.00000000  0.00000000  0.00000000  1
  C  C1  1  0.25000000  0.75000000  0.50000000  1
  C  C2  1  0.50000000  0.50000000  0.00000000  1
  C  C3  1  0.75000000  0.25000000  0.50000000  1
  Ni  Ni4  1  0.37500000  0.20433800  0.32933800  1
  Ni  Ni5  1  0.95433800  0.62500000  0.82933800  1
  Ni  Ni6  1  0.87500000  0.54566200  0.17066200  1
  Ni  Ni7  1  0.37500000  0.70433800  0.82933800  1
  Ni  Ni8  1  0.79566200  0.12500000  0.17066200  1
  Ni  Ni9  1  0.29566200  0.12500000  0.67066200  1
  Ni  Ni10  1  0.87500000  0.04566200  0.67066200  1
  Ni  Ni11  1  0.45433800  0.62500000  0.32933800  1
  Cu  Cu12  1  0.41848800  0.08151200  0.00000000  1
  Cu  Cu13  1  0.58151200  0.58151200  0.66302400  1
  Cu  Cu14  1  0.66848800  0.16848800  0.83697600  1
  Cu  Cu15  1  0.91848800  0.91848800  0.33697600  1
  Cu  Cu16  1  0.83151200  0.66848800  0.50000000  1
  Cu  Cu17  1  0.08151200  0.41848800  0.00000000  1
  Cu  Cu18  1  0.33151200  0.83151200  0.16302400  1
  Cu  Cu19  1  0.16848800  0.33151200  0.50000000  1
  C  C20  1  0.78194200  0.94085100  0.16507700  1
  C  C21  1  0.77577400  0.61686600  0.83492300  1
  C  C22  1  0.19085100  0.52577400  0.65890900  1
  C  C23  1  0.86686600  0.53194200  0.34109100  1
  C  C24  1  0.96805800  0.63313400  0.65890900  1
  C  C25  1  0.88313400  0.72422600  0.16507700  1
  C  C26  1  0.55914900  0.71805800  0.83492300  1
  C  C27  1  0.97422600  0.30914900  0.34109100  1
  C  C28  1  0.46805800  0.80914900  0.33492300  1
  C  C29  1  0.47422600  0.13313400  0.66507700  1
  C  C30  1  0.05914900  0.22422600  0.84109100  1
  C  C31  1  0.38313400  0.21805800  0.15890900  1
  C  C32  1  0.28194200  0.11686600  0.84109100  1
  C  C33  1  0.36686600  0.02577400  0.33492300  1
  C  C34  1  0.69085100  0.03194200  0.66507700  1
  C  C35  1  0.27577400  0.44085100  0.15890900  1
  C  C36  1  0.08263200  0.91756500  0.51921900  1
  C  C37  1  0.39834500  0.56341200  0.48078100  1
  C  C38  1  0.16756500  0.14834500  0.33493300  1
  C  C39  1  0.81341200  0.83263200  0.66506700  1
  C  C40  1  0.89834500  0.41756500  0.83493300  1
  C  C41  1  0.66756500  0.33263200  0.01921900  1
  C  C42  1  0.31341200  0.64834500  0.98078100  1
  C  C43  1  0.58263200  0.06341200  0.16506700  1
  C  C44  1  0.43658800  0.91736800  0.83493300  1
  C  C45  1  0.08243500  0.60165500  0.16506700  1
  C  C46  1  0.85165500  0.18658800  0.01921900  1
  C  C47  1  0.16736800  0.83243500  0.98078100  1
  C  C48  1  0.35165500  0.33243500  0.66506700  1
  C  C49  1  0.58243500  0.41736800  0.48078100  1
  C  C50  1  0.93658800  0.10165500  0.51921900  1
  C  C51  1  0.66736800  0.68658800  0.33493300  1
