# generated using pymatgen
data_Cu4(Ni2C3)5
_symmetry_space_group_name_H-M   'P 1'
_cell_length_a   9.03952655
_cell_length_b   9.03952655
_cell_length_c   9.03952655
_cell_angle_alpha   109.77039133
_cell_angle_beta   109.77039133
_cell_angle_gamma   108.87452199
_symmetry_Int_Tables_number   1
_chemical_formula_structural   Cu4(Ni2C3)5
_chemical_formula_sum   'Cu4 Ni10 C15'
_cell_volume   568.56468226
_cell_formula_units_Z   1
loop_
 _symmetry_equiv_pos_site_id
 _symmetry_equiv_pos_as_xyz
  1  'x, y, z'
loop_
 _atom_site_type_symbol
 _atom_site_label
 _atom_site_symmetry_multiplicity
 _atom_site_fract_x
 _atom_site_fract_y
 _atom_site_fract_z
 _atom_site_occupancy
  C  C0  1  0.77387200  0.77387200  0.00000000  1
  C  C1  1  0.22612800  0.22612800  0.00000000  1
  Ni  Ni2  1  0.50000000  0.75336900  0.25336900  1
  Ni  Ni3  1  0.24663100  0.50000000  0.74663100  1
  Ni  Ni4  1  0.75000000  0.25000000  0.50000000  1
  Ni  Ni5  1  0.75336900  0.50000000  0.25336900  1
  Ni  Ni6  1  0.50000000  0.24663100  0.74663100  1
  Ni  Ni7  1  0.25000000  0.75000000  0.50000000  1
  Ni  Ni8  1  0.00000000  0.77605100  0.77605100  1
  Ni  Ni9  1  0.77605100  0.00000000  0.77605100  1
  Ni  Ni10  1  0.00000000  0.22394900  0.22394900  1
  Ni  Ni11  1  0.22394900  0.00000000  0.22394900  1
  Cu  Cu12  1  0.46684600  0.46684600  0.46101600  1
  Cu  Cu13  1  0.00583000  0.00583000  0.53898400  1
  Cu  Cu14  1  0.99417000  0.53315400  0.00000000  1
  Cu  Cu15  1  0.53315400  0.99417000  0.00000000  1
  C  C16  1  0.00000000  0.00000000  0.00000000  1
  C  C17  1  0.51230800  0.51230800  0.76447000  1
  C  C18  1  0.77090900  0.51962900  0.52128100  1
  C  C19  1  0.51962900  0.77090900  0.52128100  1
  C  C20  1  0.74783800  0.74783800  0.23553000  1
  C  C21  1  0.99834800  0.24962800  0.47871900  1
  C  C22  1  0.24962800  0.99834800  0.47871900  1
  C  C23  1  0.25216200  0.48769200  0.00000000  1
  C  C24  1  0.00165200  0.48037100  0.25128000  1
  C  C25  1  0.75037200  0.22909100  0.74872000  1
  C  C26  1  0.48769200  0.25216200  0.00000000  1
  C  C27  1  0.22909100  0.75037200  0.74872000  1
  C  C28  1  0.48037100  0.00165200  0.25128000  1
