# generated using pymatgen
data_Cu20Ni3C2
_symmetry_space_group_name_H-M   'P 1'
_cell_length_a   7.55957404
_cell_length_b   7.55957404
_cell_length_c   18.17304973
_cell_angle_alpha   82.63492523
_cell_angle_beta   82.63492523
_cell_angle_gamma   52.29821468
_symmetry_Int_Tables_number   1
_chemical_formula_structural   Cu20Ni3C2
_chemical_formula_sum   'Cu40 Ni6 C4'
_cell_volume   813.27407666
_cell_formula_units_Z   2
loop_
 _symmetry_equiv_pos_site_id
 _symmetry_equiv_pos_as_xyz
  1  'x, y, z'
loop_
 _atom_site_type_symbol
 _atom_site_label
 _atom_site_symmetry_multiplicity
 _atom_site_fract_x
 _atom_site_fract_y
 _atom_site_fract_z
 _atom_site_occupancy
  C  C0  1  0.81525600  0.84447100  0.89277400  1
  C  C1  1  0.18474400  0.15552900  0.10722600  1
  C  C2  1  0.15552900  0.18474400  0.60722600  1
  C  C3  1  0.84447100  0.81525600  0.39277400  1
  Ni  Ni4  1  0.75303900  0.80486300  0.59186700  1
  Ni  Ni5  1  0.24696100  0.19513700  0.40813300  1
  Ni  Ni6  1  0.19513700  0.24696100  0.90813300  1
  Ni  Ni7  1  0.80486300  0.75303900  0.09186700  1
  Ni  Ni8  1  0.72008200  0.27991800  0.75000000  1
  Ni  Ni9  1  0.27991800  0.72008200  0.25000000  1
  Cu  Cu10  1  0.34176700  0.27954200  0.68831400  1
  Cu  Cu11  1  0.65823300  0.72045800  0.31168600  1
  Cu  Cu12  1  0.72045800  0.65823300  0.81168600  1
  Cu  Cu13  1  0.27954200  0.34176700  0.18831400  1
  Cu  Cu14  1  0.30131400  0.38639800  0.57605100  1
  Cu  Cu15  1  0.69868600  0.61360200  0.42394900  1
  Cu  Cu16  1  0.61360200  0.69868600  0.92394900  1
  Cu  Cu17  1  0.38639800  0.30131400  0.07605100  1
  Cu  Cu18  1  0.52172700  0.87794700  0.61507200  1
  Cu  Cu19  1  0.47827300  0.12205300  0.38492800  1
  Cu  Cu20  1  0.12205300  0.47827300  0.88492800  1
  Cu  Cu21  1  0.87794700  0.52172700  0.11507200  1
  Cu  Cu22  1  0.75796300  0.89709400  0.51506500  1
  Cu  Cu23  1  0.24203700  0.10290600  0.48493500  1
  Cu  Cu24  1  0.10290600  0.24203700  0.98493500  1
  Cu  Cu25  1  0.89709400  0.75796300  0.01506500  1
  Cu  Cu26  1  0.55076300  0.37602800  0.69263400  1
  Cu  Cu27  1  0.44923700  0.62397200  0.30736600  1
  Cu  Cu28  1  0.62397200  0.44923700  0.80736600  1
  Cu  Cu29  1  0.37602800  0.55076300  0.19263400  1
  Cu  Cu30  1  0.81495200  0.88361700  0.64705000  1
  Cu  Cu31  1  0.18504800  0.11638300  0.35295000  1
  Cu  Cu32  1  0.11638300  0.18504800  0.85295000  1
  Cu  Cu33  1  0.88361700  0.81495200  0.14705000  1
  Cu  Cu34  1  0.44463100  0.09659500  0.90783400  1
  Cu  Cu35  1  0.55536900  0.90340500  0.09216600  1
  Cu  Cu36  1  0.90340500  0.55536900  0.59216600  1
  Cu  Cu37  1  0.09659500  0.44463100  0.40783400  1
  Cu  Cu38  1  0.10195500  0.88055800  0.61655900  1
  Cu  Cu39  1  0.89804500  0.11944200  0.38344100  1
  Cu  Cu40  1  0.11944200  0.89804500  0.88344100  1
  Cu  Cu41  1  0.88055800  0.10195500  0.11655900  1
  Cu  Cu42  1  0.82170900  0.10798600  0.94516400  1
  Cu  Cu43  1  0.17829100  0.89201400  0.05483600  1
  Cu  Cu44  1  0.89201400  0.17829100  0.55483600  1
  Cu  Cu45  1  0.10798600  0.82170900  0.44516400  1
  Cu  Cu46  1  0.76816900  0.06920400  0.78761700  1
  Cu  Cu47  1  0.23183100  0.93079600  0.21238300  1
  Cu  Cu48  1  0.93079600  0.23183100  0.71238300  1
  Cu  Cu49  1  0.06920400  0.76816900  0.28761700  1
