# generated using pymatgen
data_CuNiC10
_symmetry_space_group_name_H-M   'P 1'
_cell_length_a   8.00839285
_cell_length_b   9.03665289
_cell_length_c   10.31571500
_cell_angle_alpha   90.00000000
_cell_angle_beta   90.00000000
_cell_angle_gamma   99.21496341
_symmetry_Int_Tables_number   1
_chemical_formula_structural   CuNiC10
_chemical_formula_sum   'Cu4 Ni4 C40'
_cell_volume   736.90419140
_cell_formula_units_Z   4
loop_
 _symmetry_equiv_pos_site_id
 _symmetry_equiv_pos_as_xyz
  1  'x, y, z'
loop_
 _atom_site_type_symbol
 _atom_site_label
 _atom_site_symmetry_multiplicity
 _atom_site_fract_x
 _atom_site_fract_y
 _atom_site_fract_z
 _atom_site_occupancy
  Ni  Ni0  1  0.07320100  0.51198400  0.21311700  1
  Ni  Ni1  1  0.92679900  0.48801600  0.78688300  1
  Ni  Ni2  1  0.42679900  0.48801600  0.71311700  1
  Ni  Ni3  1  0.57320100  0.51198400  0.28688300  1
  Cu  Cu4  1  0.02153000  0.06045100  0.77694500  1
  Cu  Cu5  1  0.97847000  0.93954900  0.22305500  1
  Cu  Cu6  1  0.47847000  0.93954900  0.27694500  1
  Cu  Cu7  1  0.52153000  0.06045100  0.72305500  1
  C  C8  1  0.28605300  0.21896000  0.00974800  1
  C  C9  1  0.71394700  0.78104000  0.99025200  1
  C  C10  1  0.21394700  0.78104000  0.50974800  1
  C  C11  1  0.78605300  0.21896000  0.49025200  1
  C  C12  1  0.17937300  0.16196600  0.48925000  1
  C  C13  1  0.82062700  0.83803400  0.51075000  1
  C  C14  1  0.32062700  0.83803400  0.98925000  1
  C  C15  1  0.67937300  0.16196600  0.01075000  1
  C  C16  1  0.25761800  0.00837600  0.38905600  1
  C  C17  1  0.74238200  0.99162400  0.61094400  1
  C  C18  1  0.24238200  0.99162400  0.88905600  1
  C  C19  1  0.75761800  0.00837600  0.11094400  1
  C  C20  1  0.34952000  0.39454700  0.08651700  1
  C  C21  1  0.65048000  0.60545300  0.91348300  1
  C  C22  1  0.15048000  0.60545300  0.58651700  1
  C  C23  1  0.84952000  0.39454700  0.41348300  1
  C  C24  1  0.11238200  0.13186900  0.11587300  1
  C  C25  1  0.88761800  0.86813100  0.88412700  1
  C  C26  1  0.38761800  0.86813100  0.61587300  1
  C  C27  1  0.61238200  0.13186900  0.38412700  1
  C  C28  1  0.33702100  0.73310200  0.36883000  1
  C  C29  1  0.66297900  0.26689800  0.63117000  1
  C  C30  1  0.16297900  0.26689800  0.86883000  1
  C  C31  1  0.83702100  0.73310200  0.13117000  1
  C  C32  1  0.26825600  0.33016700  0.41224000  1
  C  C33  1  0.73174400  0.66983300  0.58776000  1
  C  C34  1  0.23174400  0.66983300  0.91224000  1
  C  C35  1  0.76825600  0.33016700  0.08776000  1
  C  C36  1  0.00311700  0.22422300  0.60462700  1
  C  C37  1  0.99688300  0.77577700  0.39537300  1
  C  C38  1  0.49688300  0.77577700  0.10462700  1
  C  C39  1  0.50311700  0.22422300  0.89537300  1
  C  C40  1  0.30655000  0.15280700  0.63785300  1
  C  C41  1  0.69345000  0.84719300  0.36214700  1
  C  C42  1  0.19345000  0.84719300  0.13785300  1
  C  C43  1  0.80655000  0.15280700  0.86214700  1
  C  C44  1  0.45163500  0.08931100  0.10337000  1
  C  C45  1  0.54836500  0.91068900  0.89663000  1
  C  C46  1  0.04836500  0.91068900  0.60337000  1
  C  C47  1  0.95163500  0.08931100  0.39663000  1
