# generated using pymatgen
data_Cu2(Ni2C)3
_symmetry_space_group_name_H-M   'P 1'
_cell_length_a   7.06645540
_cell_length_b   7.06645540
_cell_length_c   10.33757953
_cell_angle_alpha   76.27099799
_cell_angle_beta   76.27099799
_cell_angle_gamma   87.73328821
_symmetry_Int_Tables_number   1
_chemical_formula_structural   Cu2(Ni2C)3
_chemical_formula_sum   'Cu4 Ni12 C6'
_cell_volume   487.05243062
_cell_formula_units_Z   2
loop_
 _symmetry_equiv_pos_site_id
 _symmetry_equiv_pos_as_xyz
  1  'x, y, z'
loop_
 _atom_site_type_symbol
 _atom_site_label
 _atom_site_symmetry_multiplicity
 _atom_site_fract_x
 _atom_site_fract_y
 _atom_site_fract_z
 _atom_site_occupancy
  C  C0  1  0.04581000  0.95419000  0.75000000  1
  C  C1  1  0.95419000  0.04581000  0.25000000  1
  Ni  Ni2  1  0.58367500  0.41632500  0.75000000  1
  Ni  Ni3  1  0.41632500  0.58367500  0.25000000  1
  Ni  Ni4  1  0.90984100  0.86820600  0.94951500  1
  Ni  Ni5  1  0.13179400  0.09015900  0.55048500  1
  Ni  Ni6  1  0.09015900  0.13179400  0.05048500  1
  Ni  Ni7  1  0.86820600  0.90984100  0.44951500  1
  Ni  Ni8  1  0.06068800  0.20953100  0.78857400  1
  Ni  Ni9  1  0.79046900  0.93931200  0.71142600  1
  Ni  Ni10  1  0.93931200  0.79046900  0.21142600  1
  Ni  Ni11  1  0.20953100  0.06068800  0.28857400  1
  Ni  Ni12  1  0.20779800  0.79220200  0.75000000  1
  Ni  Ni13  1  0.79220200  0.20779800  0.25000000  1
  Cu  Cu14  1  0.73664000  0.96263000  0.57381000  1
  Cu  Cu15  1  0.03737000  0.26336000  0.92619000  1
  Cu  Cu16  1  0.26336000  0.03737000  0.42619000  1
  Cu  Cu17  1  0.96263000  0.73664000  0.07381000  1
  C  C18  1  0.74407900  0.47833100  0.68348500  1
  C  C19  1  0.52166900  0.25592100  0.81651500  1
  C  C20  1  0.25592100  0.52166900  0.31651500  1
  C  C21  1  0.47833100  0.74407900  0.18348500  1
