# generated using pymatgen
data_Cu3Ni2C3
_symmetry_space_group_name_H-M   'P 1'
_cell_length_a   7.03813764
_cell_length_b   7.03813764
_cell_length_c   7.82513753
_cell_angle_alpha   57.01365989
_cell_angle_beta   57.01365989
_cell_angle_gamma   68.37696601
_symmetry_Int_Tables_number   1
_chemical_formula_structural   Cu3Ni2C3
_chemical_formula_sum   'Cu6 Ni4 C6'
_cell_volume   271.28975125
_cell_formula_units_Z   2
loop_
 _symmetry_equiv_pos_site_id
 _symmetry_equiv_pos_as_xyz
  1  'x, y, z'
loop_
 _atom_site_type_symbol
 _atom_site_label
 _atom_site_symmetry_multiplicity
 _atom_site_fract_x
 _atom_site_fract_y
 _atom_site_fract_z
 _atom_site_occupancy
  Ni  Ni0  1  0.50000000  0.00000000  0.50000000  1
  Ni  Ni1  1  0.50000000  0.00000000  0.00000000  1
  Ni  Ni2  1  0.00000000  0.50000000  0.50000000  1
  Ni  Ni3  1  0.00000000  0.50000000  0.00000000  1
  Cu  Cu4  1  0.14597600  0.14597600  0.20325400  1
  Cu  Cu5  1  0.85402400  0.85402400  0.79674600  1
  Cu  Cu6  1  0.34349700  0.66133700  0.15930400  1
  Cu  Cu7  1  0.65650300  0.33866300  0.84069600  1
  Cu  Cu8  1  0.66133700  0.34349700  0.15930400  1
  Cu  Cu9  1  0.33866300  0.65650300  0.84069600  1
  C  C10  1  0.55928900  0.83632200  0.29735800  1
  C  C11  1  0.44071100  0.16367800  0.70264200  1
  C  C12  1  0.16367800  0.44071100  0.70264200  1
  C  C13  1  0.83632200  0.55928900  0.29735800  1
  C  C14  1  0.14689300  0.14689300  0.51177700  1
  C  C15  1  0.85310700  0.85310700  0.48822300  1
