# generated using pymatgen
data_Cu2Ni8C5
_symmetry_space_group_name_H-M   'P 1'
_cell_length_a   4.94191100
_cell_length_b   7.87519621
_cell_length_c   7.87519621
_cell_angle_alpha   95.64981112
_cell_angle_beta   108.28623623
_cell_angle_gamma   71.71376377
_symmetry_Int_Tables_number   1
_chemical_formula_structural   Cu2Ni8C5
_chemical_formula_sum   'Cu2 Ni8 C5'
_cell_volume   276.31752327
_cell_formula_units_Z   1
loop_
 _symmetry_equiv_pos_site_id
 _symmetry_equiv_pos_as_xyz
  1  'x, y, z'
loop_
 _atom_site_type_symbol
 _atom_site_label
 _atom_site_symmetry_multiplicity
 _atom_site_fract_x
 _atom_site_fract_y
 _atom_site_fract_z
 _atom_site_occupancy
  Ni  Ni0  1  0.41477600  0.87588600  0.71729000  1
  Ni  Ni1  1  0.57337200  0.12411400  0.28271000  1
  Ni  Ni2  1  0.92662800  0.28271000  0.12411400  1
  Ni  Ni3  1  0.08522400  0.71729000  0.87588600  1
  Ni  Ni4  1  0.70933800  0.71729000  0.12411400  1
  Ni  Ni5  1  0.30251400  0.28271000  0.87588600  1
  Ni  Ni6  1  0.79066200  0.12411400  0.71729000  1
  Ni  Ni7  1  0.19748600  0.87588600  0.28271000  1
  Cu  Cu8  1  0.25000000  0.00000000  0.00000000  1
  Cu  Cu9  1  0.75000000  0.00000000  0.00000000  1
  C  C10  1  0.37396300  0.50000000  0.19611100  1
  C  C11  1  0.67785100  0.50000000  0.80388900  1
  C  C12  1  0.82214900  0.80388900  0.50000000  1
  C  C13  1  0.12603700  0.19611100  0.50000000  1
  C  C14  1  0.25000000  0.50000000  0.50000000  1
