# generated using pymatgen
data_Cu7Ni5C7
_symmetry_space_group_name_H-M   'P 1'
_cell_length_a   7.10484405
_cell_length_b   5.87363758
_cell_length_c   5.87334482
_cell_angle_alpha   76.92459107
_cell_angle_beta   77.82018039
_cell_angle_gamma   77.81588550
_symmetry_Int_Tables_number   1
_chemical_formula_structural   Cu7Ni5C7
_chemical_formula_sum   'Cu7 Ni5 C7'
_cell_volume   229.91442146
_cell_formula_units_Z   1
loop_
 _symmetry_equiv_pos_site_id
 _symmetry_equiv_pos_as_xyz
  1  'x, y, z'
loop_
 _atom_site_type_symbol
 _atom_site_label
 _atom_site_symmetry_multiplicity
 _atom_site_fract_x
 _atom_site_fract_y
 _atom_site_fract_z
 _atom_site_occupancy
  C  C0  1  0.83331100  0.88142200  0.45188700  1
  C  C1  1  0.83335200  0.51104900  0.82231800  1
  C  C2  1  0.67715100  0.37175800  0.35381100  1
  C  C3  1  0.33333300  0.71203600  0.62130200  1
  C  C4  1  0.17352000  0.31545400  0.30112000  1
  C  C5  1  0.49314700  0.03220700  0.01789600  1
  C  C6  1  0.98952700  0.97954400  0.96154800  1
  Ni  Ni7  1  0.66009800  0.61335800  0.55766700  1
  Ni  Ni8  1  0.96349400  0.20428700  0.23059900  1
  Ni  Ni9  1  0.70317800  0.10265800  0.12912100  1
  Ni  Ni10  1  0.00657600  0.77568100  0.71995100  1
  Ni  Ni11  1  0.33333000  0.00423800  0.32910000  1
  Cu  Cu12  1  0.64593400  0.08310100  0.66655300  1
  Cu  Cu13  1  0.33333300  0.39506700  0.93826500  1
  Cu  Cu14  1  0.29597000  0.92080600  0.89007500  1
  Cu  Cu15  1  0.37070600  0.44324900  0.41253400  1
  Cu  Cu16  1  0.63240200  0.66060300  0.06916200  1
  Cu  Cu17  1  0.03424500  0.26418600  0.67271100  1
  Cu  Cu18  1  0.02072500  0.66679600  0.25021200  1
