# generated using pymatgen
data_CuNi3C2
_symmetry_space_group_name_H-M   'P 1'
_cell_length_a   12.09677323
_cell_length_b   12.09677322
_cell_length_c   17.00693613
_cell_angle_alpha   90.00000000
_cell_angle_beta   90.00000000
_cell_angle_gamma   119.99999948
_symmetry_Int_Tables_number   1
_chemical_formula_structural   CuNi3C2
_chemical_formula_sum   'Cu12 Ni36 C24'
_cell_volume   2155.24076546
_cell_formula_units_Z   12
loop_
 _symmetry_equiv_pos_site_id
 _symmetry_equiv_pos_as_xyz
  1  'x, y, z'
loop_
 _atom_site_type_symbol
 _atom_site_label
 _atom_site_symmetry_multiplicity
 _atom_site_fract_x
 _atom_site_fract_y
 _atom_site_fract_z
 _atom_site_occupancy
  C  C0  1  0.66666700  0.33333300  0.88651951  1
  C  C1  1  0.33333300  0.66666700  0.11348049  1
  C  C2  1  0.33333300  0.66666700  0.38651951  1
  C  C3  1  0.66666700  0.33333300  0.61348049  1
  C  C4  1  0.53845283  0.91288017  0.88506664  1
  C  C5  1  0.46154717  0.08711983  0.11493336  1
  C  C6  1  0.37442734  0.46154717  0.88506664  1
  C  C7  1  0.46154717  0.08711983  0.38506664  1
  C  C8  1  0.62557266  0.53845283  0.11493336  1
  C  C9  1  0.53845283  0.91288017  0.61493336  1
  C  C10  1  0.08711983  0.62557266  0.88506664  1
  C  C11  1  0.62557266  0.53845283  0.38506664  1
  C  C12  1  0.91288017  0.37442734  0.11493336  1
  C  C13  1  0.37442734  0.46154717  0.61493336  1
  C  C14  1  0.91288017  0.37442734  0.38506664  1
  C  C15  1  0.08711983  0.62557266  0.61493336  1
  C  C16  1  0.00000000  -0.00000000  0.00000000  1
  C  C17  1  0.00000000  -0.00000000  0.50000000  1
  C  C18  1  0.95388259  0.20151388  0.75000000  1
  C  C19  1  0.04611741  0.79848612  0.25000000  1
  C  C20  1  0.24763128  0.04611741  0.75000000  1
  C  C21  1  0.75236872  0.95388259  0.25000000  1
  C  C22  1  0.79848612  0.75236872  0.75000000  1
  C  C23  1  0.20151388  0.24763128  0.25000000  1
  Ni  Ni24  1  0.82104209  0.96325524  0.84196431  1
  Ni  Ni25  1  0.17895791  0.03674476  0.15803569  1
  Ni  Ni26  1  0.14221315  0.17895791  0.84196431  1
  Ni  Ni27  1  0.17895791  0.03674476  0.34196431  1
  Ni  Ni28  1  0.85778685  0.82104209  0.15803569  1
  Ni  Ni29  1  0.82104209  0.96325524  0.65803569  1
  Ni  Ni30  1  0.03674476  0.85778685  0.84196431  1
  Ni  Ni31  1  0.85778685  0.82104209  0.34196431  1
  Ni  Ni32  1  0.96325524  0.14221315  0.15803569  1
  Ni  Ni33  1  0.14221315  0.17895791  0.65803569  1
  Ni  Ni34  1  0.96325524  0.14221315  0.34196431  1
  Ni  Ni35  1  0.03674476  0.85778685  0.65803569  1
  Ni  Ni36  1  0.56594055  0.70657147  0.99221323  1
  Ni  Ni37  1  0.43405945  0.29342853  0.00778677  1
  Ni  Ni38  1  0.14063091  0.43405945  0.99221323  1
  Ni  Ni39  1  0.43405945  0.29342853  0.49221323  1
  Ni  Ni40  1  0.85936909  0.56594055  0.00778677  1
  Ni  Ni41  1  0.56594055  0.70657147  0.50778677  1
  Ni  Ni42  1  0.29342853  0.85936909  0.99221323  1
  Ni  Ni43  1  0.85936909  0.56594055  0.49221323  1
  Ni  Ni44  1  0.70657147  0.14063091  0.00778677  1
  Ni  Ni45  1  0.14063091  0.43405945  0.50778677  1
  Ni  Ni46  1  0.70657147  0.14063091  0.49221323  1
  Ni  Ni47  1  0.29342853  0.85936909  0.50778677  1
  Ni  Ni48  1  0.70111380  0.15286722  0.75000000  1
  Ni  Ni49  1  0.29888620  0.84713278  0.25000000  1
  Ni  Ni50  1  0.45175342  0.29888620  0.75000000  1
  Ni  Ni51  1  0.54824658  0.70111380  0.25000000  1
  Ni  Ni52  1  0.84713278  0.54824658  0.75000000  1
  Ni  Ni53  1  0.15286722  0.45175342  0.25000000  1
  Ni  Ni54  1  0.54501620  0.69362369  0.75000000  1
  Ni  Ni55  1  0.45498380  0.30637631  0.25000000  1
  Ni  Ni56  1  0.14860749  0.45498380  0.75000000  1
  Ni  Ni57  1  0.85139251  0.54501620  0.25000000  1
  Ni  Ni58  1  0.30637631  0.85139251  0.75000000  1
  Ni  Ni59  1  0.69362369  0.14860749  0.25000000  1
  Cu  Cu60  1  0.93291162  0.26466804  0.85873153  1
  Cu  Cu61  1  0.06708838  0.73533196  0.14126847  1
  Cu  Cu62  1  0.33175642  0.06708838  0.85873153  1
  Cu  Cu63  1  0.06708838  0.73533196  0.35873153  1
  Cu  Cu64  1  0.66824358  0.93291162  0.14126847  1
  Cu  Cu65  1  0.93291162  0.26466804  0.64126847  1
  Cu  Cu66  1  0.73533196  0.66824358  0.85873153  1
  Cu  Cu67  1  0.66824358  0.93291162  0.35873153  1
  Cu  Cu68  1  0.26466804  0.33175642  0.14126847  1
  Cu  Cu69  1  0.33175642  0.06708838  0.64126847  1
  Cu  Cu70  1  0.26466804  0.33175642  0.35873153  1
  Cu  Cu71  1  0.73533196  0.66824358  0.64126847  1
