# generated using pymatgen
data_CuNiC5
_symmetry_space_group_name_H-M   'P 1'
_cell_length_a   5.02056800
_cell_length_b   8.37158000
_cell_length_c   9.95971700
_cell_angle_alpha   90.00000000
_cell_angle_beta   90.00000000
_cell_angle_gamma   90.00000000
_symmetry_Int_Tables_number   1
_chemical_formula_structural   CuNiC5
_chemical_formula_sum   'Cu4 Ni4 C20'
_cell_volume   418.60776859
_cell_formula_units_Z   4
loop_
 _symmetry_equiv_pos_site_id
 _symmetry_equiv_pos_as_xyz
  1  'x, y, z'
loop_
 _atom_site_type_symbol
 _atom_site_label
 _atom_site_symmetry_multiplicity
 _atom_site_fract_x
 _atom_site_fract_y
 _atom_site_fract_z
 _atom_site_occupancy
  Ni  Ni0  1  0.96822700  0.12527600  0.14320000  1
  Ni  Ni1  1  0.46822700  0.87472400  0.85680000  1
  Ni  Ni2  1  0.46822700  0.62527600  0.35680000  1
  Ni  Ni3  1  0.96822700  0.37472400  0.64320000  1
  C  C4  1  0.97835900  0.85676000  0.45330600  1
  C  C5  1  0.47835900  0.14324000  0.54669400  1
  C  C6  1  0.47835900  0.35676000  0.04669400  1
  C  C7  1  0.97835900  0.64324000  0.95330600  1
  Cu  Cu8  1  0.46786300  0.92466300  0.16718600  1
  Cu  Cu9  1  0.96786300  0.07533700  0.83281300  1
  Cu  Cu10  1  0.96786300  0.42466300  0.33281300  1
  Cu  Cu11  1  0.46786300  0.57533700  0.66718700  1
  C  C12  1  0.56669600  0.79775600  0.29238400  1
  C  C13  1  0.06669600  0.20224400  0.70761600  1
  C  C14  1  0.06669600  0.29775600  0.20761600  1
  C  C15  1  0.56669600  0.70224400  0.79238400  1
  C  C16  1  0.13836500  0.97078500  0.19413500  1
  C  C17  1  0.63836500  0.02921500  0.80586500  1
  C  C18  1  0.63836500  0.47078500  0.30586500  1
  C  C19  1  0.13836500  0.52921500  0.69413500  1
  C  C20  1  0.51855800  0.83049900  0.01668400  1
  C  C21  1  0.01855800  0.16950100  0.98331600  1
  C  C22  1  0.01855800  0.33049900  0.48331600  1
  C  C23  1  0.51855800  0.66950100  0.51668400  1
  C  C24  1  0.65293200  0.09769400  0.17930800  1
  C  C25  1  0.15293200  0.90230600  0.82069200  1
  C  C26  1  0.15293200  0.59769400  0.32069200  1
  C  C27  1  0.65293200  0.40230600  0.67930800  1
