# generated using pymatgen
data_Cu5NiC3
_symmetry_space_group_name_H-M   'P 1'
_cell_length_a   6.80611000
_cell_length_b   8.82664713
_cell_length_c   12.03005011
_cell_angle_alpha   111.29857276
_cell_angle_beta   91.11334195
_cell_angle_gamma   110.41886325
_symmetry_Int_Tables_number   1
_chemical_formula_structural   Cu5NiC3
_chemical_formula_sum   'Cu30 Ni6 C18'
_cell_volume   622.13502217
_cell_formula_units_Z   6
loop_
 _symmetry_equiv_pos_site_id
 _symmetry_equiv_pos_as_xyz
  1  'x, y, z'
loop_
 _atom_site_type_symbol
 _atom_site_label
 _atom_site_symmetry_multiplicity
 _atom_site_fract_x
 _atom_site_fract_y
 _atom_site_fract_z
 _atom_site_occupancy
  C  C0  1  0.20506200  0.32280500  0.27593000  1
  C  C1  1  0.79493800  0.67719500  0.72407000  1
  C  C2  1  0.55099600  0.88149900  0.48473700  1
  C  C3  1  0.44900400  0.11850100  0.51526300  1
  C  C4  1  0.78473700  0.01270300  0.50356500  1
  C  C5  1  0.21526300  0.98729700  0.49643500  1
  C  C6  1  0.35782300  0.04481600  0.27174800  1
  C  C7  1  0.64217700  0.95518400  0.72825200  1
  C  C8  1  0.33582900  0.16292100  0.13101000  1
  C  C9  1  0.66417100  0.83707900  0.86899000  1
  C  C10  1  0.70493300  0.49265300  0.34989100  1
  C  C11  1  0.29506700  0.50734700  0.65010900  1
  C  C12  1  0.63897200  0.36514500  0.27236300  1
  C  C13  1  0.36102800  0.63485500  0.72763700  1
  C  C14  1  0.57533000  0.41300500  0.93590400  1
  C  C15  1  0.42467000  0.58699500  0.06409600  1
  C  C16  1  0.78635800  0.51199100  0.00729700  1
  C  C17  1  0.21364200  0.48800900  0.99270300  1
  Ni  Ni18  1  0.06989000  0.64992100  0.17348400  1
  Ni  Ni19  1  0.93011000  0.35007900  0.82651600  1
  Ni  Ni20  1  0.09106900  0.33266200  0.49951900  1
  Ni  Ni21  1  0.90893100  0.66733800  0.50048100  1
  Ni  Ni22  1  0.82188000  0.08082200  0.18496300  1
  Ni  Ni23  1  0.17812000  0.91917800  0.81503700  1
  Cu  Cu24  1  0.25357700  0.64936300  0.23392400  1
  Cu  Cu25  1  0.74642300  0.35063700  0.76607600  1
  Cu  Cu26  1  0.94285100  0.50604500  0.16232200  1
  Cu  Cu27  1  0.05714900  0.49395500  0.83767800  1
  Cu  Cu28  1  0.01247600  0.78313900  0.12566100  1
  Cu  Cu29  1  0.98752400  0.21686100  0.87433900  1
  Cu  Cu30  1  0.95676800  0.25433200  0.42652100  1
  Cu  Cu31  1  0.04323200  0.74566800  0.57347900  1
  Cu  Cu32  1  0.27853900  0.40511800  0.47681400  1
  Cu  Cu33  1  0.72146100  0.59488200  0.52318600  1
  Cu  Cu34  1  0.03810000  0.33805400  0.58918000  1
  Cu  Cu35  1  0.96190000  0.66194600  0.41082000  1
  Cu  Cu36  1  0.90679900  0.04583500  0.29749300  1
  Cu  Cu37  1  0.09320100  0.95416500  0.70250700  1
  Cu  Cu38  1  0.91804300  0.22290900  0.11556800  1
  Cu  Cu39  1  0.08195700  0.77709100  0.88443200  1
  Cu  Cu40  1  0.65805800  0.98611500  0.14652600  1
  Cu  Cu41  1  0.34194200  0.01388500  0.85347400  1
  Cu  Cu42  1  0.31174400  0.09301100  0.45483100  1
  Cu  Cu43  1  0.68825600  0.90698900  0.54516900  1
  Cu  Cu44  1  0.36581100  0.16410600  0.21627900  1
  Cu  Cu45  1  0.63418900  0.83589400  0.78372100  1
  Cu  Cu46  1  0.58512000  0.42691800  0.30481200  1
  Cu  Cu47  1  0.41488000  0.57308200  0.69518800  1
  Cu  Cu48  1  0.30177700  0.48352600  0.07318000  1
  Cu  Cu49  1  0.69822300  0.51647400  0.92682000  1
  Cu  Cu50  1  0.35888900  0.87736600  0.38480400  1
  Cu  Cu51  1  0.64111100  0.12263400  0.61519600  1
  Cu  Cu52  1  0.34544100  0.24088700  0.97794200  1
  Cu  Cu53  1  0.65455900  0.75911300  0.02205800  1
