# generated using pymatgen
data_Cu4(Ni5C)3
_symmetry_space_group_name_H-M   'P 1'
_cell_length_a   8.81182200
_cell_length_b   9.66806900
_cell_length_c   17.83601000
_cell_angle_alpha   90.00000000
_cell_angle_beta   90.00000000
_cell_angle_gamma   90.00000000
_symmetry_Int_Tables_number   1
_chemical_formula_structural   Cu4(Ni5C)3
_chemical_formula_sum   'Cu16 Ni60 C12'
_cell_volume   1519.50860623
_cell_formula_units_Z   4
loop_
 _symmetry_equiv_pos_site_id
 _symmetry_equiv_pos_as_xyz
  1  'x, y, z'
loop_
 _atom_site_type_symbol
 _atom_site_label
 _atom_site_symmetry_multiplicity
 _atom_site_fract_x
 _atom_site_fract_y
 _atom_site_fract_z
 _atom_site_occupancy
  C  C0  1  0.37567600  0.25000000  0.16802900  1
  C  C1  1  0.62432400  0.75000000  0.83197100  1
  C  C2  1  0.12432400  0.75000000  0.66802900  1
  C  C3  1  0.87567600  0.25000000  0.33197100  1
  C  C4  1  0.37531400  0.25000000  0.74827900  1
  C  C5  1  0.62468600  0.75000000  0.25172100  1
  C  C6  1  0.12468600  0.75000000  0.24827900  1
  C  C7  1  0.87531400  0.25000000  0.75172100  1
  C  C8  1  0.12590600  0.25000000  0.52445100  1
  C  C9  1  0.87409400  0.75000000  0.47554900  1
  C  C10  1  0.37409400  0.75000000  0.02445100  1
  C  C11  1  0.62590600  0.25000000  0.97554900  1
  Ni  Ni12  1  0.12672800  0.06061800  0.25280800  1
  Ni  Ni13  1  0.87327200  0.93938200  0.74719200  1
  Ni  Ni14  1  0.37327200  0.93938200  0.75280800  1
  Ni  Ni15  1  0.87327200  0.56061800  0.74719200  1
  Ni  Ni16  1  0.62672800  0.06061800  0.24719200  1
  Ni  Ni17  1  0.12672800  0.43938200  0.25280800  1
  Ni  Ni18  1  0.62672800  0.43938200  0.24719200  1
  Ni  Ni19  1  0.37327200  0.56061800  0.75280800  1
  Ni  Ni20  1  0.00728500  0.25000000  0.16849700  1
  Ni  Ni21  1  0.99271500  0.75000000  0.83150300  1
  Ni  Ni22  1  0.49271500  0.75000000  0.66849700  1
  Ni  Ni23  1  0.50728500  0.25000000  0.33150300  1
  Ni  Ni24  1  0.13333700  0.25000000  0.04177400  1
  Ni  Ni25  1  0.86666300  0.75000000  0.95822600  1
  Ni  Ni26  1  0.36666300  0.75000000  0.54177400  1
  Ni  Ni27  1  0.63333700  0.25000000  0.45822600  1
  Ni  Ni28  1  0.37446800  0.57747400  0.33163700  1
  Ni  Ni29  1  0.62553200  0.42252600  0.66836300  1
  Ni  Ni30  1  0.12553200  0.42252600  0.83163700  1
  Ni  Ni31  1  0.62553200  0.07747400  0.66836300  1
  Ni  Ni32  1  0.87446800  0.57747400  0.16836300  1
  Ni  Ni33  1  0.37446800  0.92252600  0.33163700  1
  Ni  Ni34  1  0.87446800  0.92252600  0.16836300  1
  Ni  Ni35  1  0.12553200  0.07747400  0.83163700  1
  Ni  Ni36  1  0.22081400  0.25000000  0.35940100  1
  Ni  Ni37  1  0.77918600  0.75000000  0.64059900  1
  Ni  Ni38  1  0.27918600  0.75000000  0.85940100  1
  Ni  Ni39  1  0.72081400  0.25000000  0.14059900  1
  Ni  Ni40  1  0.12404900  0.08715000  0.67184900  1
  Ni  Ni41  1  0.87595100  0.91285000  0.32815100  1
  Ni  Ni42  1  0.37595100  0.91285000  0.17184900  1
  Ni  Ni43  1  0.87595100  0.58715000  0.32815100  1
  Ni  Ni44  1  0.62404900  0.08715000  0.82815100  1
  Ni  Ni45  1  0.12404900  0.41285000  0.67184900  1
  Ni  Ni46  1  0.62404900  0.41285000  0.82815100  1
  Ni  Ni47  1  0.37595100  0.58715000  0.17184900  1
  Ni  Ni48  1  0.37763500  0.06112800  0.46533700  1
  Ni  Ni49  1  0.62236500  0.93887200  0.53466300  1
  Ni  Ni50  1  0.12236500  0.93887200  0.96533700  1
  Ni  Ni51  1  0.62236500  0.56112800  0.53466300  1
  Ni  Ni52  1  0.87763500  0.06112800  0.03466300  1
  Ni  Ni53  1  0.37763500  0.43887200  0.46533700  1
  Ni  Ni54  1  0.87763500  0.43887200  0.03466300  1
  Ni  Ni55  1  0.12236500  0.56112800  0.96533700  1
  Ni  Ni56  1  0.45088500  0.25000000  0.57769800  1
  Ni  Ni57  1  0.54911500  0.75000000  0.42230200  1
  Ni  Ni58  1  0.04911500  0.75000000  0.07769800  1
  Ni  Ni59  1  0.95088500  0.25000000  0.92230200  1
  Ni  Ni60  1  0.30457000  0.25000000  0.91795500  1
  Ni  Ni61  1  0.69543000  0.75000000  0.08204500  1
  Ni  Ni62  1  0.19543000  0.75000000  0.41795500  1
  Ni  Ni63  1  0.80457000  0.25000000  0.58204500  1
  Ni  Ni64  1  0.37365500  0.06903100  0.03278700  1
  Ni  Ni65  1  0.62634500  0.93096900  0.96721300  1
  Ni  Ni66  1  0.12634500  0.93096900  0.53278700  1
  Ni  Ni67  1  0.62634500  0.56903100  0.96721300  1
  Ni  Ni68  1  0.87365500  0.06903100  0.46721300  1
  Ni  Ni69  1  0.37365500  0.43096900  0.03278700  1
  Ni  Ni70  1  0.87365500  0.43096900  0.46721300  1
  Ni  Ni71  1  0.12634500  0.56903100  0.53278700  1
  Cu  Cu72  1  0.11732600  0.00366100  0.39027800  1
  Cu  Cu73  1  0.88267400  0.99633900  0.60972200  1
  Cu  Cu74  1  0.38267400  0.99633900  0.89027800  1
  Cu  Cu75  1  0.88267400  0.50366100  0.60972200  1
  Cu  Cu76  1  0.61732600  0.00366100  0.10972200  1
  Cu  Cu77  1  0.11732600  0.49633900  0.39027800  1
  Cu  Cu78  1  0.61732600  0.49633900  0.10972200  1
  Cu  Cu79  1  0.38267400  0.50366100  0.89027800  1
  Cu  Cu80  1  0.13041700  0.00461500  0.11345600  1
  Cu  Cu81  1  0.86958300  0.99538500  0.88654400  1
  Cu  Cu82  1  0.36958300  0.99538500  0.61345600  1
  Cu  Cu83  1  0.86958300  0.50461500  0.88654400  1
  Cu  Cu84  1  0.63041700  0.00461500  0.38654400  1
  Cu  Cu85  1  0.13041700  0.49538500  0.11345600  1
  Cu  Cu86  1  0.63041700  0.49538500  0.38654400  1
  Cu  Cu87  1  0.36958300  0.50461500  0.61345600  1
