# generated using pymatgen
data_Cu7(NiC)2
_symmetry_space_group_name_H-M   'P 1'
_cell_length_a   9.33249000
_cell_length_b   6.79229900
_cell_length_c   11.26586696
_cell_angle_alpha   89.85726729
_cell_angle_beta   90.00000000
_cell_angle_gamma   90.00000000
_symmetry_Int_Tables_number   1
_chemical_formula_structural   Cu7(NiC)2
_chemical_formula_sum   'Cu28 Ni8 C8'
_cell_volume   714.13052870
_cell_formula_units_Z   4
loop_
 _symmetry_equiv_pos_site_id
 _symmetry_equiv_pos_as_xyz
  1  'x, y, z'
loop_
 _atom_site_type_symbol
 _atom_site_label
 _atom_site_symmetry_multiplicity
 _atom_site_fract_x
 _atom_site_fract_y
 _atom_site_fract_z
 _atom_site_occupancy
  C  C0  1  0.38725000  0.54098500  0.83438900  1
  C  C1  1  0.88725000  0.95901500  0.16561100  1
  C  C2  1  0.61275000  0.45901500  0.16561100  1
  C  C3  1  0.11275000  0.04098500  0.83438900  1
  C  C4  1  0.60123500  0.93821500  0.31755300  1
  C  C5  1  0.10123500  0.56178500  0.68244700  1
  C  C6  1  0.39876500  0.06178500  0.68244700  1
  C  C7  1  0.89876500  0.43821500  0.31755300  1
  Ni  Ni8  1  0.74613800  0.43064200  0.88642400  1
  Ni  Ni9  1  0.24613800  0.06935800  0.11357600  1
  Ni  Ni10  1  0.25386200  0.56935800  0.11357600  1
  Ni  Ni11  1  0.75386200  0.93064200  0.88642400  1
  Ni  Ni12  1  0.81953400  0.17086800  0.52964400  1
  Ni  Ni13  1  0.31953400  0.32913200  0.47035600  1
  Ni  Ni14  1  0.18046600  0.82913200  0.47035600  1
  Ni  Ni15  1  0.68046600  0.67086800  0.52964400  1
  Cu  Cu16  1  0.19471700  0.43744900  0.84295400  1
  Cu  Cu17  1  0.69471700  0.06255100  0.15704600  1
  Cu  Cu18  1  0.80528300  0.56255100  0.15704600  1
  Cu  Cu19  1  0.30528300  0.93744900  0.84295400  1
  Cu  Cu20  1  0.14042600  0.61863200  0.07145800  1
  Cu  Cu21  1  0.64042600  0.88136800  0.92854200  1
  Cu  Cu22  1  0.85957400  0.38136800  0.92854200  1
  Cu  Cu23  1  0.35957400  0.11863200  0.07145800  1
  Cu  Cu24  1  0.86493000  0.95883900  0.96253800  1
  Cu  Cu25  1  0.36493000  0.54116100  0.03746200  1
  Cu  Cu26  1  0.13507000  0.04116100  0.03746200  1
  Cu  Cu27  1  0.63507000  0.45883900  0.96253800  1
  Cu  Cu28  1  0.19905200  0.13138100  0.66983700  1
  Cu  Cu29  1  0.69905200  0.36861900  0.33016300  1
  Cu  Cu30  1  0.80094800  0.86861900  0.33016300  1
  Cu  Cu31  1  0.30094800  0.63138100  0.66983700  1
  Cu  Cu32  1  0.66634300  0.63646700  0.63360500  1
  Cu  Cu33  1  0.16634300  0.86353300  0.36639500  1
  Cu  Cu34  1  0.33365700  0.36353300  0.36639500  1
  Cu  Cu35  1  0.83365700  0.13646700  0.63360500  1
  Cu  Cu36  1  0.03382900  0.79140900  0.76728600  1
  Cu  Cu37  1  0.53382900  0.70859100  0.23271400  1
  Cu  Cu38  1  0.96617100  0.20859100  0.23271400  1
  Cu  Cu39  1  0.46617100  0.29140900  0.76728600  1
  Cu  Cu40  1  0.92220400  0.30819500  0.48891400  1
  Cu  Cu41  1  0.42220400  0.19180500  0.51108600  1
  Cu  Cu42  1  0.07779600  0.69180500  0.51108600  1
  Cu  Cu43  1  0.57779600  0.80819500  0.48891400  1
