# generated using pymatgen
data_Cu5Ni2C25
_symmetry_space_group_name_H-M   'P 1'
_cell_length_a   5.02348054
_cell_length_b   9.70230937
_cell_length_c   5.78866300
_cell_angle_alpha   90.00000000
_cell_angle_beta   90.00000000
_cell_angle_gamma   99.19461848
_symmetry_Int_Tables_number   1
_chemical_formula_structural   Cu5Ni2C25
_chemical_formula_sum   'Cu5 Ni2 C25'
_cell_volume   278.51065932
_cell_formula_units_Z   1
loop_
 _symmetry_equiv_pos_site_id
 _symmetry_equiv_pos_as_xyz
  1  'x, y, z'
loop_
 _atom_site_type_symbol
 _atom_site_label
 _atom_site_symmetry_multiplicity
 _atom_site_fract_x
 _atom_site_fract_y
 _atom_site_fract_z
 _atom_site_occupancy
  C  C0  1  0.25339700  0.25965900  0.25287900  1
  C  C1  1  0.74660300  0.74034100  0.25287900  1
  C  C2  1  0.76262400  0.26408700  0.50399200  1
  C  C3  1  0.23737600  0.73591300  0.50399200  1
  C  C4  1  0.25196300  0.26350600  0.74700100  1
  C  C5  1  0.74803700  0.73649400  0.74700100  1
  C  C6  1  0.75086800  0.26477700  0.99618300  1
  C  C7  1  0.24913200  0.73522300  0.99618300  1
  C  C8  1  0.00000000  0.50000000  0.74819400  1
  Ni  Ni9  1  0.00000000  0.00000000  0.99549500  1
  Ni  Ni10  1  0.50000000  0.00000000  0.25236500  1
  Cu  Cu11  1  0.50000000  0.50000000  0.98739100  1
  Cu  Cu12  1  0.00000000  0.50000000  0.25702000  1
  Cu  Cu13  1  0.00000000  0.00000000  0.49765100  1
  Cu  Cu14  1  0.50000000  0.50000000  0.49706800  1
  Cu  Cu15  1  0.50000000  0.00000000  0.75185900  1
  C  C16  1  0.86336000  0.10700500  0.25349300  1
  C  C17  1  0.35827100  0.61037900  0.25810900  1
  C  C18  1  0.36118300  0.11051600  0.49069700  1
  C  C19  1  0.86347600  0.60933200  0.48164800  1
  C  C20  1  0.87219900  0.10879700  0.74508200  1
  C  C21  1  0.39367100  0.61629000  0.73862000  1
  C  C22  1  0.39651900  0.11965300  0.01725100  1
  C  C23  1  0.86309100  0.60991000  0.02152300  1
  C  C24  1  0.64172900  0.38962100  0.25810900  1
  C  C25  1  0.13664000  0.89299500  0.25349300  1
  C  C26  1  0.13652400  0.39066800  0.48164800  1
  C  C27  1  0.63881700  0.88948400  0.49069700  1
  C  C28  1  0.60632900  0.38371000  0.73862000  1
  C  C29  1  0.12780100  0.89120300  0.74508200  1
  C  C30  1  0.13690900  0.39009000  0.02152300  1
  C  C31  1  0.60348100  0.88034700  0.01725100  1
