# generated using pymatgen
data_Cu3Ni2C3
_symmetry_space_group_name_H-M   'P 1'
_cell_length_a   5.99444070
_cell_length_b   6.36755298
_cell_length_c   8.69052900
_cell_angle_alpha   90.00000000
_cell_angle_beta   90.00000000
_cell_angle_gamma   103.07254726
_symmetry_Int_Tables_number   1
_chemical_formula_structural   Cu3Ni2C3
_chemical_formula_sum   'Cu6 Ni4 C6'
_cell_volume   323.12016371
_cell_formula_units_Z   2
loop_
 _symmetry_equiv_pos_site_id
 _symmetry_equiv_pos_as_xyz
  1  'x, y, z'
loop_
 _atom_site_type_symbol
 _atom_site_label
 _atom_site_symmetry_multiplicity
 _atom_site_fract_x
 _atom_site_fract_y
 _atom_site_fract_z
 _atom_site_occupancy
  C  C0  1  0.08087300  0.08411800  0.25000000  1
  C  C1  1  0.91912700  0.91588200  0.75000000  1
  C  C2  1  0.45779500  0.50150100  0.16049000  1
  C  C3  1  0.54220500  0.49849900  0.66049000  1
  C  C4  1  0.54220500  0.49849900  0.83951000  1
  C  C5  1  0.45779500  0.50150100  0.33951000  1
  Ni  Ni6  1  0.18668100  0.22114400  0.94677400  1
  Ni  Ni7  1  0.81331900  0.77885600  0.44677400  1
  Ni  Ni8  1  0.81331900  0.77885600  0.05322600  1
  Ni  Ni9  1  0.18668100  0.22114400  0.55322600  1
  Cu  Cu10  1  0.86424300  0.23562300  0.25000000  1
  Cu  Cu11  1  0.13575700  0.76437700  0.75000000  1
  Cu  Cu12  1  0.30014900  0.93594900  0.25000000  1
  Cu  Cu13  1  0.69985100  0.06405100  0.75000000  1
  Cu  Cu14  1  0.37727400  0.42864400  0.25000000  1
  Cu  Cu15  1  0.62272600  0.57135600  0.75000000  1
