# generated using pymatgen
data_Cu(Ni3C17)2
_symmetry_space_group_name_H-M   'P 1'
_cell_length_a   14.98871073
_cell_length_b   14.98871073
_cell_length_c   14.98871073
_cell_angle_alpha   60.00000000
_cell_angle_beta   60.00000000
_cell_angle_gamma   60.00000000
_symmetry_Int_Tables_number   1
_chemical_formula_structural   Cu(Ni3C17)2
_chemical_formula_sum   'Cu2 Ni12 C68'
_cell_volume   2381.10110633
_cell_formula_units_Z   2
loop_
 _symmetry_equiv_pos_site_id
 _symmetry_equiv_pos_as_xyz
  1  'x, y, z'
loop_
 _atom_site_type_symbol
 _atom_site_label
 _atom_site_symmetry_multiplicity
 _atom_site_fract_x
 _atom_site_fract_y
 _atom_site_fract_z
 _atom_site_occupancy
  Ni  Ni0  1  0.34928000  0.65072000  0.65072000  1
  Ni  Ni1  1  0.65072000  0.34928000  0.34928000  1
  Ni  Ni2  1  0.65072000  0.65072000  0.34928000  1
  Ni  Ni3  1  0.34928000  0.34928000  0.65072000  1
  Ni  Ni4  1  0.65072000  0.34928000  0.65072000  1
  Ni  Ni5  1  0.34928000  0.65072000  0.34928000  1
  Ni  Ni6  1  0.90072000  0.59928000  0.59928000  1
  Ni  Ni7  1  0.59928000  0.90072000  0.90072000  1
  Ni  Ni8  1  0.59928000  0.59928000  0.90072000  1
  Ni  Ni9  1  0.90072000  0.90072000  0.59928000  1
  Ni  Ni10  1  0.59928000  0.90072000  0.59928000  1
  Ni  Ni11  1  0.90072000  0.59928000  0.90072000  1
  Cu  Cu12  1  0.25000000  0.25000000  0.25000000  1
  Cu  Cu13  1  0.00000000  0.00000000  0.00000000  1
  C  C14  1  0.25598900  0.49852400  0.74696300  1
  C  C15  1  0.49852400  0.25598900  0.49852400  1
  C  C16  1  0.74696300  0.49852400  0.25598900  1
  C  C17  1  0.49852400  0.74696300  0.49852400  1
  C  C18  1  0.49852400  0.74696300  0.25598900  1
  C  C19  1  0.25598900  0.49852400  0.49852400  1
  C  C20  1  0.49852400  0.25598900  0.74696300  1
  C  C21  1  0.74696300  0.49852400  0.49852400  1
  C  C22  1  0.74696300  0.25598900  0.49852400  1
  C  C23  1  0.49852400  0.49852400  0.25598900  1
  C  C24  1  0.25598900  0.74696300  0.49852400  1
  C  C25  1  0.49852400  0.49852400  0.74696300  1
  C  C26  1  0.99401100  0.75147600  0.50303700  1
  C  C27  1  0.75147600  0.99401100  0.75147600  1
  C  C28  1  0.50303700  0.75147600  0.99401100  1
  C  C29  1  0.75147600  0.50303700  0.75147600  1
  C  C30  1  0.75147600  0.50303700  0.99401100  1
  C  C31  1  0.99401100  0.75147600  0.75147600  1
  C  C32  1  0.75147600  0.99401100  0.50303700  1
  C  C33  1  0.50303700  0.75147600  0.75147600  1
  C  C34  1  0.50303700  0.99401100  0.75147600  1
  C  C35  1  0.75147600  0.75147600  0.99401100  1
  C  C36  1  0.99401100  0.50303700  0.75147600  1
  C  C37  1  0.75147600  0.75147600  0.50303700  1
  C  C38  1  0.03429100  0.32190300  0.32190300  1
  C  C39  1  0.32190300  0.03429100  0.32190300  1
  C  C40  1  0.32190300  0.32190300  0.03429100  1
  C  C41  1  0.32190300  0.32190300  0.32190300  1
  C  C42  1  0.21570900  0.92809700  0.92809700  1
  C  C43  1  0.92809700  0.21570900  0.92809700  1
  C  C44  1  0.92809700  0.92809700  0.21570900  1
  C  C45  1  0.92809700  0.92809700  0.92809700  1
  C  C46  1  0.26839000  0.73161000  0.73161000  1
  C  C47  1  0.73161000  0.26839000  0.26839000  1
  C  C48  1  0.73161000  0.73161000  0.26839000  1
  C  C49  1  0.26839000  0.26839000  0.73161000  1
  C  C50  1  0.73161000  0.26839000  0.73161000  1
  C  C51  1  0.26839000  0.73161000  0.26839000  1
  C  C52  1  0.98161000  0.51839000  0.51839000  1
  C  C53  1  0.51839000  0.98161000  0.98161000  1
  C  C54  1  0.51839000  0.51839000  0.98161000  1
  C  C55  1  0.98161000  0.98161000  0.51839000  1
  C  C56  1  0.51839000  0.98161000  0.51839000  1
  C  C57  1  0.98161000  0.51839000  0.98161000  1
  C  C58  1  0.60024700  0.18414300  0.18414300  1
  C  C59  1  0.18414300  0.60024700  0.03146700  1
  C  C60  1  0.18414300  0.03146700  0.60024700  1
  C  C61  1  0.03146700  0.18414300  0.18414300  1
  C  C62  1  0.18414300  0.18414300  0.60024700  1
  C  C63  1  0.60024700  0.03146700  0.18414300  1
  C  C64  1  0.03146700  0.60024700  0.18414300  1
  C  C65  1  0.18414300  0.18414300  0.03146700  1
  C  C66  1  0.18414300  0.60024700  0.18414300  1
  C  C67  1  0.03146700  0.18414300  0.60024700  1
  C  C68  1  0.60024700  0.18414300  0.03146700  1
  C  C69  1  0.18414300  0.03146700  0.18414300  1
  C  C70  1  0.64975300  0.06585700  0.06585700  1
  C  C71  1  0.06585700  0.64975300  0.21853300  1
  C  C72  1  0.06585700  0.21853300  0.64975300  1
  C  C73  1  0.21853300  0.06585700  0.06585700  1
  C  C74  1  0.06585700  0.06585700  0.64975300  1
  C  C75  1  0.64975300  0.21853300  0.06585700  1
  C  C76  1  0.21853300  0.64975300  0.06585700  1
  C  C77  1  0.06585700  0.06585700  0.21853300  1
  C  C78  1  0.06585700  0.64975300  0.06585700  1
  C  C79  1  0.21853300  0.06585700  0.64975300  1
  C  C80  1  0.64975300  0.06585700  0.21853300  1
  C  C81  1  0.06585700  0.21853300  0.06585700  1
