# generated using pymatgen
data_Cu(Ni2C9)2
_symmetry_space_group_name_H-M   'P 1'
_cell_length_a   7.88134900
_cell_length_b   8.78614400
_cell_length_c   8.78614400
_cell_angle_alpha   90.00000000
_cell_angle_beta   90.00000000
_cell_angle_gamma   90.00000000
_symmetry_Int_Tables_number   1
_chemical_formula_structural   Cu(Ni2C9)2
_chemical_formula_sum   'Cu2 Ni8 C36'
_cell_volume   608.41118979
_cell_formula_units_Z   2
loop_
 _symmetry_equiv_pos_site_id
 _symmetry_equiv_pos_as_xyz
  1  'x, y, z'
loop_
 _atom_site_type_symbol
 _atom_site_label
 _atom_site_symmetry_multiplicity
 _atom_site_fract_x
 _atom_site_fract_y
 _atom_site_fract_z
 _atom_site_occupancy
  Ni  Ni0  1  0.25132700  0.27884600  0.11195500  1
  Ni  Ni1  1  0.25132700  0.72115400  0.88804500  1
  Ni  Ni2  1  0.75132700  0.11195500  0.72115400  1
  Ni  Ni3  1  0.75132700  0.88804500  0.27884600  1
  Ni  Ni4  1  0.74867300  0.72115400  0.88804500  1
  Ni  Ni5  1  0.74867300  0.27884600  0.11195500  1
  Ni  Ni6  1  0.24867300  0.88804500  0.27884600  1
  Ni  Ni7  1  0.24867300  0.11195500  0.72115400  1
  Cu  Cu8  1  0.25000000  0.50000000  0.50000000  1
  Cu  Cu9  1  0.75000000  0.50000000  0.50000000  1
  C  C10  1  0.50000000  0.59628600  0.19514400  1
  C  C11  1  0.50000000  0.40371400  0.80485600  1
  C  C12  1  0.00000000  0.19514400  0.40371400  1
  C  C13  1  0.00000000  0.80485600  0.59628600  1
  C  C14  1  0.00000000  0.60267000  0.20119400  1
  C  C15  1  0.00000000  0.39733000  0.79880600  1
  C  C16  1  0.50000000  0.20119400  0.39733000  1
  C  C17  1  0.50000000  0.79880600  0.60267000  1
  C  C18  1  0.50000000  0.00000000  0.00000000  1
  C  C19  1  0.00000000  0.00000000  0.00000000  1
  C  C20  1  0.00000000  0.73144300  0.39205600  1
  C  C21  1  0.00000000  0.26855700  0.60794400  1
  C  C22  1  0.50000000  0.39205600  0.26855700  1
  C  C23  1  0.50000000  0.60794400  0.73144300  1
  C  C24  1  0.50000000  0.67634900  0.41737500  1
  C  C25  1  0.50000000  0.32365100  0.58262500  1
  C  C26  1  0.00000000  0.41737500  0.32365100  1
  C  C27  1  0.00000000  0.58262500  0.67634900  1
  C  C28  1  0.24912700  0.58330100  0.18649000  1
  C  C29  1  0.24912700  0.41669900  0.81351000  1
  C  C30  1  0.74912700  0.18649000  0.41669900  1
  C  C31  1  0.74912700  0.81351000  0.58330100  1
  C  C32  1  0.75087300  0.41669900  0.81351000  1
  C  C33  1  0.75087300  0.58330100  0.18649000  1
  C  C34  1  0.25087300  0.81351000  0.58330100  1
  C  C35  1  0.25087300  0.18649000  0.41669900  1
  C  C36  1  0.50000000  0.78119400  0.07481500  1
  C  C37  1  0.50000000  0.21880600  0.92518500  1
  C  C38  1  0.00000000  0.07481500  0.21880600  1
  C  C39  1  0.00000000  0.92518500  0.78119400  1
  C  C40  1  0.25000000  0.00000000  0.00000000  1
  C  C41  1  0.75000000  0.00000000  0.00000000  1
  C  C42  1  0.00000000  0.77293700  0.06626000  1
  C  C43  1  0.00000000  0.22706300  0.93374000  1
  C  C44  1  0.50000000  0.06626000  0.22706300  1
  C  C45  1  0.50000000  0.93374000  0.77293700  1
