# generated using pymatgen
data_Cu8NiC16
_symmetry_space_group_name_H-M   'P 1'
_cell_length_a   7.29045109
_cell_length_b   8.06266410
_cell_length_c   5.75971169
_cell_angle_alpha   114.31423290
_cell_angle_beta   108.79542787
_cell_angle_gamma   83.07006750
_symmetry_Int_Tables_number   1
_chemical_formula_structural   Cu8NiC16
_chemical_formula_sum   'Cu8 Ni1 C16'
_cell_volume   292.04812715
_cell_formula_units_Z   1
loop_
 _symmetry_equiv_pos_site_id
 _symmetry_equiv_pos_as_xyz
  1  'x, y, z'
loop_
 _atom_site_type_symbol
 _atom_site_label
 _atom_site_symmetry_multiplicity
 _atom_site_fract_x
 _atom_site_fract_y
 _atom_site_fract_z
 _atom_site_occupancy
  Ni  Ni0  1  0.87008300  0.36309700  0.23351900  1
  Cu  Cu1  1  0.73523200  0.22260300  0.52395500  1
  Cu  Cu2  1  0.51875400  0.98963900  0.99303500  1
  Cu  Cu3  1  0.26809600  0.20299300  0.55681500  1
  Cu  Cu4  1  0.73264300  0.78095800  0.47059200  1
  Cu  Cu5  1  0.47754500  0.54664400  0.96052500  1
  Cu  Cu6  1  0.00640900  0.95228100  0.01683100  1
  Cu  Cu7  1  0.23542100  0.75096900  0.49569600  1
  Cu  Cu8  1  0.01521000  0.51085800  0.97754500  1
  C  C9  1  0.99197500  0.16062400  0.35184400  1
  C  C10  1  0.91440700  0.27280800  0.86777200  1
  C  C11  1  0.60963400  0.23163900  0.17106200  1
  C  C12  1  0.33582700  0.00994900  0.67966000  1
  C  C13  1  0.51733100  0.33045200  0.66830100  1
  C  C14  1  0.75193800  0.58506800  0.14089100  1
  C  C15  1  0.72977500  0.91187000  0.82471400  1
  C  C16  1  0.23184700  0.43416800  0.83393300  1
  C  C17  1  0.47495800  0.67903400  0.32754500  1
  C  C18  1  0.65949300  0.97032500  0.32770400  1
  C  C19  1  0.12791200  0.50371600  0.31769400  1
  C  C20  1  0.41492800  0.74567300  0.83516800  1
  C  C21  1  0.08187000  0.76234200  0.14131300  1
  C  C22  1  0.00384500  0.83110800  0.63827100  1
  C  C23  1  0.83334700  0.49582500  0.60867400  1
  C  C24  1  0.27633400  0.07017000  0.16789200  1
