# generated using pymatgen
data_CuNiC10
_symmetry_space_group_name_H-M   'P 1'
_cell_length_a   9.12587201
_cell_length_b   9.12587200
_cell_length_c   9.20353041
_cell_angle_alpha   60.27873295
_cell_angle_beta   119.72127121
_cell_angle_gamma   119.99999995
_symmetry_Int_Tables_number   1
_chemical_formula_structural   CuNiC10
_chemical_formula_sum   'Cu3 Ni3 C30'
_cell_volume   544.25834931
_cell_formula_units_Z   3
loop_
 _symmetry_equiv_pos_site_id
 _symmetry_equiv_pos_as_xyz
  1  'x, y, z'
loop_
 _atom_site_type_symbol
 _atom_site_label
 _atom_site_symmetry_multiplicity
 _atom_site_fract_x
 _atom_site_fract_y
 _atom_site_fract_z
 _atom_site_occupancy
  C  C0  1  0.51245700  0.48754300  0.53737200  1
  C  C1  1  0.98754300  0.01245700  0.96262800  1
  C  C2  1  0.36303000  0.63697000  0.08909100  1
  C  C3  1  0.85285600  0.14714400  0.55856900  1
  C  C4  1  0.64714400  0.35285600  0.94143100  1
  C  C5  1  0.13697000  0.86303000  0.41090900  1
  Ni  Ni6  1  0.25000000  0.04267000  0.75000000  1
  Ni  Ni7  1  0.54267000  0.75000000  0.75000000  1
  Ni  Ni8  1  0.95733000  0.45733000  0.75000000  1
  Cu  Cu9  1  0.45646700  0.25000000  0.25000000  1
  Cu  Cu10  1  0.04353300  0.54353300  0.25000000  1
  Cu  Cu11  1  0.75000000  0.95646700  0.25000000  1
  C  C12  1  0.59388700  0.77552200  0.26134800  1
  C  C13  1  0.44298300  0.40611300  0.26134800  1
  C  C14  1  0.22447800  0.55701700  0.26134800  1
  C  C15  1  0.74252300  0.92165600  0.75618800  1
  C  C16  1  0.93532200  0.25747700  0.75618800  1
  C  C17  1  0.07834400  0.06467800  0.75618800  1
  C  C18  1  0.42165600  0.24252300  0.74381200  1
  C  C19  1  0.56467800  0.57834400  0.74381200  1
  C  C20  1  0.75747700  0.43532200  0.74381200  1
  C  C21  1  0.27552200  0.09388700  0.23865200  1
  C  C22  1  0.05701700  0.72447800  0.23865200  1
  C  C23  1  0.90611300  0.94298300  0.23865200  1
  C  C24  1  0.30951400  0.87450900  0.93646700  1
  C  C25  1  0.50146300  0.69048600  0.93646700  1
  C  C26  1  0.12549100  0.49853700  0.93646700  1
  C  C27  1  0.60922600  0.18988700  0.41606500  1
  C  C28  1  0.99672500  0.39077400  0.41606500  1
  C  C29  1  0.81011300  0.00327500  0.41606500  1
  C  C30  1  0.68988700  0.10922600  0.08393500  1
  C  C31  1  0.50327500  0.31011300  0.08393500  1
  C  C32  1  0.89077400  0.49672500  0.08393500  1
  C  C33  1  0.37450900  0.80951400  0.56353300  1
  C  C34  1  0.99853700  0.62549100  0.56353300  1
  C  C35  1  0.19048600  0.00146300  0.56353300  1
