# generated using pymatgen
data_CuNi3C10
_symmetry_space_group_name_H-M   'P 1'
_cell_length_a   3.12860200
_cell_length_b   9.38849600
_cell_length_c   9.50221900
_cell_angle_alpha   90.00000000
_cell_angle_beta   90.00000000
_cell_angle_gamma   90.00000000
_symmetry_Int_Tables_number   1
_chemical_formula_structural   CuNi3C10
_chemical_formula_sum   'Cu2 Ni6 C20'
_cell_volume   279.10741834
_cell_formula_units_Z   2
loop_
 _symmetry_equiv_pos_site_id
 _symmetry_equiv_pos_as_xyz
  1  'x, y, z'
loop_
 _atom_site_type_symbol
 _atom_site_label
 _atom_site_symmetry_multiplicity
 _atom_site_fract_x
 _atom_site_fract_y
 _atom_site_fract_z
 _atom_site_occupancy
  Ni  Ni0  1  0.00000000  0.89772600  0.43225500  1
  Ni  Ni1  1  0.00000000  0.39772600  0.56774500  1
  Ni  Ni2  1  0.50000000  0.10324900  0.06394500  1
  Ni  Ni3  1  0.50000000  0.60324900  0.93605500  1
  Ni  Ni4  1  0.00000000  0.37103400  0.18105900  1
  Ni  Ni5  1  0.00000000  0.87103400  0.81894100  1
  Cu  Cu6  1  0.50000000  0.60852500  0.31462800  1
  Cu  Cu7  1  0.50000000  0.10852500  0.68537200  1
  C  C8  1  0.50000000  0.66989800  0.62036000  1
  C  C9  1  0.50000000  0.16989800  0.37964000  1
  C  C10  1  0.00000000  0.32928600  0.88181700  1
  C  C11  1  0.00000000  0.82928600  0.11818300  1
  C  C12  1  0.50000000  0.75070000  0.49396000  1
  C  C13  1  0.50000000  0.25070000  0.50604000  1
  C  C14  1  0.00000000  0.24844700  0.00347200  1
  C  C15  1  0.00000000  0.74844700  0.99652800  1
  C  C16  1  0.50000000  0.52578600  0.61012600  1
  C  C17  1  0.50000000  0.02578600  0.38987400  1
  C  C18  1  0.00000000  0.47282000  0.88504200  1
  C  C19  1  0.00000000  0.97282000  0.11495800  1
  C  C20  1  0.00000000  0.50330700  0.36930400  1
  C  C21  1  0.00000000  0.00330700  0.63069600  1
  C  C22  1  0.50000000  0.52204600  0.14463000  1
  C  C23  1  0.50000000  0.02204600  0.85537000  1
  C  C24  1  0.00000000  0.75796400  0.25249000  1
  C  C25  1  0.00000000  0.25796400  0.74751000  1
  C  C26  1  0.50000000  0.23921300  0.25033500  1
  C  C27  1  0.50000000  0.73921300  0.74966500  1
