# generated using pymatgen
data_Cu5(Ni2C)2
_symmetry_space_group_name_H-M   'P 1'
_cell_length_a   7.64696400
_cell_length_b   10.02609900
_cell_length_c   10.59837300
_cell_angle_alpha   90.00000000
_cell_angle_beta   90.00000000
_cell_angle_gamma   90.00000000
_symmetry_Int_Tables_number   1
_chemical_formula_structural   Cu5(Ni2C)2
_chemical_formula_sum   'Cu20 Ni16 C8'
_cell_volume   812.56897118
_cell_formula_units_Z   4
loop_
 _symmetry_equiv_pos_site_id
 _symmetry_equiv_pos_as_xyz
  1  'x, y, z'
loop_
 _atom_site_type_symbol
 _atom_site_label
 _atom_site_symmetry_multiplicity
 _atom_site_fract_x
 _atom_site_fract_y
 _atom_site_fract_z
 _atom_site_occupancy
  C  C0  1  0.75000000  0.44877300  0.41144600  1
  C  C1  1  0.75000000  0.94877300  0.08855400  1
  C  C2  1  0.25000000  0.55122700  0.58855400  1
  C  C3  1  0.25000000  0.05122700  0.91144600  1
  C  C4  1  0.25000000  0.28399300  0.42497800  1
  C  C5  1  0.25000000  0.78399300  0.07502200  1
  C  C6  1  0.75000000  0.71600700  0.57502200  1
  C  C7  1  0.75000000  0.21600700  0.92497800  1
  Ni  Ni8  1  0.94860200  0.02076100  0.22309800  1
  Ni  Ni9  1  0.55139800  0.52076100  0.27690200  1
  Ni  Ni10  1  0.44860200  0.97923900  0.77690200  1
  Ni  Ni11  1  0.05139800  0.47923900  0.72309800  1
  Ni  Ni12  1  0.05139800  0.97923900  0.77690200  1
  Ni  Ni13  1  0.44860200  0.47923900  0.72309800  1
  Ni  Ni14  1  0.55139800  0.02076100  0.22309800  1
  Ni  Ni15  1  0.94860200  0.52076100  0.27690200  1
  Ni  Ni16  1  0.47134100  0.49809800  0.19181300  1
  Ni  Ni17  1  0.02865900  0.99809800  0.30818700  1
  Ni  Ni18  1  0.97134100  0.50190200  0.80818700  1
  Ni  Ni19  1  0.52865900  0.00190200  0.69181300  1
  Ni  Ni20  1  0.52865900  0.50190200  0.80818700  1
  Ni  Ni21  1  0.97134100  0.00190200  0.69181300  1
  Ni  Ni22  1  0.02865900  0.49809800  0.19181300  1
  Ni  Ni23  1  0.47134100  0.99809800  0.30818700  1
  Cu  Cu24  1  0.40882500  0.22518100  0.48064600  1
  Cu  Cu25  1  0.09117500  0.72518100  0.01935400  1
  Cu  Cu26  1  0.90882500  0.77481900  0.51935400  1
  Cu  Cu27  1  0.59117500  0.27481900  0.98064600  1
  Cu  Cu28  1  0.59117500  0.77481900  0.51935400  1
  Cu  Cu29  1  0.90882500  0.27481900  0.98064600  1
  Cu  Cu30  1  0.09117500  0.22518100  0.48064600  1
  Cu  Cu31  1  0.40882500  0.72518100  0.01935400  1
  Cu  Cu32  1  0.25000000  0.43509100  0.45308000  1
  Cu  Cu33  1  0.25000000  0.93509100  0.04692000  1
  Cu  Cu34  1  0.75000000  0.56490900  0.54692000  1
  Cu  Cu35  1  0.75000000  0.06490900  0.95308000  1
  Cu  Cu36  1  0.25000000  0.27191100  0.28694200  1
  Cu  Cu37  1  0.25000000  0.77191100  0.21305800  1
  Cu  Cu38  1  0.75000000  0.72808900  0.71305800  1
  Cu  Cu39  1  0.75000000  0.22808900  0.78694200  1
  Cu  Cu40  1  0.75000000  0.28613600  0.35380800  1
  Cu  Cu41  1  0.75000000  0.78613600  0.14619200  1
  Cu  Cu42  1  0.25000000  0.71386400  0.64619200  1
  Cu  Cu43  1  0.25000000  0.21386400  0.85380800  1
