# generated using pymatgen
data_CuNiC13
_symmetry_space_group_name_H-M   'P 1'
_cell_length_a   6.01063802
_cell_length_b   6.01063802
_cell_length_c   14.95237711
_cell_angle_alpha   88.71328465
_cell_angle_beta   88.71328465
_cell_angle_gamma   119.77962642
_symmetry_Int_Tables_number   1
_chemical_formula_structural   CuNiC13
_chemical_formula_sum   'Cu2 Ni2 C26'
_cell_volume   468.38893904
_cell_formula_units_Z   2
loop_
 _symmetry_equiv_pos_site_id
 _symmetry_equiv_pos_as_xyz
  1  'x, y, z'
loop_
 _atom_site_type_symbol
 _atom_site_label
 _atom_site_symmetry_multiplicity
 _atom_site_fract_x
 _atom_site_fract_y
 _atom_site_fract_z
 _atom_site_occupancy
  C  C0  1  0.34085900  0.67345700  0.40706700  1
  C  C1  1  0.32553700  0.65537400  0.09547800  1
  C  C2  1  0.65537400  0.32553700  0.59547800  1
  C  C3  1  0.67345700  0.34085900  0.90706700  1
  C  C4  1  0.99404200  0.00768000  0.25033300  1
  C  C5  1  0.00768000  0.99404200  0.75033300  1
  C  C6  1  0.99782900  0.99889800  0.50154400  1
  C  C7  1  0.99889800  0.99782900  0.00154400  1
  Ni  Ni8  1  0.31486800  0.64695700  0.66600200  1
  Ni  Ni9  1  0.64695700  0.31486800  0.16600200  1
  Cu  Cu10  1  0.35315100  0.68567700  0.83548800  1
  Cu  Cu11  1  0.68567700  0.35315100  0.33548800  1
  C  C12  1  0.40782200  0.22552700  0.42741000  1
  C  C13  1  0.77654900  0.59219400  0.06925200  1
  C  C14  1  0.59219400  0.77654900  0.56925200  1
  C  C15  1  0.22552700  0.40782200  0.92741000  1
  C  C16  1  0.87414000  0.68303800  0.39531200  1
  C  C17  1  0.31409900  0.12474400  0.10287800  1
  C  C18  1  0.12474400  0.31409900  0.60287800  1
  C  C19  1  0.68303800  0.87414000  0.89531200  1
  C  C20  1  0.87176400  0.21701700  0.40397200  1
  C  C21  1  0.78302100  0.12916300  0.09283000  1
  C  C22  1  0.12916300  0.78302100  0.59283000  1
  C  C23  1  0.21701700  0.87176400  0.90397200  1
  C  C24  1  0.51155200  0.48990600  0.25099600  1
  C  C25  1  0.48990600  0.51155200  0.75099600  1
  C  C26  1  0.97100200  0.49136000  0.23679300  1
  C  C27  1  0.51228900  0.03048300  0.26464400  1
  C  C28  1  0.03048300  0.51228900  0.76464400  1
  C  C29  1  0.49136000  0.97100200  0.73679300  1
