# generated using pymatgen
data_Cu2Ni2C
_symmetry_space_group_name_H-M   'P 1'
_cell_length_a   6.56512464
_cell_length_b   6.56512464
_cell_length_c   9.40369353
_cell_angle_alpha   50.00627481
_cell_angle_beta   50.00627481
_cell_angle_gamma   26.34596855
_symmetry_Int_Tables_number   1
_chemical_formula_structural   Cu2Ni2C
_chemical_formula_sum   'Cu4 Ni4 C2'
_cell_volume   135.11976301
_cell_formula_units_Z   2
loop_
 _symmetry_equiv_pos_site_id
 _symmetry_equiv_pos_as_xyz
  1  'x, y, z'
loop_
 _atom_site_type_symbol
 _atom_site_label
 _atom_site_symmetry_multiplicity
 _atom_site_fract_x
 _atom_site_fract_y
 _atom_site_fract_z
 _atom_site_occupancy
  C  C0  1  0.13045700  0.86954300  0.25000000  1
  C  C1  1  0.86954300  0.13045700  0.75000000  1
  Ni  Ni2  1  0.98162500  0.73968900  0.53300900  1
  Ni  Ni3  1  0.26031100  0.01837500  0.96699100  1
  Ni  Ni4  1  0.01837500  0.26031100  0.46699100  1
  Ni  Ni5  1  0.73968900  0.98162500  0.03300900  1
  Cu  Cu6  1  0.52480400  0.26526200  0.25014800  1
  Cu  Cu7  1  0.73473800  0.47519600  0.24985200  1
  Cu  Cu8  1  0.47519600  0.73473800  0.74985200  1
  Cu  Cu9  1  0.26526200  0.52480400  0.75014800  1
