# generated using pymatgen
data_CuNiC5
_symmetry_space_group_name_H-M   'P 1'
_cell_length_a   6.05641080
_cell_length_b   6.05641080
_cell_length_c   6.05641080
_cell_angle_alpha   121.01681160
_cell_angle_beta   118.67013007
_cell_angle_gamma   90.28328800
_symmetry_Int_Tables_number   1
_chemical_formula_structural   CuNiC5
_chemical_formula_sum   'Cu2 Ni2 C10'
_cell_volume   157.37116586
_cell_formula_units_Z   2
loop_
 _symmetry_equiv_pos_site_id
 _symmetry_equiv_pos_as_xyz
  1  'x, y, z'
loop_
 _atom_site_type_symbol
 _atom_site_label
 _atom_site_symmetry_multiplicity
 _atom_site_fract_x
 _atom_site_fract_y
 _atom_site_fract_z
 _atom_site_occupancy
  C  C0  1  0.87586400  0.62586400  0.25000000  1
  C  C1  1  0.12413600  0.37413600  0.75000000  1
  Ni  Ni2  1  0.50000000  0.00000000  0.00000000  1
  Ni  Ni3  1  0.50000000  0.50000000  0.50000000  1
  Cu  Cu4  1  0.00000000  0.00000000  0.00000000  1
  Cu  Cu5  1  0.50000000  0.00000000  0.50000000  1
  C  C6  1  0.72090700  0.24280900  0.47809800  1
  C  C7  1  0.26471100  0.24280900  0.02190200  1
  C  C8  1  0.26296700  0.24252100  0.47955500  1
  C  C9  1  0.26296700  0.78341200  0.02044500  1
  C  C10  1  0.27909300  0.75719100  0.52190200  1
  C  C11  1  0.73528900  0.75719100  0.97809800  1
  C  C12  1  0.73703300  0.75747900  0.52044500  1
  C  C13  1  0.73703300  0.21658800  0.97955500  1
