# generated using pymatgen
data_Cu6Ni14C19
_symmetry_space_group_name_H-M   'P 1'
_cell_length_a   8.93405226
_cell_length_b   8.89631912
_cell_length_c   8.89675673
_cell_angle_alpha   72.77867878
_cell_angle_beta   107.18581382
_cell_angle_gamma   107.18653386
_symmetry_Int_Tables_number   1
_chemical_formula_structural   Cu6Ni14C19
_chemical_formula_sum   'Cu6 Ni14 C19'
_cell_volume   628.27122916
_cell_formula_units_Z   1
loop_
 _symmetry_equiv_pos_site_id
 _symmetry_equiv_pos_as_xyz
  1  'x, y, z'
loop_
 _atom_site_type_symbol
 _atom_site_label
 _atom_site_symmetry_multiplicity
 _atom_site_fract_x
 _atom_site_fract_y
 _atom_site_fract_z
 _atom_site_occupancy
  C  C0  1  0.33700303  0.16910973  0.17052776  1
  Ni  Ni1  1  0.83351484  0.16675221  0.66669475  1
  Ni  Ni2  1  0.16524216  0.33353252  0.83157497  1
  Ni  Ni3  1  0.66669349  0.83348861  0.83352171  1
  Ni  Ni4  1  0.50196483  0.99954198  0.50280911  1
  Ni  Ni5  1  0.07528090  0.91974045  0.91987948  1
  Ni  Ni6  1  0.25412360  0.74475639  0.74476069  1
  Ni  Ni7  1  0.41179661  0.58876055  0.58868440  1
  Ni  Ni8  1  0.59178951  0.41323470  0.41320012  1
  Ni  Ni9  1  0.73925052  0.25416299  0.25384997  1
  Ni  Ni10  1  0.92795263  0.07930495  0.07950159  1
  Ni  Ni11  1  0.00007823  0.49988865  0.49982851  1
  Ni  Ni12  1  0.83354309  0.66671476  0.16661963  1
  Ni  Ni13  1  0.16512422  0.83153732  0.33355934  1
  Ni  Ni14  1  0.50195737  0.50236623  0.99961345  1
  Cu  Cu15  1  0.49961579  0.16682814  0.83434724  1
  Cu  Cu16  1  0.83320733  0.49919230  0.83388986  1
  Cu  Cu17  1  0.16684888  0.16640385  0.49948794  1
  Cu  Cu18  1  0.83319133  0.83393534  0.49932676  1
  Cu  Cu19  1  0.16697887  0.49945555  0.16635796  1
  Cu  Cu20  1  0.49977348  0.83423834  0.16687600  1
  C  C21  1  0.77268104  0.22738668  0.85391158  1
  C  C22  1  0.56227062  0.43995267  0.81560981  1
  C  C23  1  0.89445590  0.10597172  0.47944422  1
  C  C24  1  0.22728736  0.14721861  0.77553982  1
  C  C25  1  0.85052371  0.77118328  0.77123383  1
  C  C26  1  0.48160412  0.89445438  0.89418236  1
  C  C27  1  0.10452973  0.51755841  0.89405662  1
  C  C28  1  0.43844855  0.18614126  0.55662279  1
  C  C29  1  0.81604554  0.56206791  0.56204557  1
  C  C30  1  0.50060302  0.11045140  0.11019963  1
  C  C31  1  0.18482484  0.43823668  0.43825879  1
  C  C32  1  0.89451253  0.47952669  0.10582172  1
  C  C33  1  0.56236325  0.81577475  0.44019852  1
  C  C34  1  0.16631177  0.22366251  0.22390256  1
  C  C35  1  0.77293286  0.85374221  0.22765820  1
  C  C36  1  0.43854771  0.55639571  0.18609148  1
  C  C37  1  0.10450343  0.89415963  0.51756969  1
  C  C38  1  0.22728432  0.77565192  0.14730158  1
