# generated using pymatgen
data_Cu2(Ni2C3)5
_symmetry_space_group_name_H-M   'P 1'
_cell_length_a   8.34807200
_cell_length_b   11.17654500
_cell_length_c   13.94874881
_cell_angle_alpha   90.00000000
_cell_angle_beta   113.15409925
_cell_angle_gamma   90.00000000
_symmetry_Int_Tables_number   1
_chemical_formula_structural   Cu2(Ni2C3)5
_chemical_formula_sum   'Cu8 Ni40 C60'
_cell_volume   1196.62322970
_cell_formula_units_Z   4
loop_
 _symmetry_equiv_pos_site_id
 _symmetry_equiv_pos_as_xyz
  1  'x, y, z'
loop_
 _atom_site_type_symbol
 _atom_site_label
 _atom_site_symmetry_multiplicity
 _atom_site_fract_x
 _atom_site_fract_y
 _atom_site_fract_z
 _atom_site_occupancy
  C  C0  1  0.54213600  0.19963300  0.17344200  1
  C  C1  1  0.54213600  0.30036700  0.67344200  1
  C  C2  1  0.45786400  0.80036700  0.82655800  1
  C  C3  1  0.45786400  0.69963300  0.32655800  1
  Ni  Ni4  1  0.83266600  0.90976000  0.27537500  1
  Ni  Ni5  1  0.83266600  0.59024000  0.77537500  1
  Ni  Ni6  1  0.16733400  0.09024000  0.72462500  1
  Ni  Ni7  1  0.16733400  0.40976000  0.22462500  1
  Ni  Ni8  1  0.01544000  0.36185500  0.61754800  1
  Ni  Ni9  1  0.01544000  0.13814500  0.11754800  1
  Ni  Ni10  1  0.98456000  0.63814500  0.38245200  1
  Ni  Ni11  1  0.98456000  0.86185500  0.88245200  1
  Ni  Ni12  1  0.77234900  0.98207500  0.50801700  1
  Ni  Ni13  1  0.77234900  0.51792500  0.00801700  1
  Ni  Ni14  1  0.22765100  0.01792500  0.49198300  1
  Ni  Ni15  1  0.22765100  0.48207500  0.99198300  1
  Ni  Ni16  1  0.65913500  0.05028700  0.40010900  1
  Ni  Ni17  1  0.65913500  0.44971300  0.90010900  1
  Ni  Ni18  1  0.34086500  0.94971300  0.59989100  1
  Ni  Ni19  1  0.34086500  0.55028700  0.09989100  1
  Ni  Ni20  1  0.99361500  0.30014000  0.48062200  1
  Ni  Ni21  1  0.99361500  0.19986000  0.98062200  1
  Ni  Ni22  1  0.00638500  0.69986000  0.51937800  1
  Ni  Ni23  1  0.00638500  0.80014000  0.01937800  1
  Ni  Ni24  1  0.84849700  0.97305700  0.39831800  1
  Ni  Ni25  1  0.84849700  0.52694300  0.89831800  1
  Ni  Ni26  1  0.15150300  0.02694300  0.60168200  1
  Ni  Ni27  1  0.15150300  0.47305700  0.10168200  1
  Ni  Ni28  1  0.96117100  0.84200400  0.37899100  1
  Ni  Ni29  1  0.96117100  0.65799600  0.87899100  1
  Ni  Ni30  1  0.03882900  0.15799600  0.62100900  1
  Ni  Ni31  1  0.03882900  0.34200400  0.12100900  1
  Ni  Ni32  1  0.99048500  0.38090300  0.37086600  1
  Ni  Ni33  1  0.99048500  0.11909700  0.87086600  1
  Ni  Ni34  1  0.00951500  0.61909700  0.62913400  1
  Ni  Ni35  1  0.00951500  0.88090300  0.12913400  1
  Ni  Ni36  1  0.82825400  0.29893300  0.54900300  1
  Ni  Ni37  1  0.82825400  0.20106700  0.04900300  1
  Ni  Ni38  1  0.17174600  0.70106700  0.45099700  1
  Ni  Ni39  1  0.17174600  0.79893300  0.95099700  1
  Ni  Ni40  1  0.11875200  0.26155500  0.40635400  1
  Ni  Ni41  1  0.11875200  0.23844500  0.90635400  1
  Ni  Ni42  1  0.88124800  0.73844500  0.59364600  1
  Ni  Ni43  1  0.88124800  0.76155500  0.09364600  1
  Cu  Cu44  1  0.50747000  0.12321600  0.89825200  1
  Cu  Cu45  1  0.50747000  0.37678400  0.39825200  1
  Cu  Cu46  1  0.49253000  0.87678400  0.10174800  1
  Cu  Cu47  1  0.49253000  0.62321600  0.60174800  1
  Cu  Cu48  1  0.72423800  0.52163200  0.19548900  1
  Cu  Cu49  1  0.72423800  0.97836800  0.69548900  1
  Cu  Cu50  1  0.27576200  0.47836800  0.80451100  1
  Cu  Cu51  1  0.27576200  0.02163200  0.30451100  1
  C  C52  1  0.29348300  0.13583300  0.84786400  1
  C  C53  1  0.29348300  0.36416700  0.34786400  1
  C  C54  1  0.70651700  0.86416700  0.15213600  1
  C  C55  1  0.70651700  0.63583300  0.65213600  1
  C  C56  1  0.60281800  0.19324900  0.01407300  1
  C  C57  1  0.60281800  0.30675100  0.51407300  1
  C  C58  1  0.39718200  0.80675100  0.98592700  1
  C  C59  1  0.39718200  0.69324900  0.48592700  1
  C  C60  1  0.42394900  0.01980600  0.08351600  1
  C  C61  1  0.42394900  0.48019400  0.58351600  1
  C  C62  1  0.57605100  0.98019400  0.91648400  1
  C  C63  1  0.57605100  0.51980600  0.41648400  1
  C  C64  1  0.45651700  0.07948300  0.29328000  1
  C  C65  1  0.45651700  0.42051700  0.79328000  1
  C  C66  1  0.54348300  0.92051700  0.70672000  1
  C  C67  1  0.54348300  0.57948300  0.20672000  1
  C  C68  1  0.60178300  0.31481300  0.32416800  1
  C  C69  1  0.60178300  0.18518700  0.82416800  1
  C  C70  1  0.39821700  0.68518700  0.67583200  1
  C  C71  1  0.39821700  0.81481300  0.17583200  1
  C  C72  1  0.76290500  0.59918200  0.10553600  1
  C  C73  1  0.76290500  0.90081800  0.60553600  1
  C  C74  1  0.23709500  0.40081800  0.89446400  1
  C  C75  1  0.23709500  0.09918200  0.39446400  1
  C  C76  1  0.89164000  0.52027900  0.31210600  1
  C  C77  1  0.89164000  0.97972100  0.81210600  1
  C  C78  1  0.10836000  0.47972100  0.68789400  1
  C  C79  1  0.10836000  0.02027900  0.18789400  1
  C  C80  1  0.67603200  0.38086900  0.15157300  1
  C  C81  1  0.67603200  0.11913100  0.65157300  1
  C  C82  1  0.32396800  0.61913100  0.84842700  1
  C  C83  1  0.32396800  0.88086900  0.34842700  1
  C  C84  1  0.75385900  0.13203700  0.23556900  1
  C  C85  1  0.75385900  0.36796300  0.73556900  1
  C  C86  1  0.24614100  0.86796300  0.76443100  1
  C  C87  1  0.24614100  0.63203700  0.26443100  1
  C  C88  1  0.32580700  0.26060400  0.11005600  1
  C  C89  1  0.32580700  0.23939600  0.61005600  1
  C  C90  1  0.67419300  0.73939600  0.88994400  1
  C  C91  1  0.67419300  0.76060400  0.38994400  1
  C  C92  1  0.78009100  0.02941400  0.44824000  1
  C  C93  1  0.78009100  0.47058600  0.94824000  1
  C  C94  1  0.21990900  0.97058600  0.55176000  1
  C  C95  1  0.21990900  0.52941400  0.05176000  1
  C  C96  1  0.95655100  0.29532900  0.56653400  1
  C  C97  1  0.95655100  0.20467100  0.06653400  1
  C  C98  1  0.04344900  0.70467100  0.43346600  1
  C  C99  1  0.04344900  0.79532900  0.93346600  1
  C  C100  1  0.91817500  0.92256900  0.34878800  1
  C  C101  1  0.91817500  0.57743100  0.84878800  1
  C  C102  1  0.08182500  0.07743100  0.65121200  1
  C  C103  1  0.08182500  0.42256900  0.15121200  1
  C  C104  1  0.01284400  0.30105300  0.40631800  1
  C  C105  1  0.01284400  0.19894700  0.90631800  1
  C  C106  1  0.98715600  0.69894700  0.59368200  1
  C  C107  1  0.98715600  0.80105300  0.09368200  1
