# generated using pymatgen
data_Cu2Ni3C4
_symmetry_space_group_name_H-M   'P 1'
_cell_length_a   5.35060800
_cell_length_b   10.83914000
_cell_length_c   8.02397600
_cell_angle_alpha   90.00000000
_cell_angle_beta   90.00000000
_cell_angle_gamma   90.00000000
_symmetry_Int_Tables_number   1
_chemical_formula_structural   Cu2Ni3C4
_chemical_formula_sum   'Cu8 Ni12 C16'
_cell_volume   465.35842541
_cell_formula_units_Z   4
loop_
 _symmetry_equiv_pos_site_id
 _symmetry_equiv_pos_as_xyz
  1  'x, y, z'
loop_
 _atom_site_type_symbol
 _atom_site_label
 _atom_site_symmetry_multiplicity
 _atom_site_fract_x
 _atom_site_fract_y
 _atom_site_fract_z
 _atom_site_occupancy
  Ni  Ni0  1  0.72643600  0.14629300  0.37553100  1
  Ni  Ni1  1  0.77356400  0.85370700  0.37553100  1
  Ni  Ni2  1  0.72643600  0.35370700  0.12446900  1
  Ni  Ni3  1  0.77356400  0.64629300  0.12446900  1
  Ni  Ni4  1  0.27356400  0.85370700  0.62446900  1
  Ni  Ni5  1  0.22643600  0.14629300  0.62446900  1
  Ni  Ni6  1  0.27356400  0.64629300  0.87553100  1
  Ni  Ni7  1  0.22643600  0.35370700  0.87553100  1
  Ni  Ni8  1  0.75000000  0.50000000  0.44487100  1
  Ni  Ni9  1  0.75000000  0.00000000  0.05512900  1
  Ni  Ni10  1  0.25000000  0.50000000  0.55512900  1
  Ni  Ni11  1  0.25000000  0.00000000  0.94487100  1
  Cu  Cu12  1  0.75000000  0.50000000  0.79851800  1
  Cu  Cu13  1  0.75000000  0.00000000  0.70148200  1
  Cu  Cu14  1  0.25000000  0.50000000  0.20148200  1
  Cu  Cu15  1  0.25000000  0.00000000  0.29851800  1
  Cu  Cu16  1  0.77781900  0.25000000  0.75000000  1
  Cu  Cu17  1  0.72218100  0.75000000  0.75000000  1
  Cu  Cu18  1  0.22218100  0.75000000  0.25000000  1
  Cu  Cu19  1  0.27781900  0.25000000  0.25000000  1
  C  C20  1  0.99599800  0.39592600  0.67170200  1
  C  C21  1  0.50400200  0.60407400  0.67170200  1
  C  C22  1  0.99599800  0.10407400  0.82829800  1
  C  C23  1  0.50400200  0.89592600  0.82829800  1
  C  C24  1  0.00400200  0.60407400  0.32829800  1
  C  C25  1  0.49599800  0.39592600  0.32829800  1
  C  C26  1  0.00400200  0.89592600  0.17170200  1
  C  C27  1  0.49599800  0.10407400  0.17170200  1
  C  C28  1  0.58917600  0.35652300  0.89538500  1
  C  C29  1  0.91082400  0.64347700  0.89538500  1
  C  C30  1  0.58917600  0.14347700  0.60461500  1
  C  C31  1  0.91082400  0.85652300  0.60461500  1
  C  C32  1  0.41082400  0.64347700  0.10461500  1
  C  C33  1  0.08917600  0.35652300  0.10461500  1
  C  C34  1  0.41082400  0.85652300  0.39538500  1
  C  C35  1  0.08917600  0.14347700  0.39538500  1
