# generated using pymatgen
data_Cu15(Ni3C2)2
_symmetry_space_group_name_H-M   'P 1'
_cell_length_a   21.66468200
_cell_length_b   7.54658400
_cell_length_c   10.58527757
_cell_angle_alpha   76.05594214
_cell_angle_beta   90.00000000
_cell_angle_gamma   90.00000000
_symmetry_Int_Tables_number   1
_chemical_formula_structural   Cu15(Ni3C2)2
_chemical_formula_sum   'Cu60 Ni24 C16'
_cell_volume   1679.63378653
_cell_formula_units_Z   4
loop_
 _symmetry_equiv_pos_site_id
 _symmetry_equiv_pos_as_xyz
  1  'x, y, z'
loop_
 _atom_site_type_symbol
 _atom_site_label
 _atom_site_symmetry_multiplicity
 _atom_site_fract_x
 _atom_site_fract_y
 _atom_site_fract_z
 _atom_site_occupancy
  C  C0  1  0.09626900  0.03442700  0.67169600  1
  C  C1  1  0.59626900  0.96557300  0.82830400  1
  C  C2  1  0.90373100  0.96557300  0.32830400  1
  C  C3  1  0.40373100  0.03442700  0.17169600  1
  C  C4  1  0.10136900  0.49047000  0.82931100  1
  C  C5  1  0.60136900  0.50953000  0.67068900  1
  C  C6  1  0.89863100  0.50953000  0.17068900  1
  C  C7  1  0.39863100  0.49047000  0.32931100  1
  C  C8  1  0.09180700  0.25064000  0.24993100  1
  C  C9  1  0.59180700  0.74936000  0.25006900  1
  C  C10  1  0.90819300  0.74936000  0.75006900  1
  C  C11  1  0.40819300  0.25064000  0.74993100  1
  C  C12  1  0.13582700  0.75151000  0.25016500  1
  C  C13  1  0.63582700  0.24849000  0.24983500  1
  C  C14  1  0.86417300  0.24849000  0.74983500  1
  C  C15  1  0.36417300  0.75151000  0.75016500  1
  Ni  Ni16  1  0.07056700  0.73041600  0.47838000  1
  Ni  Ni17  1  0.57056700  0.26958400  0.02162000  1
  Ni  Ni18  1  0.92943300  0.26958400  0.52162000  1
  Ni  Ni19  1  0.42943300  0.73041600  0.97838000  1
  Ni  Ni20  1  0.09474900  0.53533000  0.48110800  1
  Ni  Ni21  1  0.59474900  0.46467000  0.01889200  1
  Ni  Ni22  1  0.90525100  0.46467000  0.51889200  1
  Ni  Ni23  1  0.40525100  0.53533000  0.98110800  1
  Ni  Ni24  1  0.25963800  0.79304400  0.29258000  1
  Ni  Ni25  1  0.75963800  0.20695600  0.20742000  1
  Ni  Ni26  1  0.74036200  0.20695600  0.70742000  1
  Ni  Ni27  1  0.24036200  0.79304400  0.79258000  1
  Ni  Ni28  1  0.06549100  0.78014300  0.02689900  1
  Ni  Ni29  1  0.56549100  0.21985700  0.47310100  1
  Ni  Ni30  1  0.93450900  0.21985700  0.97310100  1
  Ni  Ni31  1  0.43450900  0.78014300  0.52689900  1
  Ni  Ni32  1  0.09601400  0.96966200  0.01789300  1
  Ni  Ni33  1  0.59601400  0.03033800  0.48210700  1
  Ni  Ni34  1  0.90398600  0.03033800  0.98210700  1
  Ni  Ni35  1  0.40398600  0.96966200  0.51789300  1
  Ni  Ni36  1  0.25395200  0.65784100  0.19870300  1
  Ni  Ni37  1  0.75395200  0.34215900  0.30129700  1
  Ni  Ni38  1  0.74604800  0.34215900  0.80129700  1
  Ni  Ni39  1  0.24604800  0.65784100  0.69870300  1
  Cu  Cu40  1  0.08302600  0.84895400  0.37024400  1
  Cu  Cu41  1  0.58302600  0.15104600  0.12975600  1
  Cu  Cu42  1  0.91697400  0.15104600  0.62975600  1
  Cu  Cu43  1  0.41697400  0.84895400  0.87024400  1
  Cu  Cu44  1  0.04301700  0.76321600  0.57314500  1
  Cu  Cu45  1  0.54301700  0.23678400  0.92685500  1
  Cu  Cu46  1  0.95698300  0.23678400  0.42685500  1
  Cu  Cu47  1  0.45698300  0.76321600  0.07314500  1
  Cu  Cu48  1  0.20641700  0.83818000  0.33162200  1
  Cu  Cu49  1  0.70641700  0.16182000  0.16837800  1
  Cu  Cu50  1  0.79358300  0.16182000  0.66837800  1
  Cu  Cu51  1  0.29358300  0.83818000  0.83162200  1
  Cu  Cu52  1  0.12701000  0.97999200  0.12078100  1
  Cu  Cu53  1  0.62701000  0.02000800  0.37921900  1
  Cu  Cu54  1  0.87299000  0.02000800  0.87921900  1
  Cu  Cu55  1  0.37299000  0.97999200  0.62078100  1
  Cu  Cu56  1  0.09052800  0.09922600  0.92092700  1
  Cu  Cu57  1  0.59052800  0.90077400  0.57907300  1
  Cu  Cu58  1  0.90947200  0.90077400  0.07907300  1
  Cu  Cu59  1  0.40947200  0.09922600  0.42092700  1
  Cu  Cu60  1  0.29980000  0.57823800  0.17250600  1
  Cu  Cu61  1  0.79980000  0.42176200  0.32749400  1
  Cu  Cu62  1  0.70020000  0.42176200  0.82749400  1
  Cu  Cu63  1  0.20020000  0.57823800  0.67250600  1
  Cu  Cu64  1  0.12522300  0.52360400  0.37785400  1
  Cu  Cu65  1  0.62522300  0.47639600  0.12214600  1
  Cu  Cu66  1  0.87477700  0.47639600  0.62214600  1
  Cu  Cu67  1  0.37477700  0.52360400  0.87785400  1
  Cu  Cu68  1  0.08515300  0.40282200  0.57396600  1
  Cu  Cu69  1  0.58515300  0.59717800  0.92603400  1
  Cu  Cu70  1  0.91484700  0.59717800  0.42603400  1
  Cu  Cu71  1  0.41484700  0.40282200  0.07396600  1
  Cu  Cu72  1  0.31104900  0.84231900  0.31964900  1
  Cu  Cu73  1  0.81104900  0.15768100  0.18035100  1
  Cu  Cu74  1  0.68895100  0.15768100  0.68035100  1
  Cu  Cu75  1  0.18895100  0.84231900  0.81964900  1
  Cu  Cu76  1  0.07468200  0.66550600  0.13935200  1
  Cu  Cu77  1  0.57468200  0.33449400  0.36064800  1
  Cu  Cu78  1  0.92531800  0.33449400  0.86064800  1
  Cu  Cu79  1  0.42531800  0.66550600  0.63935200  1
  Cu  Cu80  1  0.03658400  0.74569600  0.93456700  1
  Cu  Cu81  1  0.53658400  0.25430400  0.56543300  1
  Cu  Cu82  1  0.96341600  0.25430400  0.06543300  1
  Cu  Cu83  1  0.46341600  0.74569600  0.43456700  1
  Cu  Cu84  1  0.19793600  0.64643200  0.15781300  1
  Cu  Cu85  1  0.69793600  0.35356800  0.34218700  1
  Cu  Cu86  1  0.80206400  0.35356800  0.84218700  1
  Cu  Cu87  1  0.30206400  0.64643200  0.65781300  1
  Cu  Cu88  1  0.17594100  0.41658700  0.05654200  1
  Cu  Cu89  1  0.67594100  0.58341300  0.44345800  1
  Cu  Cu90  1  0.82405900  0.58341300  0.94345800  1
  Cu  Cu91  1  0.32405900  0.41658700  0.55654200  1
  Cu  Cu92  1  0.16942800  0.05169500  0.44392400  1
  Cu  Cu93  1  0.66942800  0.94830500  0.05607600  1
  Cu  Cu94  1  0.83057200  0.94830500  0.55607600  1
  Cu  Cu95  1  0.33057200  0.05169500  0.94392400  1
  Cu  Cu96  1  0.98259800  0.72980000  0.23901300  1
  Cu  Cu97  1  0.48259800  0.27020000  0.26098700  1
  Cu  Cu98  1  0.01740200  0.27020000  0.76098700  1
  Cu  Cu99  1  0.51740200  0.72980000  0.73901300  1
