# generated using pymatgen
data_Cu14(NiC3)5
_symmetry_space_group_name_H-M   'P 1'
_cell_length_a   9.04586581
_cell_length_b   9.04586581
_cell_length_c   9.10108915
_cell_angle_alpha   60.09987985
_cell_angle_beta   60.09987985
_cell_angle_gamma   89.54439277
_symmetry_Int_Tables_number   1
_chemical_formula_structural   Cu14(NiC3)5
_chemical_formula_sum   'Cu14 Ni5 C15'
_cell_volume   530.22101005
_cell_formula_units_Z   1
loop_
 _symmetry_equiv_pos_site_id
 _symmetry_equiv_pos_as_xyz
  1  'x, y, z'
loop_
 _atom_site_type_symbol
 _atom_site_label
 _atom_site_symmetry_multiplicity
 _atom_site_fract_x
 _atom_site_fract_y
 _atom_site_fract_z
 _atom_site_occupancy
  C  C0  1  0.85652900  0.14347100  0.00000000  1
  C  C1  1  0.64996600  0.94198100  0.80472100  1
  C  C2  1  0.45421800  0.74270400  0.60042800  1
  C  C3  1  0.25729600  0.54578200  0.39957200  1
  C  C4  1  0.05801900  0.35003400  0.19527900  1
  C  C5  1  0.54578200  0.25729600  0.39957200  1
  C  C6  1  0.35003400  0.05801900  0.19527900  1
  C  C7  1  0.14347100  0.85652900  0.00000000  1
  C  C8  1  0.94198100  0.64996600  0.80472100  1
  C  C9  1  0.74270400  0.45421800  0.60042800  1
  C  C10  1  0.89878500  0.89878500  0.39690800  1
  C  C11  1  0.69777200  0.69777200  0.19974900  1
  C  C12  1  0.50000000  0.50000000  0.00000000  1
  C  C13  1  0.30222800  0.30222800  0.80025100  1
  C  C14  1  0.10121500  0.10121500  0.60309200  1
  Ni  Ni15  1  0.10319000  0.10319000  0.10944500  1
  Ni  Ni16  1  0.50000000  0.50000000  0.50000000  1
  Ni  Ni17  1  0.89681000  0.89681000  0.89055500  1
  Ni  Ni18  1  0.29336000  0.29336000  0.29774900  1
  Ni  Ni19  1  0.70664000  0.70664000  0.70225100  1
  Cu  Cu20  1  0.66360600  0.33639400  0.00000000  1
  Cu  Cu21  1  0.45958600  0.13693700  0.80017100  1
  Cu  Cu22  1  0.25646900  0.93430900  0.59311000  1
  Cu  Cu23  1  0.06569100  0.74353100  0.40689000  1
  Cu  Cu24  1  0.86306300  0.54041400  0.19982900  1
  Cu  Cu25  1  0.74353100  0.06569100  0.40689000  1
  Cu  Cu26  1  0.54041400  0.86306300  0.19982900  1
  Cu  Cu27  1  0.33639400  0.66360600  0.00000000  1
  Cu  Cu28  1  0.13693700  0.45958600  0.80017100  1
  Cu  Cu29  1  0.93430900  0.25646900  0.59311000  1
  Cu  Cu30  1  0.40854600  0.40854600  0.88910300  1
  Cu  Cu31  1  0.80523400  0.80523400  0.29382900  1
  Cu  Cu32  1  0.19476600  0.19476600  0.70617100  1
  Cu  Cu33  1  0.59145400  0.59145400  0.11089700  1
