# generated using pymatgen
data_Cu2NiC11
_symmetry_space_group_name_H-M   'P 1'
_cell_length_a   9.66243107
_cell_length_b   9.66243107
_cell_length_c   14.90031659
_cell_angle_alpha   90.00000000
_cell_angle_beta   90.00000000
_cell_angle_gamma   119.99999650
_symmetry_Int_Tables_number   1
_chemical_formula_structural   Cu2NiC11
_chemical_formula_sum   'Cu12 Ni6 C66'
_cell_volume   1204.75561880
_cell_formula_units_Z   6
loop_
 _symmetry_equiv_pos_site_id
 _symmetry_equiv_pos_as_xyz
  1  'x, y, z'
loop_
 _atom_site_type_symbol
 _atom_site_label
 _atom_site_symmetry_multiplicity
 _atom_site_fract_x
 _atom_site_fract_y
 _atom_site_fract_z
 _atom_site_occupancy
  C  C0  1  0.78072217  0.21927783  0.75000000  1
  C  C1  1  0.43855565  0.21927783  0.41666700  1
  C  C2  1  0.21927783  0.78072217  0.25000000  1
  C  C3  1  0.56144435  0.78072217  0.91666700  1
  C  C4  1  0.78072217  0.56144435  0.08333300  1
  C  C5  1  0.21927783  0.43855565  0.58333300  1
  C  C6  1  0.48478650  0.51521350  0.75000000  1
  C  C7  1  0.03042700  0.51521350  0.41666700  1
  C  C8  1  0.51521350  0.48478650  0.25000000  1
  C  C9  1  0.96957300  0.48478650  0.91666700  1
  C  C10  1  0.48478650  0.96957300  0.08333300  1
  C  C11  1  0.51521350  0.03042700  0.58333300  1
  Ni  Ni12  1  0.16342944  0.83657056  0.75000000  1
  Ni  Ni13  1  0.67314111  0.83657056  0.41666700  1
  Ni  Ni14  1  0.83657056  0.16342944  0.25000000  1
  Ni  Ni15  1  0.32685889  0.16342944  0.91666700  1
  Ni  Ni16  1  0.16342944  0.32685889  0.08333300  1
  Ni  Ni17  1  0.83657056  0.67314111  0.58333300  1
  Cu  Cu18  1  0.61059443  0.77049495  0.59485859  1
  Cu  Cu19  1  0.15990051  0.38940557  0.26152559  1
  Cu  Cu20  1  0.38940557  0.22950505  0.09485859  1
  Cu  Cu21  1  0.84009949  0.22950505  0.07180841  1
  Cu  Cu22  1  0.22950505  0.84009949  0.92819159  1
  Cu  Cu23  1  0.84009949  0.61059443  0.76152559  1
  Cu  Cu24  1  0.77049495  0.61059443  0.40514141  1
  Cu  Cu25  1  0.15990051  0.77049495  0.57180841  1
  Cu  Cu26  1  0.77049495  0.15990051  0.42819159  1
  Cu  Cu27  1  0.22950505  0.38940557  0.90514141  1
  Cu  Cu28  1  0.38940557  0.15990051  0.73847441  1
  Cu  Cu29  1  0.61059443  0.84009949  0.23847441  1
  C  C30  1  0.47263666  0.62280796  0.64025859  1
  C  C31  1  0.15017130  0.52736334  0.30692559  1
  C  C32  1  0.52736334  0.37719204  0.14025859  1
  C  C33  1  0.84982870  0.37719204  0.02640841  1
  C  C34  1  0.37719204  0.84982870  0.97359159  1
  C  C35  1  0.84982870  0.47263666  0.80692559  1
  C  C36  1  0.62280796  0.47263666  0.35974141  1
  C  C37  1  0.15017130  0.62280796  0.52640841  1
  C  C38  1  0.62280796  0.15017130  0.47359159  1
  C  C39  1  0.37719204  0.52736334  0.85974141  1
  C  C40  1  0.52736334  0.15017130  0.69307441  1
  C  C41  1  0.47263666  0.84982870  0.19307441  1
  C  C42  1  0.62979581  0.92790005  0.63203476  1
  C  C43  1  0.29810424  0.37020419  0.29870176  1
  C  C44  1  0.37020419  0.07209995  0.13203476  1
  C  C45  1  0.70189576  0.07209995  0.03463224  1
  C  C46  1  0.07209995  0.70189576  0.96536776  1
  C  C47  1  0.70189576  0.62979581  0.79870176  1
  C  C48  1  0.92790005  0.62979581  0.36796524  1
  C  C49  1  0.29810424  0.92790005  0.53463224  1
  C  C50  1  0.92790005  0.29810424  0.46536776  1
  C  C51  1  0.07209995  0.37020419  0.86796524  1
  C  C52  1  0.37020419  0.29810424  0.70129824  1
  C  C53  1  0.62979581  0.70189576  0.20129824  1
  C  C54  1  0.77476423  0.78051148  0.60729379  1
  C  C55  1  0.00574725  0.22523577  0.27396079  1
  C  C56  1  0.22523577  0.21948852  0.10729379  1
  C  C57  1  0.99425275  0.21948852  0.05937321  1
  C  C58  1  0.21948852  0.99425275  0.94062679  1
  C  C59  1  0.99425275  0.77476423  0.77396079  1
  C  C60  1  0.78051148  0.77476423  0.39270621  1
  C  C61  1  0.00574725  0.78051148  0.55937321  1
  C  C62  1  0.78051148  0.00574725  0.44062679  1
  C  C63  1  0.21948852  0.22523577  0.89270621  1
  C  C64  1  0.22523577  0.00574725  0.72603921  1
  C  C65  1  0.77476423  0.99425275  0.22603921  1
  C  C66  1  0.56547826  0.75031691  0.49249260  1
  C  C67  1  0.18483865  0.43452174  0.15915960  1
  C  C68  1  0.43452174  0.24968309  0.99249260  1
  C  C69  1  0.81516135  0.24968309  0.17417440  1
  C  C70  1  0.24968309  0.81516135  0.82582560  1
  C  C71  1  0.81516135  0.56547826  0.65915960  1
  C  C72  1  0.75031691  0.56547826  0.50750740  1
  C  C73  1  0.18483865  0.75031691  0.67417440  1
  C  C74  1  0.75031691  0.18483865  0.32582560  1
  C  C75  1  0.24968309  0.43452174  0.00750740  1
  C  C76  1  0.43452174  0.18483865  0.84084040  1
  C  C77  1  0.56547826  0.81516135  0.34084040  1
  C  C78  1  0.76408822  0.76408822  0.00000000  1
  C  C79  1  0.00000000  0.23591178  0.66666700  1
  C  C80  1  0.23591178  0.23591178  0.50000000  1
  C  C81  1  0.23591178  0.00000000  0.33333300  1
  C  C82  1  1.00000000  0.76408822  0.16666700  1
  C  C83  1  0.76408822  1.00000000  0.83333300  1
