# generated using pymatgen
data_Cu(Ni10C11)3
_symmetry_space_group_name_H-M   'P 1'
_cell_length_a   8.70360000
_cell_length_b   8.70360000
_cell_length_c   8.62707400
_cell_angle_alpha   90.00000000
_cell_angle_beta   90.00000000
_cell_angle_gamma   90.00000000
_symmetry_Int_Tables_number   1
_chemical_formula_structural   Cu(Ni10C11)3
_chemical_formula_sum   'Cu1 Ni30 C33'
_cell_volume   653.52374278
_cell_formula_units_Z   1
loop_
 _symmetry_equiv_pos_site_id
 _symmetry_equiv_pos_as_xyz
  1  'x, y, z'
loop_
 _atom_site_type_symbol
 _atom_site_label
 _atom_site_symmetry_multiplicity
 _atom_site_fract_x
 _atom_site_fract_y
 _atom_site_fract_z
 _atom_site_occupancy
  C  C0  1  0.00000000  0.00000000  0.50000000  1
  Ni  Ni1  1  0.50000000  0.00000000  0.00000000  1
  Ni  Ni2  1  0.50000000  0.00000000  0.50000000  1
  Ni  Ni3  1  0.00000000  0.50000000  0.00000000  1
  Ni  Ni4  1  0.00000000  0.50000000  0.50000000  1
  Ni  Ni5  1  0.50000000  0.50000000  0.00000000  1
  Ni  Ni6  1  0.50000000  0.50000000  0.50000000  1
  Ni  Ni7  1  0.25968000  0.00000000  0.24393100  1
  Ni  Ni8  1  0.25968000  0.00000000  0.75606900  1
  Ni  Ni9  1  0.74032000  0.00000000  0.24393100  1
  Ni  Ni10  1  0.74032000  0.00000000  0.75606900  1
  Ni  Ni11  1  0.25150400  0.50000000  0.24969500  1
  Ni  Ni12  1  0.25150400  0.50000000  0.75030500  1
  Ni  Ni13  1  0.74849600  0.50000000  0.24969500  1
  Ni  Ni14  1  0.74849600  0.50000000  0.75030500  1
  Ni  Ni15  1  0.00000000  0.25968000  0.24393100  1
  Ni  Ni16  1  0.00000000  0.25968000  0.75606900  1
  Ni  Ni17  1  0.50000000  0.25150400  0.24969500  1
  Ni  Ni18  1  0.50000000  0.25150400  0.75030500  1
  Ni  Ni19  1  0.00000000  0.74032000  0.24393100  1
  Ni  Ni20  1  0.00000000  0.74032000  0.75606900  1
  Ni  Ni21  1  0.50000000  0.74849600  0.24969500  1
  Ni  Ni22  1  0.50000000  0.74849600  0.75030500  1
  Ni  Ni23  1  0.25118700  0.25118700  0.00000000  1
  Ni  Ni24  1  0.25818500  0.25818500  0.50000000  1
  Ni  Ni25  1  0.74881300  0.25118700  0.00000000  1
  Ni  Ni26  1  0.74181500  0.25818500  0.50000000  1
  Ni  Ni27  1  0.25118700  0.74881300  0.00000000  1
  Ni  Ni28  1  0.25818500  0.74181500  0.50000000  1
  Ni  Ni29  1  0.74881300  0.74881300  0.00000000  1
  Ni  Ni30  1  0.74181500  0.74181500  0.50000000  1
  Cu  Cu31  1  0.00000000  0.00000000  0.00000000  1
  C  C32  1  0.00000000  0.24057100  0.00000000  1
  C  C33  1  0.00000000  0.27858800  0.50000000  1
  C  C34  1  0.50000000  0.24876900  0.00000000  1
  C  C35  1  0.50000000  0.25567000  0.50000000  1
  C  C36  1  0.00000000  0.75942900  0.00000000  1
  C  C37  1  0.00000000  0.72141200  0.50000000  1
  C  C38  1  0.50000000  0.75123100  0.00000000  1
  C  C39  1  0.50000000  0.74433000  0.50000000  1
  C  C40  1  0.24881700  0.24881700  0.25028700  1
  C  C41  1  0.24881700  0.24881700  0.74971300  1
  C  C42  1  0.75118300  0.24881700  0.25028700  1
  C  C43  1  0.75118300  0.24881700  0.74971300  1
  C  C44  1  0.24881700  0.75118300  0.25028700  1
  C  C45  1  0.24881700  0.75118300  0.74971300  1
  C  C46  1  0.75118300  0.75118300  0.25028700  1
  C  C47  1  0.75118300  0.75118300  0.74971300  1
  C  C48  1  0.00000000  0.00000000  0.21121700  1
  C  C49  1  0.00000000  0.00000000  0.78878300  1
  C  C50  1  0.50000000  0.00000000  0.24126000  1
  C  C51  1  0.50000000  0.00000000  0.75874000  1
  C  C52  1  0.00000000  0.50000000  0.24126000  1
  C  C53  1  0.00000000  0.50000000  0.75874000  1
  C  C54  1  0.50000000  0.50000000  0.24780700  1
  C  C55  1  0.50000000  0.50000000  0.75219300  1
  C  C56  1  0.24057100  0.00000000  0.00000000  1
  C  C57  1  0.27858800  0.00000000  0.50000000  1
  C  C58  1  0.75942900  0.00000000  0.00000000  1
  C  C59  1  0.72141200  0.00000000  0.50000000  1
  C  C60  1  0.24876900  0.50000000  0.00000000  1
  C  C61  1  0.25567000  0.50000000  0.50000000  1
  C  C62  1  0.75123100  0.50000000  0.00000000  1
  C  C63  1  0.74433000  0.50000000  0.50000000  1
