# generated using pymatgen
data_Cu5Ni5C8
_symmetry_space_group_name_H-M   'P 1'
_cell_length_a   11.57714900
_cell_length_b   10.15736400
_cell_length_c   19.00972690
_cell_angle_alpha   90.00000000
_cell_angle_beta   126.41206248
_cell_angle_gamma   90.00000000
_symmetry_Int_Tables_number   1
_chemical_formula_structural   Cu5Ni5C8
_chemical_formula_sum   'Cu40 Ni40 C64'
_cell_volume   1798.99382612
_cell_formula_units_Z   8
loop_
 _symmetry_equiv_pos_site_id
 _symmetry_equiv_pos_as_xyz
  1  'x, y, z'
loop_
 _atom_site_type_symbol
 _atom_site_label
 _atom_site_symmetry_multiplicity
 _atom_site_fract_x
 _atom_site_fract_y
 _atom_site_fract_z
 _atom_site_occupancy
  C  C0  1  0.37701000  0.92164100  0.13184300  1
  C  C1  1  0.62299000  0.42164100  0.36815700  1
  C  C2  1  0.62299000  0.07835900  0.86815700  1
  C  C3  1  0.37701000  0.57835900  0.63184300  1
  C  C4  1  0.56913700  0.11257500  0.30741400  1
  C  C5  1  0.43086300  0.61257500  0.19258600  1
  C  C6  1  0.43086300  0.88742500  0.69258600  1
  C  C7  1  0.56913700  0.38742500  0.80741400  1
  C  C8  1  0.50000000  0.00000000  0.00000000  1
  C  C9  1  0.50000000  0.50000000  0.50000000  1
  C  C10  1  0.00000000  0.00000000  0.00000000  1
  C  C11  1  0.00000000  0.50000000  0.50000000  1
  Ni  Ni12  1  0.49936000  0.75566800  0.36561600  1
  Ni  Ni13  1  0.50064000  0.25566800  0.13438400  1
  Ni  Ni14  1  0.50064000  0.24433200  0.63438400  1
  Ni  Ni15  1  0.49936000  0.74433200  0.86561600  1
  Ni  Ni16  1  0.79454600  0.03994700  0.26512200  1
  Ni  Ni17  1  0.20545400  0.53994700  0.23487800  1
  Ni  Ni18  1  0.20545400  0.96005300  0.73487800  1
  Ni  Ni19  1  0.79454600  0.46005300  0.76512200  1
  Ni  Ni20  1  0.49322900  0.61157100  0.04990700  1
  Ni  Ni21  1  0.50677100  0.11157100  0.45009300  1
  Ni  Ni22  1  0.50677100  0.38842900  0.95009300  1
  Ni  Ni23  1  0.49322900  0.88842900  0.54990700  1
  Ni  Ni24  1  0.24899200  0.20048000  0.22871900  1
  Ni  Ni25  1  0.75100800  0.70048000  0.27128100  1
  Ni  Ni26  1  0.75100800  0.79952000  0.77128100  1
  Ni  Ni27  1  0.24899200  0.29952000  0.72871900  1
  Ni  Ni28  1  0.23970400  0.16345400  0.92987300  1
  Ni  Ni29  1  0.76029600  0.66345400  0.57012700  1
  Ni  Ni30  1  0.76029600  0.83654600  0.07012700  1
  Ni  Ni31  1  0.23970400  0.33654600  0.42987300  1
  Ni  Ni32  1  0.01554200  0.70298900  0.00716900  1
  Ni  Ni33  1  0.98445800  0.20298900  0.49283100  1
  Ni  Ni34  1  0.98445800  0.29701100  0.99283100  1
  Ni  Ni35  1  0.01554200  0.79701100  0.50716900  1
  Ni  Ni36  1  0.17446700  0.43771800  0.95616100  1
  Ni  Ni37  1  0.82553300  0.93771800  0.54383900  1
  Ni  Ni38  1  0.82553300  0.56228200  0.04383900  1
  Ni  Ni39  1  0.17446700  0.06228200  0.45616100  1
  Ni  Ni40  1  0.10075700  0.36813700  0.79315000  1
  Ni  Ni41  1  0.89924300  0.86813700  0.70685000  1
  Ni  Ni42  1  0.89924300  0.63186300  0.20685000  1
  Ni  Ni43  1  0.10075700  0.13186300  0.29315000  1
  Ni  Ni44  1  0.07690000  0.60374000  0.71505000  1
  Ni  Ni45  1  0.92310000  0.10374000  0.78495000  1
  Ni  Ni46  1  0.92310000  0.39626000  0.28495000  1
  Ni  Ni47  1  0.07690000  0.89626000  0.21505000  1
  Ni  Ni48  1  0.13968400  0.79081200  0.83965800  1
  Ni  Ni49  1  0.86031600  0.29081200  0.66034200  1
  Ni  Ni50  1  0.86031600  0.20918800  0.16034200  1
  Ni  Ni51  1  0.13968400  0.70918800  0.33965800  1
  Cu  Cu52  1  0.15231900  0.49508800  0.90143800  1
  Cu  Cu53  1  0.84768100  0.99508800  0.59856200  1
  Cu  Cu54  1  0.84768100  0.50491200  0.09856200  1
  Cu  Cu55  1  0.15231900  0.00491200  0.40143800  1
  Cu  Cu56  1  0.11665300  0.46568800  0.82065900  1
  Cu  Cu57  1  0.88334700  0.96568800  0.67934100  1
  Cu  Cu58  1  0.88334700  0.53431200  0.17934100  1
  Cu  Cu59  1  0.11665300  0.03431200  0.32065900  1
  Cu  Cu60  1  0.10400800  0.58903200  0.77975400  1
  Cu  Cu61  1  0.89599200  0.08903200  0.72024600  1
  Cu  Cu62  1  0.89599200  0.41096800  0.22024600  1
  Cu  Cu63  1  0.10400800  0.91096800  0.27975400  1
  Cu  Cu64  1  0.13288900  0.68451800  0.83872100  1
  Cu  Cu65  1  0.86711100  0.18451800  0.66127900  1
  Cu  Cu66  1  0.86711100  0.31548200  0.16127900  1
  Cu  Cu67  1  0.13288900  0.81548200  0.33872100  1
  Cu  Cu68  1  0.49599800  0.83404700  0.32404900  1
  Cu  Cu69  1  0.50400200  0.33404700  0.17595100  1
  Cu  Cu70  1  0.50400200  0.16595300  0.67595100  1
  Cu  Cu71  1  0.49599800  0.66595300  0.82404900  1
  Cu  Cu72  1  0.68596100  0.01952800  0.20481600  1
  Cu  Cu73  1  0.31403900  0.51952800  0.29518400  1
  Cu  Cu74  1  0.31403900  0.98047200  0.79518400  1
  Cu  Cu75  1  0.68596100  0.48047200  0.70481600  1
  Cu  Cu76  1  0.48038400  0.71770100  0.05646200  1
  Cu  Cu77  1  0.51961600  0.21770100  0.44353800  1
  Cu  Cu78  1  0.51961600  0.28229900  0.94353800  1
  Cu  Cu79  1  0.48038400  0.78229900  0.55646200  1
  Cu  Cu80  1  0.23035500  0.12787700  0.17942700  1
  Cu  Cu81  1  0.76964500  0.62787700  0.32057300  1
  Cu  Cu82  1  0.76964500  0.87212300  0.82057300  1
  Cu  Cu83  1  0.23035500  0.37212300  0.67942700  1
  Cu  Cu84  1  0.22868900  0.09974000  0.97265000  1
  Cu  Cu85  1  0.77131100  0.59974000  0.52735000  1
  Cu  Cu86  1  0.77131100  0.90026000  0.02735000  1
  Cu  Cu87  1  0.22868900  0.40026000  0.47265000  1
  Cu  Cu88  1  0.13095800  0.72331700  0.05632700  1
  Cu  Cu89  1  0.86904200  0.22331700  0.44367300  1
  Cu  Cu90  1  0.86904200  0.27668300  0.94367300  1
  Cu  Cu91  1  0.13095800  0.77668300  0.55632700  1
  C  C92  1  0.16259900  0.62878200  0.91351400  1
  C  C93  1  0.83740100  0.12878200  0.58648600  1
  C  C94  1  0.83740100  0.37121800  0.08648600  1
  C  C95  1  0.16259900  0.87121800  0.41351400  1
  C  C96  1  0.43958500  0.80309300  0.24431900  1
  C  C97  1  0.56041500  0.30309300  0.25568100  1
  C  C98  1  0.56041500  0.19690700  0.75568100  1
  C  C99  1  0.43958500  0.69690700  0.74431900  1
  C  C100  1  0.54679600  0.94455200  0.35912400  1
  C  C101  1  0.45320400  0.44455200  0.14087600  1
  C  C102  1  0.45320400  0.05544800  0.64087600  1
  C  C103  1  0.54679600  0.55544800  0.85912400  1
  C  C104  1  0.58512400  0.01047500  0.21436700  1
  C  C105  1  0.41487600  0.51047500  0.28563300  1
  C  C106  1  0.41487600  0.98952500  0.78563300  1
  C  C107  1  0.58512400  0.48952500  0.71436700  1
  C  C108  1  0.67280900  0.00708900  0.13477700  1
  C  C109  1  0.32719100  0.50708900  0.36522300  1
  C  C110  1  0.32719100  0.99291100  0.86522300  1
  C  C111  1  0.67280900  0.49291100  0.63477700  1
  C  C112  1  0.45980300  0.74748100  0.11416200  1
  C  C113  1  0.54019700  0.24748100  0.38583800  1
  C  C114  1  0.54019700  0.25251900  0.88583800  1
  C  C115  1  0.45980300  0.75251900  0.61416200  1
  C  C116  1  0.48810000  0.79613300  0.00843400  1
  C  C117  1  0.51190000  0.29613300  0.49156600  1
  C  C118  1  0.51190000  0.20386700  0.99156600  1
  C  C119  1  0.48810000  0.70386700  0.50843400  1
  C  C120  1  0.34408800  0.08037500  0.19204100  1
  C  C121  1  0.65591200  0.58037500  0.30795900  1
  C  C122  1  0.65591200  0.91962500  0.80795900  1
  C  C123  1  0.34408800  0.41962500  0.69204100  1
  C  C124  1  0.10266100  0.10133900  0.11824600  1
  C  C125  1  0.89733900  0.60133900  0.38175400  1
  C  C126  1  0.89733900  0.89866100  0.88175400  1
  C  C127  1  0.10266100  0.39866100  0.61824600  1
  C  C128  1  0.33737700  0.02483400  0.02451700  1
  C  C129  1  0.66262300  0.52483400  0.47548300  1
  C  C130  1  0.66262300  0.97516600  0.97548300  1
  C  C131  1  0.33737700  0.47516600  0.52451700  1
  C  C132  1  0.11521700  0.10805500  0.96664700  1
  C  C133  1  0.88478300  0.60805500  0.53335300  1
  C  C134  1  0.88478300  0.89194500  0.03335300  1
  C  C135  1  0.11521700  0.39194500  0.46664700  1
  C  C136  1  0.16771600  0.84491500  0.06299000  1
  C  C137  1  0.83228400  0.34491500  0.43701000  1
  C  C138  1  0.83228400  0.15508500  0.93701000  1
  C  C139  1  0.16771600  0.65508500  0.56299000  1
  C  C140  1  0.21124500  0.62746200  0.09943000  1
  C  C141  1  0.78875500  0.12746200  0.40057000  1
  C  C142  1  0.78875500  0.37253800  0.90057000  1
  C  C143  1  0.21124500  0.87253800  0.59943000  1
