# generated using pymatgen
data_Cu3Ni5C12
_symmetry_space_group_name_H-M   'P 1'
_cell_length_a   4.89321100
_cell_length_b   10.40152100
_cell_length_c   17.85261600
_cell_angle_alpha   90.00000000
_cell_angle_beta   90.00000000
_cell_angle_gamma   90.00000000
_symmetry_Int_Tables_number   1
_chemical_formula_structural   Cu3Ni5C12
_chemical_formula_sum   'Cu12 Ni20 C48'
_cell_volume   908.64168611
_cell_formula_units_Z   4
loop_
 _symmetry_equiv_pos_site_id
 _symmetry_equiv_pos_as_xyz
  1  'x, y, z'
loop_
 _atom_site_type_symbol
 _atom_site_label
 _atom_site_symmetry_multiplicity
 _atom_site_fract_x
 _atom_site_fract_y
 _atom_site_fract_z
 _atom_site_occupancy
  Ni  Ni0  1  0.99467200  0.72969900  0.08047600  1
  Ni  Ni1  1  0.50532800  0.22969900  0.41952400  1
  Ni  Ni2  1  0.00532800  0.27030100  0.58047600  1
  Ni  Ni3  1  0.49467200  0.77030100  0.91952400  1
  Ni  Ni4  1  0.00532800  0.27030100  0.91952400  1
  Ni  Ni5  1  0.49467200  0.77030100  0.58047600  1
  Ni  Ni6  1  0.99467200  0.72969900  0.41952400  1
  Ni  Ni7  1  0.50532800  0.22969900  0.08047600  1
  Ni  Ni8  1  0.48256600  0.78311300  0.25000000  1
  Ni  Ni9  1  0.01743400  0.28311300  0.25000000  1
  Ni  Ni10  1  0.51743400  0.21688700  0.75000000  1
  Ni  Ni11  1  0.98256600  0.71688700  0.75000000  1
  Ni  Ni12  1  0.50292900  0.50770200  0.15913200  1
  Ni  Ni13  1  0.99707100  0.00770200  0.34086800  1
  Ni  Ni14  1  0.49707100  0.49229800  0.65913200  1
  Ni  Ni15  1  0.00292900  0.99229800  0.84086800  1
  Ni  Ni16  1  0.49707100  0.49229800  0.84086800  1
  Ni  Ni17  1  0.00292900  0.99229800  0.65913200  1
  Ni  Ni18  1  0.50292900  0.50770200  0.34086800  1
  Ni  Ni19  1  0.99707100  0.00770200  0.15913200  1
  Cu  Cu20  1  0.93178200  0.60005100  0.25000000  1
  Cu  Cu21  1  0.56821800  0.10005100  0.25000000  1
  Cu  Cu22  1  0.06821800  0.39994900  0.75000000  1
  Cu  Cu23  1  0.43178200  0.89994900  0.75000000  1
  Cu  Cu24  1  0.06449300  0.40618800  0.08012200  1
  Cu  Cu25  1  0.43550700  0.90618800  0.41987800  1
  Cu  Cu26  1  0.93550700  0.59381200  0.58012200  1
  Cu  Cu27  1  0.56449300  0.09381200  0.91987800  1
  Cu  Cu28  1  0.93550700  0.59381200  0.91987800  1
  Cu  Cu29  1  0.56449300  0.09381200  0.58012200  1
  Cu  Cu30  1  0.06449300  0.40618800  0.41987800  1
  Cu  Cu31  1  0.43550700  0.90618800  0.08012200  1
  C  C32  1  0.26657300  0.59607200  0.25000000  1
  C  C33  1  0.23342700  0.09607200  0.25000000  1
  C  C34  1  0.73342700  0.40392800  0.75000000  1
  C  C35  1  0.76657300  0.90392800  0.75000000  1
  C  C36  1  0.76628300  0.89419300  0.08656200  1
  C  C37  1  0.73371700  0.39419300  0.41343800  1
  C  C38  1  0.23371700  0.10580700  0.58656200  1
  C  C39  1  0.26628300  0.60580700  0.91343800  1
  C  C40  1  0.23371700  0.10580700  0.91343800  1
  C  C41  1  0.26628300  0.60580700  0.58656200  1
  C  C42  1  0.76628300  0.89419300  0.41343800  1
  C  C43  1  0.73371700  0.39419300  0.08656200  1
  C  C44  1  0.32714900  0.05557100  0.08496800  1
  C  C45  1  0.17285100  0.55557100  0.41503200  1
  C  C46  1  0.67285100  0.94442900  0.58496800  1
  C  C47  1  0.82714900  0.44442900  0.91503200  1
  C  C48  1  0.67285100  0.94442900  0.91503200  1
  C  C49  1  0.82714900  0.44442900  0.58496800  1
  C  C50  1  0.32714900  0.05557100  0.41503200  1
  C  C51  1  0.17285100  0.55557100  0.08496800  1
  C  C52  1  0.29640900  0.82255400  0.01136600  1
  C  C53  1  0.20359100  0.32255400  0.48863400  1
  C  C54  1  0.70359100  0.17744600  0.51136600  1
  C  C55  1  0.79640900  0.67744600  0.98863400  1
  C  C56  1  0.70359100  0.17744600  0.98863400  1
  C  C57  1  0.79640900  0.67744600  0.51136600  1
  C  C58  1  0.29640900  0.82255400  0.48863400  1
  C  C59  1  0.20359100  0.32255400  0.01136600  1
  C  C60  1  0.27049300  0.83382800  0.15104500  1
  C  C61  1  0.22950700  0.33382800  0.34895500  1
  C  C62  1  0.72950700  0.16617200  0.65104500  1
  C  C63  1  0.77049300  0.66617200  0.84895500  1
  C  C64  1  0.72950700  0.16617200  0.84895500  1
  C  C65  1  0.77049300  0.66617200  0.65104500  1
  C  C66  1  0.27049300  0.83382800  0.34895500  1
  C  C67  1  0.22950700  0.33382800  0.15104500  1
  C  C68  1  0.79052900  0.67267400  0.17648400  1
  C  C69  1  0.70947100  0.17267400  0.32351600  1
  C  C70  1  0.20947100  0.32732600  0.67648400  1
  C  C71  1  0.29052900  0.82732600  0.82351600  1
  C  C72  1  0.20947100  0.32732600  0.82351600  1
  C  C73  1  0.29052900  0.82732600  0.67648400  1
  C  C74  1  0.79052900  0.67267400  0.32351600  1
  C  C75  1  0.70947100  0.17267400  0.17648400  1
  C  C76  1  0.21088000  0.54341600  0.75000000  1
  C  C77  1  0.28912000  0.04341600  0.75000000  1
  C  C78  1  0.78912000  0.45658400  0.25000000  1
  C  C79  1  0.71088000  0.95658400  0.25000000  1
