# generated using pymatgen
data_Cu8NiC3
_symmetry_space_group_name_H-M   'P 1'
_cell_length_a   5.07706675
_cell_length_b   5.07706675
_cell_length_c   16.03532400
_cell_angle_alpha   90.00000000
_cell_angle_beta   90.00000000
_cell_angle_gamma   120.00000979
_symmetry_Int_Tables_number   1
_chemical_formula_structural   Cu8NiC3
_chemical_formula_sum   'Cu16 Ni2 C6'
_cell_volume   357.95965021
_cell_formula_units_Z   2
loop_
 _symmetry_equiv_pos_site_id
 _symmetry_equiv_pos_as_xyz
  1  'x, y, z'
loop_
 _atom_site_type_symbol
 _atom_site_label
 _atom_site_symmetry_multiplicity
 _atom_site_fract_x
 _atom_site_fract_y
 _atom_site_fract_z
 _atom_site_occupancy
  C  C0  1  0.33333300  0.66666700  0.95518000  1
  C  C1  1  0.66666700  0.33333300  0.04482000  1
  C  C2  1  0.66666700  0.33333300  0.45518000  1
  C  C3  1  0.33333300  0.66666700  0.54482000  1
  C  C4  1  0.33333300  0.66666700  0.75000000  1
  C  C5  1  0.66666700  0.33333300  0.25000000  1
  Ni  Ni6  1  0.00000000  0.00000000  0.50000000  1
  Ni  Ni7  1  0.00000000  0.00000000  0.00000000  1
  Cu  Cu8  1  0.16887000  0.83113000  0.37410100  1
  Cu  Cu9  1  0.16887000  0.33774100  0.37410100  1
  Cu  Cu10  1  0.66225900  0.83113000  0.37410100  1
  Cu  Cu11  1  0.83113000  0.16887000  0.62589900  1
  Cu  Cu12  1  0.83113000  0.66225900  0.62589900  1
  Cu  Cu13  1  0.33774100  0.16887000  0.62589900  1
  Cu  Cu14  1  0.83113000  0.16887000  0.87410100  1
  Cu  Cu15  1  0.83113000  0.66225900  0.87410100  1
  Cu  Cu16  1  0.33774100  0.16887000  0.87410100  1
  Cu  Cu17  1  0.16887000  0.83113000  0.12589900  1
  Cu  Cu18  1  0.16887000  0.33774100  0.12589900  1
  Cu  Cu19  1  0.66225900  0.83113000  0.12589900  1
  Cu  Cu20  1  0.33333300  0.66666700  0.25000000  1
  Cu  Cu21  1  0.66666700  0.33333300  0.75000000  1
  Cu  Cu22  1  0.00000000  0.00000000  0.25000000  1
  Cu  Cu23  1  0.00000000  0.00000000  0.75000000  1
