# generated using pymatgen
data_Cu12Ni2C19
_symmetry_space_group_name_H-M   'P 1'
_cell_length_a   7.65278700
_cell_length_b   9.77113600
_cell_length_c   10.66640719
_cell_angle_alpha   81.93356176
_cell_angle_beta   90.00000000
_cell_angle_gamma   90.00000000
_symmetry_Int_Tables_number   1
_chemical_formula_structural   Cu12Ni2C19
_chemical_formula_sum   'Cu24 Ni4 C38'
_cell_volume   789.70437679
_cell_formula_units_Z   2
loop_
 _symmetry_equiv_pos_site_id
 _symmetry_equiv_pos_as_xyz
  1  'x, y, z'
loop_
 _atom_site_type_symbol
 _atom_site_label
 _atom_site_symmetry_multiplicity
 _atom_site_fract_x
 _atom_site_fract_y
 _atom_site_fract_z
 _atom_site_occupancy
  C  C0  1  0.50000000  0.50000000  0.50000000  1
  C  C1  1  0.00000000  0.00000000  0.50000000  1
  C  C2  1  0.96335700  0.42132000  0.63742200  1
  C  C3  1  0.46335700  0.07868000  0.36257800  1
  C  C4  1  0.03664300  0.57868000  0.36257800  1
  C  C5  1  0.53664300  0.92132000  0.63742200  1
  C  C6  1  0.92213600  0.77763900  0.76007400  1
  C  C7  1  0.42213600  0.72236100  0.23992600  1
  C  C8  1  0.07786400  0.22236100  0.23992600  1
  C  C9  1  0.57786400  0.27763900  0.76007400  1
  C  C10  1  0.69440700  0.79375400  0.40659200  1
  C  C11  1  0.19440700  0.70624600  0.59340800  1
  C  C12  1  0.30559300  0.20624600  0.59340800  1
  C  C13  1  0.80559300  0.29375400  0.40659200  1
  C  C14  1  0.79898700  0.47554700  0.97415900  1
  C  C15  1  0.29898700  0.02445300  0.02584100  1
  C  C16  1  0.20101300  0.52445300  0.02584100  1
  C  C17  1  0.70101300  0.97554700  0.97415900  1
  C  C18  1  0.91449200  0.58001300  0.14669500  1
  C  C19  1  0.41449200  0.91998700  0.85330500  1
  C  C20  1  0.08550800  0.41998700  0.85330500  1
  C  C21  1  0.58550800  0.08001300  0.14669500  1
  C  C22  1  0.63984900  0.56675600  0.02579800  1
  C  C23  1  0.13984900  0.93324400  0.97420200  1
  C  C24  1  0.36015100  0.43324400  0.97420200  1
  C  C25  1  0.86015100  0.06675600  0.02579800  1
  C  C26  1  0.69707300  0.41844300  0.10742800  1
  C  C27  1  0.19707300  0.08155700  0.89257200  1
  C  C28  1  0.30292700  0.58155700  0.89257200  1
  C  C29  1  0.80292700  0.91844300  0.10742800  1
  Ni  Ni30  1  0.74443400  0.50545400  0.05390200  1
  Ni  Ni31  1  0.24443400  0.99454600  0.94609800  1
  Ni  Ni32  1  0.25556600  0.49454600  0.94609800  1
  Ni  Ni33  1  0.75556600  0.00545400  0.05390200  1
  Cu  Cu34  1  0.60686700  0.78102300  0.26073800  1
  Cu  Cu35  1  0.10686700  0.71897700  0.73926200  1
  Cu  Cu36  1  0.39313300  0.21897700  0.73926200  1
  Cu  Cu37  1  0.89313300  0.28102300  0.26073800  1
  Cu  Cu38  1  0.69395800  0.64508900  0.47033200  1
  Cu  Cu39  1  0.19395800  0.85491100  0.52966800  1
  Cu  Cu40  1  0.30604200  0.35491100  0.52966800  1
  Cu  Cu41  1  0.80604200  0.14508900  0.47033200  1
  Cu  Cu42  1  0.63133200  0.36368100  0.38280700  1
  Cu  Cu43  1  0.13133200  0.13631900  0.61719300  1
  Cu  Cu44  1  0.36866800  0.63631900  0.61719300  1
  Cu  Cu45  1  0.86866800  0.86368100  0.38280700  1
  Cu  Cu46  1  0.64206700  0.39485800  0.66795900  1
  Cu  Cu47  1  0.14206700  0.10514200  0.33204100  1
  Cu  Cu48  1  0.35793300  0.60514200  0.33204100  1
  Cu  Cu49  1  0.85793300  0.89485800  0.66795900  1
  Cu  Cu50  1  0.05544100  0.61269500  0.54213700  1
  Cu  Cu51  1  0.55544100  0.88730500  0.45786300  1
  Cu  Cu52  1  0.94455900  0.38730500  0.45786300  1
  Cu  Cu53  1  0.44455900  0.11269500  0.54213700  1
  Cu  Cu54  1  0.98110600  0.39014900  0.80777600  1
  Cu  Cu55  1  0.48110600  0.10985100  0.19222400  1
  Cu  Cu56  1  0.01889400  0.60985100  0.19222400  1
  Cu  Cu57  1  0.51889400  0.89014900  0.80777600  1
  C  C58  1  0.79110900  0.65619000  0.77420800  1
  C  C59  1  0.29110900  0.84381000  0.22579200  1
  C  C60  1  0.20889100  0.34381000  0.22579200  1
  C  C61  1  0.70889100  0.15619000  0.77420800  1
  C  C62  1  0.93322000  0.80742800  0.89845000  1
  C  C63  1  0.43322000  0.69257200  0.10155000  1
  C  C64  1  0.06678000  0.19257200  0.10155000  1
  C  C65  1  0.56678000  0.30742800  0.89845000  1
