# generated using pymatgen
data_Cu5Ni2C25
_symmetry_space_group_name_H-M   'P 1'
_cell_length_a   5.83113300
_cell_length_b   5.86262592
_cell_length_c   10.00220673
_cell_angle_alpha   88.62766912
_cell_angle_beta   106.35929447
_cell_angle_gamma   119.41756772
_symmetry_Int_Tables_number   1
_chemical_formula_structural   Cu5Ni2C25
_chemical_formula_sum   'Cu5 Ni2 C25'
_cell_volume   283.09732069
_cell_formula_units_Z   1
loop_
 _symmetry_equiv_pos_site_id
 _symmetry_equiv_pos_as_xyz
  1  'x, y, z'
loop_
 _atom_site_type_symbol
 _atom_site_label
 _atom_site_symmetry_multiplicity
 _atom_site_fract_x
 _atom_site_fract_y
 _atom_site_fract_z
 _atom_site_occupancy
  C  C0  1  0.50000000  0.50000000  0.00000000  1
  C  C1  1  0.52762500  0.27700600  0.27006700  1
  C  C2  1  0.50000000  0.00000000  0.50000000  1
  C  C3  1  0.50000000  0.00000000  0.00000000  1
  C  C4  1  0.51884800  0.76336900  0.26099000  1
  C  C5  1  0.50000000  0.50000000  0.50000000  1
  C  C6  1  0.48115200  0.23663100  0.73901000  1
  C  C7  1  0.47237500  0.72299400  0.72993300  1
  C  C8  1  0.00000000  0.50000000  0.50000000  1
  Ni  Ni9  1  0.00000000  0.00000000  0.00000000  1
  Ni  Ni10  1  0.00000000  0.50000000  0.00000000  1
  Cu  Cu11  1  0.00655800  0.75352000  0.25529200  1
  Cu  Cu12  1  0.99344200  0.24648000  0.74470800  1
  Cu  Cu13  1  0.99887300  0.25501200  0.26648900  1
  Cu  Cu14  1  0.00000000  0.00000000  0.50000000  1
  Cu  Cu15  1  0.00112700  0.74498800  0.73351100  1
  C  C16  1  0.21186200  0.11270600  0.86974200  1
  C  C17  1  0.21404000  0.85200400  0.11244300  1
  C  C18  1  0.22750800  0.62390900  0.35785800  1
  C  C19  1  0.23706700  0.62545900  0.88327400  1
  C  C20  1  0.21502800  0.35057900  0.11255300  1
  C  C21  1  0.24754400  0.13355900  0.38306900  1
  C  C22  1  0.23252600  0.87767500  0.62491600  1
  C  C23  1  0.21254300  0.33792000  0.62369200  1
  C  C24  1  0.78813800  0.88729400  0.13025800  1
  C  C25  1  0.78745700  0.66208000  0.37630800  1
  C  C26  1  0.77249200  0.37609100  0.64214200  1
  C  C27  1  0.76293300  0.37454100  0.11672600  1
  C  C28  1  0.76747400  0.12232500  0.37508400  1
  C  C29  1  0.75245600  0.86644100  0.61693100  1
  C  C30  1  0.78497200  0.64942100  0.88744700  1
  C  C31  1  0.78596000  0.14799600  0.88755700  1
