# generated using pymatgen
data_CuNi2C7
_symmetry_space_group_name_H-M   'P 1'
_cell_length_a   6.54991948
_cell_length_b   6.54991948
_cell_length_c   5.91368943
_cell_angle_alpha   76.03673709
_cell_angle_beta   76.03673709
_cell_angle_gamma   25.92846598
_symmetry_Int_Tables_number   1
_chemical_formula_structural   CuNi2C7
_chemical_formula_sum   'Cu1 Ni2 C7'
_cell_volume   107.47803239
_cell_formula_units_Z   1
loop_
 _symmetry_equiv_pos_site_id
 _symmetry_equiv_pos_as_xyz
  1  'x, y, z'
loop_
 _atom_site_type_symbol
 _atom_site_label
 _atom_site_symmetry_multiplicity
 _atom_site_fract_x
 _atom_site_fract_y
 _atom_site_fract_z
 _atom_site_occupancy
  C  C0  1  0.00000000  0.00000000  0.00000000  1
  Ni  Ni1  1  0.66850200  0.66850200  0.18038500  1
  Ni  Ni2  1  0.33149800  0.33149800  0.81961500  1
  Cu  Cu3  1  0.00000000  0.00000000  0.50000000  1
  C  C4  1  0.48470300  0.48470300  0.74589700  1
  C  C5  1  0.82654500  0.82654500  0.04287300  1
  C  C6  1  0.51529700  0.51529700  0.25410300  1
  C  C7  1  0.84514500  0.84514500  0.60167200  1
  C  C8  1  0.17345500  0.17345500  0.95712700  1
  C  C9  1  0.15485500  0.15485500  0.39832800  1
