# generated using pymatgen
data_Cu(NiC6)2
_symmetry_space_group_name_H-M   'P 1'
_cell_length_a   15.46020447
_cell_length_b   15.46020447
_cell_length_c   15.46020447
_cell_angle_alpha   165.95452037
_cell_angle_beta   165.95452037
_cell_angle_gamma   19.91368840
_symmetry_Int_Tables_number   1
_chemical_formula_structural   Cu(NiC6)2
_chemical_formula_sum   'Cu1 Ni2 C12'
_cell_volume   217.62392875
_cell_formula_units_Z   1
loop_
 _symmetry_equiv_pos_site_id
 _symmetry_equiv_pos_as_xyz
  1  'x, y, z'
loop_
 _atom_site_type_symbol
 _atom_site_label
 _atom_site_symmetry_multiplicity
 _atom_site_fract_x
 _atom_site_fract_y
 _atom_site_fract_z
 _atom_site_occupancy
  Ni  Ni0  1  0.11459500  0.11459500  0.00000000  1
  Ni  Ni1  1  0.88540500  0.88540500  0.00000000  1
  Cu  Cu2  1  0.00000000  0.00000000  0.00000000  1
  C  C3  1  0.44780400  0.44780400  0.00000000  1
  C  C4  1  0.55219600  0.55219600  0.00000000  1
  C  C5  1  0.29557300  0.29557300  0.00000000  1
  C  C6  1  0.70442700  0.70442700  0.00000000  1
  C  C7  1  0.54781200  0.04781200  0.50000000  1
  C  C8  1  0.45218800  0.95218800  0.50000000  1
  C  C9  1  0.04781200  0.54781200  0.50000000  1
  C  C10  1  0.95218800  0.45218800  0.50000000  1
  C  C11  1  0.20246100  0.20246100  0.00000000  1
  C  C12  1  0.79753900  0.79753900  0.00000000  1
  C  C13  1  0.36546800  0.36546800  0.00000000  1
  C  C14  1  0.63453200  0.63453200  0.00000000  1
