# generated using pymatgen
data_CuNiC6
_symmetry_space_group_name_H-M   'P 1'
_cell_length_a   9.78419159
_cell_length_b   9.78419159
_cell_length_c   11.32014129
_cell_angle_alpha   83.86669469
_cell_angle_beta   83.86669469
_cell_angle_gamma   65.17535898
_symmetry_Int_Tables_number   1
_chemical_formula_structural   CuNiC6
_chemical_formula_sum   'Cu8 Ni8 C48'
_cell_volume   975.60672905
_cell_formula_units_Z   8
loop_
 _symmetry_equiv_pos_site_id
 _symmetry_equiv_pos_as_xyz
  1  'x, y, z'
loop_
 _atom_site_type_symbol
 _atom_site_label
 _atom_site_symmetry_multiplicity
 _atom_site_fract_x
 _atom_site_fract_y
 _atom_site_fract_z
 _atom_site_occupancy
  C  C0  1  0.51716500  0.95719400  0.67917000  1
  C  C1  1  0.04232800  0.48306100  0.82031400  1
  C  C2  1  0.48306100  0.04232800  0.32031400  1
  C  C3  1  0.95719400  0.51716500  0.17917000  1
  C  C4  1  0.52982500  0.46600400  0.24900300  1
  C  C5  1  0.46600400  0.52982500  0.74900300  1
  C  C6  1  0.92657700  0.73727500  0.48878300  1
  C  C7  1  0.26329200  0.07126300  0.00786500  1
  C  C8  1  0.07126300  0.26329200  0.50786500  1
  C  C9  1  0.73727500  0.92657700  0.98878300  1
  Ni  Ni10  1  0.69277300  0.59837100  0.46699000  1
  Ni  Ni11  1  0.40521800  0.30195300  0.03247400  1
  Ni  Ni12  1  0.30195300  0.40521800  0.53247400  1
  Ni  Ni13  1  0.59837100  0.69277300  0.96699000  1
  Ni  Ni14  1  0.83548700  0.25297800  0.03035500  1
  Ni  Ni15  1  0.74592000  0.16425700  0.46747700  1
  Ni  Ni16  1  0.16425700  0.74592000  0.96747700  1
  Ni  Ni17  1  0.25297800  0.83548700  0.53035500  1
  Cu  Cu18  1  0.77895900  0.34619300  0.92750000  1
  Cu  Cu19  1  0.65298400  0.22163000  0.57009300  1
  Cu  Cu20  1  0.22163000  0.65298400  0.07009300  1
  Cu  Cu21  1  0.34619300  0.77895900  0.42750000  1
  Cu  Cu22  1  0.93232200  0.05343900  0.21966400  1
  Cu  Cu23  1  0.94675300  0.06720200  0.27979600  1
  Cu  Cu24  1  0.06720200  0.94675300  0.77979600  1
  Cu  Cu25  1  0.05343900  0.93232200  0.71966400  1
  C  C26  1  0.00292900  0.22262600  0.02718700  1
  C  C27  1  0.77642300  0.99687600  0.47127400  1
  C  C28  1  0.99687600  0.77642300  0.97127400  1
  C  C29  1  0.22262600  0.00292900  0.52718700  1
  C  C30  1  0.87138800  0.72916100  0.64748500  1
  C  C31  1  0.26875200  0.12816800  0.84954400  1
  C  C32  1  0.12816800  0.26875200  0.34954400  1
  C  C33  1  0.72916100  0.87138800  0.14748500  1
  C  C34  1  0.61596800  0.54938000  0.57687100  1
  C  C35  1  0.45447700  0.38906700  0.93043400  1
  C  C36  1  0.38906700  0.45447700  0.43043400  1
  C  C37  1  0.54938000  0.61596800  0.07687100  1
  C  C38  1  0.63757000  0.56708300  0.35097800  1
  C  C39  1  0.44322200  0.33911000  0.15387200  1
  C  C40  1  0.33911000  0.44322200  0.65387200  1
  C  C41  1  0.56708300  0.63757000  0.85097800  1
  C  C42  1  0.66946900  0.76519000  0.46194900  1
  C  C43  1  0.23761700  0.32893900  0.03586000  1
  C  C44  1  0.32893900  0.23761700  0.53586000  1
  C  C45  1  0.76519000  0.66946900  0.96194900  1
  C  C46  1  0.80616500  0.11174600  0.02626500  1
  C  C47  1  0.88731900  0.19356400  0.47012100  1
  C  C48  1  0.19356400  0.88731900  0.97012100  1
  C  C49  1  0.11174600  0.80616500  0.52626500  1
  C  C50  1  0.74774900  0.34348200  0.14015200  1
  C  C51  1  0.65526000  0.25115400  0.35737200  1
  C  C52  1  0.25115400  0.65526000  0.85737200  1
  C  C53  1  0.34348200  0.74774900  0.64015200  1
  C  C54  1  0.98202900  0.73005100  0.33144200  1
  C  C55  1  0.27317400  0.01433800  0.16511000  1
  C  C56  1  0.01433800  0.27317400  0.66511000  1
  C  C57  1  0.73005100  0.98202900  0.83144200  1
  C  C58  1  0.86863500  0.51053600  0.46282400  1
  C  C59  1  0.48956100  0.12653800  0.02630400  1
  C  C60  1  0.12653800  0.48956100  0.52630400  1
  C  C61  1  0.51053600  0.86863500  0.96282400  1
  C  C62  1  0.34843800  0.62882400  0.24217400  1
  C  C63  1  0.62882400  0.34843800  0.74217400  1
