# generated using pymatgen
data_Cu(NiC2)2
_symmetry_space_group_name_H-M   'P 1'
_cell_length_a   6.88716207
_cell_length_b   6.88716207
_cell_length_c   6.45054324
_cell_angle_alpha   69.27457639
_cell_angle_beta   69.27457639
_cell_angle_gamma   29.26190962
_symmetry_Int_Tables_number   1
_chemical_formula_structural   Cu(NiC2)2
_chemical_formula_sum   'Cu1 Ni2 C4'
_cell_volume   139.19582670
_cell_formula_units_Z   1
loop_
 _symmetry_equiv_pos_site_id
 _symmetry_equiv_pos_as_xyz
  1  'x, y, z'
loop_
 _atom_site_type_symbol
 _atom_site_label
 _atom_site_symmetry_multiplicity
 _atom_site_fract_x
 _atom_site_fract_y
 _atom_site_fract_z
 _atom_site_occupancy
  Ni  Ni0  1  0.73986600  0.73986600  0.27964300  1
  Ni  Ni1  1  0.26013400  0.26013400  0.72035700  1
  Cu  Cu2  1  0.00000000  0.00000000  0.00000000  1
  C  C3  1  0.87186800  0.87186800  0.47413900  1
  C  C4  1  0.12813200  0.12813200  0.52586100  1
  C  C5  1  0.62301700  0.62301700  0.01176700  1
  C  C6  1  0.37698300  0.37698300  0.98823300  1
