# generated using pymatgen
data_Cu(NiC4)4
_symmetry_space_group_name_H-M   'P 1'
_cell_length_a   5.78188700
_cell_length_b   8.87558400
_cell_length_c   19.19536300
_cell_angle_alpha   90.00000000
_cell_angle_beta   90.00000000
_cell_angle_gamma   90.00000000
_symmetry_Int_Tables_number   1
_chemical_formula_structural   Cu(NiC4)4
_chemical_formula_sum   'Cu4 Ni16 C64'
_cell_volume   985.06041612
_cell_formula_units_Z   4
loop_
 _symmetry_equiv_pos_site_id
 _symmetry_equiv_pos_as_xyz
  1  'x, y, z'
loop_
 _atom_site_type_symbol
 _atom_site_label
 _atom_site_symmetry_multiplicity
 _atom_site_fract_x
 _atom_site_fract_y
 _atom_site_fract_z
 _atom_site_occupancy
  C  C0  1  0.00000000  0.00000000  0.50000000  1
  C  C1  1  0.50000000  0.50000000  0.50000000  1
  C  C2  1  0.00000000  0.00000000  0.00000000  1
  C  C3  1  0.50000000  0.50000000  0.00000000  1
  C  C4  1  0.23407300  0.55935100  0.25000000  1
  C  C5  1  0.26592700  0.05935100  0.25000000  1
  C  C6  1  0.90064600  0.28034500  0.38758900  1
  C  C7  1  0.46405000  0.24035300  0.40181600  1
  C  C8  1  0.11175600  0.16968800  0.75000000  1
  C  C9  1  0.59099200  0.84995100  0.13433500  1
  C  C10  1  0.09935400  0.71965500  0.61241100  1
  C  C11  1  0.76592700  0.44064900  0.75000000  1
  C  C12  1  0.96405000  0.25964700  0.59818400  1
  C  C13  1  0.38824400  0.66968800  0.75000000  1
  C  C14  1  0.23034100  0.36491300  0.25000000  1
  C  C15  1  0.88824400  0.83031200  0.25000000  1
  C  C16  1  0.76965900  0.63508700  0.75000000  1
  C  C17  1  0.40064600  0.21965500  0.61241100  1
  C  C18  1  0.40900800  0.15004900  0.86566500  1
  C  C19  1  0.03595000  0.74035300  0.40181600  1
  C  C20  1  0.53595000  0.75964700  0.59818400  1
  C  C21  1  0.40064600  0.21965500  0.88758900  1
  C  C22  1  0.96405000  0.25964700  0.90181600  1
  C  C23  1  0.59935400  0.78034500  0.11241100  1
  C  C24  1  0.26965900  0.86491300  0.25000000  1
  C  C25  1  0.09935400  0.71965500  0.88758900  1
  C  C26  1  0.59099200  0.84995100  0.36566500  1
  C  C27  1  0.90900800  0.34995100  0.13433500  1
  C  C28  1  0.73407300  0.94064900  0.75000000  1
  C  C29  1  0.59935400  0.78034500  0.38758900  1
  C  C30  1  0.90900800  0.34995100  0.36566500  1
  C  C31  1  0.46405000  0.24035300  0.09818400  1
  C  C32  1  0.61175600  0.33031200  0.25000000  1
  C  C33  1  0.09099200  0.65004900  0.86566500  1
  C  C34  1  0.03595000  0.74035300  0.09818400  1
  C  C35  1  0.40900800  0.15004900  0.63433500  1
  C  C36  1  0.53595000  0.75964700  0.90181600  1
  C  C37  1  0.90064600  0.28034500  0.11241100  1
  C  C38  1  0.73034100  0.13508700  0.75000000  1
  C  C39  1  0.09099200  0.65004900  0.63433500  1
  Ni  Ni40  1  0.34149900  0.21448900  0.44465900  1
  Ni  Ni41  1  0.15850100  0.71448900  0.44465900  1
  Ni  Ni42  1  0.34149900  0.21448900  0.05534100  1
  Ni  Ni43  1  0.31951500  0.90429600  0.75000000  1
  Ni  Ni44  1  0.84149900  0.28551100  0.55534100  1
  Ni  Ni45  1  0.65850100  0.78551100  0.94465900  1
  Ni  Ni46  1  0.05466700  0.05135500  0.75000000  1
  Ni  Ni47  1  0.44533300  0.55135500  0.75000000  1
  Ni  Ni48  1  0.81951500  0.59570400  0.25000000  1
  Ni  Ni49  1  0.68048500  0.09570400  0.25000000  1
  Ni  Ni50  1  0.15850100  0.71448900  0.05534100  1
  Ni  Ni51  1  0.65850100  0.78551100  0.55534100  1
  Ni  Ni52  1  0.18048500  0.40429600  0.75000000  1
  Ni  Ni53  1  0.94533300  0.94864500  0.25000000  1
  Ni  Ni54  1  0.84149900  0.28551100  0.94465900  1
  Ni  Ni55  1  0.55466700  0.44864500  0.25000000  1
  Cu  Cu56  1  0.32419900  0.46082000  0.25000000  1
  Cu  Cu57  1  0.67580100  0.53918000  0.75000000  1
  Cu  Cu58  1  0.17580100  0.96082000  0.25000000  1
  Cu  Cu59  1  0.82419900  0.03918000  0.75000000  1
  C  C60  1  0.19674500  0.96238800  0.69729700  1
  C  C61  1  0.69674500  0.53761200  0.19729700  1
  C  C62  1  0.30325500  0.46238800  0.80270300  1
  C  C63  1  0.80325500  0.03761200  0.30270300  1
  C  C64  1  0.17709200  0.80723400  0.00538200  1
  C  C65  1  0.23232800  0.09101000  0.06169700  1
  C  C66  1  0.26767200  0.59101000  0.06169700  1
  C  C67  1  0.69674500  0.53761200  0.30270300  1
  C  C68  1  0.76767200  0.90899000  0.93830300  1
  C  C69  1  0.82290800  0.19276600  0.50538200  1
  C  C70  1  0.67709200  0.69276600  0.99461800  1
  C  C71  1  0.73232800  0.40899000  0.56169700  1
  C  C72  1  0.80325500  0.03761200  0.19729700  1
  C  C73  1  0.67709200  0.69276600  0.50538200  1
  C  C74  1  0.82290800  0.19276600  0.99461800  1
  C  C75  1  0.76767200  0.90899000  0.56169700  1
  C  C76  1  0.23232800  0.09101000  0.43830300  1
  C  C77  1  0.73232800  0.40899000  0.93830300  1
  C  C78  1  0.26767200  0.59101000  0.43830300  1
  C  C79  1  0.17709200  0.80723400  0.49461800  1
  C  C80  1  0.30325500  0.46238800  0.69729700  1
  C  C81  1  0.32290800  0.30723400  0.49461800  1
  C  C82  1  0.32290800  0.30723400  0.00538200  1
  C  C83  1  0.19674500  0.96238800  0.80270300  1
