# generated using pymatgen
data_CuNiC6
_symmetry_space_group_name_H-M   'P 1'
_cell_length_a   7.60911700
_cell_length_b   11.93483500
_cell_length_c   13.34284500
_cell_angle_alpha   90.00000000
_cell_angle_beta   90.00000000
_cell_angle_gamma   90.00000000
_symmetry_Int_Tables_number   1
_chemical_formula_structural   CuNiC6
_chemical_formula_sum   'Cu4 Ni4 C24'
_cell_volume   1211.71120015
_cell_formula_units_Z   4
loop_
 _symmetry_equiv_pos_site_id
 _symmetry_equiv_pos_as_xyz
  1  'x, y, z'
loop_
 _atom_site_type_symbol
 _atom_site_label
 _atom_site_symmetry_multiplicity
 _atom_site_fract_x
 _atom_site_fract_y
 _atom_site_fract_z
 _atom_site_occupancy
  Ni  Ni0  1  0.43660900  0.75000000  0.85570800  1
  Ni  Ni1  1  0.06339100  0.75000000  0.35570800  1
  Ni  Ni2  1  0.56339100  0.25000000  0.14429200  1
  Ni  Ni3  1  0.93660900  0.25000000  0.64429200  1
  Cu  Cu4  1  0.69566000  0.75000000  0.89682300  1
  Cu  Cu5  1  0.80434000  0.75000000  0.39682300  1
  Cu  Cu6  1  0.30434000  0.25000000  0.10317700  1
  Cu  Cu7  1  0.19566000  0.25000000  0.60317700  1
  C  C8  1  0.87866000  0.75000000  0.77006100  1
  C  C9  1  0.62134000  0.75000000  0.27006100  1
  C  C10  1  0.12134000  0.25000000  0.22993900  1
  C  C11  1  0.37866000  0.25000000  0.72993900  1
  C  C12  1  0.31206400  0.75000000  0.98722400  1
  C  C13  1  0.18793600  0.75000000  0.48722400  1
  C  C14  1  0.68793600  0.25000000  0.01277600  1
  C  C15  1  0.81206400  0.25000000  0.51277600  1
  C  C16  1  0.40769200  0.89005200  0.77674000  1
  C  C17  1  0.09230800  0.60994800  0.27674000  1
  C  C18  1  0.59230800  0.39005200  0.22326000  1
  C  C19  1  0.90769200  0.10994800  0.72326000  1
  C  C20  1  0.59230800  0.10994800  0.22326000  1
  C  C21  1  0.90769200  0.39005200  0.72326000  1
  C  C22  1  0.40769200  0.60994800  0.77674000  1
  C  C23  1  0.09230800  0.89005200  0.27674000  1
  C  C24  1  0.76581600  0.89667900  0.98764400  1
  C  C25  1  0.73418400  0.60332100  0.48764400  1
  C  C26  1  0.23418400  0.39667900  0.01235600  1
  C  C27  1  0.26581600  0.10332100  0.51235600  1
  C  C28  1  0.23418400  0.10332100  0.01235600  1
  C  C29  1  0.26581600  0.39667900  0.51235600  1
  C  C30  1  0.76581600  0.60332100  0.98764400  1
  C  C31  1  0.73418400  0.89667900  0.48764400  1
