# generated using pymatgen
data_CuNi5C2
_symmetry_space_group_name_H-M   'P 1'
_cell_length_a   5.14403300
_cell_length_b   7.85500263
_cell_length_c   7.85500263
_cell_angle_alpha   83.84521537
_cell_angle_beta   70.88673382
_cell_angle_gamma   70.88673382
_symmetry_Int_Tables_number   1
_chemical_formula_structural   CuNi5C2
_chemical_formula_sum   'Cu2 Ni10 C4'
_cell_volume   283.36317288
_cell_formula_units_Z   2
loop_
 _symmetry_equiv_pos_site_id
 _symmetry_equiv_pos_as_xyz
  1  'x, y, z'
loop_
 _atom_site_type_symbol
 _atom_site_label
 _atom_site_symmetry_multiplicity
 _atom_site_fract_x
 _atom_site_fract_y
 _atom_site_fract_z
 _atom_site_occupancy
  Ni  Ni0  1  0.06979100  0.13104500  0.72937300  1
  Ni  Ni1  1  0.93020900  0.86895500  0.27062700  1
  Ni  Ni2  1  0.79916400  0.27062700  0.13104500  1
  Ni  Ni3  1  0.43020900  0.27062700  0.86895500  1
  Ni  Ni4  1  0.20083600  0.72937300  0.86895500  1
  Ni  Ni5  1  0.56979100  0.72937300  0.13104500  1
  Ni  Ni6  1  0.70083600  0.86895500  0.72937300  1
  Ni  Ni7  1  0.29916400  0.13104500  0.27062700  1
  Ni  Ni8  1  0.25000000  0.50000000  0.50000000  1
  Ni  Ni9  1  0.75000000  0.50000000  0.50000000  1
  Cu  Cu10  1  0.25000000  0.00000000  0.00000000  1
  Cu  Cu11  1  0.75000000  0.00000000  0.00000000  1
  C  C12  1  0.16391000  0.50000000  0.17218100  1
  C  C13  1  0.83609000  0.50000000  0.82781900  1
  C  C14  1  0.33609000  0.82781900  0.50000000  1
  C  C15  1  0.66391000  0.17218100  0.50000000  1
