# generated using pymatgen
data_Cu4NiC70
_symmetry_space_group_name_H-M   'P 1'
_cell_length_a   8.93133900
_cell_length_b   14.14179126
_cell_length_c   15.38973704
_cell_angle_alpha   73.13433898
_cell_angle_beta   73.33558475
_cell_angle_gamma   71.63832068
_symmetry_Int_Tables_number   1
_chemical_formula_structural   Cu4NiC70
_chemical_formula_sum   'Cu8 Ni2 C140'
_cell_volume   1724.15909371
_cell_formula_units_Z   2
loop_
 _symmetry_equiv_pos_site_id
 _symmetry_equiv_pos_as_xyz
  1  'x, y, z'
loop_
 _atom_site_type_symbol
 _atom_site_label
 _atom_site_symmetry_multiplicity
 _atom_site_fract_x
 _atom_site_fract_y
 _atom_site_fract_z
 _atom_site_occupancy
  Ni  Ni0  1  0.43027100  0.25004200  0.54779200  1
  Ni  Ni1  1  0.83031200  0.25004900  0.74773500  1
  Cu  Cu2  1  0.36259400  0.74986600  0.85154600  1
  Cu  Cu3  1  0.76273500  0.74993300  0.05144400  1
  Cu  Cu4  1  0.16276600  0.74996300  0.25120000  1
  Cu  Cu5  1  0.56279100  0.74999900  0.45108400  1
  Cu  Cu6  1  0.96268800  0.74993000  0.65133600  1
  Cu  Cu7  1  0.23725600  0.25006000  0.94886300  1
  Cu  Cu8  1  0.63711900  0.25006400  0.14862000  1
  Cu  Cu9  1  0.03770300  0.25006800  0.34802900  1
  C  C10  1  0.59935400  0.50159400  0.80031500  1
  C  C11  1  0.19869200  0.50184700  0.60002900  1
  C  C12  1  0.79975200  0.50037300  0.39957900  1
  C  C13  1  0.40009500  0.50004200  0.19975400  1
  C  C14  1  0.00032600  0.50008900  0.00012000  1
  C  C15  1  0.00005300  0.99964000  0.49974600  1
  C  C16  1  0.60015000  0.99996400  0.29976300  1
  C  C17  1  0.20039700  0.99989700  0.10012300  1
  C  C18  1  0.80060000  0.99843400  0.90098800  1
  C  C19  1  0.40021400  0.99813200  0.70074100  1
  C  C20  1  0.09937900  0.50041700  0.80028200  1
  C  C21  1  0.49992400  0.49999400  0.00018400  1
  C  C22  1  0.90042500  0.50013100  0.19985000  1
  C  C23  1  0.29996600  0.50174700  0.39895600  1
  C  C24  1  0.69893800  0.50206900  0.59919600  1
  C  C25  1  0.29970300  0.99957900  0.90047000  1
  C  C26  1  0.69993400  0.99998700  0.10017700  1
  C  C27  1  0.10055000  0.99987000  0.29986500  1
  C  C28  1  0.50137800  0.99824600  0.49969000  1
  C  C29  1  0.90060500  0.99795700  0.69997900  1
  C  C30  1  0.42860800  0.37056700  0.72863400  1
  C  C31  1  0.03008400  0.37062000  0.52551000  1
  C  C32  1  0.63252500  0.36971200  0.32561400  1
  C  C33  1  0.23131900  0.36894900  0.12734300  1
  C  C34  1  0.83083900  0.36968800  0.92877700  1
  C  C35  1  0.27376600  0.86859000  0.62490500  1
  C  C36  1  0.87376300  0.86880800  0.42488500  1
  C  C37  1  0.47373500  0.86905200  0.22504600  1
  C  C38  1  0.07364600  0.86862600  0.02534800  1
  C  C39  1  0.67361300  0.86849800  0.82530300  1
  C  C40  1  0.36853200  0.63138700  0.67275900  1
  C  C41  1  0.96848500  0.63146200  0.47234100  1
  C  C42  1  0.56872200  0.63132300  0.27235800  1
  C  C43  1  0.16896900  0.63090100  0.07266700  1
  C  C44  1  0.76867900  0.63113000  0.87281200  1
  C  C45  1  0.52498300  0.12948800  0.77685800  1
  C  C46  1  0.12660300  0.12941600  0.57374300  1
  C  C47  1  0.72827600  0.13034100  0.37347700  1
  C  C48  1  0.32644700  0.13109200  0.17490500  1
  C  C49  1  0.92657700  0.13034800  0.97665900  1
  C  C50  1  0.99256700  0.10760300  0.66935000  1
  C  C51  1  0.59315000  0.10860800  0.46866700  1
  C  C52  1  0.18796200  0.11338900  0.27004300  1
  C  C53  1  0.78774500  0.11334600  0.07130400  1
  C  C54  1  0.38733300  0.11236100  0.87203700  1
  C  C55  1  0.92111000  0.61329000  0.78464500  1
  C  C56  1  0.52052800  0.61377600  0.58456100  1
  C  C57  1  0.12112300  0.61378300  0.38440600  1
  C  C58  1  0.72170800  0.61348200  0.18446000  1
  C  C59  1  0.32142300  0.61336000  0.98450300  1
  C  C60  1  0.81162500  0.88627400  0.73008900  1
  C  C61  1  0.41217100  0.88620500  0.52992700  1
  C  C62  1  0.01255600  0.88655700  0.32984500  1
  C  C63  1  0.61215000  0.88666500  0.12989000  1
  C  C64  1  0.21171200  0.88668000  0.92999700  1
  C  C65  1  0.87870800  0.39238900  0.61240000  1
  C  C66  1  0.48004800  0.39140100  0.41212900  1
  C  C67  1  0.07872100  0.38658600  0.21543300  1
  C  C68  1  0.67847600  0.38664200  0.01665900  1
  C  C69  1  0.27724400  0.38763600  0.81698800  1
  C  C70  1  0.07289600  0.44090600  0.71145300  1
  C  C71  1  0.67282600  0.44090900  0.51157500  1
  C  C72  1  0.27314300  0.44071500  0.31152100  1
  C  C73  1  0.87330900  0.44063200  0.11153600  1
  C  C74  1  0.47312200  0.44074900  0.91149300  1
  C  C75  1  0.57433900  0.93984300  0.61237600  1
  C  C76  1  0.17476600  0.94028400  0.41210800  1
  C  C77  1  0.77440400  0.94056800  0.21218700  1
  C  C78  1  0.37455900  0.94027200  0.01245600  1
  C  C79  1  0.97426000  0.93979200  0.81247200  1
  C  C80  1  0.72618500  0.56014700  0.68838500  1
  C  C81  1  0.32621000  0.56014200  0.48830200  1
  C  C82  1  0.92708500  0.55965400  0.28820600  1
  C  C83  1  0.52692000  0.55938900  0.08841800  1
  C  C84  1  0.12682600  0.55971600  0.88855200  1
  C  C85  1  0.22564600  0.05911300  0.78779500  1
  C  C86  1  0.82558000  0.05913600  0.58792100  1
  C  C87  1  0.42575300  0.05934400  0.38778300  1
  C  C88  1  0.02585700  0.05939900  0.18776100  1
  C  C89  1  0.62578100  0.05926800  0.98776100  1
  C  C90  1  0.25523200  0.75001700  0.64768400  1
  C  C91  1  0.85539600  0.75017300  0.44771800  1
  C  C92  1  0.45533700  0.75026900  0.24766400  1
  C  C93  1  0.05558300  0.74983000  0.04764300  1
  C  C94  1  0.65556400  0.74990500  0.84759100  1
  C  C95  1  0.53592000  0.24996100  0.75191100  1
  C  C96  1  0.13501500  0.24996700  0.55349400  1
  C  C97  1  0.74289700  0.24996200  0.35297100  1
  C  C98  1  0.34483100  0.24995400  0.15228500  1
  C  C99  1  0.94376600  0.24996100  0.95172600  1
  C  C100  1  0.56599000  0.43255300  0.71418700  1
  C  C101  1  0.16722400  0.43253000  0.51242800  1
  C  C102  1  0.76682500  0.43359700  0.31220900  1
  C  C103  1  0.36472300  0.43378100  0.11312800  1
  C  C104  1  0.96564700  0.43363600  0.91402200  1
  C  C105  1  0.08825100  0.93257200  0.61275900  1
  C  C106  1  0.68821600  0.93254900  0.41278000  1
  C  C107  1  0.28807300  0.93375400  0.21337000  1
  C  C108  1  0.88754900  0.93255700  0.01436600  1
  C  C109  1  0.48748800  0.93265700  0.81434800  1
  C  C110  1  0.23353300  0.56736700  0.68737400  1
  C  C111  1  0.83428300  0.56748900  0.48575000  1
  C  C112  1  0.43420200  0.56756400  0.28576700  1
  C  C113  1  0.03504300  0.56630100  0.08683200  1
  C  C114  1  0.63355900  0.56744100  0.88738100  1
  C  C115  1  0.71211000  0.06738700  0.78720600  1
  C  C116  1  0.31320200  0.06744400  0.58542000  1
  C  C117  1  0.91372200  0.06634100  0.38563100  1
  C  C118  1  0.51174900  0.06617000  0.18663200  1
  C  C119  1  0.11250000  0.06634400  0.98747300  1
  C  C120  1  0.76622900  0.38857700  0.83448400  1
  C  C121  1  0.36516800  0.38932400  0.63393600  1
  C  C122  1  0.96770200  0.38494800  0.43135500  1
  C  C123  1  0.56830300  0.38430500  0.23199600  1
  C  C124  1  0.16738500  0.38431100  0.03315800  1
  C  C125  1  0.92481300  0.88453800  0.51303300  1
  C  C126  1  0.52505400  0.88443200  0.31316000  1
  C  C127  1  0.12544700  0.88431200  0.11319200  1
  C  C128  1  0.72520200  0.88402300  0.91323300  1
  C  C129  1  0.32473100  0.88411700  0.71311400  1
  C  C130  1  0.03211200  0.61584000  0.56676000  1
  C  C131  1  0.63228400  0.61552600  0.36682000  1
  C  C132  1  0.23258800  0.61558400  0.16690100  1
  C  C133  1  0.83292800  0.61569800  0.96692000  1
  C  C134  1  0.43232700  0.61601000  0.76688100  1
  C  C135  1  0.87702800  0.11140500  0.88994800  1
  C  C136  1  0.47659700  0.11066900  0.68969300  1
  C  C137  1  0.07564500  0.11502800  0.48533200  1
  C  C138  1  0.67577200  0.11566900  0.28570600  1
  C  C139  1  0.27482100  0.11567000  0.08689700  1
  C  C140  1  0.69279200  0.74991100  0.63601900  1
  C  C141  1  0.29282400  0.74993700  0.43598600  1
  C  C142  1  0.89278400  0.74988000  0.23596500  1
  C  C143  1  0.49273800  0.74996000  0.03598500  1
  C  C144  1  0.09282600  0.74987600  0.83599600  1
  C  C145  1  0.11839100  0.25009100  0.76456200  1
  C  C146  1  0.71808500  0.25008100  0.56562400  1
  C  C147  1  0.30695700  0.25006800  0.36486400  1
  C  C148  1  0.90729100  0.25009000  0.16412900  1
  C  C149  1  0.50737800  0.25010000  0.96380600  1
