# generated using pymatgen
data_CuNiC3
_symmetry_space_group_name_H-M   'P 1'
_cell_length_a   5.69209000
_cell_length_b   5.76957000
_cell_length_c   8.08573700
_cell_angle_alpha   90.00000000
_cell_angle_beta   90.00000000
_cell_angle_gamma   90.00000000
_symmetry_Int_Tables_number   1
_chemical_formula_structural   CuNiC3
_chemical_formula_sum   'Cu4 Ni4 C12'
_cell_volume   265.54297486
_cell_formula_units_Z   4
loop_
 _symmetry_equiv_pos_site_id
 _symmetry_equiv_pos_as_xyz
  1  'x, y, z'
loop_
 _atom_site_type_symbol
 _atom_site_label
 _atom_site_symmetry_multiplicity
 _atom_site_fract_x
 _atom_site_fract_y
 _atom_site_fract_z
 _atom_site_occupancy
  Ni  Ni0  1  0.50559300  0.54319700  0.25000000  1
  Ni  Ni1  1  0.99440700  0.04319700  0.25000000  1
  Ni  Ni2  1  0.49440700  0.45680300  0.75000000  1
  Ni  Ni3  1  0.00559300  0.95680300  0.75000000  1
  Cu  Cu4  1  0.00000000  0.50000000  0.00000000  1
  Cu  Cu5  1  0.50000000  0.00000000  0.50000000  1
  Cu  Cu6  1  0.00000000  0.50000000  0.50000000  1
  Cu  Cu7  1  0.50000000  0.00000000  0.00000000  1
  C  C8  1  0.40959900  0.97826100  0.25000000  1
  C  C9  1  0.09040100  0.47826100  0.25000000  1
  C  C10  1  0.59040100  0.02173900  0.75000000  1
  C  C11  1  0.90959900  0.52173900  0.75000000  1
  C  C12  1  0.79939200  0.80084700  0.04713500  1
  C  C13  1  0.70060800  0.30084700  0.45286500  1
  C  C14  1  0.20060800  0.19915300  0.54713500  1
  C  C15  1  0.29939200  0.69915300  0.95286500  1
  C  C16  1  0.20060800  0.19915300  0.95286500  1
  C  C17  1  0.29939200  0.69915300  0.54713500  1
  C  C18  1  0.79939200  0.80084700  0.45286500  1
  C  C19  1  0.70060800  0.30084700  0.04713500  1
