# generated using pymatgen
data_Cu23Ni6C7
_symmetry_space_group_name_H-M   'P 1'
_cell_length_a   9.72301749
_cell_length_b   9.72301749
_cell_length_c   9.97078500
_cell_angle_alpha   90.00000000
_cell_angle_beta   90.00000000
_cell_angle_gamma   119.99999653
_symmetry_Int_Tables_number   1
_chemical_formula_structural   Cu23Ni6C7
_chemical_formula_sum   'Cu23 Ni6 C7'
_cell_volume   816.32318701
_cell_formula_units_Z   1
loop_
 _symmetry_equiv_pos_site_id
 _symmetry_equiv_pos_as_xyz
  1  'x, y, z'
loop_
 _atom_site_type_symbol
 _atom_site_label
 _atom_site_symmetry_multiplicity
 _atom_site_fract_x
 _atom_site_fract_y
 _atom_site_fract_z
 _atom_site_occupancy
  C  C0  1  0.00000000  0.00000000  0.00000000  1
  C  C1  1  0.47896200  0.52103800  0.30583700  1
  C  C2  1  0.52103800  0.47896200  0.69416300  1
  C  C3  1  0.47896200  0.95792400  0.30583700  1
  C  C4  1  0.52103800  0.04207600  0.69416300  1
  C  C5  1  0.04207600  0.52103800  0.30583700  1
  C  C6  1  0.95792400  0.47896200  0.69416300  1
  Ni  Ni7  1  0.83245800  0.16754200  0.19778600  1
  Ni  Ni8  1  0.16754200  0.83245800  0.80221400  1
  Ni  Ni9  1  0.83245800  0.66491500  0.19778600  1
  Ni  Ni10  1  0.16754200  0.33508500  0.80221400  1
  Ni  Ni11  1  0.33508500  0.16754200  0.19778600  1
  Ni  Ni12  1  0.66491500  0.83245800  0.80221400  1
  Cu  Cu13  1  0.34611000  0.00000000  0.00000000  1
  Cu  Cu14  1  0.65389000  0.00000000  0.00000000  1
  Cu  Cu15  1  0.00000000  0.34611000  0.00000000  1
  Cu  Cu16  1  0.00000000  0.65389000  0.00000000  1
  Cu  Cu17  1  0.65389000  0.65389000  0.00000000  1
  Cu  Cu18  1  0.34611000  0.34611000  0.00000000  1
  Cu  Cu19  1  0.33333300  0.66666700  0.81811800  1
  Cu  Cu20  1  0.66666700  0.33333300  0.18188200  1
  Cu  Cu21  1  0.00000000  0.00000000  0.50000000  1
  Cu  Cu22  1  0.78103600  0.21896400  0.45296700  1
  Cu  Cu23  1  0.21896400  0.78103600  0.54703300  1
  Cu  Cu24  1  0.78103600  0.56207200  0.45296700  1
  Cu  Cu25  1  0.21896400  0.43792800  0.54703300  1
  Cu  Cu26  1  0.43792800  0.21896400  0.45296700  1
  Cu  Cu27  1  0.56207200  0.78103600  0.54703300  1
  Cu  Cu28  1  0.33333300  0.66666700  0.11668300  1
  Cu  Cu29  1  0.66666700  0.33333300  0.88331700  1
  Cu  Cu30  1  0.11791200  0.88208800  0.27527300  1
  Cu  Cu31  1  0.88208800  0.11791200  0.72472700  1
  Cu  Cu32  1  0.11791200  0.23582400  0.27527300  1
  Cu  Cu33  1  0.88208800  0.76417600  0.72472700  1
  Cu  Cu34  1  0.76417600  0.88208800  0.27527300  1
  Cu  Cu35  1  0.23582400  0.11791200  0.72472700  1
