# generated using pymatgen
data_Cu5NiC11
_symmetry_space_group_name_H-M   'P 1'
_cell_length_a   8.32588317
_cell_length_b   8.32588317
_cell_length_c   8.32588317
_cell_angle_alpha   134.83009714
_cell_angle_beta   118.25055862
_cell_angle_gamma   79.72720082
_symmetry_Int_Tables_number   1
_chemical_formula_structural   Cu5NiC11
_chemical_formula_sum   'Cu10 Ni2 C22'
_cell_volume   349.23384103
_cell_formula_units_Z   2
loop_
 _symmetry_equiv_pos_site_id
 _symmetry_equiv_pos_as_xyz
  1  'x, y, z'
loop_
 _atom_site_type_symbol
 _atom_site_label
 _atom_site_symmetry_multiplicity
 _atom_site_fract_x
 _atom_site_fract_y
 _atom_site_fract_z
 _atom_site_occupancy
  C  C0  1  0.25000000  0.75000000  0.50000000  1
  C  C1  1  0.75000000  0.25000000  0.50000000  1
  Ni  Ni2  1  0.00000000  0.50000000  0.50000000  1
  Ni  Ni3  1  0.50000000  0.00000000  0.50000000  1
  Cu  Cu4  1  0.25000000  0.25000000  0.00000000  1
  Cu  Cu5  1  0.75000000  0.75000000  0.00000000  1
  Cu  Cu6  1  0.28761800  0.98382300  0.07500100  1
  Cu  Cu7  1  0.90882200  0.21261700  0.92499900  1
  Cu  Cu8  1  0.21238200  0.28738300  0.69620500  1
  Cu  Cu9  1  0.59117800  0.51617700  0.30379500  1
  Cu  Cu10  1  0.71238200  0.01617700  0.92499900  1
  Cu  Cu11  1  0.09117800  0.78738300  0.07500100  1
  Cu  Cu12  1  0.78761800  0.71261700  0.30379500  1
  Cu  Cu13  1  0.40882200  0.48382300  0.69620500  1
  C  C14  1  0.72087000  0.96151500  0.05335300  1
  C  C15  1  0.22087000  0.16751700  0.75935500  1
  C  C16  1  0.37731900  0.35145900  0.72877800  1
  C  C17  1  0.62268100  0.64854100  0.27122200  1
  C  C18  1  0.40816200  0.46151500  0.24064500  1
  C  C19  1  0.12268100  0.85145900  0.97414000  1
  C  C20  1  0.59183800  0.53848500  0.75935500  1
  C  C21  1  0.77913000  0.83248300  0.24064500  1
  C  C22  1  0.09183800  0.33248300  0.05335300  1
  C  C23  1  0.27913000  0.03848500  0.94664700  1
  C  C24  1  0.26937200  0.55205000  0.60048400  1
  C  C25  1  0.95156600  0.66888900  0.39951600  1
  C  C26  1  0.76937200  0.16888900  0.71732200  1
  C  C27  1  0.45156600  0.05205000  0.28267800  1
  C  C28  1  0.04843400  0.33111100  0.60048400  1
  C  C29  1  0.73062800  0.44795000  0.39951600  1
  C  C30  1  0.54843400  0.94795000  0.71732200  1
  C  C31  1  0.23062800  0.83111100  0.28267800  1
  C  C32  1  0.87731900  0.14854100  0.02586000  1
  C  C33  1  0.90816200  0.66751700  0.94664700  1
