# generated using pymatgen
data_Cu4NiC4
_symmetry_space_group_name_H-M   'P 1'
_cell_length_a   6.71387600
_cell_length_b   8.38353600
_cell_length_c   15.09076300
_cell_angle_alpha   90.00000000
_cell_angle_beta   90.00000000
_cell_angle_gamma   90.00000000
_symmetry_Int_Tables_number   1
_chemical_formula_structural   Cu4NiC4
_chemical_formula_sum   'Cu16 Ni4 C16'
_cell_volume   849.39900532
_cell_formula_units_Z   4
loop_
 _symmetry_equiv_pos_site_id
 _symmetry_equiv_pos_as_xyz
  1  'x, y, z'
loop_
 _atom_site_type_symbol
 _atom_site_label
 _atom_site_symmetry_multiplicity
 _atom_site_fract_x
 _atom_site_fract_y
 _atom_site_fract_z
 _atom_site_occupancy
  C  C0  1  0.00000000  0.50000000  0.50000000  1
  C  C1  1  0.50000000  0.00000000  0.00000000  1
  C  C2  1  0.00000000  0.00000000  0.50000000  1
  C  C3  1  0.50000000  0.50000000  0.00000000  1
  C  C4  1  0.82150000  0.49464300  0.67691300  1
  C  C5  1  0.67850000  0.00535700  0.17691300  1
  C  C6  1  0.17850000  0.99464300  0.32308700  1
  C  C7  1  0.32150000  0.50535700  0.82308700  1
  C  C8  1  0.17850000  0.50535700  0.32308700  1
  C  C9  1  0.32150000  0.99464300  0.82308700  1
  C  C10  1  0.82150000  0.00535700  0.67691300  1
  C  C11  1  0.67850000  0.49464300  0.17691300  1
  C  C12  1  0.38612600  0.75000000  0.58816500  1
  C  C13  1  0.11387400  0.75000000  0.08816500  1
  C  C14  1  0.61387400  0.25000000  0.41183500  1
  C  C15  1  0.88612600  0.25000000  0.91183500  1
  Ni  Ni16  1  0.64279300  0.75000000  0.40737500  1
  Ni  Ni17  1  0.85720700  0.75000000  0.90737500  1
  Ni  Ni18  1  0.35720700  0.25000000  0.59262500  1
  Ni  Ni19  1  0.14279300  0.25000000  0.09262500  1
  Cu  Cu20  1  0.77558800  0.75000000  0.56843400  1
  Cu  Cu21  1  0.72441200  0.75000000  0.06843400  1
  Cu  Cu22  1  0.22441200  0.25000000  0.43156600  1
  Cu  Cu23  1  0.27558800  0.25000000  0.93156600  1
  Cu  Cu24  1  0.78559600  0.49591900  0.33958700  1
  Cu  Cu25  1  0.71440400  0.00408100  0.83958700  1
  Cu  Cu26  1  0.21440400  0.99591900  0.66041300  1
  Cu  Cu27  1  0.28559600  0.50408100  0.16041300  1
  Cu  Cu28  1  0.21440400  0.50408100  0.66041300  1
  Cu  Cu29  1  0.28559600  0.99591900  0.16041300  1
  Cu  Cu30  1  0.78559600  0.00408100  0.33958700  1
  Cu  Cu31  1  0.71440400  0.49591900  0.83958700  1
  Cu  Cu32  1  0.26325000  0.75000000  0.41785900  1
  Cu  Cu33  1  0.23675000  0.75000000  0.91785900  1
  Cu  Cu34  1  0.73675000  0.25000000  0.58214100  1
  Cu  Cu35  1  0.76325000  0.25000000  0.08214100  1
