# generated using pymatgen
data_Cu2Ni2C13
_symmetry_space_group_name_H-M   'P 1'
_cell_length_a   5.74448646
_cell_length_b   5.96389800
_cell_length_c   8.53980303
_cell_angle_alpha   90.00000000
_cell_angle_beta   92.30961798
_cell_angle_gamma   90.00000000
_symmetry_Int_Tables_number   1
_chemical_formula_structural   Cu2Ni2C13
_chemical_formula_sum   'Cu4 Ni4 C26'
_cell_volume   292.33197857
_cell_formula_units_Z   2
loop_
 _symmetry_equiv_pos_site_id
 _symmetry_equiv_pos_as_xyz
  1  'x, y, z'
loop_
 _atom_site_type_symbol
 _atom_site_label
 _atom_site_symmetry_multiplicity
 _atom_site_fract_x
 _atom_site_fract_y
 _atom_site_fract_z
 _atom_site_occupancy
  C  C0  1  0.00000000  0.00000000  0.00000000  1
  C  C1  1  0.50000000  0.50000000  0.00000000  1
  C  C2  1  0.46579500  0.16857900  0.74419400  1
  C  C3  1  0.03420500  0.66857900  0.25580600  1
  C  C4  1  0.53420500  0.83142100  0.25580600  1
  C  C5  1  0.96579500  0.33142100  0.74419400  1
  C  C6  1  0.44344900  0.90489100  0.82733800  1
  C  C7  1  0.05655100  0.40489100  0.17266200  1
  C  C8  1  0.55655100  0.09510900  0.17266200  1
  C  C9  1  0.94344900  0.59510900  0.82733800  1
  C  C10  1  0.63495300  0.95721600  0.68052800  1
  C  C11  1  0.86504700  0.45721600  0.31947200  1
  C  C12  1  0.36504700  0.04278400  0.31947200  1
  C  C13  1  0.13495300  0.54278400  0.68052800  1
  C  C14  1  0.15267300  0.97473600  0.65967600  1
  C  C15  1  0.34732700  0.47473600  0.34032400  1
  C  C16  1  0.84732700  0.02526400  0.34032400  1
  C  C17  1  0.65267300  0.52526400  0.65967600  1
  Ni  Ni18  1  0.47358000  0.99440000  0.72346000  1
  Ni  Ni19  1  0.02642000  0.49440000  0.27654000  1
  Ni  Ni20  1  0.52642000  0.00560000  0.27654000  1
  Ni  Ni21  1  0.97358000  0.50560000  0.72346000  1
  Cu  Cu22  1  0.30246300  0.92997200  0.60764800  1
  Cu  Cu23  1  0.19753700  0.42997200  0.39235200  1
  Cu  Cu24  1  0.69753700  0.07002800  0.39235200  1
  Cu  Cu25  1  0.80246300  0.57002800  0.60764800  1
  C  C26  1  0.28576400  0.78285100  0.96792200  1
  C  C27  1  0.21423600  0.28285100  0.03207800  1
  C  C28  1  0.71423600  0.21714900  0.03207800  1
  C  C29  1  0.78576400  0.71714900  0.96792200  1
  C  C30  1  0.96389900  0.06022400  0.76444300  1
  C  C31  1  0.53610100  0.56022400  0.23555700  1
  C  C32  1  0.03610100  0.93977600  0.23555700  1
  C  C33  1  0.46389900  0.43977600  0.76444300  1
