# generated using pymatgen
data_Cu4Ni4C15
_symmetry_space_group_name_H-M   'P 1'
_cell_length_a   7.10979810
_cell_length_b   7.10979810
_cell_length_c   7.11710612
_cell_angle_alpha   59.96599874
_cell_angle_beta   59.96599874
_cell_angle_gamma   59.92622074
_symmetry_Int_Tables_number   1
_chemical_formula_structural   Cu4Ni4C15
_chemical_formula_sum   'Cu4 Ni4 C15'
_cell_volume   254.11897716
_cell_formula_units_Z   1
loop_
 _symmetry_equiv_pos_site_id
 _symmetry_equiv_pos_as_xyz
  1  'x, y, z'
loop_
 _atom_site_type_symbol
 _atom_site_label
 _atom_site_symmetry_multiplicity
 _atom_site_fract_x
 _atom_site_fract_y
 _atom_site_fract_z
 _atom_site_occupancy
  C  C0  1  0.12327800  0.12327800  0.12672200  1
  Ni  Ni1  1  0.50019300  0.50019300  0.00004300  1
  Ni  Ni2  1  0.50041900  0.99999200  0.49979500  1
  Ni  Ni3  1  0.99999200  0.50041900  0.49979500  1
  Ni  Ni4  1  0.50019300  0.50019300  0.49957100  1
  Cu  Cu5  1  0.99340200  0.99340200  0.51985600  1
  Cu  Cu6  1  0.99393700  0.51822100  0.99392100  1
  Cu  Cu7  1  0.51822100  0.99393700  0.99392100  1
  Cu  Cu8  1  0.99340200  0.99340200  0.99334000  1
  C  C9  1  0.37502300  0.37502300  0.37497700  1
  C  C10  1  0.62481100  0.62481100  0.62518900  1
  C  C11  1  0.32461100  0.92487000  0.92540700  1
  C  C12  1  0.92487000  0.32461100  0.32511200  1
  C  C13  1  0.92487000  0.32461100  0.92540700  1
  C  C14  1  0.32461100  0.92487000  0.32511200  1
  C  C15  1  0.92462700  0.92462700  0.32537300  1
  C  C16  1  0.32443500  0.32443500  0.92556500  1
  C  C17  1  0.67321500  0.07648400  0.07635500  1
  C  C18  1  0.07648400  0.67321500  0.67394600  1
  C  C19  1  0.07648400  0.67321500  0.07635500  1
  C  C20  1  0.67321500  0.07648400  0.67394600  1
  C  C21  1  0.07646200  0.07646200  0.67353800  1
  C  C22  1  0.67361300  0.67361300  0.07638700  1
