# generated using pymatgen
data_Cu2NiC20
_symmetry_space_group_name_H-M   'P 1'
_cell_length_a   10.09266650
_cell_length_b   10.09266650
_cell_length_c   11.56144200
_cell_angle_alpha   90.00000000
_cell_angle_beta   90.00000000
_cell_angle_gamma   112.01224979
_symmetry_Int_Tables_number   1
_chemical_formula_structural   Cu2NiC20
_chemical_formula_sum   'Cu8 Ni4 C80'
_cell_volume   1091.82286342
_cell_formula_units_Z   4
loop_
 _symmetry_equiv_pos_site_id
 _symmetry_equiv_pos_as_xyz
  1  'x, y, z'
loop_
 _atom_site_type_symbol
 _atom_site_label
 _atom_site_symmetry_multiplicity
 _atom_site_fract_x
 _atom_site_fract_y
 _atom_site_fract_z
 _atom_site_occupancy
  Ni  Ni0  1  0.35336000  0.35336000  0.12105900  1
  Ni  Ni1  1  0.64664000  0.64664000  0.87894100  1
  Ni  Ni2  1  0.85336000  0.85336000  0.37894100  1
  Ni  Ni3  1  0.14664000  0.14664000  0.62105900  1
  Cu  Cu4  1  0.05855700  0.43098900  0.12167100  1
  Cu  Cu5  1  0.44144300  0.06901100  0.62167100  1
  Cu  Cu6  1  0.93098900  0.55855700  0.37832900  1
  Cu  Cu7  1  0.56901100  0.94144300  0.87832900  1
  Cu  Cu8  1  0.94144300  0.56901100  0.87832900  1
  Cu  Cu9  1  0.55855700  0.93098900  0.37832900  1
  Cu  Cu10  1  0.06901100  0.44144300  0.62167100  1
  Cu  Cu11  1  0.43098900  0.05855700  0.12167100  1
  C  C12  1  0.49100500  0.27587700  0.38505200  1
  C  C13  1  0.00899500  0.22412300  0.88505200  1
  C  C14  1  0.77587700  0.99100500  0.11494800  1
  C  C15  1  0.72412300  0.50899500  0.61494800  1
  C  C16  1  0.50899500  0.72412300  0.61494800  1
  C  C17  1  0.24303200  0.74303200  0.25000000  1
  C  C18  1  0.99100500  0.77587700  0.11494800  1
  C  C19  1  0.22412300  0.00899500  0.88505200  1
  C  C20  1  0.27587700  0.49100500  0.38505200  1
  C  C21  1  0.23499100  0.01763400  0.35955900  1
  C  C22  1  0.26500900  0.48236600  0.85955900  1
  C  C23  1  0.51763400  0.73499100  0.14044100  1
  C  C24  1  0.98236600  0.76500900  0.64044100  1
  C  C25  1  0.76500900  0.98236600  0.64044100  1
  C  C26  1  0.25696800  0.75696800  0.75000000  1
  C  C27  1  0.48236600  0.26500900  0.85955900  1
  C  C28  1  0.01763400  0.23499100  0.35955900  1
  C  C29  1  0.76059300  0.23940700  0.50000000  1
  C  C30  1  0.73940700  0.26059300  0.00000000  1
  C  C31  1  0.23940700  0.76059300  0.50000000  1
  C  C32  1  0.26059300  0.73940700  0.00000000  1
  C  C33  1  0.74303100  0.24303100  0.25000000  1
  C  C34  1  0.75696800  0.25696800  0.75000000  1
  C  C35  1  0.73499100  0.51763400  0.14044100  1
  C  C36  1  0.35496100  0.13939500  0.75892300  1
  C  C37  1  0.59011200  0.59011200  0.63377500  1
  C  C38  1  0.90988800  0.90988800  0.13377500  1
  C  C39  1  0.09011200  0.09011200  0.86622500  1
  C  C40  1  0.40988800  0.40988800  0.36622500  1
  C  C41  1  0.35540700  0.13987100  0.48284300  1
  C  C42  1  0.14459300  0.36012900  0.98284300  1
  C  C43  1  0.63987100  0.85540700  0.01715700  1
  C  C44  1  0.86012900  0.64459300  0.51715700  1
  C  C45  1  0.64459300  0.86012900  0.51715700  1
  C  C46  1  0.85540700  0.63987100  0.01715700  1
  C  C47  1  0.36012900  0.14459300  0.98284300  1
  C  C48  1  0.13987100  0.35540700  0.48284300  1
  C  C49  1  0.91639000  0.91639000  0.62286500  1
  C  C50  1  0.58361000  0.58361000  0.12286500  1
  C  C51  1  0.41639000  0.41639000  0.87713500  1
  C  C52  1  0.08361000  0.08361000  0.37713500  1
  C  C53  1  0.36060500  0.14503900  0.25892300  1
  C  C54  1  0.13939500  0.35496100  0.75892300  1
  C  C55  1  0.64503900  0.86060500  0.24107700  1
  C  C56  1  0.85496100  0.63939500  0.74107700  1
  C  C57  1  0.63939500  0.85496100  0.74107700  1
  C  C58  1  0.37116400  0.62883600  0.00000000  1
  C  C59  1  0.14503900  0.36060500  0.25892300  1
  C  C60  1  0.36736800  0.63263200  0.50000000  1
  C  C61  1  0.13263200  0.86736800  0.00000000  1
  C  C62  1  0.63263200  0.36736800  0.50000000  1
  C  C63  1  0.86736800  0.13263200  0.00000000  1
  C  C64  1  0.14606500  0.62072200  0.37823200  1
  C  C65  1  0.35393500  0.87927800  0.87823200  1
  C  C66  1  0.12072200  0.64606500  0.12176800  1
  C  C67  1  0.37927800  0.85393500  0.62176800  1
  C  C68  1  0.85393500  0.37927800  0.62176800  1
  C  C69  1  0.64606500  0.12072200  0.12176800  1
  C  C70  1  0.87927800  0.35393500  0.87823200  1
  C  C71  1  0.62072200  0.14606500  0.37823200  1
  C  C72  1  0.36337800  0.62786800  0.25000000  1
  C  C73  1  0.13662200  0.87213200  0.75000000  1
  C  C74  1  0.12786800  0.86337800  0.25000000  1
  C  C75  1  0.37213200  0.63662200  0.75000000  1
  C  C76  1  0.63662200  0.37213200  0.75000000  1
  C  C77  1  0.86337800  0.12786800  0.25000000  1
  C  C78  1  0.87213200  0.13662200  0.75000000  1
  C  C79  1  0.62786800  0.36337800  0.25000000  1
  C  C80  1  0.88046300  0.34810700  0.37186100  1
  C  C81  1  0.61953700  0.15189300  0.87186100  1
  C  C82  1  0.84810700  0.38046300  0.12813900  1
  C  C83  1  0.65189300  0.11953700  0.62813900  1
  C  C84  1  0.11953700  0.65189300  0.62813900  1
  C  C85  1  0.38046300  0.84810700  0.12813900  1
  C  C86  1  0.15189300  0.61953700  0.87186100  1
  C  C87  1  0.34810700  0.88046300  0.37186100  1
  C  C88  1  0.87116400  0.12883600  0.50000000  1
  C  C89  1  0.62883600  0.37116400  0.00000000  1
  C  C90  1  0.12883600  0.87116400  0.50000000  1
  C  C91  1  0.86060500  0.64503900  0.24107700  1
