# generated using pymatgen
data_Cu5NiC5
_symmetry_space_group_name_H-M   'P 1'
_cell_length_a   9.80025000
_cell_length_b   6.63639500
_cell_length_c   18.01363502
_cell_angle_alpha   88.07849702
_cell_angle_beta   90.00000000
_cell_angle_gamma   90.00000000
_symmetry_Int_Tables_number   1
_chemical_formula_structural   Cu5NiC5
_chemical_formula_sum   'Cu40 Ni8 C40'
_cell_volume   1170.91796616
_cell_formula_units_Z   8
loop_
 _symmetry_equiv_pos_site_id
 _symmetry_equiv_pos_as_xyz
  1  'x, y, z'
loop_
 _atom_site_type_symbol
 _atom_site_label
 _atom_site_symmetry_multiplicity
 _atom_site_fract_x
 _atom_site_fract_y
 _atom_site_fract_z
 _atom_site_occupancy
  C  C0  1  0.64530800  0.40137400  0.11429400  1
  C  C1  1  0.35469200  0.59862600  0.88570600  1
  C  C2  1  0.14530800  0.59862600  0.38570600  1
  C  C3  1  0.85469200  0.40137400  0.61429400  1
  C  C4  1  0.98339600  0.32660400  0.20713600  1
  C  C5  1  0.01660400  0.67339600  0.79286400  1
  C  C6  1  0.48339600  0.67339600  0.29286400  1
  C  C7  1  0.51660400  0.32660400  0.70713600  1
  C  C8  1  0.38152800  0.83251200  0.56413900  1
  C  C9  1  0.61847200  0.16748800  0.43586100  1
  C  C10  1  0.88152800  0.16748800  0.93586100  1
  C  C11  1  0.11847200  0.83251200  0.06413900  1
  Ni  Ni12  1  0.81242900  0.86771000  0.15247700  1
  Ni  Ni13  1  0.18757100  0.13229000  0.84752300  1
  Ni  Ni14  1  0.31242900  0.13229000  0.34752300  1
  Ni  Ni15  1  0.68757100  0.86771000  0.65247700  1
  Ni  Ni16  1  0.86007300  0.83279100  0.31824500  1
  Ni  Ni17  1  0.13992700  0.16720900  0.68175500  1
  Ni  Ni18  1  0.36007300  0.16720900  0.18175500  1
  Ni  Ni19  1  0.63992700  0.83279100  0.81824500  1
  Cu  Cu20  1  0.66772100  0.28424800  0.27105800  1
  Cu  Cu21  1  0.33227900  0.71575200  0.72894200  1
  Cu  Cu22  1  0.16772100  0.71575200  0.22894200  1
  Cu  Cu23  1  0.83227900  0.28424800  0.77105800  1
  Cu  Cu24  1  0.87449700  0.54583700  0.00750500  1
  Cu  Cu25  1  0.12550300  0.45416300  0.99249500  1
  Cu  Cu26  1  0.37449700  0.45416300  0.49249500  1
  Cu  Cu27  1  0.62550300  0.54583700  0.50750500  1
  Cu  Cu28  1  0.84576200  0.53759200  0.42646500  1
  Cu  Cu29  1  0.15423800  0.46240800  0.57353500  1
  Cu  Cu30  1  0.34576200  0.46240800  0.07353500  1
  Cu  Cu31  1  0.65423800  0.53759200  0.92646500  1
  Cu  Cu32  1  0.64921700  0.73869100  0.42460300  1
  Cu  Cu33  1  0.35078300  0.26130900  0.57539700  1
  Cu  Cu34  1  0.14921700  0.26130900  0.07539700  1
  Cu  Cu35  1  0.85078300  0.73869100  0.92460300  1
  Cu  Cu36  1  0.73079100  0.50054300  0.28992400  1
  Cu  Cu37  1  0.26920900  0.49945700  0.71007600  1
  Cu  Cu38  1  0.23079100  0.49945700  0.21007600  1
  Cu  Cu39  1  0.76920900  0.50054300  0.78992400  1
  Cu  Cu40  1  0.62959400  0.65537300  0.46235100  1
  Cu  Cu41  1  0.37040600  0.34462700  0.53764900  1
  Cu  Cu42  1  0.12959400  0.34462700  0.03764900  1
  Cu  Cu43  1  0.87040600  0.65537300  0.96235100  1
  Cu  Cu44  1  0.39530700  0.71654500  0.05487000  1
  Cu  Cu45  1  0.60469300  0.28345500  0.94513000  1
  Cu  Cu46  1  0.89530700  0.28345500  0.44513000  1
  Cu  Cu47  1  0.10469300  0.71654500  0.55487000  1
  Cu  Cu48  1  0.41580900  0.82635000  0.05975800  1
  Cu  Cu49  1  0.58419100  0.17365000  0.94024200  1
  Cu  Cu50  1  0.91580900  0.17365000  0.44024200  1
  Cu  Cu51  1  0.08419100  0.82635000  0.55975800  1
  Cu  Cu52  1  0.14806000  0.82647800  0.23546000  1
  Cu  Cu53  1  0.85194000  0.17352200  0.76454000  1
  Cu  Cu54  1  0.64806000  0.17352200  0.26454000  1
  Cu  Cu55  1  0.35194000  0.82647800  0.73546000  1
  Cu  Cu56  1  0.58238000  0.92531800  0.15592500  1
  Cu  Cu57  1  0.41762000  0.07468200  0.84407500  1
  Cu  Cu58  1  0.08238000  0.07468200  0.34407500  1
  Cu  Cu59  1  0.91762000  0.92531800  0.65592500  1
  C  C60  1  0.88653800  0.67771100  0.13198400  1
  C  C61  1  0.11346200  0.32228900  0.86801600  1
  C  C62  1  0.38653800  0.32228900  0.36801600  1
  C  C63  1  0.61346200  0.67771100  0.63198400  1
  C  C64  1  0.88862400  0.60479000  0.31176500  1
  C  C65  1  0.11137600  0.39521000  0.68823500  1
  C  C66  1  0.38862400  0.39521000  0.18823500  1
  C  C67  1  0.61137600  0.60479000  0.81176500  1
  C  C68  1  0.65569800  0.80957800  0.16494700  1
  C  C69  1  0.34430200  0.19042200  0.83505300  1
  C  C70  1  0.15569800  0.19042200  0.33505300  1
  C  C71  1  0.84430200  0.80957800  0.66494700  1
  C  C72  1  0.33127300  0.94443500  0.39704500  1
  C  C73  1  0.66872700  0.05556500  0.60295500  1
  C  C74  1  0.83127300  0.05556500  0.10295500  1
  C  C75  1  0.16872700  0.94443500  0.89704500  1
  C  C76  1  0.97782500  0.93082700  0.35988600  1
  C  C77  1  0.02217500  0.06917300  0.64011400  1
  C  C78  1  0.47782500  0.06917300  0.14011400  1
  C  C79  1  0.52217500  0.93082700  0.85988600  1
  C  C80  1  0.86854200  0.93724500  0.23354900  1
  C  C81  1  0.13145800  0.06275500  0.76645100  1
  C  C82  1  0.36854200  0.06275500  0.26645100  1
  C  C83  1  0.63145800  0.93724500  0.73354900  1
  C  C84  1  0.71790800  0.88493300  0.34701100  1
  C  C85  1  0.28209200  0.11506700  0.65298900  1
  C  C86  1  0.21790800  0.11506700  0.15298900  1
  C  C87  1  0.78209200  0.88493300  0.84701100  1
