# generated using pymatgen
data_CuNiC13
_symmetry_space_group_name_H-M   'P 1'
_cell_length_a   6.48663800
_cell_length_b   15.85489500
_cell_length_c   8.07581700
_cell_angle_alpha   90.00000000
_cell_angle_beta   90.00000000
_cell_angle_gamma   90.00000000
_symmetry_Int_Tables_number   1
_chemical_formula_structural   CuNiC13
_chemical_formula_sum   'Cu4 Ni4 C52'
_cell_volume   830.55711181
_cell_formula_units_Z   4
loop_
 _symmetry_equiv_pos_site_id
 _symmetry_equiv_pos_as_xyz
  1  'x, y, z'
loop_
 _atom_site_type_symbol
 _atom_site_label
 _atom_site_symmetry_multiplicity
 _atom_site_fract_x
 _atom_site_fract_y
 _atom_site_fract_z
 _atom_site_occupancy
  C  C0  1  0.75000000  0.49768400  0.88667700  1
  C  C1  1  0.25000000  0.50231600  0.11332300  1
  C  C2  1  0.25000000  0.00231600  0.38667700  1
  C  C3  1  0.75000000  0.99768400  0.61332300  1
  C  C4  1  0.50780300  0.88299600  0.88582200  1
  C  C5  1  0.49219700  0.11700400  0.11417800  1
  C  C6  1  0.49219700  0.61700400  0.38582200  1
  C  C7  1  0.00780300  0.11700400  0.11417800  1
  C  C8  1  0.50780300  0.38299600  0.61417800  1
  C  C9  1  0.99219700  0.88299600  0.88582200  1
  C  C10  1  0.99219700  0.38299600  0.61417800  1
  C  C11  1  0.00780300  0.61700400  0.38582200  1
  Ni  Ni12  1  0.75000000  0.68947600  0.91963500  1
  Ni  Ni13  1  0.25000000  0.31052400  0.08036500  1
  Ni  Ni14  1  0.25000000  0.81052400  0.41963500  1
  Ni  Ni15  1  0.75000000  0.18947600  0.58036500  1
  Cu  Cu16  1  0.75000000  0.94976300  0.22970200  1
  Cu  Cu17  1  0.25000000  0.05023700  0.77029800  1
  Cu  Cu18  1  0.25000000  0.55023700  0.72970200  1
  Cu  Cu19  1  0.75000000  0.44976300  0.27029800  1
  C  C20  1  0.75000000  0.91584600  0.40601700  1
  C  C21  1  0.25000000  0.08415400  0.59398300  1
  C  C22  1  0.25000000  0.58415400  0.90601700  1
  C  C23  1  0.75000000  0.41584600  0.09398300  1
  C  C24  1  0.45123000  0.99533500  0.79092700  1
  C  C25  1  0.54877000  0.00466500  0.20907300  1
  C  C26  1  0.54877000  0.50466500  0.29092700  1
  C  C27  1  0.95123000  0.00466500  0.20907300  1
  C  C28  1  0.45123000  0.49533500  0.70907300  1
  C  C29  1  0.04877000  0.99533500  0.79092700  1
  C  C30  1  0.04877000  0.49533500  0.70907300  1
  C  C31  1  0.95123000  0.50466500  0.29092700  1
  C  C32  1  0.91809600  0.74029400  0.84325300  1
  C  C33  1  0.08190400  0.25970600  0.15674700  1
  C  C34  1  0.08190400  0.75970600  0.34325300  1
  C  C35  1  0.41809600  0.25970600  0.15674700  1
  C  C36  1  0.91809600  0.24029400  0.65674700  1
  C  C37  1  0.58190400  0.74029400  0.84325300  1
  C  C38  1  0.58190400  0.24029400  0.65674700  1
  C  C39  1  0.41809600  0.75970600  0.34325300  1
  C  C40  1  0.75000000  0.38336700  0.41296500  1
  C  C41  1  0.25000000  0.61663300  0.58703500  1
  C  C42  1  0.25000000  0.11663300  0.91296500  1
  C  C43  1  0.75000000  0.88336700  0.08703500  1
  C  C44  1  0.75000000  0.64198300  0.46729700  1
  C  C45  1  0.25000000  0.35801700  0.53270300  1
  C  C46  1  0.25000000  0.85801700  0.96729700  1
  C  C47  1  0.75000000  0.14198300  0.03270300  1
  C  C48  1  0.75000000  0.61746500  0.99286100  1
  C  C49  1  0.25000000  0.38253500  0.00713900  1
  C  C50  1  0.25000000  0.88253500  0.49286100  1
  C  C51  1  0.75000000  0.11746500  0.50713900  1
  C  C52  1  0.75000000  0.89484500  0.76176500  1
  C  C53  1  0.25000000  0.10515500  0.23823500  1
  C  C54  1  0.25000000  0.60515500  0.26176500  1
  C  C55  1  0.75000000  0.39484500  0.73823500  1
  C  C56  1  0.75000000  0.74090600  0.71420400  1
  C  C57  1  0.25000000  0.25909400  0.28579600  1
  C  C58  1  0.25000000  0.75909400  0.21420400  1
  C  C59  1  0.75000000  0.24090600  0.78579600  1
