# generated using pymatgen
data_CuNiC4
_symmetry_space_group_name_H-M   'P 1'
_cell_length_a   3.34621818
_cell_length_b   3.34621818
_cell_length_c   38.08755100
_cell_angle_alpha   90.00000000
_cell_angle_beta   90.00000000
_cell_angle_gamma   120.00000352
_symmetry_Int_Tables_number   1
_chemical_formula_structural   CuNiC4
_chemical_formula_sum   'Cu2 Ni2 C8'
_cell_volume   369.33645239
_cell_formula_units_Z   2
loop_
 _symmetry_equiv_pos_site_id
 _symmetry_equiv_pos_as_xyz
  1  'x, y, z'
loop_
 _atom_site_type_symbol
 _atom_site_label
 _atom_site_symmetry_multiplicity
 _atom_site_fract_x
 _atom_site_fract_y
 _atom_site_fract_z
 _atom_site_occupancy
  C  C0  1  0.33333300  0.66666700  0.70763200  1
  C  C1  1  0.33333300  0.66666700  0.60751300  1
  Ni  Ni2  1  0.33333300  0.66666700  0.46962700  1
  Ni  Ni3  1  0.66666700  0.33333300  0.28179800  1
  Cu  Cu4  1  0.33333300  0.66666700  0.09391400  1
  Cu  Cu5  1  0.66666700  0.33333300  0.65760100  1
  C  C6  1  0.66666700  0.33333300  0.04993100  1
  C  C7  1  0.66666700  0.33333300  0.42585500  1
  C  C8  1  0.66666700  0.33333300  0.13790800  1
  C  C9  1  0.66666700  0.33333300  0.51338500  1
  C  C10  1  0.33333300  0.66666700  0.32161600  1
  C  C11  1  0.33333300  0.66666700  0.24196800  1
