# generated using pymatgen
data_CuNiC19
_symmetry_space_group_name_H-M   'P 1'
_cell_length_a   10.45616453
_cell_length_b   6.08520828
_cell_length_c   14.28809414
_cell_angle_alpha   90.00000000
_cell_angle_beta   89.91076433
_cell_angle_gamma   90.00000000
_symmetry_Int_Tables_number   1
_chemical_formula_structural   CuNiC19
_chemical_formula_sum   'Cu4 Ni4 C76'
_cell_volume   909.12087917
_cell_formula_units_Z   4
loop_
 _symmetry_equiv_pos_site_id
 _symmetry_equiv_pos_as_xyz
  1  'x, y, z'
loop_
 _atom_site_type_symbol
 _atom_site_label
 _atom_site_symmetry_multiplicity
 _atom_site_fract_x
 _atom_site_fract_y
 _atom_site_fract_z
 _atom_site_occupancy
  C  C0  1  0.99778971  0.49924726  0.66711716  1
  C  C1  1  0.99883207  0.00032645  0.99959690  1
  C  C2  1  0.99883207  0.49967355  0.99959690  1
  C  C3  1  0.99889660  0.99952327  0.33307987  1
  C  C4  1  0.99889660  0.50047673  0.33307987  1
  C  C5  1  0.99778971  0.00075274  0.66711716  1
  C  C6  1  0.50184514  0.99979303  0.50062456  1
  C  C7  1  0.50184514  0.50020697  0.50062456  1
  C  C8  1  0.50087838  0.99977175  0.16652886  1
  C  C9  1  0.50087838  0.50022825  0.16652886  1
  C  C10  1  0.50150058  0.99920913  0.83299714  1
  C  C11  1  0.50150058  0.50079087  0.83299714  1
  C  C12  1  0.21885137  0.75000000  0.49338756  1
  C  C13  1  0.21863086  0.75000000  0.82662703  1
  C  C14  1  0.28098954  0.25000000  0.66009553  1
  C  C15  1  0.28042826  0.25000000  0.32609865  1
  Ni  Ni16  1  0.21877660  0.75000000  0.15929448  1
  Ni  Ni17  1  0.28117286  0.25000000  0.99224675  1
  Ni  Ni18  1  0.71973287  0.75000000  0.00837361  1
  Ni  Ni19  1  0.71977199  0.75000000  0.34141339  1
  Cu  Cu20  1  0.72395007  0.75000000  0.67447116  1
  Cu  Cu21  1  0.77709571  0.25000000  0.83995781  1
  Cu  Cu22  1  0.77970726  0.25000000  0.50581116  1
  Cu  Cu23  1  0.78194811  0.25000000  0.17268532  1
  C  C24  1  0.09080080  0.25000000  0.80646992  1
  C  C25  1  0.09250623  0.25000000  0.13852886  1
  C  C26  1  0.08966928  0.25000000  0.47208236  1
  C  C27  1  0.40782696  0.75000000  0.30432317  1
  C  C28  1  0.41023648  0.75000000  0.63894867  1
  C  C29  1  0.40744588  0.75000000  0.97371867  1
  C  C30  1  0.59632708  0.25000000  0.36053577  1
  C  C31  1  0.59575856  0.25000000  0.02746526  1
  C  C32  1  0.59700862  0.25000000  0.69383509  1
  C  C33  1  0.90353752  0.75000000  0.86110250  1
  C  C34  1  0.90430771  0.75000000  0.19398375  1
  C  C35  1  0.90331591  0.75000000  0.52826215  1
  C  C36  1  0.04192030  0.75000000  0.23581438  1
  C  C37  1  0.04048533  0.75000000  0.57060158  1
  C  C38  1  0.04078861  0.75000000  0.90304333  1
  C  C39  1  0.09385058  0.25000000  0.57961470  1
  C  C40  1  0.09657912  0.25000000  0.91398406  1
  C  C41  1  0.09466675  0.25000000  0.24593776  1
  C  C42  1  0.16384398  0.04685572  0.09443490  1
  C  C43  1  0.16384398  0.45314428  0.09443490  1
  C  C44  1  0.16026688  0.04798657  0.42724461  1
  C  C45  1  0.16026688  0.45201343  0.42724461  1
  C  C46  1  0.16107698  0.04809756  0.76090636  1
  C  C47  1  0.16107698  0.45190244  0.76090636  1
  C  C48  1  0.33932801  0.54811958  0.59404419  1
  C  C49  1  0.33932801  0.95188042  0.59404419  1
  C  C50  1  0.33703822  0.54818931  0.25948521  1
  C  C51  1  0.33703822  0.95181069  0.25948521  1
  C  C52  1  0.33656481  0.54656834  0.92972517  1
  C  C53  1  0.33656481  0.95343166  0.92972517  1
  C  C54  1  0.40487373  0.75000000  0.41194013  1
  C  C55  1  0.40488704  0.75000000  0.08119602  1
  C  C56  1  0.40525634  0.75000000  0.74648493  1
  C  C57  1  0.45911369  0.25000000  0.40282953  1
  C  C58  1  0.45800927  0.25000000  0.06857117  1
  C  C59  1  0.45967740  0.25000000  0.73630047  1
  C  C60  1  0.54574027  0.75000000  0.26374689  1
  C  C61  1  0.54439027  0.75000000  0.93134103  1
  C  C62  1  0.54824114  0.75000000  0.59848521  1
  C  C63  1  0.59867552  0.25000000  0.25303269  1
  C  C64  1  0.59916455  0.25000000  0.91973589  1
  C  C65  1  0.59892861  0.25000000  0.58631239  1
  C  C66  1  0.66677389  0.04794022  0.07240973  1
  C  C67  1  0.66727493  0.04775402  0.40547261  1
  C  C68  1  0.66752463  0.04620750  0.73825222  1
  C  C69  1  0.66752463  0.45379250  0.73825222  1
  C  C70  1  0.66677389  0.45205978  0.07240973  1
  C  C71  1  0.66727493  0.45224598  0.40547261  1
  C  C72  1  0.83350147  0.54548376  0.90483734  1
  C  C73  1  0.83350147  0.95451624  0.90483734  1
  C  C74  1  0.83380826  0.54570495  0.23828983  1
  C  C75  1  0.83232098  0.54586945  0.57267132  1
  C  C76  1  0.83380826  0.95429505  0.23828983  1
  C  C77  1  0.83232098  0.95413055  0.57267132  1
  C  C78  1  0.90183954  0.75000000  0.75320682  1
  C  C79  1  0.90274901  0.75000000  0.42087554  1
  C  C80  1  0.90316377  0.75000000  0.08636116  1
  C  C81  1  0.95261821  0.25000000  0.76655746  1
  C  C82  1  0.95471919  0.25000000  0.09740451  1
  C  C83  1  0.95173219  0.25000000  0.43147179  1
