# generated using pymatgen
data_Cu8NiC24
_symmetry_space_group_name_H-M   'P 1'
_cell_length_a   7.93919664
_cell_length_b   6.62347725
_cell_length_c   7.59254375
_cell_angle_alpha   90.00000000
_cell_angle_beta   90.64773219
_cell_angle_gamma   90.00000000
_symmetry_Int_Tables_number   1
_chemical_formula_structural   Cu8NiC24
_chemical_formula_sum   'Cu8 Ni1 C24'
_cell_volume   399.22907061
_cell_formula_units_Z   1
loop_
 _symmetry_equiv_pos_site_id
 _symmetry_equiv_pos_as_xyz
  1  'x, y, z'
loop_
 _atom_site_type_symbol
 _atom_site_label
 _atom_site_symmetry_multiplicity
 _atom_site_fract_x
 _atom_site_fract_y
 _atom_site_fract_z
 _atom_site_occupancy
  Ni  Ni0  1  0.75938749  0.25000000  0.09847681  1
  Cu  Cu1  1  0.01848134  0.98639549  0.99792233  1
  Cu  Cu2  1  0.01848134  0.51360451  0.99792233  1
  Cu  Cu3  1  0.16802609  0.25000000  0.72723048  1
  Cu  Cu4  1  0.33840339  0.75000000  0.22239844  1
  Cu  Cu5  1  0.47816167  0.99261751  0.51217605  1
  Cu  Cu6  1  0.47816167  0.50738249  0.51217605  1
  Cu  Cu7  1  0.65006226  0.25000000  0.76387524  1
  Cu  Cu8  1  0.81974868  0.75000000  0.29376273  1
  C  C9  1  0.10509517  0.75000000  0.62388249  1
  C  C10  1  0.36414732  0.25000000  0.14225559  1
  C  C11  1  0.60624950  0.75000000  0.88206793  1
  C  C12  1  0.90784853  0.25000000  0.38772344  1
  C  C13  1  0.07110942  0.25000000  0.49034778  1
  C  C14  1  0.10945100  0.75000000  0.12516685  1
  C  C15  1  0.12868068  0.93994753  0.74901915  1
  C  C16  1  0.12868068  0.56005247  0.74901915  1
  C  C17  1  0.22199826  0.25000000  0.00041733  1
  C  C18  1  0.25306048  0.75000000  0.49188317  1
  C  C19  1  0.35127628  0.06026602  0.26216342  1
  C  C20  1  0.35127628  0.43973398  0.26216342  1
  C  C21  1  0.40491728  0.25000000  0.64103647  1
  C  C22  1  0.44180130  0.75000000  0.98632250  1
  C  C23  1  0.53249026  0.25000000  0.04567545  1
  C  C24  1  0.55906682  0.75000000  0.37101069  1
  C  C25  1  0.61431463  0.56266202  0.75646461  1
  C  C26  1  0.61431463  0.93733798  0.75646461  1
  C  C27  1  0.74119794  0.25000000  0.48639819  1
  C  C28  1  0.76166966  0.75000000  0.01180174  1
  C  C29  1  0.89837490  0.06720985  0.25036308  1
  C  C30  1  0.89837490  0.43279015  0.25036308  1
  C  C31  1  0.89875973  0.25000000  0.88717321  1
  C  C32  1  0.93193040  0.75000000  0.53719517  1
