# generated using pymatgen
data_CuNiC5
_symmetry_space_group_name_H-M   'P 1'
_cell_length_a   5.38784300
_cell_length_b   9.35577100
_cell_length_c   17.80313488
_cell_angle_alpha   89.86711961
_cell_angle_beta   90.00000000
_cell_angle_gamma   90.00000000
_symmetry_Int_Tables_number   1
_chemical_formula_structural   CuNiC5
_chemical_formula_sum   'Cu8 Ni8 C40'
_cell_volume   897.40777792
_cell_formula_units_Z   8
loop_
 _symmetry_equiv_pos_site_id
 _symmetry_equiv_pos_as_xyz
  1  'x, y, z'
loop_
 _atom_site_type_symbol
 _atom_site_label
 _atom_site_symmetry_multiplicity
 _atom_site_fract_x
 _atom_site_fract_y
 _atom_site_fract_z
 _atom_site_occupancy
  Ni  Ni0  1  0.75314600  0.21542200  0.25096600  1
  Ni  Ni1  1  0.25314600  0.78457800  0.24903400  1
  Ni  Ni2  1  0.24685400  0.78457800  0.74903400  1
  Ni  Ni3  1  0.74685400  0.21542200  0.75096600  1
  Ni  Ni4  1  0.74047000  0.28331600  0.50093100  1
  Ni  Ni5  1  0.24047000  0.71668400  0.99906900  1
  Ni  Ni6  1  0.25953000  0.71668400  0.49906900  1
  Ni  Ni7  1  0.75953000  0.28331600  0.00093100  1
  Cu  Cu8  1  0.24536500  0.41638200  0.16213700  1
  Cu  Cu9  1  0.74536500  0.58361800  0.33786300  1
  Cu  Cu10  1  0.75463500  0.58361800  0.83786300  1
  Cu  Cu11  1  0.25463500  0.41638200  0.66213700  1
  Cu  Cu12  1  0.24271200  0.08441500  0.41144800  1
  Cu  Cu13  1  0.74271200  0.91558500  0.08855200  1
  Cu  Cu14  1  0.75728800  0.91558500  0.58855200  1
  Cu  Cu15  1  0.25728800  0.08441500  0.91144800  1
  C  C16  1  0.24428000  0.08229800  0.10250700  1
  C  C17  1  0.74428000  0.91770200  0.39749300  1
  C  C18  1  0.75572000  0.91770200  0.89749300  1
  C  C19  1  0.25572000  0.08229800  0.60250700  1
  C  C20  1  0.24513400  0.41622500  0.35283700  1
  C  C21  1  0.74513400  0.58377500  0.14716300  1
  C  C22  1  0.75486600  0.58377500  0.64716300  1
  C  C23  1  0.25486600  0.41622500  0.85283700  1
  C  C24  1  0.25259000  0.08854300  0.01939400  1
  C  C25  1  0.75259000  0.91145700  0.48060600  1
  C  C26  1  0.74741000  0.91145700  0.98060600  1
  C  C27  1  0.24741000  0.08854300  0.51939400  1
  C  C28  1  0.24717100  0.40308500  0.26985500  1
  C  C29  1  0.74717100  0.59691500  0.23014500  1
  C  C30  1  0.75282900  0.59691500  0.73014500  1
  C  C31  1  0.25282900  0.40308500  0.76985500  1
  C  C32  1  0.15920200  0.22296000  0.13207900  1
  C  C33  1  0.65920200  0.77704000  0.36792100  1
  C  C34  1  0.84079800  0.77704000  0.86792100  1
  C  C35  1  0.34079800  0.22296000  0.63207900  1
  C  C36  1  0.15794700  0.27954000  0.38658200  1
  C  C37  1  0.65794700  0.72046000  0.11341800  1
  C  C38  1  0.84205300  0.72046000  0.61341800  1
  C  C39  1  0.34205300  0.27954000  0.88658200  1
  C  C40  1  0.49570300  0.04694400  0.13285600  1
  C  C41  1  0.99570300  0.95305600  0.36714400  1
  C  C42  1  0.50429700  0.95305600  0.86714400  1
  C  C43  1  0.00429700  0.04694400  0.63285600  1
  C  C44  1  0.50109900  0.44968700  0.38033700  1
  C  C45  1  0.00109900  0.55031300  0.11966300  1
  C  C46  1  0.49890100  0.55031300  0.61966300  1
  C  C47  1  0.99890100  0.44968700  0.88033700  1
  C  C48  1  0.06573100  0.96925700  0.12753300  1
  C  C49  1  0.56573100  0.03074300  0.37246700  1
  C  C50  1  0.93426900  0.03074300  0.87246700  1
  C  C51  1  0.43426900  0.96925700  0.62753300  1
  C  C52  1  0.07344100  0.53369800  0.37612900  1
  C  C53  1  0.57344100  0.46630200  0.12387100  1
  C  C54  1  0.92655900  0.46630200  0.62387100  1
  C  C55  1  0.42655900  0.53369800  0.87612900  1
