# generated using pymatgen
data_CuNiC5
_symmetry_space_group_name_H-M   'P 1'
_cell_length_a   5.69731070
_cell_length_b   5.69731070
_cell_length_c   7.31331900
_cell_angle_alpha   90.00000000
_cell_angle_beta   90.00000000
_cell_angle_gamma   120.00000811
_symmetry_Int_Tables_number   1
_chemical_formula_structural   CuNiC5
_chemical_formula_sum   'Cu2 Ni2 C10'
_cell_volume   205.58192182
_cell_formula_units_Z   2
loop_
 _symmetry_equiv_pos_site_id
 _symmetry_equiv_pos_as_xyz
  1  'x, y, z'
loop_
 _atom_site_type_symbol
 _atom_site_label
 _atom_site_symmetry_multiplicity
 _atom_site_fract_x
 _atom_site_fract_y
 _atom_site_fract_z
 _atom_site_occupancy
  Ni  Ni0  1  0.66666700  0.33333300  0.51250200  1
  Ni  Ni1  1  0.33333300  0.66666700  0.15295700  1
  Cu  Cu2  1  0.66666700  0.33333300  0.99295200  1
  Cu  Cu3  1  0.00000000  0.00000000  0.81063400  1
  C  C4  1  0.00000000  0.00000000  0.28516000  1
  C  C5  1  0.33333300  0.66666700  0.72059200  1
  C  C6  1  0.85164600  0.14835400  0.20758200  1
  C  C7  1  0.85164600  0.70329100  0.20758200  1
  C  C8  1  0.29670900  0.14835400  0.20758200  1
  C  C9  1  0.48074900  0.51925100  0.79915400  1
  C  C10  1  0.48074900  0.96149800  0.79915400  1
  C  C11  1  0.03850200  0.51925100  0.79915400  1
  C  C12  1  0.00000000  0.00000000  0.49526600  1
  C  C13  1  0.33333300  0.66666700  0.50970200  1
