# generated using pymatgen
data_CuNiC
_symmetry_space_group_name_H-M   'P 1'
_cell_length_a   2.97665800
_cell_length_b   7.13935294
_cell_length_c   7.13935326
_cell_angle_alpha   59.62639660
_cell_angle_beta   90.00000000
_cell_angle_gamma   90.00000000
_symmetry_Int_Tables_number   1
_chemical_formula_structural   CuNiC
_chemical_formula_sum   'Cu3 Ni3 C3'
_cell_volume   130.89708526
_cell_formula_units_Z   3
loop_
 _symmetry_equiv_pos_site_id
 _symmetry_equiv_pos_as_xyz
  1  'x, y, z'
loop_
 _atom_site_type_symbol
 _atom_site_label
 _atom_site_symmetry_multiplicity
 _atom_site_fract_x
 _atom_site_fract_y
 _atom_site_fract_z
 _atom_site_occupancy
  Ni  Ni0  1  0.50000000  0.62915600  0.37084400  1
  Ni  Ni1  1  0.50000000  0.37139700  0.99993800  1
  Ni  Ni2  1  0.50000000  0.00006200  0.62860300  1
  C  C3  1  0.00000000  0.33348400  0.33372300  1
  C  C4  1  0.00000000  0.66627700  0.66651600  1
  C  C5  1  0.50000000  0.99905900  0.00094100  1
  Cu  Cu6  1  0.00000000  0.28539800  0.71460200  1
  Cu  Cu7  1  0.00000000  0.71423700  0.99917000  1
  Cu  Cu8  1  0.00000000  0.00083000  0.28576300  1
