# generated using pymatgen
data_Cu3NiC16
_symmetry_space_group_name_H-M   'P 1'
_cell_length_a   5.68261200
_cell_length_b   5.69438588
_cell_length_c   9.69291490
_cell_angle_alpha   88.67507571
_cell_angle_beta   106.67556862
_cell_angle_gamma   119.03128404
_symmetry_Int_Tables_number   1
_chemical_formula_structural   Cu3NiC16
_chemical_formula_sum   'Cu3 Ni1 C16'
_cell_volume   260.17314357
_cell_formula_units_Z   1
loop_
 _symmetry_equiv_pos_site_id
 _symmetry_equiv_pos_as_xyz
  1  'x, y, z'
loop_
 _atom_site_type_symbol
 _atom_site_label
 _atom_site_symmetry_multiplicity
 _atom_site_fract_x
 _atom_site_fract_y
 _atom_site_fract_z
 _atom_site_occupancy
  Ni  Ni0  1  0.34330000  0.16901600  0.39136300  1
  Cu  Cu1  1  0.83579500  0.92245500  0.63808700  1
  Cu  Cu2  1  0.83566900  0.41211900  0.13874700  1
  Cu  Cu3  1  0.33374400  0.66376100  0.88860400  1
  C  C4  1  0.49766700  0.74534700  0.25119500  1
  C  C5  1  0.49679500  0.24824300  0.75125200  1
  C  C6  1  0.99621100  0.99199600  0.99995400  1
  C  C7  1  0.00227200  0.50625700  0.49724700  1
  C  C8  1  0.63364700  0.23923200  0.28536800  1
  C  C9  1  0.64195000  0.75116400  0.78356000  1
  C  C10  1  0.65127700  0.61809300  0.48148000  1
  C  C11  1  0.63833800  0.09460100  0.98309900  1
  C  C12  1  0.63747300  0.61713100  0.05582700  1
  C  C13  1  0.61880600  0.11307500  0.55432200  1
  C  C14  1  0.12855900  0.73951400  0.30391100  1
  C  C15  1  0.13435400  0.27212700  0.80409200  1
  C  C16  1  0.13906500  0.28367300  0.23208200  1
  C  C17  1  0.14660500  0.80827900  0.73199600  1
  C  C18  1  0.13175500  0.63735100  0.02936400  1
  C  C19  1  0.13671900  0.15656300  0.52844900  1
