# generated using pymatgen
data_Cu(NiC12)4
_symmetry_space_group_name_H-M   'P 1'
_cell_length_a   10.45449301
_cell_length_b   10.85289751
_cell_length_c   13.64132180
_cell_angle_alpha   90.00000000
_cell_angle_beta   94.11780604
_cell_angle_gamma   90.00000000
_symmetry_Int_Tables_number   1
_chemical_formula_structural   Cu(NiC12)4
_chemical_formula_sum   'Cu2 Ni8 C96'
_cell_volume   1543.76986173
_cell_formula_units_Z   2
loop_
 _symmetry_equiv_pos_site_id
 _symmetry_equiv_pos_as_xyz
  1  'x, y, z'
loop_
 _atom_site_type_symbol
 _atom_site_label
 _atom_site_symmetry_multiplicity
 _atom_site_fract_x
 _atom_site_fract_y
 _atom_site_fract_z
 _atom_site_occupancy
  Ni  Ni0  1  0.76617921  0.22497888  0.02686363  1
  Ni  Ni1  1  0.23382079  0.77502112  0.97313637  1
  Ni  Ni2  1  0.73382079  0.22497888  0.47313637  1
  Ni  Ni3  1  0.26617921  0.77502112  0.52686363  1
  Ni  Ni4  1  0.94780906  0.21412011  0.73596749  1
  Ni  Ni5  1  0.05219094  0.78587989  0.26403251  1
  Ni  Ni6  1  0.55219094  0.21412011  0.76403251  1
  Ni  Ni7  1  0.44780906  0.78587989  0.23596749  1
  Cu  Cu8  1  0.25000000  0.99278831  0.75000000  1
  Cu  Cu9  1  0.75000000  0.00721169  0.25000000  1
  C  C10  1  0.09246409  0.27933447  0.23997998  1
  C  C11  1  0.90753591  0.72066553  0.76002002  1
  C  C12  1  0.40753591  0.27933447  0.26002002  1
  C  C13  1  0.59246409  0.72066553  0.73997998  1
  C  C14  1  0.40567777  0.27706277  0.02941027  1
  C  C15  1  0.59432223  0.72293723  0.97058973  1
  C  C16  1  0.09432223  0.27706277  0.47058973  1
  C  C17  1  0.90567777  0.72293723  0.52941027  1
  C  C18  1  0.10505789  0.27824565  0.01018693  1
  C  C19  1  0.89494211  0.72175435  0.98981307  1
  C  C20  1  0.39494211  0.27824565  0.48981307  1
  C  C21  1  0.60505789  0.72175435  0.51018693  1
  C  C22  1  0.25332156  0.48353070  0.13520912  1
  C  C23  1  0.74667844  0.51646930  0.86479088  1
  C  C24  1  0.24667844  0.48353070  0.36479088  1
  C  C25  1  0.75332156  0.51646930  0.63520912  1
  C  C26  1  0.25023541  0.06462032  0.13040923  1
  C  C27  1  0.74976459  0.93537968  0.86959077  1
  C  C28  1  0.24976459  0.06462032  0.36959077  1
  C  C29  1  0.75023541  0.93537968  0.63040923  1
  C  C30  1  0.25289383  0.27408130  0.15381372  1
  C  C31  1  0.74710617  0.72591870  0.84618628  1
  C  C32  1  0.24710617  0.27408130  0.34618628  1
  C  C33  1  0.75289383  0.72591870  0.65381372  1
  C  C34  1  0.13010206  0.44872185  0.24163011  1
  C  C35  1  0.86989794  0.55127815  0.75836989  1
  C  C36  1  0.36989794  0.44872185  0.25836989  1
  C  C37  1  0.63010206  0.55127815  0.74163011  1
  C  C38  1  0.13825420  0.10234108  0.24189716  1
  C  C39  1  0.86174580  0.89765892  0.75810284  1
  C  C40  1  0.36174580  0.10234108  0.25810284  1
  C  C41  1  0.63825420  0.89765892  0.74189716  1
  C  C42  1  0.99279920  0.27323070  0.33648090  1
  C  C43  1  0.00720080  0.72676930  0.66351910  1
  C  C44  1  0.50720080  0.27323070  0.16351910  1
  C  C45  1  0.49279920  0.72676930  0.83648090  1
  C  C46  1  0.25683371  0.27214237  0.94918111  1
  C  C47  1  0.74316629  0.72785763  0.05081889  1
  C  C48  1  0.24316629  0.27214237  0.55081889  1
  C  C49  1  0.75683371  0.72785763  0.44918111  1
  C  C50  1  0.99884026  0.27343957  0.12916490  1
  C  C51  1  0.00115974  0.72656043  0.87083510  1
  C  C52  1  0.50115974  0.27343957  0.37083510  1
  C  C53  1  0.49884026  0.72656043  0.62916490  1
  C  C54  1  0.38520612  0.10279943  0.05813812  1
  C  C55  1  0.61479388  0.89720057  0.94186188  1
  C  C56  1  0.11479388  0.10279943  0.44186188  1
  C  C57  1  0.88520612  0.89720057  0.55813812  1
  C  C58  1  0.12432393  0.10372939  0.03884110  1
  C  C59  1  0.87567607  0.89627061  0.96115890  1
  C  C60  1  0.37567607  0.10372939  0.46115890  1
  C  C61  1  0.62432393  0.89627061  0.53884110  1
  C  C62  1  0.38281407  0.44252747  0.05809068  1
  C  C63  1  0.61718593  0.55747253  0.94190932  1
  C  C64  1  0.11718593  0.44252747  0.44190932  1
  C  C65  1  0.88281407  0.55747253  0.55809068  1
  C  C66  1  0.12830285  0.44430672  0.04038262  1
  C  C67  1  0.87169715  0.55569328  0.95961738  1
  C  C68  1  0.37169715  0.44430672  0.45961738  1
  C  C69  1  0.62830285  0.55569328  0.54038262  1
  C  C70  1  0.51934752  0.27441573  0.95369813  1
  C  C71  1  0.48065248  0.72558427  0.04630187  1
  C  C72  1  0.98065248  0.27441573  0.54630187  1
  C  C73  1  0.01934752  0.72558427  0.45369813  1
  C  C74  1  0.99220154  0.27772134  0.92150992  1
  C  C75  1  0.00779846  0.72227866  0.07849008  1
  C  C76  1  0.50779846  0.27772134  0.57849008  1
  C  C77  1  0.49220154  0.72227866  0.42150992  1
  C  C78  1  0.25126381  0.91330697  0.13698351  1
  C  C79  1  0.74873619  0.08669303  0.86301649  1
  C  C80  1  0.24873619  0.91330697  0.36301649  1
  C  C81  1  0.75126381  0.08669303  0.63698351  1
  C  C82  1  0.25655839  0.63444536  0.14008375  1
  C  C83  1  0.74344161  0.36555464  0.85991625  1
  C  C84  1  0.24344161  0.63444536  0.35991625  1
  C  C85  1  0.75655839  0.36555464  0.64008375  1
  C  C86  1  0.72551964  0.49727252  0.17592890  1
  C  C87  1  0.27448036  0.50272748  0.82407110  1
  C  C88  1  0.77448036  0.49727252  0.32407110  1
  C  C89  1  0.22551964  0.50272748  0.67592890  1
  C  C90  1  0.75000000  0.22074769  0.25000000  1
  C  C91  1  0.25000000  0.77925231  0.75000000  1
  C  C92  1  0.25000000  0.20655238  0.75000000  1
  C  C93  1  0.75000000  0.79344762  0.25000000  1
  C  C94  1  0.09740124  0.02307870  0.86180757  1
  C  C95  1  0.90259876  0.97692130  0.13819243  1
  C  C96  1  0.40259876  0.02307870  0.63819243  1
  C  C97  1  0.59740124  0.97692130  0.36180757  1
  C  C98  1  0.38744025  0.97016542  0.90324410  1
  C  C99  1  0.61255975  0.02983458  0.09675590  1
  C  C100  1  0.11255975  0.97016542  0.59675590  1
  C  C101  1  0.88744025  0.02983458  0.40324410  1
  C  C102  1  0.15502416  0.48109833  0.76330607  1
  C  C103  1  0.84497584  0.51890167  0.23669393  1
  C  C104  1  0.34497584  0.48109833  0.73669393  1
  C  C105  1  0.65502416  0.51890167  0.26330607  1
