# generated using pymatgen
data_CuNiC8
_symmetry_space_group_name_H-M   'P 1'
_cell_length_a   5.98407923
_cell_length_b   5.98407923
_cell_length_c   8.68068811
_cell_angle_alpha   90.00000000
_cell_angle_beta   90.00000000
_cell_angle_gamma   90.00000000
_symmetry_Int_Tables_number   1
_chemical_formula_structural   CuNiC8
_chemical_formula_sum   'Cu2 Ni2 C16'
_cell_volume   310.84853340
_cell_formula_units_Z   2
loop_
 _symmetry_equiv_pos_site_id
 _symmetry_equiv_pos_as_xyz
  1  'x, y, z'
loop_
 _atom_site_type_symbol
 _atom_site_label
 _atom_site_symmetry_multiplicity
 _atom_site_fract_x
 _atom_site_fract_y
 _atom_site_fract_z
 _atom_site_occupancy
  Ni  Ni0  1  0.50000000  -0.00000000  0.25000000  1
  Ni  Ni1  1  0.00000000  0.50000000  0.75000000  1
  C  C2  1  -0.00000000  -0.00000000  0.00000000  1
  C  C3  1  0.50000000  0.50000000  0.50000000  1
  Cu  Cu4  1  -0.00000000  0.50000000  0.25000000  1
  Cu  Cu5  1  0.50000000  0.00000000  0.75000000  1
  C  C6  1  0.00000000  0.00000000  0.50000000  1
  C  C7  1  0.50000000  0.50000000  0.00000000  1
  C  C8  1  -0.00000000  0.00000000  0.26829684  1
  C  C9  1  0.50000000  0.50000000  0.23170316  1
  C  C10  1  0.00000000  0.00000000  0.73170316  1
  C  C11  1  0.50000000  0.50000000  0.76829684  1
  C  C12  1  0.34371442  0.20158483  0.99825962  1
  C  C13  1  0.65628558  0.79841517  0.99825962  1
  C  C14  1  0.79841517  0.34371442  0.00174038  1
  C  C15  1  0.20158483  0.65628558  0.00174038  1
  C  C16  1  0.84371442  0.29841517  0.49825962  1
  C  C17  1  0.15628558  0.70158483  0.49825962  1
  C  C18  1  0.29841517  0.15628558  0.50174038  1
  C  C19  1  0.70158483  0.84371442  0.50174038  1
