# generated using pymatgen
data_Cu2Ni3C13
_symmetry_space_group_name_H-M   'P 1'
_cell_length_a   5.81208000
_cell_length_b   9.96145200
_cell_length_c   13.89753700
_cell_angle_alpha   90.00000000
_cell_angle_beta   90.00000000
_cell_angle_gamma   90.00000000
_symmetry_Int_Tables_number   1
_chemical_formula_structural   Cu2Ni3C13
_chemical_formula_sum   'Cu8 Ni12 C52'
_cell_volume   804.62230786
_cell_formula_units_Z   4
loop_
 _symmetry_equiv_pos_site_id
 _symmetry_equiv_pos_as_xyz
  1  'x, y, z'
loop_
 _atom_site_type_symbol
 _atom_site_label
 _atom_site_symmetry_multiplicity
 _atom_site_fract_x
 _atom_site_fract_y
 _atom_site_fract_z
 _atom_site_occupancy
  C  C0  1  0.25000000  0.60301700  0.59545300  1
  C  C1  1  0.75000000  0.39698300  0.40454700  1
  C  C2  1  0.75000000  0.10301700  0.90454700  1
  C  C3  1  0.25000000  0.89698300  0.09545300  1
  C  C4  1  0.25000000  0.57893100  0.04020400  1
  C  C5  1  0.75000000  0.42106900  0.95979600  1
  C  C6  1  0.75000000  0.07893100  0.45979600  1
  C  C7  1  0.25000000  0.92106900  0.54020400  1
  Ni  Ni8  1  0.25000000  0.22990300  0.00233400  1
  Ni  Ni9  1  0.75000000  0.77009700  0.99766600  1
  Ni  Ni10  1  0.75000000  0.72990300  0.49766600  1
  Ni  Ni11  1  0.25000000  0.27009700  0.50233400  1
  Ni  Ni12  1  0.25000000  0.56838600  0.33250900  1
  Ni  Ni13  1  0.75000000  0.43161400  0.66749100  1
  Ni  Ni14  1  0.75000000  0.06838600  0.16749100  1
  Ni  Ni15  1  0.25000000  0.93161400  0.83250900  1
  Ni  Ni16  1  0.25000000  0.10864800  0.33230900  1
  Ni  Ni17  1  0.75000000  0.89135200  0.66769100  1
  Ni  Ni18  1  0.75000000  0.60864800  0.16769100  1
  Ni  Ni19  1  0.25000000  0.39135200  0.83230900  1
  Cu  Cu20  1  0.00148100  0.33599400  0.17185900  1
  Cu  Cu21  1  0.99851900  0.66400600  0.82814100  1
  Cu  Cu22  1  0.99851900  0.83599400  0.32814100  1
  Cu  Cu23  1  0.50148100  0.66400600  0.82814100  1
  Cu  Cu24  1  0.00148100  0.16400600  0.67185900  1
  Cu  Cu25  1  0.49851900  0.33599400  0.17185900  1
  Cu  Cu26  1  0.49851900  0.16400600  0.67185900  1
  Cu  Cu27  1  0.50148100  0.83599400  0.32814100  1
  C  C28  1  0.25000000  0.44018500  0.43489000  1
  C  C29  1  0.75000000  0.55981500  0.56511000  1
  C  C30  1  0.75000000  0.94018500  0.06511000  1
  C  C31  1  0.25000000  0.05981500  0.93489000  1
  C  C32  1  0.25000000  0.39647700  0.08680200  1
  C  C33  1  0.75000000  0.60352300  0.91319800  1
  C  C34  1  0.75000000  0.89647700  0.41319800  1
  C  C35  1  0.25000000  0.10352300  0.58680200  1
  C  C36  1  0.02745900  0.18370400  0.41388000  1
  C  C37  1  0.97254100  0.81629600  0.58612000  1
  C  C38  1  0.97254100  0.68370400  0.08612000  1
  C  C39  1  0.52745900  0.81629600  0.58612000  1
  C  C40  1  0.02745900  0.31629600  0.91388000  1
  C  C41  1  0.47254100  0.18370400  0.41388000  1
  C  C42  1  0.47254100  0.31629600  0.91388000  1
  C  C43  1  0.52745900  0.68370400  0.08612000  1
  C  C44  1  0.25000000  0.92783200  0.39689600  1
  C  C45  1  0.75000000  0.07216800  0.60310400  1
  C  C46  1  0.75000000  0.42783200  0.10310400  1
  C  C47  1  0.25000000  0.57216800  0.89689600  1
  C  C48  1  0.50525100  0.17347700  0.08621000  1
  C  C49  1  0.49474900  0.82652300  0.91379000  1
  C  C50  1  0.49474900  0.67347700  0.41379000  1
  C  C51  1  0.00525100  0.82652300  0.91379000  1
  C  C52  1  0.50525100  0.32652300  0.58621000  1
  C  C53  1  0.99474900  0.17347700  0.08621000  1
  C  C54  1  0.99474900  0.32652300  0.58621000  1
  C  C55  1  0.00525100  0.67347700  0.41379000  1
  C  C56  1  0.25000000  0.74888300  0.26091900  1
  C  C57  1  0.75000000  0.25111700  0.73908100  1
  C  C58  1  0.75000000  0.24888300  0.23908100  1
  C  C59  1  0.25000000  0.75111700  0.76091900  1
  C  C60  1  0.25000000  0.25437200  0.24493500  1
  C  C61  1  0.75000000  0.74562800  0.75506500  1
  C  C62  1  0.75000000  0.75437200  0.25506500  1
  C  C63  1  0.25000000  0.24562800  0.74493500  1
  C  C64  1  0.99984900  0.99955700  0.24373500  1
  C  C65  1  0.00015100  0.00044300  0.75626500  1
  C  C66  1  0.00015100  0.49955700  0.25626500  1
  C  C67  1  0.49984900  0.00044300  0.75626500  1
  C  C68  1  0.99984900  0.50044300  0.74373500  1
  C  C69  1  0.50015100  0.99955700  0.24373500  1
  C  C70  1  0.50015100  0.50044300  0.74373500  1
  C  C71  1  0.49984900  0.49955700  0.25626500  1
