# generated using pymatgen
data_Cu4Ni2C19
_symmetry_space_group_name_H-M   'P 1'
_cell_length_a   6.68994100
_cell_length_b   8.58439900
_cell_length_c   13.03388880
_cell_angle_alpha   90.00000000
_cell_angle_beta   111.71157241
_cell_angle_gamma   90.00000000
_symmetry_Int_Tables_number   1
_chemical_formula_structural   Cu4Ni2C19
_chemical_formula_sum   'Cu8 Ni4 C38'
_cell_volume   695.42285906
_cell_formula_units_Z   2
loop_
 _symmetry_equiv_pos_site_id
 _symmetry_equiv_pos_as_xyz
  1  'x, y, z'
loop_
 _atom_site_type_symbol
 _atom_site_label
 _atom_site_symmetry_multiplicity
 _atom_site_fract_x
 _atom_site_fract_y
 _atom_site_fract_z
 _atom_site_occupancy
  C  C0  1  0.50000000  0.00000000  0.50000000  1
  C  C1  1  0.50000000  0.50000000  0.00000000  1
  C  C2  1  0.87122800  0.13447000  0.52297800  1
  C  C3  1  0.87122800  0.36553000  0.02297800  1
  C  C4  1  0.12877200  0.86553000  0.47702200  1
  C  C5  1  0.12877200  0.63447000  0.97702200  1
  C  C6  1  0.06617400  0.22279500  0.70549200  1
  C  C7  1  0.06617400  0.27720500  0.20549200  1
  C  C8  1  0.93382600  0.77720500  0.29450800  1
  C  C9  1  0.93382600  0.72279500  0.79450800  1
  C  C10  1  0.95986200  0.03114400  0.70390700  1
  C  C11  1  0.95986200  0.46885600  0.20390700  1
  C  C12  1  0.04013800  0.96885600  0.29609300  1
  C  C13  1  0.04013800  0.53114400  0.79609300  1
  C  C14  1  0.82824100  0.19462500  0.73648500  1
  C  C15  1  0.82824100  0.30537500  0.23648500  1
  C  C16  1  0.17175900  0.80537500  0.26351500  1
  C  C17  1  0.17175900  0.69462500  0.76351500  1
  C  C18  1  0.63155100  0.38166600  0.58565300  1
  C  C19  1  0.63155100  0.11833400  0.08565300  1
  C  C20  1  0.36844900  0.61833400  0.41434700  1
  C  C21  1  0.36844900  0.88166600  0.91434700  1
  C  C22  1  0.64464600  0.35335300  0.45214100  1
  C  C23  1  0.64464600  0.14664700  0.95214100  1
  C  C24  1  0.35535400  0.64664700  0.54785900  1
  C  C25  1  0.35535400  0.85335300  0.04785900  1
  C  C26  1  0.88240700  0.40568300  0.56716500  1
  C  C27  1  0.88240700  0.09431700  0.06716500  1
  C  C28  1  0.11759300  0.59431700  0.43283500  1
  C  C29  1  0.11759300  0.90568300  0.93283500  1
  C  C30  1  0.91799600  0.15381400  0.68647000  1
  C  C31  1  0.91799600  0.34618600  0.18647000  1
  C  C32  1  0.08200400  0.84618600  0.31353000  1
  C  C33  1  0.08200400  0.65381400  0.81353000  1
  C  C34  1  0.73156900  0.33907500  0.54119200  1
  C  C35  1  0.73156900  0.16092500  0.04119200  1
  C  C36  1  0.26843100  0.66092500  0.45880800  1
  C  C37  1  0.26843100  0.83907500  0.95880800  1
  Ni  Ni38  1  0.78281200  0.17290500  0.56799200  1
  Ni  Ni39  1  0.78281200  0.32709500  0.06799200  1
  Ni  Ni40  1  0.21718800  0.82709500  0.43200800  1
  Ni  Ni41  1  0.21718800  0.67290500  0.93200800  1
  Cu  Cu42  1  0.49782300  0.93797200  0.68224400  1
  Cu  Cu43  1  0.49782300  0.56202800  0.18224400  1
  Cu  Cu44  1  0.50217700  0.06202800  0.31775600  1
  Cu  Cu45  1  0.50217700  0.43797200  0.81775600  1
  Cu  Cu46  1  0.77717900  0.79835800  0.52319200  1
  Cu  Cu47  1  0.77717900  0.70164200  0.02319200  1
  Cu  Cu48  1  0.22282100  0.20164200  0.47680800  1
  Cu  Cu49  1  0.22282100  0.29835800  0.97680800  1
