# generated using pymatgen
data_Cu3Ni2C19
_symmetry_space_group_name_H-M   'P 1'
_cell_length_a   5.10861377
_cell_length_b   5.10861377
_cell_length_c   15.29246330
_cell_angle_alpha   80.38534159
_cell_angle_beta   80.38534159
_cell_angle_gamma   33.24699091
_symmetry_Int_Tables_number   1
_chemical_formula_structural   Cu3Ni2C19
_chemical_formula_sum   'Cu3 Ni2 C19'
_cell_volume   215.45763019
_cell_formula_units_Z   1
loop_
 _symmetry_equiv_pos_site_id
 _symmetry_equiv_pos_as_xyz
  1  'x, y, z'
loop_
 _atom_site_type_symbol
 _atom_site_label
 _atom_site_symmetry_multiplicity
 _atom_site_fract_x
 _atom_site_fract_y
 _atom_site_fract_z
 _atom_site_occupancy
  C  C0  1  0.24909000  0.24909000  0.92338700  1
  C  C1  1  0.75091000  0.75091000  0.07661300  1
  C  C2  1  0.25379900  0.25379900  0.24765500  1
  C  C3  1  0.75010900  0.75010900  0.41643300  1
  C  C4  1  0.24989100  0.24989100  0.58356700  1
  C  C5  1  0.74620100  0.74620100  0.75234500  1
  C  C6  1  0.50000000  0.50000000  0.00000000  1
  Ni  Ni7  1  0.99491600  0.99491600  0.83949900  1
  Ni  Ni8  1  0.00508400  0.00508400  0.16050100  1
  Cu  Cu9  1  0.50064000  0.50064000  0.33265400  1
  Cu  Cu10  1  0.00000000  0.00000000  0.50000000  1
  Cu  Cu11  1  0.49936000  0.49936000  0.66734600  1
  C  C12  1  0.38818600  0.38818600  0.79382200  1
  C  C13  1  0.88165600  0.88165600  0.94661400  1
  C  C14  1  0.39168400  0.39168400  0.13153700  1
  C  C15  1  0.89088500  0.89088500  0.28815500  1
  C  C16  1  0.38541700  0.38541700  0.45831700  1
  C  C17  1  0.88324600  0.88324600  0.62624000  1
  C  C18  1  0.11834400  0.11834400  0.05338600  1
  C  C19  1  0.61181400  0.61181400  0.20617800  1
  C  C20  1  0.11675400  0.11675400  0.37376000  1
  C  C21  1  0.61458300  0.61458300  0.54168300  1
  C  C22  1  0.10911500  0.10911500  0.71184500  1
  C  C23  1  0.60831600  0.60831600  0.86846300  1
