# generated using pymatgen
data_Cu2Ni3C4
_symmetry_space_group_name_H-M   'P 1'
_cell_length_a   6.97030511
_cell_length_b   6.68130395
_cell_length_c   5.12687737
_cell_angle_alpha   90.00000756
_cell_angle_beta   76.09423747
_cell_angle_gamma   118.63768136
_symmetry_Int_Tables_number   1
_chemical_formula_structural   Cu2Ni3C4
_chemical_formula_sum   'Cu4 Ni6 C8'
_cell_volume   201.54498385
_cell_formula_units_Z   2
loop_
 _symmetry_equiv_pos_site_id
 _symmetry_equiv_pos_as_xyz
  1  'x, y, z'
loop_
 _atom_site_type_symbol
 _atom_site_label
 _atom_site_symmetry_multiplicity
 _atom_site_fract_x
 _atom_site_fract_y
 _atom_site_fract_z
 _atom_site_occupancy
  Ni  Ni0  1  0.15122700  0.96459600  0.87258000  1
  Ni  Ni1  1  0.84877300  0.81337000  0.62742000  1
  Ni  Ni2  1  0.84877300  0.03540400  0.12742000  1
  Ni  Ni3  1  0.15122700  0.18663000  0.37258000  1
  Ni  Ni4  1  0.00000000  0.55547700  0.75000000  1
  Ni  Ni5  1  0.00000000  0.44452300  0.25000000  1
  Cu  Cu6  1  0.60228300  0.15904600  0.73225100  1
  Cu  Cu7  1  0.39771700  0.55676400  0.76774900  1
  Cu  Cu8  1  0.39771700  0.84095400  0.26774900  1
  Cu  Cu9  1  0.60228300  0.44323600  0.23225100  1
  C  C10  1  0.18509900  0.94152200  0.49902900  1
  C  C11  1  0.81490100  0.75642200  0.00097100  1
  C  C12  1  0.81490100  0.05847800  0.50097100  1
  C  C13  1  0.18509900  0.24357800  0.99902900  1
  C  C14  1  0.80743700  0.28694500  0.00068200  1
  C  C15  1  0.19256300  0.47950700  0.49931800  1
  C  C16  1  0.19256300  0.71305500  0.99931800  1
  C  C17  1  0.80743700  0.52049300  0.50068200  1
