# generated using pymatgen
data_CuNi3C8
_symmetry_space_group_name_H-M   'P 1'
_cell_length_a   3.55932983
_cell_length_b   3.55932983
_cell_length_c   40.10720000
_cell_angle_alpha   90.00000000
_cell_angle_beta   90.00000000
_cell_angle_gamma   119.99999677
_symmetry_Int_Tables_number   1
_chemical_formula_structural   CuNi3C8
_chemical_formula_sum   'Cu1 Ni3 C8'
_cell_volume   440.03726560
_cell_formula_units_Z   1
loop_
 _symmetry_equiv_pos_site_id
 _symmetry_equiv_pos_as_xyz
  1  'x, y, z'
loop_
 _atom_site_type_symbol
 _atom_site_label
 _atom_site_symmetry_multiplicity
 _atom_site_fract_x
 _atom_site_fract_y
 _atom_site_fract_z
 _atom_site_occupancy
  C  C0  1  0.00000000  0.00000000  0.32701300  1
  C  C1  1  0.00000000  0.00000000  0.70271100  1
  C  C2  1  0.33333300  0.66666700  0.04873200  1
  C  C3  1  0.33333300  0.66666700  0.42431000  1
  C  C4  1  0.33333300  0.66666700  0.13913900  1
  C  C5  1  0.33333300  0.66666700  0.51500200  1
  C  C6  1  0.00000000  0.00000000  0.23659100  1
  C  C7  1  0.00000000  0.00000000  0.61232500  1
  Ni  Ni8  1  0.00000000  0.00000000  0.09391200  1
  Ni  Ni9  1  0.33333300  0.66666700  0.28180200  1
  Ni  Ni10  1  0.33333300  0.66666700  0.65754400  1
  Cu  Cu11  1  0.00000000  0.00000000  0.46966700  1
