# generated using pymatgen
data_Cu8Ni2C13
_symmetry_space_group_name_H-M   'P 1'
_cell_length_a   10.57887300
_cell_length_b   6.49416200
_cell_length_c   12.90839468
_cell_angle_alpha   75.91570025
_cell_angle_beta   90.00000000
_cell_angle_gamma   90.00000000
_symmetry_Int_Tables_number   1
_chemical_formula_structural   Cu8Ni2C13
_chemical_formula_sum   'Cu32 Ni8 C52'
_cell_volume   860.15963902
_cell_formula_units_Z   4
loop_
 _symmetry_equiv_pos_site_id
 _symmetry_equiv_pos_as_xyz
  1  'x, y, z'
loop_
 _atom_site_type_symbol
 _atom_site_label
 _atom_site_symmetry_multiplicity
 _atom_site_fract_x
 _atom_site_fract_y
 _atom_site_fract_z
 _atom_site_occupancy
  C  C0  1  0.69807200  0.95211400  0.65399100  1
  C  C1  1  0.19807200  0.04788600  0.84600900  1
  C  C2  1  0.30192800  0.04788600  0.34600900  1
  C  C3  1  0.80192800  0.95211400  0.15399100  1
  C  C4  1  0.96809900  0.72713700  0.60698200  1
  C  C5  1  0.46809900  0.27286300  0.89301800  1
  C  C6  1  0.03190100  0.27286300  0.39301800  1
  C  C7  1  0.53190100  0.72713700  0.10698200  1
  C  C8  1  0.68829000  0.96242300  0.91848100  1
  C  C9  1  0.18829000  0.03757700  0.58151900  1
  C  C10  1  0.31171000  0.03757700  0.08151900  1
  C  C11  1  0.81171000  0.96242300  0.41848100  1
  C  C12  1  0.54311500  0.69537000  0.93151500  1
  C  C13  1  0.04311500  0.30463000  0.56848500  1
  C  C14  1  0.45688500  0.30463000  0.06848500  1
  C  C15  1  0.95688500  0.69537000  0.43151500  1
  C  C16  1  0.18614800  0.67900000  0.61072000  1
  C  C17  1  0.68614800  0.32100000  0.88928000  1
  C  C18  1  0.81385200  0.32100000  0.38928000  1
  C  C19  1  0.31385200  0.67900000  0.11072000  1
  C  C20  1  0.94559900  0.96876100  0.89829500  1
  C  C21  1  0.44559900  0.03123900  0.60170500  1
  C  C22  1  0.05440100  0.03123900  0.10170500  1
  C  C23  1  0.55440100  0.96876100  0.39829500  1
  C  C24  1  0.96661000  0.92021700  0.78487100  1
  C  C25  1  0.46661000  0.07978300  0.71512900  1
  C  C26  1  0.03339000  0.07978300  0.21512900  1
  C  C27  1  0.53339000  0.92021700  0.28487100  1
  C  C28  1  0.82819500  0.34894900  0.63411700  1
  C  C29  1  0.32819500  0.65105100  0.86588300  1
  C  C30  1  0.17180500  0.65105100  0.36588300  1
  C  C31  1  0.67180500  0.34894900  0.13411700  1
  C  C32  1  0.71935500  0.35845400  0.54753600  1
  C  C33  1  0.21935500  0.64154600  0.95246400  1
  C  C34  1  0.28064500  0.64154600  0.45246400  1
  C  C35  1  0.78064500  0.35845400  0.04753600  1
  C  C36  1  0.56315700  0.59980600  0.74018000  1
  C  C37  1  0.06315700  0.40019400  0.75982000  1
  C  C38  1  0.43684300  0.40019400  0.25982000  1
  C  C39  1  0.93684300  0.59980600  0.24018000  1
  C  C40  1  0.65770700  0.51657600  0.66350100  1
  C  C41  1  0.15770700  0.48342400  0.83649900  1
  C  C42  1  0.34229300  0.48342400  0.33649900  1
  C  C43  1  0.84229300  0.51657600  0.16350100  1
  C  C44  1  0.91410000  0.43873600  0.88840900  1
  C  C45  1  0.41410000  0.56126400  0.61159100  1
  C  C46  1  0.08590000  0.56126400  0.11159100  1
  C  C47  1  0.58590000  0.43873600  0.38840900  1
  C  C48  1  0.81178600  0.62261900  0.86751000  1
  C  C49  1  0.31178600  0.37738100  0.63249000  1
  C  C50  1  0.18821400  0.37738100  0.13249000  1
  C  C51  1  0.68821400  0.62261900  0.36751000  1
  Ni  Ni52  1  0.58235200  0.78405900  0.97996500  1
  Ni  Ni53  1  0.08235200  0.21594100  0.52003500  1
  Ni  Ni54  1  0.41764800  0.21594100  0.02003500  1
  Ni  Ni55  1  0.91764800  0.78405900  0.47996500  1
  Ni  Ni56  1  0.11954200  0.79680600  0.60844900  1
  Ni  Ni57  1  0.61954200  0.20319400  0.89155100  1
  Ni  Ni58  1  0.88045800  0.20319400  0.39155100  1
  Ni  Ni59  1  0.38045800  0.79680600  0.10844900  1
  Cu  Cu60  1  0.88916100  0.86055100  0.66429000  1
  Cu  Cu61  1  0.38916100  0.13944900  0.83571000  1
  Cu  Cu62  1  0.11083900  0.13944900  0.33571000  1
  Cu  Cu63  1  0.61083900  0.86055100  0.16429000  1
  Cu  Cu64  1  0.96753000  0.48581900  0.64834100  1
  Cu  Cu65  1  0.46753000  0.51418100  0.85165900  1
  Cu  Cu66  1  0.03247000  0.51418100  0.35165900  1
  Cu  Cu67  1  0.53247000  0.48581900  0.14834100  1
  Cu  Cu68  1  0.80123200  0.97647100  0.98949600  1
  Cu  Cu69  1  0.30123200  0.02352900  0.51050400  1
  Cu  Cu70  1  0.19876800  0.02352900  0.01050400  1
  Cu  Cu71  1  0.69876800  0.97647100  0.48949600  1
  Cu  Cu72  1  0.71942800  0.89738600  0.81622800  1
  Cu  Cu73  1  0.21942800  0.10261400  0.68377200  1
  Cu  Cu74  1  0.28057200  0.10261400  0.18377200  1
  Cu  Cu75  1  0.78057200  0.89738600  0.31622800  1
  Cu  Cu76  1  0.01106100  0.94616600  0.84780000  1
  Cu  Cu77  1  0.51106100  0.05383400  0.65220000  1
  Cu  Cu78  1  0.98893900  0.05383400  0.15220000  1
  Cu  Cu79  1  0.48893900  0.94616600  0.34780000  1
  Cu  Cu80  1  0.74240300  0.29357400  0.62304100  1
  Cu  Cu81  1  0.24240300  0.70642600  0.87695900  1
  Cu  Cu82  1  0.25759700  0.70642600  0.37695900  1
  Cu  Cu83  1  0.75759700  0.29357400  0.12304100  1
  Cu  Cu84  1  0.61152600  0.64366600  0.67201000  1
  Cu  Cu85  1  0.11152600  0.35633400  0.82799000  1
  Cu  Cu86  1  0.38847400  0.35633400  0.32799000  1
  Cu  Cu87  1  0.88847400  0.64366600  0.17201000  1
  Cu  Cu88  1  0.82871400  0.47544900  0.90738100  1
  Cu  Cu89  1  0.32871400  0.52455100  0.59261900  1
  Cu  Cu90  1  0.17128600  0.52455100  0.09261900  1
  Cu  Cu91  1  0.67128600  0.47544900  0.40738100  1
