# generated using pymatgen
data_Cu12NiC24
_symmetry_space_group_name_H-M   'P 1'
_cell_length_a   3.16203528
_cell_length_b   9.69294047
_cell_length_c   13.01704809
_cell_angle_alpha   88.67932937
_cell_angle_beta   89.99999762
_cell_angle_gamma   90.00000192
_symmetry_Int_Tables_number   1
_chemical_formula_structural   Cu12NiC24
_chemical_formula_sum   'Cu12 Ni1 C24'
_cell_volume   398.85898932
_cell_formula_units_Z   1
loop_
 _symmetry_equiv_pos_site_id
 _symmetry_equiv_pos_as_xyz
  1  'x, y, z'
loop_
 _atom_site_type_symbol
 _atom_site_label
 _atom_site_symmetry_multiplicity
 _atom_site_fract_x
 _atom_site_fract_y
 _atom_site_fract_z
 _atom_site_occupancy
  Ni  Ni0  1  0.49999993  0.21029439  0.03527515  1
  Cu  Cu1  1  0.50000002  0.00268301  0.23036800  1
  Cu  Cu2  1  0.50000008  0.98334989  0.76832599  1
  Cu  Cu3  1  0.50000010  0.49110919  0.72179365  1
  Cu  Cu4  1  0.50000008  0.52037910  0.28805621  1
  Cu  Cu5  1  0.49999999  0.99978630  0.49827806  1
  Cu  Cu6  1  0.49999994  0.51498200  0.99894925  1
  Cu  Cu7  1  0.00000002  0.25106277  0.39447547  1
  Cu  Cu8  1  0.99999997  0.74924918  0.60896143  1
  Cu  Cu9  1  0.00000005  0.25348466  0.85657350  1
  Cu  Cu10  1  0.99999990  0.74339171  0.12258957  1
  Cu  Cu11  1  0.00000009  0.96541610  0.98666914  1
  Cu  Cu12  1  0.00000006  0.49948883  0.50410907  1
  C  C13  1  0.00000005  0.29848105  0.16148722  1
  C  C14  1  0.99999994  0.71592724  0.85332443  1
  C  C15  1  0.00000005  0.21734371  0.63516611  1
  C  C16  1  0.00000001  0.78043683  0.36392586  1
  C  C17  1  0.99999988  0.35909480  0.06094795  1
  C  C18  1  0.99999997  0.65366455  0.95139737  1
  C  C19  1  0.00000004  0.15186259  0.54202362  1
  C  C20  1  1.00000000  0.84916937  0.45560504  1
  C  C21  1  0.00000022  0.15213579  0.15045938  1
  C  C22  1  0.00000011  0.86039471  0.84688253  1
  C  C23  1  0.00000010  0.36092924  0.64339782  1
  C  C24  1  0.00000005  0.63640253  0.36328439  1
  C  C25  1  0.50000002  0.12145628  0.36071956  1
  C  C26  1  0.49999997  0.87704568  0.63379619  1
  C  C27  1  0.50000007  0.38487326  0.86797777  1
  C  C28  1  0.49999992  0.61555921  0.14102583  1
  C  C29  1  0.00000013  0.36657094  0.24924419  1
  C  C30  1  0.99999988  0.64162496  0.76346116  1
  C  C31  1  0.00000003  0.13512738  0.72561448  1
  C  C32  1  0.00000001  0.85328932  0.26891055  1
  C  C33  1  0.50000004  0.39786847  0.42680599  1
  C  C34  1  0.50000009  0.60315487  0.57946257  1
  C  C35  1  0.50000022  0.09493257  0.91552581  1
  C  C36  1  0.49999998  0.89631250  0.08242171  1
