# generated using pymatgen
data_Cu2NiC16
_symmetry_space_group_name_H-M   'P 1'
_cell_length_a   5.75631263
_cell_length_b   5.90245985
_cell_length_c   13.07767900
_cell_angle_alpha   90.00000000
_cell_angle_beta   90.00000000
_cell_angle_gamma   108.27488227
_symmetry_Int_Tables_number   1
_chemical_formula_structural   Cu2NiC16
_chemical_formula_sum   'Cu4 Ni2 C32'
_cell_volume   421.92172461
_cell_formula_units_Z   2
loop_
 _symmetry_equiv_pos_site_id
 _symmetry_equiv_pos_as_xyz
  1  'x, y, z'
loop_
 _atom_site_type_symbol
 _atom_site_label
 _atom_site_symmetry_multiplicity
 _atom_site_fract_x
 _atom_site_fract_y
 _atom_site_fract_z
 _atom_site_occupancy
  C  C0  1  0.23125700  0.56319600  0.12289800  1
  C  C1  1  0.76874300  0.43680400  0.87710200  1
  C  C2  1  0.26874300  0.43680400  0.62289800  1
  C  C3  1  0.73125700  0.56319600  0.37710200  1
  Ni  Ni4  1  0.00000000  0.00000000  0.00000000  1
  Ni  Ni5  1  0.50000000  0.00000000  0.50000000  1
  Cu  Cu6  1  0.06311000  0.21970800  0.37935400  1
  Cu  Cu7  1  0.93689000  0.78029200  0.62064600  1
  Cu  Cu8  1  0.43689000  0.78029200  0.87935400  1
  Cu  Cu9  1  0.56311000  0.21970800  0.12064600  1
  C  C10  1  0.30012300  0.69913200  0.35183300  1
  C  C11  1  0.69987700  0.30086800  0.64816700  1
  C  C12  1  0.19987700  0.30086800  0.85183300  1
  C  C13  1  0.80012300  0.69913200  0.14816700  1
  C  C14  1  0.00055400  0.09561100  0.79361100  1
  C  C15  1  0.99944600  0.90438900  0.20638900  1
  C  C16  1  0.49944600  0.90438900  0.29361100  1
  C  C17  1  0.50055400  0.09561100  0.70638900  1
  C  C18  1  0.53258500  0.18532900  0.63813000  1
  C  C19  1  0.46741500  0.81467100  0.36187000  1
  C  C20  1  0.96741500  0.81467100  0.13813000  1
  C  C21  1  0.03258500  0.18532900  0.86187000  1
  C  C22  1  0.49365800  0.94628000  0.17660300  1
  C  C23  1  0.50634200  0.05372000  0.82339700  1
  C  C24  1  0.00634200  0.05372000  0.67660300  1
  C  C25  1  0.99365800  0.94628000  0.32339700  1
  C  C26  1  0.07809300  0.45025800  0.29520300  1
  C  C27  1  0.92190700  0.54974200  0.70479700  1
  C  C28  1  0.42190700  0.54974200  0.79520300  1
  C  C29  1  0.57809300  0.45025800  0.20479700  1
  C  C30  1  0.33324200  0.28488400  0.44835100  1
  C  C31  1  0.66675800  0.71511600  0.55164900  1
  C  C32  1  0.16675800  0.71511600  0.94835100  1
  C  C33  1  0.83324200  0.28488400  0.05164900  1
  C  C34  1  0.33423300  0.24177900  0.03821000  1
  C  C35  1  0.66576700  0.75822100  0.96179000  1
  C  C36  1  0.16576700  0.75822100  0.53821000  1
  C  C37  1  0.83423300  0.24177900  0.46179000  1
