# generated using pymatgen
data_Cu2NiC13
_symmetry_space_group_name_H-M   'P 1'
_cell_length_a   9.73710004
_cell_length_b   9.73710004
_cell_length_c   8.13220500
_cell_angle_alpha   90.00000000
_cell_angle_beta   90.00000000
_cell_angle_gamma   120.00000024
_symmetry_Int_Tables_number   1
_chemical_formula_structural   Cu2NiC13
_chemical_formula_sum   'Cu6 Ni3 C39'
_cell_volume   667.72588479
_cell_formula_units_Z   3
loop_
 _symmetry_equiv_pos_site_id
 _symmetry_equiv_pos_as_xyz
  1  'x, y, z'
loop_
 _atom_site_type_symbol
 _atom_site_label
 _atom_site_symmetry_multiplicity
 _atom_site_fract_x
 _atom_site_fract_y
 _atom_site_fract_z
 _atom_site_occupancy
  C  C0  1  0.67352500  0.67352500  0.50000000  1
  C  C1  1  0.32647500  0.00000000  0.50000000  1
  C  C2  1  0.00000000  0.32647500  0.50000000  1
  C  C3  1  0.69478600  0.02740200  0.24599800  1
  C  C4  1  0.97259800  0.66738400  0.24599800  1
  C  C5  1  0.30521400  0.33261600  0.75400200  1
  C  C6  1  0.33261600  0.30521400  0.24599800  1
  C  C7  1  0.02740200  0.69478600  0.75400200  1
  C  C8  1  0.66738400  0.97259800  0.75400200  1
  C  C9  1  0.63636000  0.63636000  0.00000000  1
  C  C10  1  0.36364000  0.00000000  0.00000000  1
  C  C11  1  0.00000000  0.36364000  0.00000000  1
  Ni  Ni12  1  0.66666700  0.33333300  0.76507600  1
  Ni  Ni13  1  0.33333300  0.66666700  0.23492400  1
  Ni  Ni14  1  0.00000000  0.00000000  0.00000000  1
  Cu  Cu15  1  0.66666700  0.33333300  0.42931800  1
  Cu  Cu16  1  0.33333300  0.66666700  0.57068200  1
  Cu  Cu17  1  0.00000000  0.00000000  0.33834000  1
  Cu  Cu18  1  0.00000000  0.00000000  0.66166000  1
  Cu  Cu19  1  0.66666700  0.33333300  0.10532300  1
  Cu  Cu20  1  0.33333300  0.66666700  0.89467700  1
  C  C21  1  0.84253400  0.34999700  0.26587600  1
  C  C22  1  0.65000300  0.49253700  0.26587600  1
  C  C23  1  0.15746600  0.50746300  0.73412400  1
  C  C24  1  0.50746300  0.15746600  0.26587600  1
  C  C25  1  0.34999700  0.84253400  0.73412400  1
  C  C26  1  0.49253700  0.65000300  0.73412400  1
  C  C27  1  0.16374500  0.16374500  0.50000000  1
  C  C28  1  0.83625500  0.00000000  0.50000000  1
  C  C29  1  0.00000000  0.83625500  0.50000000  1
  C  C30  1  0.00730600  0.16186100  0.17578100  1
  C  C31  1  0.83813900  0.84544600  0.17578100  1
  C  C32  1  0.99269400  0.15455400  0.82421900  1
  C  C33  1  0.15455400  0.99269400  0.17578100  1
  C  C34  1  0.16186100  0.00730600  0.82421900  1
  C  C35  1  0.84544600  0.83813900  0.82421900  1
  C  C36  1  0.31804100  0.50449800  0.40872500  1
  C  C37  1  0.49550200  0.81354300  0.40872500  1
  C  C38  1  0.68195900  0.18645700  0.59127500  1
  C  C39  1  0.18645700  0.68195900  0.40872500  1
  C  C40  1  0.50449800  0.31804100  0.59127500  1
  C  C41  1  0.81354300  0.49550200  0.59127500  1
  C  C42  1  0.31844000  0.49989000  0.05543800  1
  C  C43  1  0.50011000  0.81855000  0.05543800  1
  C  C44  1  0.68156000  0.18145000  0.94456200  1
  C  C45  1  0.18145000  0.68156000  0.05543800  1
  C  C46  1  0.49989000  0.31844000  0.94456200  1
  C  C47  1  0.81855000  0.50011000  0.94456200  1
