# generated using pymatgen
data_Cu2NiC4
_symmetry_space_group_name_H-M   'P 1'
_cell_length_a   2.94003500
_cell_length_b   8.99943900
_cell_length_c   10.44370500
_cell_angle_alpha   90.00000000
_cell_angle_beta   90.00000000
_cell_angle_gamma   90.00000000
_symmetry_Int_Tables_number   1
_chemical_formula_structural   Cu2NiC4
_chemical_formula_sum   'Cu8 Ni4 C16'
_cell_volume   276.32649864
_cell_formula_units_Z   4
loop_
 _symmetry_equiv_pos_site_id
 _symmetry_equiv_pos_as_xyz
  1  'x, y, z'
loop_
 _atom_site_type_symbol
 _atom_site_label
 _atom_site_symmetry_multiplicity
 _atom_site_fract_x
 _atom_site_fract_y
 _atom_site_fract_z
 _atom_site_occupancy
  Ni  Ni0  1  0.50000000  0.24867600  0.40706700  1
  Ni  Ni1  1  0.00000000  0.75460700  0.09934500  1
  Ni  Ni2  1  0.50000000  0.74867600  0.59293300  1
  Ni  Ni3  1  0.00000000  0.25460700  0.90065500  1
  Cu  Cu4  1  0.00000000  0.41729500  0.64622400  1
  Cu  Cu5  1  0.50000000  0.08288800  0.15028300  1
  Cu  Cu6  1  0.00000000  0.91729500  0.35377600  1
  Cu  Cu7  1  0.50000000  0.58288800  0.84971700  1
  Cu  Cu8  1  0.50000000  0.56779800  0.36737800  1
  Cu  Cu9  1  0.00000000  0.43328900  0.13488000  1
  Cu  Cu10  1  0.50000000  0.06779800  0.63262200  1
  Cu  Cu11  1  0.00000000  0.93328900  0.86512000  1
  C  C12  1  0.00000000  0.90892200  0.67450400  1
  C  C13  1  0.50000000  0.09160800  0.82462500  1
  C  C14  1  0.00000000  0.40892200  0.32549600  1
  C  C15  1  0.50000000  0.59160800  0.17537500  1
  C  C16  1  0.00000000  0.02620900  0.03659300  1
  C  C17  1  0.50000000  0.96732600  0.46422100  1
  C  C18  1  0.00000000  0.52620900  0.96340700  1
  C  C19  1  0.50000000  0.46732600  0.53577900  1
  C  C20  1  0.00000000  0.62324800  0.71183700  1
  C  C21  1  0.50000000  0.37407900  0.77372900  1
  C  C22  1  0.00000000  0.12324800  0.28816300  1
  C  C23  1  0.50000000  0.87407900  0.22627100  1
  C  C24  1  0.50000000  0.79191400  0.93129800  1
  C  C25  1  0.00000000  0.21194900  0.57024900  1
  C  C26  1  0.00000000  0.71194900  0.42975100  1
  C  C27  1  0.50000000  0.29191400  0.06870200  1
