# generated using pymatgen
data_Cu3(NiC12)2
_symmetry_space_group_name_H-M   'P 1'
_cell_length_a   9.42219384
_cell_length_b   9.42219384
_cell_length_c   10.27548400
_cell_angle_alpha   90.00000000
_cell_angle_beta   90.00000000
_cell_angle_gamma   116.47688036
_symmetry_Int_Tables_number   1
_chemical_formula_structural   Cu3(NiC12)2
_chemical_formula_sum   'Cu6 Ni4 C48'
_cell_volume   816.55392131
_cell_formula_units_Z   2
loop_
 _symmetry_equiv_pos_site_id
 _symmetry_equiv_pos_as_xyz
  1  'x, y, z'
loop_
 _atom_site_type_symbol
 _atom_site_label
 _atom_site_symmetry_multiplicity
 _atom_site_fract_x
 _atom_site_fract_y
 _atom_site_fract_z
 _atom_site_occupancy
  Ni  Ni0  1  0.79576600  0.20423400  0.75000000  1
  Ni  Ni1  1  0.20423400  0.79576600  0.25000000  1
  Ni  Ni2  1  0.20423400  0.79576600  0.75000000  1
  Ni  Ni3  1  0.79576600  0.20423400  0.25000000  1
  Cu  Cu4  1  0.00000000  0.50000000  0.73816000  1
  Cu  Cu5  1  0.00000000  0.50000000  0.26184000  1
  Cu  Cu6  1  0.50000000  0.00000000  0.76184000  1
  Cu  Cu7  1  0.50000000  0.00000000  0.23816000  1
  Cu  Cu8  1  0.00000000  0.00000000  0.75000000  1
  Cu  Cu9  1  0.00000000  0.00000000  0.25000000  1
  C  C10  1  0.36530000  0.79034400  0.50000000  1
  C  C11  1  0.63470000  0.20965600  0.50000000  1
  C  C12  1  0.20965600  0.63470000  0.00000000  1
  C  C13  1  0.79034400  0.36530000  0.00000000  1
  C  C14  1  0.72189200  0.84023600  0.50000000  1
  C  C15  1  0.27810800  0.15976400  0.50000000  1
  C  C16  1  0.15976400  0.27810800  0.00000000  1
  C  C17  1  0.84023600  0.72189200  0.00000000  1
  C  C18  1  0.11153900  0.38145400  0.50000000  1
  C  C19  1  0.88846100  0.61854600  0.50000000  1
  C  C20  1  0.61854600  0.88846100  0.00000000  1
  C  C21  1  0.38145400  0.11153900  0.00000000  1
  C  C22  1  0.78212600  0.41403100  0.68831900  1
  C  C23  1  0.21787400  0.58596900  0.31168100  1
  C  C24  1  0.21787400  0.58596900  0.68831900  1
  C  C25  1  0.58596900  0.21787400  0.81168100  1
  C  C26  1  0.78212600  0.41403100  0.31168100  1
  C  C27  1  0.41403100  0.78212600  0.18831900  1
  C  C28  1  0.41403100  0.78212600  0.81168100  1
  C  C29  1  0.58596900  0.21787400  0.18831900  1
  C  C30  1  0.90187300  0.35625000  0.88107600  1
  C  C31  1  0.09812700  0.64375000  0.11892400  1
  C  C32  1  0.09812700  0.64375000  0.88107600  1
  C  C33  1  0.64375000  0.09812700  0.61892400  1
  C  C34  1  0.90187300  0.35625000  0.11892400  1
  C  C35  1  0.35625000  0.90187300  0.38107600  1
  C  C36  1  0.35625000  0.90187300  0.61892400  1
  C  C37  1  0.64375000  0.09812700  0.38107600  1
  C  C38  1  0.52797600  0.76736700  0.50000000  1
  C  C39  1  0.47202400  0.23263300  0.50000000  1
  C  C40  1  0.23263300  0.47202400  0.00000000  1
  C  C41  1  0.76736700  0.52797600  0.00000000  1
  C  C42  1  0.00277400  0.32158700  0.63300200  1
  C  C43  1  0.99722600  0.67841300  0.36699800  1
  C  C44  1  0.99722600  0.67841300  0.63300200  1
  C  C45  1  0.67841300  0.99722600  0.86699800  1
  C  C46  1  0.00277400  0.32158700  0.36699800  1
  C  C47  1  0.32158700  0.00277400  0.13300200  1
  C  C48  1  0.32158700  0.00277400  0.86699800  1
  C  C49  1  0.67841300  0.99722600  0.13300200  1
  C  C50  1  0.78618800  0.40948400  0.50000000  1
  C  C51  1  0.21381200  0.59051600  0.50000000  1
  C  C52  1  0.59051600  0.21381200  0.00000000  1
  C  C53  1  0.40948400  0.78618800  0.00000000  1
  C  C54  1  0.24864400  0.31847900  0.50000000  1
  C  C55  1  0.75135600  0.68152100  0.50000000  1
  C  C56  1  0.68152100  0.75135600  0.00000000  1
  C  C57  1  0.31847900  0.24864400  0.00000000  1
