# generated using pymatgen
data_Cu4Ni8C21
_symmetry_space_group_name_H-M   'P 1'
_cell_length_a   11.36160535
_cell_length_b   12.04473530
_cell_length_c   3.94912645
_cell_angle_alpha   90.00000000
_cell_angle_beta   90.00000000
_cell_angle_gamma   90.06573950
_symmetry_Int_Tables_number   1
_chemical_formula_structural   Cu4Ni8C21
_chemical_formula_sum   'Cu4 Ni8 C21'
_cell_volume   540.42784074
_cell_formula_units_Z   1
loop_
 _symmetry_equiv_pos_site_id
 _symmetry_equiv_pos_as_xyz
  1  'x, y, z'
loop_
 _atom_site_type_symbol
 _atom_site_label
 _atom_site_symmetry_multiplicity
 _atom_site_fract_x
 _atom_site_fract_y
 _atom_site_fract_z
 _atom_site_occupancy
  Ni  Ni0  1  0.10696350  0.70255904  0.25000000  1
  Ni  Ni1  1  0.14129762  0.06660940  0.25000000  1
  Ni  Ni2  1  0.36097643  0.55604977  0.75000000  1
  Ni  Ni3  1  0.39429441  0.22002024  0.75000000  1
  Ni  Ni4  1  0.58397594  0.77420041  0.25000000  1
  Ni  Ni5  1  0.63187284  0.44054840  0.25000000  1
  Ni  Ni6  1  0.87777161  0.97924289  0.75000000  1
  Ni  Ni7  1  0.88759227  0.28178299  0.75000000  1
  Cu  Cu8  1  0.17692092  0.37691583  0.25000000  1
  Cu  Cu9  1  0.31372738  0.87617033  0.75000000  1
  Cu  Cu10  1  0.68091169  0.12000604  0.25000000  1
  Cu  Cu11  1  0.83489469  0.61394611  0.75000000  1
  C  C12  1  0.83891971  0.79859794  0.25000000  1
  C  C13  1  0.02911181  0.11293418  0.75000000  1
  C  C14  1  0.01042567  0.33888131  0.25000000  1
  C  C15  1  0.23225855  0.72683137  0.75000000  1
  C  C16  1  0.23256422  0.53831154  0.25000000  1
  C  C17  1  0.23566206  0.38128580  0.75000000  1
  C  C18  1  0.25953056  0.88141165  0.25000000  1
  C  C19  1  0.28052251  0.04164121  0.75000000  1
  C  C20  1  0.26585783  0.23085723  0.25000000  1
  C  C21  1  0.48103554  0.82957048  0.75000000  1
  C  C22  1  0.48709931  0.60788531  0.25000000  1
  C  C23  1  0.50297611  0.40094238  0.75000000  1
  C  C24  1  0.51285400  0.15927168  0.25000000  1
  C  C25  1  0.77765662  0.77938227  0.75000000  1
  C  C26  1  0.72529406  0.94865135  0.25000000  1
  C  C27  1  0.73022963  0.12240081  0.75000000  1
  C  C28  1  0.74725039  0.62726570  0.25000000  1
  C  C29  1  0.77096968  0.45818657  0.75000000  1
  C  C30  1  0.75011810  0.27710465  0.25000000  1
  C  C31  1  0.00608920  0.61276419  0.75000000  1
  C  C32  1  0.98356514  0.89554895  0.25000000  1
