# generated using pymatgen
data_Cu18Ni3C16
_symmetry_space_group_name_H-M   'P 1'
_cell_length_a   17.60245448
_cell_length_b   17.60245448
_cell_length_c   2.96924600
_cell_angle_alpha   90.00000000
_cell_angle_beta   90.00000000
_cell_angle_gamma   90.32620042
_symmetry_Int_Tables_number   1
_chemical_formula_structural   Cu18Ni3C16
_chemical_formula_sum   'Cu36 Ni6 C32'
_cell_volume   919.99528489
_cell_formula_units_Z   2
loop_
 _symmetry_equiv_pos_site_id
 _symmetry_equiv_pos_as_xyz
  1  'x, y, z'
loop_
 _atom_site_type_symbol
 _atom_site_label
 _atom_site_symmetry_multiplicity
 _atom_site_fract_x
 _atom_site_fract_y
 _atom_site_fract_z
 _atom_site_occupancy
  C  C0  1  0.69813700  0.30186300  0.00000000  1
  C  C1  1  0.30186300  0.69813700  0.00000000  1
  C  C2  1  0.19896800  0.19896800  0.00000000  1
  C  C3  1  0.80103200  0.80103200  0.00000000  1
  C  C4  1  0.46569300  0.18545000  0.00000000  1
  C  C5  1  0.53430700  0.81455000  0.00000000  1
  C  C6  1  0.96501300  0.31310500  0.00000000  1
  C  C7  1  0.03498700  0.68689500  0.00000000  1
  C  C8  1  0.68689500  0.03498700  0.00000000  1
  C  C9  1  0.31310500  0.96501300  0.00000000  1
  C  C10  1  0.81455000  0.53430700  0.00000000  1
  C  C11  1  0.18545000  0.46569300  0.00000000  1
  C  C12  1  0.82849900  0.17150100  0.00000000  1
  C  C13  1  0.17150100  0.82849900  0.00000000  1
  C  C14  1  0.50000000  0.00000000  0.00000000  1
  C  C15  1  0.00000000  0.50000000  0.00000000  1
  Ni  Ni16  1  0.45279700  0.45279700  0.00000000  1
  Ni  Ni17  1  0.54720300  0.54720300  0.00000000  1
  Ni  Ni18  1  0.95402200  0.04597800  0.00000000  1
  Ni  Ni19  1  0.04597800  0.95402200  0.00000000  1
  Ni  Ni20  1  0.32875100  0.32875100  0.00000000  1
  Ni  Ni21  1  0.67124900  0.67124900  0.00000000  1
  C  C22  1  0.62118200  0.16999600  0.00000000  1
  C  C23  1  0.37881800  0.83000400  0.00000000  1
  C  C24  1  0.12174800  0.33023300  0.00000000  1
  C  C25  1  0.87825200  0.66976700  0.00000000  1
  C  C26  1  0.66976700  0.87825200  0.00000000  1
  C  C27  1  0.33023300  0.12174800  0.00000000  1
  C  C28  1  0.83000400  0.37881800  0.00000000  1
  C  C29  1  0.16999600  0.62118200  0.00000000  1
  C  C30  1  0.53672100  0.33608900  0.00000000  1
  C  C31  1  0.46327900  0.66391100  0.00000000  1
  C  C32  1  0.03656700  0.16402600  0.00000000  1
  C  C33  1  0.96343300  0.83597400  0.00000000  1
  C  C34  1  0.83597400  0.96343300  0.00000000  1
  C  C35  1  0.16402600  0.03656700  0.00000000  1
  C  C36  1  0.66391100  0.46327900  0.00000000  1
  C  C37  1  0.33608900  0.53672100  0.00000000  1
  Cu  Cu38  1  0.57975100  0.42024900  0.50000000  1
  Cu  Cu39  1  0.42024900  0.57975100  0.50000000  1
  Cu  Cu40  1  0.08086200  0.08086200  0.50000000  1
  Cu  Cu41  1  0.91913800  0.91913800  0.50000000  1
  Cu  Cu42  1  0.56907200  0.09764400  0.50000000  1
  Cu  Cu43  1  0.43092800  0.90235600  0.50000000  1
  Cu  Cu44  1  0.07037500  0.40149600  0.50000000  1
  Cu  Cu45  1  0.92962500  0.59850400  0.50000000  1
  Cu  Cu46  1  0.59850400  0.92962500  0.50000000  1
  Cu  Cu47  1  0.40149600  0.07037500  0.50000000  1
  Cu  Cu48  1  0.90235600  0.43092800  0.50000000  1
  Cu  Cu49  1  0.09764400  0.56907200  0.50000000  1
  Cu  Cu50  1  0.44727000  0.33195000  0.50000000  1
  Cu  Cu51  1  0.55273000  0.66805000  0.50000000  1
  Cu  Cu52  1  0.94907000  0.16757900  0.50000000  1
  Cu  Cu53  1  0.05093000  0.83242100  0.50000000  1
  Cu  Cu54  1  0.83242100  0.05093000  0.50000000  1
  Cu  Cu55  1  0.16757900  0.94907000  0.50000000  1
  Cu  Cu56  1  0.66805000  0.55273000  0.50000000  1
  Cu  Cu57  1  0.33195000  0.44727000  0.50000000  1
  Cu  Cu58  1  0.58024600  0.25512900  0.50000000  1
  Cu  Cu59  1  0.41975400  0.74487100  0.50000000  1
  Cu  Cu60  1  0.08355100  0.24507900  0.50000000  1
  Cu  Cu61  1  0.91644900  0.75492100  0.50000000  1
  Cu  Cu62  1  0.75492100  0.91644900  0.50000000  1
  Cu  Cu63  1  0.24507900  0.08355100  0.50000000  1
  Cu  Cu64  1  0.74487100  0.41975400  0.50000000  1
  Cu  Cu65  1  0.25512900  0.58024600  0.50000000  1
  Cu  Cu66  1  0.71038500  0.16756900  0.50000000  1
  Cu  Cu67  1  0.28961500  0.83243100  0.50000000  1
  Cu  Cu68  1  0.21403900  0.33379400  0.50000000  1
  Cu  Cu69  1  0.78596100  0.66620600  0.50000000  1
  Cu  Cu70  1  0.66620600  0.78596100  0.50000000  1
  Cu  Cu71  1  0.33379400  0.21403900  0.50000000  1
  Cu  Cu72  1  0.83243100  0.28961500  0.50000000  1
  Cu  Cu73  1  0.16756900  0.71038500  0.50000000  1
