# generated using pymatgen
data_Cu2Ni4C11
_symmetry_space_group_name_H-M   'P 1'
_cell_length_a   7.07067498
_cell_length_b   8.76335442
_cell_length_c   10.60492293
_cell_angle_alpha   113.84521946
_cell_angle_beta   101.89072092
_cell_angle_gamma   93.75176547
_symmetry_Int_Tables_number   1
_chemical_formula_structural   Cu2Ni4C11
_chemical_formula_sum   'Cu4 Ni8 C22'
_cell_volume   579.94678153
_cell_formula_units_Z   2
loop_
 _symmetry_equiv_pos_site_id
 _symmetry_equiv_pos_as_xyz
  1  'x, y, z'
loop_
 _atom_site_type_symbol
 _atom_site_label
 _atom_site_symmetry_multiplicity
 _atom_site_fract_x
 _atom_site_fract_y
 _atom_site_fract_z
 _atom_site_occupancy
  C  C0  1  0.00000000  0.00000000  0.00000000  1
  C  C1  1  0.50000000  0.00000000  0.50000000  1
  Ni  Ni2  1  0.38286400  0.02378900  0.15029800  1
  Ni  Ni3  1  0.61713600  0.97621100  0.84970200  1
  Ni  Ni4  1  0.27048000  0.80052000  0.04815300  1
  Ni  Ni5  1  0.72952000  0.19948000  0.95184700  1
  Ni  Ni6  1  0.47006900  0.66313000  0.36702800  1
  Ni  Ni7  1  0.52993100  0.33687000  0.63297300  1
  Ni  Ni8  1  0.25445600  0.70620000  0.34417400  1
  Ni  Ni9  1  0.74554500  0.29380000  0.65582600  1
  Cu  Cu10  1  0.95073600  0.23997900  0.30306000  1
  Cu  Cu11  1  0.04926400  0.76002100  0.69694000  1
  Cu  Cu12  1  0.78320000  0.61049900  0.06523800  1
  Cu  Cu13  1  0.21680000  0.38950100  0.93476200  1
  C  C14  1  0.53471900  0.04969300  0.23842300  1
  C  C15  1  0.46528100  0.95030700  0.76157700  1
  C  C16  1  0.94109200  0.08779200  0.24404700  1
  C  C17  1  0.05890800  0.91220800  0.75595300  1
  C  C18  1  0.27386400  0.10858700  0.10560700  1
  C  C19  1  0.72613600  0.89141300  0.89439300  1
  C  C20  1  0.38083300  0.70175100  0.05158700  1
  C  C21  1  0.61916700  0.29824900  0.94841300  1
  C  C22  1  0.90729600  0.20727900  0.00764600  1
  C  C23  1  0.09270400  0.79272100  0.99235400  1
  C  C24  1  0.60156800  0.79990500  0.44388700  1
  C  C25  1  0.39843200  0.20009500  0.55611300  1
  C  C26  1  0.25435000  0.86964300  0.39948900  1
  C  C27  1  0.74565000  0.13035700  0.60051100  1
  C  C28  1  0.10963200  0.59687500  0.28115100  1
  C  C29  1  0.89036800  0.40312500  0.71884900  1
  C  C30  1  0.50347300  0.51900900  0.31760100  1
  C  C31  1  0.49652700  0.48099100  0.68239900  1
  C  C32  1  0.87895500  0.33483200  0.39018000  1
  C  C33  1  0.12104500  0.66516800  0.60982000  1
