# generated using pymatgen
data_Cu9(Ni7C3)4
_symmetry_space_group_name_H-M   'P 1'
_cell_length_a   9.98588096
_cell_length_b   14.12491017
_cell_length_c   19.47240607
_cell_angle_alpha   90.00000000
_cell_angle_beta   90.00000000
_cell_angle_gamma   90.00000000
_symmetry_Int_Tables_number   1
_chemical_formula_structural   Cu9(Ni7C3)4
_chemical_formula_sum   'Cu36 Ni112 C48'
_cell_volume   2746.57648004
_cell_formula_units_Z   4
loop_
 _symmetry_equiv_pos_site_id
 _symmetry_equiv_pos_as_xyz
  1  'x, y, z'
loop_
 _atom_site_type_symbol
 _atom_site_label
 _atom_site_symmetry_multiplicity
 _atom_site_fract_x
 _atom_site_fract_y
 _atom_site_fract_z
 _atom_site_occupancy
  C  C0  1  0.06609493  0.33461334  0.18008939  1
  C  C1  1  0.56609493  0.66538666  0.81991061  1
  C  C2  1  0.56609493  0.83461334  0.31991061  1
  C  C3  1  0.06609493  0.16538666  0.68008939  1
  C  C4  1  0.45435173  0.12959050  0.80917547  1
  C  C5  1  0.95435173  0.87040950  0.19082453  1
  C  C6  1  0.95435173  0.62959050  0.69082453  1
  C  C7  1  0.45435173  0.37040950  0.30917547  1
  C  C8  1  0.75498287  0.35150988  0.95500109  1
  C  C9  1  0.25498287  0.64849012  0.04499891  1
  C  C10  1  0.25498287  0.85150988  0.54499891  1
  C  C11  1  0.75498287  0.14849012  0.45500109  1
  C  C12  1  0.53654438  0.04250271  0.89098057  1
  C  C13  1  0.03654438  0.95749729  0.10901943  1
  C  C14  1  0.03654438  0.54250271  0.60901943  1
  C  C15  1  0.53654438  0.45749729  0.39098057  1
  C  C16  1  0.42927564  0.25314584  0.96797959  1
  C  C17  1  0.92927564  0.74685416  0.03202041  1
  C  C18  1  0.92927564  0.75314584  0.53202041  1
  C  C19  1  0.42927564  0.24685416  0.46797959  1
  C  C20  1  0.40360093  0.09640897  0.97325395  1
  C  C21  1  0.90360093  0.90359103  0.02674605  1
  C  C22  1  0.90360093  0.59640897  0.52674605  1
  C  C23  1  0.40360093  0.40359103  0.47325395  1
  C  C24  1  0.73564298  0.10823775  0.91778975  1
  C  C25  1  0.23564298  0.89176225  0.08221025  1
  C  C26  1  0.23564298  0.60823775  0.58221025  1
  C  C27  1  0.73564298  0.39176225  0.41778975  1
  C  C28  1  0.71687049  0.25503394  0.87076967  1
  C  C29  1  0.21687049  0.74496606  0.12923033  1
  C  C30  1  0.21687049  0.75503394  0.62923033  1
  C  C31  1  0.71687049  0.24496606  0.37076967  1
  C  C32  1  0.71583662  0.14197625  0.03061850  1
  C  C33  1  0.21583662  0.85802375  0.96938150  1
  C  C34  1  0.21583662  0.64197625  0.46938150  1
  C  C35  1  0.71583662  0.35802375  0.53061850  1
  C  C36  1  0.49657483  0.26560162  0.85600885  1
  C  C37  1  0.99657483  0.73439838  0.14399115  1
  C  C38  1  0.99657483  0.76560162  0.64399115  1
  C  C39  1  0.49657483  0.23439838  0.35600885  1
  C  C40  1  0.62110205  0.28303636  0.02817855  1
  C  C41  1  0.12110205  0.71696364  0.97182145  1
  C  C42  1  0.12110205  0.78303636  0.47182145  1
  C  C43  1  0.62110205  0.21696364  0.52817855  1
  C  C44  1  0.52863141  0.07252422  0.06579687  1
  C  C45  1  0.02863141  0.92747578  0.93420313  1
  C  C46  1  0.02863141  0.57252422  0.43420313  1
  C  C47  1  0.52863141  0.42747578  0.56579687  1
  Ni  Ni48  1  0.56258648  0.97731486  0.04811928  1
  Ni  Ni49  1  0.06258648  0.02268514  0.95188072  1
  Ni  Ni50  1  0.06258648  0.47731486  0.45188072  1
  Ni  Ni51  1  0.56258648  0.52268514  0.54811928  1
  Ni  Ni52  1  0.90841589  0.15853468  0.25364278  1
  Ni  Ni53  1  0.40841589  0.84146532  0.74635722  1
  Ni  Ni54  1  0.40841589  0.65853468  0.24635722  1
  Ni  Ni55  1  0.90841589  0.34146532  0.75364278  1
  Ni  Ni56  1  0.80742719  0.19285807  0.19318348  1
  Ni  Ni57  1  0.30742719  0.80714193  0.80681652  1
  Ni  Ni58  1  0.30742719  0.69285807  0.30681652  1
  Ni  Ni59  1  0.80742719  0.30714193  0.69318348  1
  Ni  Ni60  1  0.92832277  0.11897829  0.17415755  1
  Ni  Ni61  1  0.42832277  0.88102171  0.82584245  1
  Ni  Ni62  1  0.42832277  0.61897829  0.32584245  1
  Ni  Ni63  1  0.92832277  0.38102171  0.67415755  1
  Ni  Ni64  1  0.99337799  0.26485500  0.02393396  1
  Ni  Ni65  1  0.49337799  0.73514500  0.97606604  1
  Ni  Ni66  1  0.49337799  0.76485500  0.47606604  1
  Ni  Ni67  1  0.99337799  0.23514500  0.52393396  1
  Ni  Ni68  1  0.15544940  0.24440738  0.03052392  1
  Ni  Ni69  1  0.65544940  0.75559262  0.96947608  1
  Ni  Ni70  1  0.65544940  0.74440738  0.46947608  1
  Ni  Ni71  1  0.15544940  0.25559262  0.53052392  1
  Ni  Ni72  1  0.04660075  0.16898774  0.06232613  1
  Ni  Ni73  1  0.54660075  0.83101226  0.93767387  1
  Ni  Ni74  1  0.54660075  0.66898774  0.43767387  1
  Ni  Ni75  1  0.04660075  0.33101226  0.56232613  1
  Ni  Ni76  1  0.92538348  0.52255059  0.10115302  1
  Ni  Ni77  1  0.42538348  0.47744941  0.89884698  1
  Ni  Ni78  1  0.42538348  0.02255059  0.39884698  1
  Ni  Ni79  1  0.92538348  0.97744941  0.60115302  1
  Ni  Ni80  1  0.06606147  0.50288183  0.06223391  1
  Ni  Ni81  1  0.56606147  0.49711817  0.93776609  1
  Ni  Ni82  1  0.56606147  0.00288183  0.43776609  1
  Ni  Ni83  1  0.06606147  0.99711817  0.56223391  1
  Ni  Ni84  1  0.93274986  0.43807899  0.04395004  1
  Ni  Ni85  1  0.43274986  0.56192101  0.95604996  1
  Ni  Ni86  1  0.43274986  0.93807899  0.45604996  1
  Ni  Ni87  1  0.93274986  0.06192101  0.54395004  1
  Ni  Ni88  1  0.79025155  0.39974422  0.26551141  1
  Ni  Ni89  1  0.29025155  0.60025578  0.73448859  1
  Ni  Ni90  1  0.29025155  0.89974422  0.23448859  1
  Ni  Ni91  1  0.79025155  0.10025578  0.76551141  1
  Ni  Ni92  1  0.80366846  0.46841550  0.19766769  1
  Ni  Ni93  1  0.30366846  0.53158450  0.80233231  1
  Ni  Ni94  1  0.30366846  0.96841550  0.30233231  1
  Ni  Ni95  1  0.80366846  0.03158450  0.69766769  1
  Ni  Ni96  1  0.73343446  0.36466961  0.19173490  1
  Ni  Ni97  1  0.23343446  0.63533039  0.80826510  1
  Ni  Ni98  1  0.23343446  0.86466961  0.30826510  1
  Ni  Ni99  1  0.73343446  0.13533039  0.69173490  1
  Ni  Ni100  1  0.17885354  0.33440806  0.33598582  1
  Ni  Ni101  1  0.67885354  0.66559194  0.66401418  1
  Ni  Ni102  1  0.67885354  0.83440806  0.16401418  1
  Ni  Ni103  1  0.17885354  0.16559194  0.83598582  1
  Ni  Ni104  1  0.01573463  0.34386131  0.34922255  1
  Ni  Ni105  1  0.51573463  0.65613869  0.65077745  1
  Ni  Ni106  1  0.51573463  0.84386131  0.15077745  1
  Ni  Ni107  1  0.01573463  0.15613869  0.84922255  1
  Ni  Ni108  1  0.08516798  0.24003316  0.33976257  1
  Ni  Ni109  1  0.58516798  0.75996684  0.66023743  1
  Ni  Ni110  1  0.58516798  0.74003316  0.16023743  1
  Ni  Ni111  1  0.08516798  0.25996684  0.83976257  1
  Ni  Ni112  1  0.32202118  0.17894985  0.16452816  1
  Ni  Ni113  1  0.82202118  0.82105015  0.83547184  1
  Ni  Ni114  1  0.82202118  0.67894985  0.33547184  1
  Ni  Ni115  1  0.32202118  0.32105015  0.66452816  1
  Ni  Ni116  1  0.29742682  0.18865509  0.24728657  1
  Ni  Ni117  1  0.79742682  0.81134491  0.75271343  1
  Ni  Ni118  1  0.79742682  0.68865509  0.25271343  1
  Ni  Ni119  1  0.29742682  0.31134491  0.74728657  1
  Ni  Ni120  1  0.19888025  0.12141893  0.20005245  1
  Ni  Ni121  1  0.69888025  0.87858107  0.79994755  1
  Ni  Ni122  1  0.69888025  0.62141893  0.29994755  1
  Ni  Ni123  1  0.19888025  0.37858107  0.70005245  1
  Ni  Ni124  1  0.29584586  0.46148687  0.10347680  1
  Ni  Ni125  1  0.79584586  0.53851313  0.89652320  1
  Ni  Ni126  1  0.79584586  0.96148687  0.39652320  1
  Ni  Ni127  1  0.29584586  0.03851313  0.60347680  1
  Ni  Ni128  1  0.36994200  0.41193205  0.17014222  1
  Ni  Ni129  1  0.86994200  0.58806795  0.82985778  1
  Ni  Ni130  1  0.86994200  0.91193205  0.32985778  1
  Ni  Ni131  1  0.36994200  0.08806795  0.67014222  1
  Ni  Ni132  1  0.35956212  0.35517009  0.09709786  1
  Ni  Ni133  1  0.85956212  0.64482991  0.90290214  1
  Ni  Ni134  1  0.85956212  0.85517009  0.40290214  1
  Ni  Ni135  1  0.35956212  0.14482991  0.59709786  1
  Ni  Ni136  1  0.20287957  0.49777996  0.27344172  1
  Ni  Ni137  1  0.70287957  0.50222004  0.72655828  1
  Ni  Ni138  1  0.70287957  0.99777996  0.22655828  1
  Ni  Ni139  1  0.20287957  0.00222004  0.77344172  1
  Ni  Ni140  1  0.14283127  0.55867472  0.20813604  1
  Ni  Ni141  1  0.64283127  0.44132528  0.79186396  1
  Ni  Ni142  1  0.64283127  0.05867472  0.29186396  1
  Ni  Ni143  1  0.14283127  0.94132528  0.70813604  1
  Ni  Ni144  1  0.04768716  0.53467221  0.27407223  1
  Ni  Ni145  1  0.54768716  0.46532779  0.72592777  1
  Ni  Ni146  1  0.54768716  0.03467221  0.22592777  1
  Ni  Ni147  1  0.04768716  0.96532779  0.77407223  1
  Ni  Ni148  1  0.04435492  0.10540863  0.41074027  1
  Ni  Ni149  1  0.54435492  0.89459137  0.58925973  1
  Ni  Ni150  1  0.54435492  0.60540863  0.08925973  1
  Ni  Ni151  1  0.04435492  0.39459137  0.91074027  1
  Ni  Ni152  1  0.08455414  0.05057681  0.33981465  1
  Ni  Ni153  1  0.58455414  0.94942319  0.66018535  1
  Ni  Ni154  1  0.58455414  0.55057681  0.16018535  1
  Ni  Ni155  1  0.08455414  0.44942319  0.83981465  1
  Ni  Ni156  1  0.11788246  0.00257721  0.41370083  1
  Ni  Ni157  1  0.61788246  0.99742279  0.58629917  1
  Ni  Ni158  1  0.61788246  0.50257721  0.08629917  1
  Ni  Ni159  1  0.11788246  0.49742279  0.91370083  1
  Cu  Cu160  1  0.90558843  0.17756622  0.20296250  1
  Cu  Cu161  1  0.40558843  0.82243378  0.79703750  1
  Cu  Cu162  1  0.40558843  0.67756622  0.29703750  1
  Cu  Cu163  1  0.90558843  0.32243378  0.70296250  1
  Cu  Cu164  1  0.06626154  0.23969396  0.05642876  1
  Cu  Cu165  1  0.56626154  0.76030604  0.94357124  1
  Cu  Cu166  1  0.56626154  0.73969396  0.44357124  1
  Cu  Cu167  1  0.06626154  0.26030604  0.55642876  1
  Cu  Cu168  1  0.98483946  0.46874060  0.08358405  1
  Cu  Cu169  1  0.48483946  0.53125940  0.91641595  1
  Cu  Cu170  1  0.48483946  0.96874060  0.41641595  1
  Cu  Cu171  1  0.98483946  0.03125940  0.58358405  1
  Cu  Cu172  1  0.81172931  0.39987119  0.21403900  1
  Cu  Cu173  1  0.31172931  0.60012881  0.78596100  1
  Cu  Cu174  1  0.31172931  0.89987119  0.28596100  1
  Cu  Cu175  1  0.81172931  0.10012881  0.71403900  1
  Cu  Cu176  1  0.08690259  0.30797107  0.32168400  1
  Cu  Cu177  1  0.58690259  0.69202893  0.67831600  1
  Cu  Cu178  1  0.58690259  0.80797107  0.17831600  1
  Cu  Cu179  1  0.08690259  0.19202893  0.82168400  1
  Cu  Cu180  1  0.24869655  0.18469158  0.20102346  1
  Cu  Cu181  1  0.74869655  0.81530842  0.79897654  1
  Cu  Cu182  1  0.74869655  0.68469158  0.29897654  1
  Cu  Cu183  1  0.24869655  0.31530842  0.70102346  1
  Cu  Cu184  1  0.30728215  0.39882025  0.12947387  1
  Cu  Cu185  1  0.80728215  0.60117975  0.87052613  1
  Cu  Cu186  1  0.80728215  0.89882025  0.37052613  1
  Cu  Cu187  1  0.30728215  0.10117975  0.62947387  1
  Cu  Cu188  1  0.12017736  0.50672020  0.24294593  1
  Cu  Cu189  1  0.62017736  0.49327980  0.75705407  1
  Cu  Cu190  1  0.62017736  0.00672020  0.25705407  1
  Cu  Cu191  1  0.12017736  0.99327980  0.74294593  1
  Cu  Cu192  1  0.11827009  0.06608337  0.38800126  1
  Cu  Cu193  1  0.61827009  0.93391663  0.61199874  1
  Cu  Cu194  1  0.61827009  0.56608337  0.11199874  1
  Cu  Cu195  1  0.11827009  0.43391663  0.88800126  1
