# generated using pymatgen
data_Cu(NiC2)4
_symmetry_space_group_name_H-M   'P 1'
_cell_length_a   7.63638176
_cell_length_b   7.63638176
_cell_length_c   9.31536126
_cell_angle_alpha   52.52201548
_cell_angle_beta   52.52201548
_cell_angle_gamma   60.48587044
_symmetry_Int_Tables_number   1
_chemical_formula_structural   Cu(NiC2)4
_chemical_formula_sum   'Cu1 Ni4 C8'
_cell_volume   335.58331679
_cell_formula_units_Z   1
loop_
 _symmetry_equiv_pos_site_id
 _symmetry_equiv_pos_as_xyz
  1  'x, y, z'
loop_
 _atom_site_type_symbol
 _atom_site_label
 _atom_site_symmetry_multiplicity
 _atom_site_fract_x
 _atom_site_fract_y
 _atom_site_fract_z
 _atom_site_occupancy
  Ni  Ni0  1  0.24828100  0.24828100  0.00895900  1
  Ni  Ni1  1  0.75171900  0.75171900  0.99104100  1
  Ni  Ni2  1  0.76488600  0.23511400  0.50000000  1
  Ni  Ni3  1  0.23511400  0.76488600  0.50000000  1
  Cu  Cu4  1  0.50000000  0.50000000  0.00000000  1
  C  C5  1  0.54368600  0.54368600  0.66281000  1
  C  C6  1  0.04822500  0.04822500  0.66842700  1
  C  C7  1  0.03965300  0.55061500  0.16932700  1
  C  C8  1  0.55061500  0.03965300  0.16932700  1
  C  C9  1  0.44938500  0.96034700  0.83067300  1
  C  C10  1  0.96034700  0.44938500  0.83067300  1
  C  C11  1  0.95177500  0.95177500  0.33157300  1
  C  C12  1  0.45631400  0.45631400  0.33719000  1
