# generated using pymatgen
data_Cu8(NiC5)5
_symmetry_space_group_name_H-M   'P 1'
_cell_length_a   5.78201014
_cell_length_b   10.29325944
_cell_length_c   10.29325891
_cell_angle_alpha   85.47555029
_cell_angle_beta   73.68822462
_cell_angle_gamma   73.68822586
_symmetry_Int_Tables_number   1
_chemical_formula_structural   Cu8(NiC5)5
_chemical_formula_sum   'Cu8 Ni5 C25'
_cell_volume   564.28528821
_cell_formula_units_Z   1
loop_
 _symmetry_equiv_pos_site_id
 _symmetry_equiv_pos_as_xyz
  1  'x, y, z'
loop_
 _atom_site_type_symbol
 _atom_site_label
 _atom_site_symmetry_multiplicity
 _atom_site_fract_x
 _atom_site_fract_y
 _atom_site_fract_z
 _atom_site_occupancy
  Ni  Ni0  1  0.46532600  0.39529500  0.67405400  1
  Ni  Ni1  1  0.13937900  0.32594600  0.39529500  1
  Ni  Ni2  1  0.86062100  0.67405400  0.60470500  1
  Ni  Ni3  1  0.53467400  0.60470600  0.32594600  1
  Ni  Ni4  1  0.00000000  0.00000000  0.00000000  1
  Cu  Cu5  1  0.58948600  0.05134900  0.76968100  1
  Cu  Cu6  1  0.35916500  0.23032000  0.05134900  1
  Cu  Cu7  1  0.64083400  0.76968100  0.94865100  1
  Cu  Cu8  1  0.41051400  0.94865100  0.23031900  1
  Cu  Cu9  1  0.75165500  0.07793000  0.41875900  1
  Cu  Cu10  1  0.17041400  0.58124100  0.07793000  1
  Cu  Cu11  1  0.82958600  0.41875900  0.92207000  1
  Cu  Cu12  1  0.24834400  0.92207000  0.58124100  1
  C  C13  1  0.95999200  0.79200200  0.28801600  1
  C  C14  1  0.24800700  0.71198400  0.79200100  1
  C  C15  1  0.75199300  0.28801600  0.20799900  1
  C  C16  1  0.04000800  0.20799900  0.71198400  1
  C  C17  1  0.10203400  0.89384200  0.40575900  1
  C  C18  1  0.50779200  0.59424100  0.89384200  1
  C  C19  1  0.99587500  0.40575900  0.10615800  1
  C  C20  1  0.40163400  0.10615800  0.59424100  1
  C  C21  1  0.89796700  0.10615800  0.59424100  1
  C  C22  1  0.49220800  0.40575900  0.10615800  1
  C  C23  1  0.00412400  0.59424100  0.89384200  1
  C  C24  1  0.59836600  0.89384200  0.40575900  1
  C  C25  1  0.92504100  0.87181600  0.77390200  1
  C  C26  1  0.69894400  0.22609800  0.87181600  1
  C  C27  1  0.79685700  0.77390200  0.12818400  1
  C  C28  1  0.57076000  0.12818400  0.22609800  1
  C  C29  1  0.07495900  0.12818400  0.22609800  1
  C  C30  1  0.30105600  0.77390200  0.12818400  1
  C  C31  1  0.20314300  0.22609800  0.87181600  1
  C  C32  1  0.42924000  0.87181600  0.77390200  1
  C  C33  1  0.37275000  0.66650600  0.58799500  1
  C  C34  1  0.50000100  0.00000000  0.00000000  1
  C  C35  1  0.62725200  0.33349400  0.41200500  1
  C  C36  1  0.96074500  0.41200400  0.66650600  1
  C  C37  1  0.03925500  0.58799500  0.33349400  1
