# generated using pymatgen
data_Cu2NiC4
_symmetry_space_group_name_H-M   'P 1'
_cell_length_a   4.13104500
_cell_length_b   12.56682800
_cell_length_c   14.94832400
_cell_angle_alpha   90.00000000
_cell_angle_beta   90.00000000
_cell_angle_gamma   90.00000000
_symmetry_Int_Tables_number   1
_chemical_formula_structural   Cu2NiC4
_chemical_formula_sum   'Cu8 Ni4 C16'
_cell_volume   776.02926494
_cell_formula_units_Z   4
loop_
 _symmetry_equiv_pos_site_id
 _symmetry_equiv_pos_as_xyz
  1  'x, y, z'
loop_
 _atom_site_type_symbol
 _atom_site_label
 _atom_site_symmetry_multiplicity
 _atom_site_fract_x
 _atom_site_fract_y
 _atom_site_fract_z
 _atom_site_occupancy
  Ni  Ni0  1  0.75000000  0.74219400  0.16347600  1
  Ni  Ni1  1  0.75000000  0.24219400  0.33652400  1
  Ni  Ni2  1  0.25000000  0.25780600  0.83652400  1
  Ni  Ni3  1  0.25000000  0.75780600  0.66347600  1
  Cu  Cu4  1  0.75000000  0.06641100  0.11050300  1
  Cu  Cu5  1  0.75000000  0.56641100  0.38949700  1
  Cu  Cu6  1  0.25000000  0.93358900  0.88949700  1
  Cu  Cu7  1  0.25000000  0.43358900  0.61050300  1
  Cu  Cu8  1  0.75000000  0.08114800  0.59854500  1
  Cu  Cu9  1  0.75000000  0.58114800  0.90145500  1
  Cu  Cu10  1  0.25000000  0.91885200  0.40145500  1
  Cu  Cu11  1  0.25000000  0.41885200  0.09854500  1
  C  C12  1  0.75000000  0.29184900  0.67796800  1
  C  C13  1  0.75000000  0.79184900  0.82203200  1
  C  C14  1  0.25000000  0.70815100  0.32203200  1
  C  C15  1  0.25000000  0.20815100  0.17796800  1
  C  C16  1  0.75000000  0.36684300  0.96993900  1
  C  C17  1  0.75000000  0.86684300  0.53006100  1
  C  C18  1  0.25000000  0.63315700  0.03006100  1
  C  C19  1  0.25000000  0.13315700  0.46993900  1
  C  C20  1  0.75000000  0.47639900  0.21591000  1
  C  C21  1  0.75000000  0.97639900  0.28409000  1
  C  C22  1  0.25000000  0.52360100  0.78409000  1
  C  C23  1  0.25000000  0.02360100  0.71591000  1
  C  C24  1  0.75000000  0.09014700  0.92054600  1
  C  C25  1  0.75000000  0.59014700  0.57945400  1
  C  C26  1  0.25000000  0.90985300  0.07945400  1
  C  C27  1  0.25000000  0.40985300  0.42054600  1
