# generated using pymatgen
data_Cu19Ni2C15
_symmetry_space_group_name_H-M   'P 1'
_cell_length_a   9.41896701
_cell_length_b   9.41896701
_cell_length_c   18.96224300
_cell_angle_alpha   90.00000000
_cell_angle_beta   90.00000000
_cell_angle_gamma   120.00000710
_symmetry_Int_Tables_number   1
_chemical_formula_structural   Cu19Ni2C15
_chemical_formula_sum   'Cu38 Ni4 C30'
_cell_volume   1456.89032748
_cell_formula_units_Z   2
loop_
 _symmetry_equiv_pos_site_id
 _symmetry_equiv_pos_as_xyz
  1  'x, y, z'
loop_
 _atom_site_type_symbol
 _atom_site_label
 _atom_site_symmetry_multiplicity
 _atom_site_fract_x
 _atom_site_fract_y
 _atom_site_fract_z
 _atom_site_occupancy
  Ni  Ni0  1  0.66666700  0.33333300  0.60350900  1
  Ni  Ni1  1  0.33333300  0.66666700  0.10350900  1
  Ni  Ni2  1  0.33333300  0.66666700  0.39649100  1
  Ni  Ni3  1  0.66666700  0.33333300  0.89649100  1
  C  C4  1  0.15386700  0.98145300  0.56011000  1
  C  C5  1  0.01854700  0.17241400  0.56011000  1
  C  C6  1  0.82758600  0.84613300  0.56011000  1
  C  C7  1  0.84613300  0.01854700  0.06011000  1
  C  C8  1  0.98145300  0.82758600  0.06011000  1
  C  C9  1  0.17241400  0.15386700  0.06011000  1
  C  C10  1  0.84613300  0.01854700  0.43989000  1
  C  C11  1  0.98145300  0.82758600  0.43989000  1
  C  C12  1  0.17241400  0.15386700  0.43989000  1
  C  C13  1  0.15386700  0.98145300  0.93989000  1
  C  C14  1  0.01854700  0.17241400  0.93989000  1
  C  C15  1  0.82758600  0.84613300  0.93989000  1
  C  C16  1  0.17719900  0.68350000  0.63224500  1
  C  C17  1  0.31650000  0.49369900  0.63224500  1
  C  C18  1  0.50630100  0.82280100  0.63224500  1
  C  C19  1  0.82280100  0.31650000  0.13224500  1
  C  C20  1  0.68350000  0.50630100  0.13224500  1
  C  C21  1  0.49369900  0.17719900  0.13224500  1
  C  C22  1  0.82280100  0.31650000  0.36775500  1
  C  C23  1  0.68350000  0.50630100  0.36775500  1
  C  C24  1  0.49369900  0.17719900  0.36775500  1
  C  C25  1  0.17719900  0.68350000  0.86775500  1
  C  C26  1  0.31650000  0.49369900  0.86775500  1
  C  C27  1  0.50630100  0.82280100  0.86775500  1
  C  C28  1  0.34964600  0.84233200  0.75000000  1
  C  C29  1  0.15766800  0.50731400  0.75000000  1
  C  C30  1  0.49268600  0.65035400  0.75000000  1
  C  C31  1  0.65035400  0.15766800  0.25000000  1
  C  C32  1  0.84233200  0.49268600  0.25000000  1
  C  C33  1  0.50731400  0.34964600  0.25000000  1
  Cu  Cu34  1  0.00000000  0.00000000  0.65819300  1
  Cu  Cu35  1  0.00000000  0.00000000  0.15819300  1
  Cu  Cu36  1  0.00000000  0.00000000  0.34180700  1
  Cu  Cu37  1  0.00000000  0.00000000  0.84180700  1
  Cu  Cu38  1  0.66666700  0.33333300  0.03455000  1
  Cu  Cu39  1  0.33333300  0.66666700  0.53455000  1
  Cu  Cu40  1  0.33333300  0.66666700  0.96545000  1
  Cu  Cu41  1  0.66666700  0.33333300  0.46545000  1
  Cu  Cu42  1  0.04823400  0.69780200  0.75000000  1
  Cu  Cu43  1  0.30219800  0.35043200  0.75000000  1
  Cu  Cu44  1  0.64956800  0.95176600  0.75000000  1
  Cu  Cu45  1  0.95176600  0.30219800  0.25000000  1
  Cu  Cu46  1  0.69780200  0.64956800  0.25000000  1
  Cu  Cu47  1  0.35043200  0.04823400  0.25000000  1
  Cu  Cu48  1  0.96183300  0.68076400  0.55134200  1
  Cu  Cu49  1  0.31923600  0.28106900  0.55134200  1
  Cu  Cu50  1  0.71893100  0.03816700  0.55134200  1
  Cu  Cu51  1  0.03816700  0.31923600  0.05134200  1
  Cu  Cu52  1  0.68076400  0.71893100  0.05134200  1
  Cu  Cu53  1  0.28106900  0.96183300  0.05134200  1
  Cu  Cu54  1  0.03816700  0.31923600  0.44865800  1
  Cu  Cu55  1  0.68076400  0.71893100  0.44865800  1
  Cu  Cu56  1  0.28106900  0.96183300  0.44865800  1
  Cu  Cu57  1  0.96183300  0.68076400  0.94865800  1
  Cu  Cu58  1  0.31923600  0.28106900  0.94865800  1
  Cu  Cu59  1  0.71893100  0.03816700  0.94865800  1
  Cu  Cu60  1  0.37444900  0.99037200  0.64092800  1
  Cu  Cu61  1  0.00962800  0.38407700  0.64092800  1
  Cu  Cu62  1  0.61592300  0.62555100  0.64092800  1
  Cu  Cu63  1  0.62555100  0.00962800  0.14092800  1
  Cu  Cu64  1  0.99037200  0.61592300  0.14092800  1
  Cu  Cu65  1  0.38407700  0.37444900  0.14092800  1
  Cu  Cu66  1  0.62555100  0.00962800  0.35907200  1
  Cu  Cu67  1  0.99037200  0.61592300  0.35907200  1
  Cu  Cu68  1  0.38407700  0.37444900  0.35907200  1
  Cu  Cu69  1  0.37444900  0.99037200  0.85907200  1
  Cu  Cu70  1  0.00962800  0.38407700  0.85907200  1
  Cu  Cu71  1  0.61592300  0.62555100  0.85907200  1
