# generated using pymatgen
data_Cu3NiC7
_symmetry_space_group_name_H-M   'P 1'
_cell_length_a   5.69250200
_cell_length_b   10.88529500
_cell_length_c   11.07735600
_cell_angle_alpha   90.00000000
_cell_angle_beta   90.00000000
_cell_angle_gamma   90.00000000
_symmetry_Int_Tables_number   1
_chemical_formula_structural   Cu3NiC7
_chemical_formula_sum   'Cu12 Ni4 C28'
_cell_volume   686.40352992
_cell_formula_units_Z   4
loop_
 _symmetry_equiv_pos_site_id
 _symmetry_equiv_pos_as_xyz
  1  'x, y, z'
loop_
 _atom_site_type_symbol
 _atom_site_label
 _atom_site_symmetry_multiplicity
 _atom_site_fract_x
 _atom_site_fract_y
 _atom_site_fract_z
 _atom_site_occupancy
  Ni  Ni0  1  0.69176800  0.75000000  0.08341000  1
  Ni  Ni1  1  0.19176800  0.25000000  0.41659000  1
  Ni  Ni2  1  0.30823200  0.25000000  0.91659000  1
  Ni  Ni3  1  0.80823200  0.75000000  0.58341000  1
  Cu  Cu4  1  0.32979900  0.98488300  0.63525400  1
  Cu  Cu5  1  0.82979900  0.01511700  0.86474600  1
  Cu  Cu6  1  0.67020100  0.48488300  0.36474600  1
  Cu  Cu7  1  0.17020100  0.51511700  0.13525400  1
  Cu  Cu8  1  0.28240400  0.75000000  0.85540600  1
  Cu  Cu9  1  0.78240400  0.25000000  0.64459400  1
  Cu  Cu10  1  0.71759600  0.25000000  0.14459400  1
  Cu  Cu11  1  0.21759600  0.75000000  0.35540600  1
  Cu  Cu12  1  0.82979900  0.48488300  0.86474600  1
  Cu  Cu13  1  0.32979900  0.51511700  0.63525400  1
  Cu  Cu14  1  0.17020100  0.98488300  0.13525400  1
  Cu  Cu15  1  0.67020100  0.01511700  0.36474600  1
  C  C16  1  0.95760200  0.12406000  0.22756200  1
  C  C17  1  0.45760200  0.87594000  0.27243800  1
  C  C18  1  0.04239800  0.62406000  0.77243800  1
  C  C19  1  0.54239800  0.37594000  0.72756200  1
  C  C20  1  0.04239800  0.87594000  0.77243800  1
  C  C21  1  0.54239800  0.12406000  0.72756200  1
  C  C22  1  0.95760200  0.37594000  0.22756200  1
  C  C23  1  0.45760200  0.62406000  0.27243800  1
  C  C24  1  0.48067500  0.11410400  0.20490200  1
  C  C25  1  0.98067500  0.88589600  0.29509800  1
  C  C26  1  0.51932500  0.61410400  0.79509800  1
  C  C27  1  0.01932500  0.38589600  0.70490200  1
  C  C28  1  0.51932500  0.88589600  0.79509800  1
  C  C29  1  0.01932500  0.11410400  0.70490200  1
  C  C30  1  0.48067500  0.38589600  0.20490200  1
  C  C31  1  0.98067500  0.61410400  0.29509800  1
  C  C32  1  0.15280500  0.75000000  0.54069200  1
  C  C33  1  0.65280500  0.25000000  0.95930800  1
  C  C34  1  0.84719500  0.25000000  0.45930800  1
  C  C35  1  0.34719500  0.75000000  0.04069200  1
  C  C36  1  0.14257800  0.40088600  0.96312000  1
  C  C37  1  0.64257800  0.59911400  0.53688000  1
  C  C38  1  0.85742200  0.90088600  0.03688000  1
  C  C39  1  0.35742200  0.09911400  0.46312000  1
  C  C40  1  0.85742200  0.59911400  0.03688000  1
  C  C41  1  0.35742200  0.40088600  0.46312000  1
  C  C42  1  0.14257800  0.09911400  0.96312000  1
  C  C43  1  0.64257800  0.90088600  0.53688000  1
