# generated using pymatgen
data_Cu7NiC10
_symmetry_space_group_name_H-M   'P 1'
_cell_length_a   4.78742000
_cell_length_b   13.02226000
_cell_length_c   10.55142878
_cell_angle_alpha   90.00000000
_cell_angle_beta   104.97645357
_cell_angle_gamma   90.00000000
_symmetry_Int_Tables_number   1
_chemical_formula_structural   Cu7NiC10
_chemical_formula_sum   'Cu28 Ni4 C40'
_cell_volume   635.46366861
_cell_formula_units_Z   4
loop_
 _symmetry_equiv_pos_site_id
 _symmetry_equiv_pos_as_xyz
  1  'x, y, z'
loop_
 _atom_site_type_symbol
 _atom_site_label
 _atom_site_symmetry_multiplicity
 _atom_site_fract_x
 _atom_site_fract_y
 _atom_site_fract_z
 _atom_site_occupancy
  C  C0  1  0.95389100  0.98731600  0.34554100  1
  C  C1  1  0.04610900  0.48731600  0.15445900  1
  C  C2  1  0.04610900  0.01268400  0.65445900  1
  C  C3  1  0.95389100  0.51268400  0.84554100  1
  C  C4  1  0.06640200  0.71128900  0.00286500  1
  C  C5  1  0.93359800  0.21128900  0.49713500  1
  C  C6  1  0.93359800  0.28871100  0.99713500  1
  C  C7  1  0.06640200  0.78871100  0.50286500  1
  Ni  Ni8  1  0.40699100  0.81986400  0.27905700  1
  Ni  Ni9  1  0.59300900  0.31986400  0.22094300  1
  Ni  Ni10  1  0.59300900  0.18013600  0.72094300  1
  Ni  Ni11  1  0.40699100  0.68013600  0.77905700  1
  Cu  Cu12  1  0.56711600  0.06363100  0.46752900  1
  Cu  Cu13  1  0.43288400  0.56363100  0.03247100  1
  Cu  Cu14  1  0.43288400  0.93636900  0.53247100  1
  Cu  Cu15  1  0.56711600  0.43636900  0.96752900  1
  Cu  Cu16  1  0.31363500  0.18265100  0.33829000  1
  Cu  Cu17  1  0.68636500  0.68265100  0.16171000  1
  Cu  Cu18  1  0.68636500  0.81734900  0.66171000  1
  Cu  Cu19  1  0.31363500  0.31734900  0.83829000  1
  Cu  Cu20  1  0.98762600  0.18061900  0.25696000  1
  Cu  Cu21  1  0.01237400  0.68061900  0.24304000  1
  Cu  Cu22  1  0.01237400  0.81938100  0.74304000  1
  Cu  Cu23  1  0.98762600  0.31938100  0.75696000  1
  Cu  Cu24  1  0.45053100  0.00453400  0.18300700  1
  Cu  Cu25  1  0.54946900  0.50453400  0.31699300  1
  Cu  Cu26  1  0.54946900  0.99546600  0.81699300  1
  Cu  Cu27  1  0.45053100  0.49546600  0.68300700  1
  Cu  Cu28  1  0.62577200  0.10111000  0.14924100  1
  Cu  Cu29  1  0.37422800  0.60111000  0.35075900  1
  Cu  Cu30  1  0.37422800  0.89889000  0.85075900  1
  Cu  Cu31  1  0.62577200  0.39889000  0.64924100  1
  Cu  Cu32  1  0.95760100  0.88608100  0.08852700  1
  Cu  Cu33  1  0.04239900  0.38608100  0.41147300  1
  Cu  Cu34  1  0.04239900  0.11391900  0.91147300  1
  Cu  Cu35  1  0.95760100  0.61391900  0.58852700  1
  Cu  Cu36  1  0.66210600  0.82890800  0.03650000  1
  Cu  Cu37  1  0.33789400  0.32890800  0.46350000  1
  Cu  Cu38  1  0.33789400  0.17109200  0.96350000  1
  Cu  Cu39  1  0.66210600  0.67109200  0.53650000  1
  C  C40  1  0.42249900  0.76483200  0.14958600  1
  C  C41  1  0.57750100  0.26483200  0.35041400  1
  C  C42  1  0.57750100  0.23516800  0.85041400  1
  C  C43  1  0.42249900  0.73516800  0.64958600  1
  C  C44  1  0.26582200  0.74348600  0.35889800  1
  C  C45  1  0.73417800  0.24348600  0.14110200  1
  C  C46  1  0.73417800  0.25651400  0.64110200  1
  C  C47  1  0.26582200  0.75651400  0.85889800  1
  C  C48  1  0.71275000  0.85145200  0.36077000  1
  C  C49  1  0.28725000  0.35145200  0.13923000  1
  C  C50  1  0.28725000  0.14854800  0.63923000  1
  C  C51  1  0.71275000  0.64854800  0.86077000  1
  C  C52  1  0.21434500  0.91775200  0.24061500  1
  C  C53  1  0.78565500  0.41775200  0.25938500  1
  C  C54  1  0.78565500  0.08224800  0.75938500  1
  C  C55  1  0.21434500  0.58224800  0.74061500  1
  C  C56  1  0.77525100  0.06366900  0.48096800  1
  C  C57  1  0.22474900  0.56366900  0.01903200  1
  C  C58  1  0.22474900  0.93633100  0.51903200  1
  C  C59  1  0.77525100  0.43633100  0.98096800  1
  C  C60  1  0.12308500  0.14733500  0.33543300  1
  C  C61  1  0.87691500  0.64733500  0.16456700  1
  C  C62  1  0.87691500  0.85266500  0.66456700  1
  C  C63  1  0.12308500  0.35266500  0.83543300  1
  C  C64  1  0.64368300  0.02876400  0.17804500  1
  C  C65  1  0.35631700  0.52876400  0.32195500  1
  C  C66  1  0.35631700  0.97123600  0.82195500  1
  C  C67  1  0.64368300  0.47123600  0.67804500  1
  C  C68  1  0.84241200  0.84569600  0.01260100  1
  C  C69  1  0.15758800  0.34569600  0.48739900  1
  C  C70  1  0.15758800  0.15430400  0.98739900  1
  C  C71  1  0.84241200  0.65430400  0.51260100  1
