# generated using pymatgen
data_CuNiC2
_symmetry_space_group_name_H-M   'P 1'
_cell_length_a   5.21225000
_cell_length_b   11.11192500
_cell_length_c   13.04874700
_cell_angle_alpha   90.00000000
_cell_angle_beta   90.00000000
_cell_angle_gamma   90.00000000
_symmetry_Int_Tables_number   1
_chemical_formula_structural   CuNiC2
_chemical_formula_sum   'Cu16 Ni16 C32'
_cell_volume   755.75903919
_cell_formula_units_Z   16
loop_
 _symmetry_equiv_pos_site_id
 _symmetry_equiv_pos_as_xyz
  1  'x, y, z'
loop_
 _atom_site_type_symbol
 _atom_site_label
 _atom_site_symmetry_multiplicity
 _atom_site_fract_x
 _atom_site_fract_y
 _atom_site_fract_z
 _atom_site_occupancy
  Ni  Ni0  1  0.63204200  0.95253900  0.43646800  1
  Ni  Ni1  1  0.13204200  0.54746100  0.56353200  1
  Ni  Ni2  1  0.36795800  0.45253900  0.06353200  1
  Ni  Ni3  1  0.86795800  0.04746100  0.93646800  1
  Ni  Ni4  1  0.36795800  0.04746100  0.56353200  1
  Ni  Ni5  1  0.86795800  0.45253900  0.43646800  1
  Ni  Ni6  1  0.63204200  0.54746100  0.93646800  1
  Ni  Ni7  1  0.13204200  0.95253900  0.06353200  1
  Ni  Ni8  1  0.80661200  0.29534300  0.30469300  1
  Ni  Ni9  1  0.30661200  0.20465700  0.69530700  1
  Ni  Ni10  1  0.19338800  0.79534300  0.19530700  1
  Ni  Ni11  1  0.69338800  0.70465700  0.80469300  1
  Ni  Ni12  1  0.19338800  0.70465700  0.69530700  1
  Ni  Ni13  1  0.69338800  0.79534300  0.30469300  1
  Ni  Ni14  1  0.80661200  0.20465700  0.80469300  1
  Ni  Ni15  1  0.30661200  0.29534300  0.19530700  1
  Cu  Cu16  1  0.58480300  0.04490200  0.17793100  1
  Cu  Cu17  1  0.08480300  0.45509800  0.82206900  1
  Cu  Cu18  1  0.41519700  0.54490200  0.32206900  1
  Cu  Cu19  1  0.91519700  0.95509800  0.67793100  1
  Cu  Cu20  1  0.41519700  0.95509800  0.82206900  1
  Cu  Cu21  1  0.91519700  0.54490200  0.17793100  1
  Cu  Cu22  1  0.58480300  0.45509800  0.67793100  1
  Cu  Cu23  1  0.08480300  0.04490200  0.32206900  1
  Cu  Cu24  1  0.84870000  0.29238300  0.07141000  1
  Cu  Cu25  1  0.34870000  0.20761700  0.92859000  1
  Cu  Cu26  1  0.15130000  0.79238300  0.42859000  1
  Cu  Cu27  1  0.65130000  0.70761700  0.57141000  1
  Cu  Cu28  1  0.15130000  0.70761700  0.92859000  1
  Cu  Cu29  1  0.65130000  0.79238300  0.07141000  1
  Cu  Cu30  1  0.84870000  0.20761700  0.57141000  1
  Cu  Cu31  1  0.34870000  0.29238300  0.42859000  1
  C  C32  1  0.77720600  0.46588200  0.30455900  1
  C  C33  1  0.27720600  0.03411800  0.69544100  1
  C  C34  1  0.22279400  0.96588200  0.19544100  1
  C  C35  1  0.72279400  0.53411800  0.80455900  1
  C  C36  1  0.22279400  0.53411800  0.69544100  1
  C  C37  1  0.72279400  0.96588200  0.30455900  1
  C  C38  1  0.77720600  0.03411800  0.80455900  1
  C  C39  1  0.27720600  0.46588200  0.19544100  1
  C  C40  1  0.74472200  0.29920700  0.44648000  1
  C  C41  1  0.24472200  0.20079300  0.55352000  1
  C  C42  1  0.25527800  0.79920700  0.05352000  1
  C  C43  1  0.75527800  0.70079300  0.94648000  1
  C  C44  1  0.25527800  0.70079300  0.55352000  1
  C  C45  1  0.75527800  0.79920700  0.44648000  1
  C  C46  1  0.74472200  0.20079300  0.94648000  1
  C  C47  1  0.24472200  0.29920700  0.05352000  1
  C  C48  1  0.71039300  0.46580800  0.05583000  1
  C  C49  1  0.21039300  0.03419200  0.94417000  1
  C  C50  1  0.28960700  0.96580800  0.44417000  1
  C  C51  1  0.78960700  0.53419200  0.55583000  1
  C  C52  1  0.28960700  0.53419200  0.94417000  1
  C  C53  1  0.78960700  0.96580800  0.05583000  1
  C  C54  1  0.71039300  0.03419200  0.55583000  1
  C  C55  1  0.21039300  0.46580800  0.44417000  1
  C  C56  1  0.63227000  0.22561500  0.19541500  1
  C  C57  1  0.13227000  0.27438500  0.80458500  1
  C  C58  1  0.36773000  0.72561500  0.30458500  1
  C  C59  1  0.86773000  0.77438500  0.69541500  1
  C  C60  1  0.36773000  0.77438500  0.80458500  1
  C  C61  1  0.86773000  0.72561500  0.19541500  1
  C  C62  1  0.63227000  0.27438500  0.69541500  1
  C  C63  1  0.13227000  0.22561500  0.30458500  1
