# generated using pymatgen
data_Cu6Ni6C
_symmetry_space_group_name_H-M   'P 1'
_cell_length_a   4.98791100
_cell_length_b   6.50755884
_cell_length_c   6.50755884
_cell_angle_alpha   80.42937739
_cell_angle_beta   67.46549696
_cell_angle_gamma   67.46549696
_symmetry_Int_Tables_number   1
_chemical_formula_structural   Cu6Ni6C
_chemical_formula_sum   'Cu6 Ni6 C1'
_cell_volume   180.15924255
_cell_formula_units_Z   1
loop_
 _symmetry_equiv_pos_site_id
 _symmetry_equiv_pos_as_xyz
  1  'x, y, z'
loop_
 _atom_site_type_symbol
 _atom_site_label
 _atom_site_symmetry_multiplicity
 _atom_site_fract_x
 _atom_site_fract_y
 _atom_site_fract_z
 _atom_site_occupancy
  C  C0  1  0.00000000  0.00000000  0.00000000  1
  Ni  Ni1  1  0.00000000  0.66876300  0.33123700  1
  Ni  Ni2  1  0.00000000  0.33123700  0.66876300  1
  Ni  Ni3  1  0.34057000  0.65943000  0.65943000  1
  Ni  Ni4  1  0.65943000  0.34057000  0.34057000  1
  Ni  Ni5  1  0.32685300  0.17314700  0.17314700  1
  Ni  Ni6  1  0.67314700  0.82685300  0.82685300  1
  Cu  Cu7  1  0.50000000  0.24412000  0.75588000  1
  Cu  Cu8  1  0.50000000  0.75588000  0.24412000  1
  Cu  Cu9  1  0.00000000  0.50000000  0.00000000  1
  Cu  Cu10  1  0.50000000  0.50000000  0.00000000  1
  Cu  Cu11  1  0.00000000  0.00000000  0.50000000  1
  Cu  Cu12  1  0.50000000  0.00000000  0.50000000  1
