# generated using pymatgen
data_Cu3(Ni8C11)2
_symmetry_space_group_name_H-M   'P 1'
_cell_length_a   8.09293882
_cell_length_b   8.09293882
_cell_length_c   18.45950049
_cell_angle_alpha   74.03487671
_cell_angle_beta   74.03487671
_cell_angle_gamma   48.28558463
_symmetry_Int_Tables_number   1
_chemical_formula_structural   Cu3(Ni8C11)2
_chemical_formula_sum   'Cu6 Ni32 C44'
_cell_volume   860.52294245
_cell_formula_units_Z   2
loop_
 _symmetry_equiv_pos_site_id
 _symmetry_equiv_pos_as_xyz
  1  'x, y, z'
loop_
 _atom_site_type_symbol
 _atom_site_label
 _atom_site_symmetry_multiplicity
 _atom_site_fract_x
 _atom_site_fract_y
 _atom_site_fract_z
 _atom_site_occupancy
  C  C0  1  0.16442000  0.17874500  0.62061600  1
  C  C1  1  0.82125500  0.83558000  0.87938400  1
  C  C2  1  0.83558000  0.82125500  0.37938400  1
  C  C3  1  0.17874500  0.16442000  0.12061600  1
  Ni  Ni4  1  0.47274000  0.26441900  0.52360300  1
  Ni  Ni5  1  0.73558100  0.52726000  0.97639700  1
  Ni  Ni6  1  0.52726000  0.73558100  0.47639700  1
  Ni  Ni7  1  0.26441900  0.47274000  0.02360300  1
  Ni  Ni8  1  0.22987200  0.47612700  0.50849700  1
  Ni  Ni9  1  0.52387300  0.77012800  0.99150300  1
  Ni  Ni10  1  0.77012800  0.52387300  0.49150300  1
  Ni  Ni11  1  0.47612700  0.22987200  0.00849700  1
  Ni  Ni12  1  0.24739800  0.21968000  0.75818900  1
  Ni  Ni13  1  0.78032000  0.75260200  0.74181100  1
  Ni  Ni14  1  0.75260200  0.78032000  0.24181100  1
  Ni  Ni15  1  0.21968000  0.24739800  0.25818900  1
  Ni  Ni16  1  0.36994200  0.28323700  0.68682600  1
  Ni  Ni17  1  0.71676300  0.63005800  0.81317400  1
  Ni  Ni18  1  0.63005800  0.71676300  0.31317400  1
  Ni  Ni19  1  0.28323700  0.36994200  0.18682600  1
  Ni  Ni20  1  0.08710000  0.71451000  0.76544900  1
  Ni  Ni21  1  0.28549000  0.91290000  0.73455100  1
  Ni  Ni22  1  0.91290000  0.28549000  0.23455100  1
  Ni  Ni23  1  0.71451000  0.08710000  0.26544900  1
  Ni  Ni24  1  0.82534200  0.06110500  0.55679400  1
  Ni  Ni25  1  0.93889500  0.17465800  0.94320600  1
  Ni  Ni26  1  0.17465800  0.93889500  0.44320600  1
  Ni  Ni27  1  0.06110500  0.82534200  0.05679400  1
  Ni  Ni28  1  0.04793000  0.91189700  0.64248300  1
  Ni  Ni29  1  0.08810300  0.95207000  0.85751700  1
  Ni  Ni30  1  0.95207000  0.08810300  0.35751700  1
  Ni  Ni31  1  0.91189700  0.04793000  0.14248300  1
  Ni  Ni32  1  0.31177400  0.71077900  0.66099100  1
  Ni  Ni33  1  0.28922100  0.68822600  0.83900900  1
  Ni  Ni34  1  0.68822600  0.28922100  0.33900900  1
  Ni  Ni35  1  0.71077900  0.31177400  0.16099100  1
  Cu  Cu36  1  0.22266400  0.24056300  0.41991600  1
  Cu  Cu37  1  0.75943700  0.77733600  0.08008400  1
  Cu  Cu38  1  0.77733600  0.75943700  0.58008400  1
  Cu  Cu39  1  0.24056300  0.22266400  0.91991600  1
  Cu  Cu40  1  0.65616700  0.34383300  0.75000000  1
  Cu  Cu41  1  0.34383300  0.65616700  0.25000000  1
  C  C42  1  0.15139000  0.16080700  0.49565100  1
  C  C43  1  0.83919300  0.84861000  0.00434900  1
  C  C44  1  0.84861000  0.83919300  0.50434900  1
  C  C45  1  0.16080700  0.15139000  0.99565100  1
  C  C46  1  0.46802100  0.10072600  0.40834500  1
  C  C47  1  0.89927400  0.53197900  0.09165500  1
  C  C48  1  0.53197900  0.89927400  0.59165500  1
  C  C49  1  0.10072600  0.46802100  0.90834500  1
  C  C50  1  0.12342800  0.47464800  0.42074100  1
  C  C51  1  0.52535200  0.87657200  0.07925900  1
  C  C52  1  0.87657200  0.52535200  0.57925900  1
  C  C53  1  0.47464800  0.12342800  0.92074100  1
  C  C54  1  0.13857100  0.23594500  0.35896500  1
  C  C55  1  0.76405500  0.86142900  0.14103500  1
  C  C56  1  0.86142900  0.76405500  0.64103500  1
  C  C57  1  0.23594500  0.13857100  0.85896500  1
  C  C58  1  0.87387300  0.29170000  0.71301200  1
  C  C59  1  0.70830000  0.12612700  0.78698800  1
  C  C60  1  0.12612700  0.70830000  0.28698800  1
  C  C61  1  0.29170000  0.87387300  0.21301200  1
  C  C62  1  0.50098800  0.44738800  0.69355400  1
  C  C63  1  0.55261200  0.49901200  0.80644600  1
  C  C64  1  0.49901200  0.55261200  0.30644600  1
  C  C65  1  0.44738800  0.50098800  0.19355400  1
  C  C66  1  0.31920200  0.35762800  0.54814000  1
  C  C67  1  0.64237200  0.68079800  0.95186000  1
  C  C68  1  0.68079800  0.64237200  0.45186000  1
  C  C69  1  0.35762800  0.31920200  0.04814000  1
  C  C70  1  0.26748700  0.24989200  0.70199300  1
  C  C71  1  0.75010800  0.73251300  0.79800700  1
  C  C72  1  0.73251300  0.75010800  0.29800700  1
  C  C73  1  0.24989200  0.26748700  0.20199300  1
  C  C74  1  0.22497600  0.89975300  0.39122700  1
  C  C75  1  0.10024700  0.77502400  0.10877300  1
  C  C76  1  0.77502400  0.10024700  0.60877300  1
  C  C77  1  0.89975300  0.22497600  0.89122700  1
  C  C78  1  0.19640300  0.87027300  0.63883700  1
  C  C79  1  0.12972700  0.80359700  0.86116300  1
  C  C80  1  0.80359700  0.12972700  0.36116300  1
  C  C81  1  0.87027300  0.19640300  0.13883700  1
