# generated using pymatgen
data_Cu7Ni4C23
_symmetry_space_group_name_H-M   'P 1'
_cell_length_a   10.22769297
_cell_length_b   10.22769297
_cell_length_c   23.10771016
_cell_angle_alpha   90.00000000
_cell_angle_beta   90.00000000
_cell_angle_gamma   120.00000229
_symmetry_Int_Tables_number   1
_chemical_formula_structural   Cu7Ni4C23
_chemical_formula_sum   'Cu14 Ni8 C46'
_cell_volume   2093.35506751
_cell_formula_units_Z   2
loop_
 _symmetry_equiv_pos_site_id
 _symmetry_equiv_pos_as_xyz
  1  'x, y, z'
loop_
 _atom_site_type_symbol
 _atom_site_label
 _atom_site_symmetry_multiplicity
 _atom_site_fract_x
 _atom_site_fract_y
 _atom_site_fract_z
 _atom_site_occupancy
  C  C0  1  0.20600876  0.41201751  0.72023471  1
  C  C1  1  0.20600876  0.79399124  0.72023471  1
  C  C2  1  0.79399124  0.58798249  0.22023471  1
  C  C3  1  0.58798249  0.79399124  0.72023471  1
  C  C4  1  0.79399124  0.20600876  0.22023471  1
  C  C5  1  0.41201751  0.20600876  0.22023471  1
  C  C6  1  0.79363401  0.58726802  0.94603498  1
  C  C7  1  0.79363401  0.20636599  0.94603498  1
  C  C8  1  0.20636599  0.41273198  0.44603498  1
  C  C9  1  0.41273198  0.20636599  0.94603498  1
  C  C10  1  0.20636599  0.79363401  0.44603498  1
  C  C11  1  0.58726802  0.79363401  0.44603498  1
  C  C12  1  0.21182838  0.42365676  0.99026524  1
  C  C13  1  0.21182838  0.78817162  0.99026524  1
  C  C14  1  0.78817162  0.57634324  0.49026524  1
  C  C15  1  0.57634324  0.78817162  0.99026524  1
  C  C16  1  0.78817162  0.21182838  0.49026524  1
  C  C17  1  0.42365676  0.21182838  0.49026524  1
  C  C18  1  0.87075755  0.74151510  0.63523282  1
  C  C19  1  0.87075755  0.12924245  0.63523282  1
  C  C20  1  0.12924245  0.25848490  0.13523282  1
  C  C21  1  0.25848490  0.12924245  0.63523282  1
  C  C22  1  0.12924245  0.87075755  0.13523282  1
  C  C23  1  0.74151510  0.87075755  0.13523282  1
  C  C24  1  0.45636948  0.91273897  0.85646623  1
  C  C25  1  0.45636948  0.54363052  0.85646623  1
  C  C26  1  0.54363052  0.08726103  0.35646623  1
  C  C27  1  0.08726103  0.54363052  0.85646623  1
  C  C28  1  0.54363052  0.45636948  0.35646623  1
  C  C29  1  0.91273897  0.45636948  0.35646623  1
  C  C30  1  -0.00000000  0.00000000  0.99863445  1
  C  C31  1  -0.00000000  0.00000000  0.49863445  1
  C  C32  1  0.46147760  0.92295519  0.58524549  1
  C  C33  1  0.46147760  0.53852240  0.58524549  1
  C  C34  1  0.53852240  0.07704481  0.08524549  1
  C  C35  1  0.07704481  0.53852240  0.58524549  1
  C  C36  1  0.53852240  0.46147760  0.08524549  1
  C  C37  1  0.92295519  0.46147760  0.08524549  1
  C  C38  1  0.79798866  0.59597733  0.78281977  1
  C  C39  1  0.79798866  0.20201134  0.78281977  1
  C  C40  1  0.20201134  0.40402267  0.28281977  1
  C  C41  1  0.40402267  0.20201134  0.78281977  1
  C  C42  1  0.20201134  0.79798866  0.28281977  1
  C  C43  1  0.59597733  0.79798866  0.28281977  1
  C  C44  1  0.66666700  0.33333300  0.64295490  1
  C  C45  1  0.33333300  0.66666700  0.14295490  1
  Ni  Ni46  1  -0.00000000  0.00000000  0.74981413  1
  Ni  Ni47  1  -0.00000000  0.00000000  0.24981413  1
  Ni  Ni48  1  0.10599253  0.21198507  0.86309336  1
  Ni  Ni49  1  0.10599253  0.89400747  0.86309336  1
  Ni  Ni50  1  0.89400747  0.78801493  0.36309336  1
  Ni  Ni51  1  0.78801493  0.89400747  0.86309336  1
  Ni  Ni52  1  0.89400747  0.10599253  0.36309336  1
  Ni  Ni53  1  0.21198507  0.10599253  0.36309336  1
  Cu  Cu54  1  0.52234114  0.04468229  0.71023404  1
  Cu  Cu55  1  0.52234114  0.47765886  0.71023404  1
  Cu  Cu56  1  0.47765886  0.95531771  0.21023404  1
  Cu  Cu57  1  0.95531771  0.47765886  0.71023404  1
  Cu  Cu58  1  0.47765886  0.52234114  0.21023404  1
  Cu  Cu59  1  0.04468229  0.52234114  0.21023404  1
  Cu  Cu60  1  0.66666700  0.33333300  0.86195656  1
  Cu  Cu61  1  0.33333300  0.66666700  0.36195656  1
  Cu  Cu62  1  0.14339306  0.28678613  0.56482669  1
  Cu  Cu63  1  0.14339306  0.85660694  0.56482669  1
  Cu  Cu64  1  0.85660694  0.71321387  0.06482669  1
  Cu  Cu65  1  0.71321387  0.85660694  0.56482669  1
  Cu  Cu66  1  0.85660694  0.14339306  0.06482669  1
  Cu  Cu67  1  0.28678613  0.14339306  0.06482669  1
