# generated using pymatgen
data_CuNiC8
_symmetry_space_group_name_H-M   'P 1'
_cell_length_a   5.59806800
_cell_length_b   5.44420700
_cell_length_c   9.47412793
_cell_angle_alpha   54.88873645
_cell_angle_beta   90.00000000
_cell_angle_gamma   90.00000000
_symmetry_Int_Tables_number   1
_chemical_formula_structural   CuNiC8
_chemical_formula_sum   'Cu2 Ni2 C16'
_cell_volume   236.20267546
_cell_formula_units_Z   2
loop_
 _symmetry_equiv_pos_site_id
 _symmetry_equiv_pos_as_xyz
  1  'x, y, z'
loop_
 _atom_site_type_symbol
 _atom_site_label
 _atom_site_symmetry_multiplicity
 _atom_site_fract_x
 _atom_site_fract_y
 _atom_site_fract_z
 _atom_site_occupancy
  C  C0  1  0.44619900  0.26195100  0.25060300  1
  C  C1  1  0.94619900  0.73804900  0.24939700  1
  C  C2  1  0.55380100  0.73804900  0.74939700  1
  C  C3  1  0.05380100  0.26195100  0.75060300  1
  Ni  Ni4  1  0.00000000  0.50000000  0.00000000  1
  Ni  Ni5  1  0.50000000  0.50000000  0.50000000  1
  Cu  Cu6  1  0.00000000  0.00000000  0.50000000  1
  Cu  Cu7  1  0.50000000  0.00000000  0.00000000  1
  C  C8  1  0.19984100  0.74060600  0.04416900  1
  C  C9  1  0.69984100  0.25939400  0.45583100  1
  C  C10  1  0.80015900  0.25939400  0.95583100  1
  C  C11  1  0.30015900  0.74060600  0.54416900  1
  C  C12  1  0.21600300  0.34825800  0.45349000  1
  C  C13  1  0.71600300  0.65174200  0.04651000  1
  C  C14  1  0.78399700  0.65174200  0.54651000  1
  C  C15  1  0.28399700  0.34825800  0.95349000  1
  C  C16  1  0.47823700  0.17258000  0.74227000  1
  C  C17  1  0.97823700  0.82742000  0.75773000  1
  C  C18  1  0.52176300  0.82742000  0.25773000  1
  C  C19  1  0.02176300  0.17258000  0.24227000  1
