# generated using pymatgen
data_Cu9NiC6
_symmetry_space_group_name_H-M   'P 1'
_cell_length_a   8.68496600
_cell_length_b   6.59797000
_cell_length_c   15.31655383
_cell_angle_alpha   66.51932361
_cell_angle_beta   90.00000000
_cell_angle_gamma   90.00000000
_symmetry_Int_Tables_number   1
_chemical_formula_structural   Cu9NiC6
_chemical_formula_sum   'Cu36 Ni4 C24'
_cell_volume   805.00942415
_cell_formula_units_Z   4
loop_
 _symmetry_equiv_pos_site_id
 _symmetry_equiv_pos_as_xyz
  1  'x, y, z'
loop_
 _atom_site_type_symbol
 _atom_site_label
 _atom_site_symmetry_multiplicity
 _atom_site_fract_x
 _atom_site_fract_y
 _atom_site_fract_z
 _atom_site_occupancy
  C  C0  1  0.73201500  0.33016000  0.41585600  1
  C  C1  1  0.76798500  0.33016000  0.91585600  1
  C  C2  1  0.26798500  0.66984000  0.58414400  1
  C  C3  1  0.23201500  0.66984000  0.08414400  1
  C  C4  1  0.88783200  0.20458200  0.59422000  1
  C  C5  1  0.61216800  0.20458200  0.09422000  1
  C  C6  1  0.11216800  0.79541800  0.40578000  1
  C  C7  1  0.38783200  0.79541800  0.90578000  1
  C  C8  1  0.02995800  0.25815400  0.52707500  1
  C  C9  1  0.47004200  0.25815400  0.02707500  1
  C  C10  1  0.97004200  0.74184600  0.47292500  1
  C  C11  1  0.52995800  0.74184600  0.97292500  1
  C  C12  1  0.02520400  0.61133200  0.27386200  1
  C  C13  1  0.47479600  0.61133200  0.77386200  1
  C  C14  1  0.97479600  0.38866800  0.72613800  1
  C  C15  1  0.52520400  0.38866800  0.22613800  1
  C  C16  1  0.02102200  0.34237100  0.26429600  1
  C  C17  1  0.47897800  0.34237100  0.76429600  1
  C  C18  1  0.97897800  0.65762900  0.73570400  1
  C  C19  1  0.52102200  0.65762900  0.23570400  1
  C  C20  1  0.33482400  0.26628700  0.47437300  1
  C  C21  1  0.16517600  0.26628700  0.97437300  1
  C  C22  1  0.66517600  0.73371300  0.52562700  1
  C  C23  1  0.83482400  0.73371300  0.02562700  1
  Ni  Ni24  1  0.83249400  0.04918900  0.18426100  1
  Ni  Ni25  1  0.66750600  0.04918900  0.68426100  1
  Ni  Ni26  1  0.16750600  0.95081100  0.81573900  1
  Ni  Ni27  1  0.33249400  0.95081100  0.31573900  1
  Cu  Cu28  1  0.50600400  0.27088100  0.48533300  1
  Cu  Cu29  1  0.99399600  0.27088100  0.98533300  1
  Cu  Cu30  1  0.49399600  0.72911900  0.51466700  1
  Cu  Cu31  1  0.00600400  0.72911900  0.01466700  1
  Cu  Cu32  1  0.26173400  0.41923800  0.51308500  1
  Cu  Cu33  1  0.23826600  0.41923800  0.01308500  1
  Cu  Cu34  1  0.73826600  0.58076200  0.48691500  1
  Cu  Cu35  1  0.76173400  0.58076200  0.98691500  1
  Cu  Cu36  1  0.29384500  0.33247200  0.37407600  1
  Cu  Cu37  1  0.20615500  0.33247200  0.87407600  1
  Cu  Cu38  1  0.70615500  0.66752800  0.62592400  1
  Cu  Cu39  1  0.79384500  0.66752800  0.12592400  1
  Cu  Cu40  1  0.27786000  0.04019900  0.53403900  1
  Cu  Cu41  1  0.22214000  0.04019900  0.03403900  1
  Cu  Cu42  1  0.72214000  0.95980100  0.46596100  1
  Cu  Cu43  1  0.77786000  0.95980100  0.96596100  1
  Cu  Cu44  1  0.93904500  0.60820700  0.33797700  1
  Cu  Cu45  1  0.56095500  0.60820700  0.83797700  1
  Cu  Cu46  1  0.06095500  0.39179300  0.66202300  1
  Cu  Cu47  1  0.43904500  0.39179300  0.16202300  1
  Cu  Cu48  1  0.93392500  0.21930600  0.32530000  1
  Cu  Cu49  1  0.56607500  0.21930600  0.82530000  1
  Cu  Cu50  1  0.06607500  0.78069400  0.67470000  1
  Cu  Cu51  1  0.43392500  0.78069400  0.17470000  1
  Cu  Cu52  1  0.10556700  0.34743300  0.19932600  1
  Cu  Cu53  1  0.39443300  0.34743300  0.69932600  1
  Cu  Cu54  1  0.89443300  0.65256700  0.80067400  1
  Cu  Cu55  1  0.60556700  0.65256700  0.30067400  1
  Cu  Cu56  1  0.11521200  0.73580800  0.21512600  1
  Cu  Cu57  1  0.38478800  0.73580800  0.71512600  1
  Cu  Cu58  1  0.88478800  0.26419200  0.78487400  1
  Cu  Cu59  1  0.61521200  0.26419200  0.28487400  1
  Cu  Cu60  1  0.92209000  0.21088300  0.53250100  1
  Cu  Cu61  1  0.57791000  0.21088300  0.03250100  1
  Cu  Cu62  1  0.07791000  0.78911700  0.46749900  1
  Cu  Cu63  1  0.42209000  0.78911700  0.96749900  1
