# generated using pymatgen
data_Cu6Ni12C5
_symmetry_space_group_name_H-M   'P 1'
_cell_length_a   6.06697489
_cell_length_b   6.43127772
_cell_length_c   6.43127772
_cell_angle_alpha   113.01745691
_cell_angle_beta   109.91452877
_cell_angle_gamma   70.08547123
_symmetry_Int_Tables_number   1
_chemical_formula_structural   Cu6Ni12C5
_chemical_formula_sum   'Cu6 Ni12 C5'
_cell_volume   210.81786527
_cell_formula_units_Z   1
loop_
 _symmetry_equiv_pos_site_id
 _symmetry_equiv_pos_as_xyz
  1  'x, y, z'
loop_
 _atom_site_type_symbol
 _atom_site_label
 _atom_site_symmetry_multiplicity
 _atom_site_fract_x
 _atom_site_fract_y
 _atom_site_fract_z
 _atom_site_occupancy
  C  C0  1  0.00000000  0.00000000  0.00000000  1
  Ni  Ni1  1  0.56111900  0.93493000  0.72890200  1
  Ni  Ni2  1  0.56111900  0.27109800  0.06507000  1
  Ni  Ni3  1  0.43888100  0.06507000  0.27109800  1
  Ni  Ni4  1  0.43888100  0.72890200  0.93493000  1
  Ni  Ni5  1  0.75200700  0.83474600  0.56033500  1
  Ni  Ni6  1  0.75200700  0.43966500  0.16525400  1
  Ni  Ni7  1  0.24799300  0.16525400  0.43966500  1
  Ni  Ni8  1  0.24799300  0.56033500  0.83474600  1
  Ni  Ni9  1  0.75515600  0.67835700  0.71270600  1
  Ni  Ni10  1  0.75515600  0.28729400  0.32164300  1
  Ni  Ni11  1  0.24484400  0.32164300  0.28729400  1
  Ni  Ni12  1  0.24484400  0.71270600  0.67835700  1
  Cu  Cu13  1  0.01315500  0.19937400  0.80062600  1
  Cu  Cu14  1  0.98684500  0.80062600  0.19937400  1
  Cu  Cu15  1  0.73446600  0.84519200  0.71767300  1
  Cu  Cu16  1  0.73446600  0.28232700  0.15480800  1
  Cu  Cu17  1  0.26553400  0.15480800  0.28232700  1
  Cu  Cu18  1  0.26553400  0.71767300  0.84519200  1
  C  C19  1  0.82194800  0.30667100  0.69332900  1
  C  C20  1  0.17805200  0.69332900  0.30667100  1
  C  C21  1  0.21304700  0.21197000  0.78803000  1
  C  C22  1  0.78695300  0.78803000  0.21197000  1
