# generated using pymatgen
data_Cu3NiC14
_symmetry_space_group_name_H-M   'P 1'
_cell_length_a   10.68646179
_cell_length_b   11.14713130
_cell_length_c   17.21050079
_cell_angle_alpha   109.13866554
_cell_angle_beta   108.37797825
_cell_angle_gamma   89.06183797
_symmetry_Int_Tables_number   1
_chemical_formula_structural   Cu3NiC14
_chemical_formula_sum   'Cu24 Ni8 C112'
_cell_volume   1829.39730321
_cell_formula_units_Z   8
loop_
 _symmetry_equiv_pos_site_id
 _symmetry_equiv_pos_as_xyz
  1  'x, y, z'
loop_
 _atom_site_type_symbol
 _atom_site_label
 _atom_site_symmetry_multiplicity
 _atom_site_fract_x
 _atom_site_fract_y
 _atom_site_fract_z
 _atom_site_occupancy
  Ni  Ni0  1  0.30985900  0.56380500  0.61155900  1
  Ni  Ni1  1  0.80621100  0.05921000  0.61120200  1
  Ni  Ni2  1  0.19759200  0.43982400  0.89093600  1
  Ni  Ni3  1  0.05789800  0.29739500  0.61081300  1
  Ni  Ni4  1  0.05826400  0.80111000  0.61131700  1
  Ni  Ni5  1  0.55688400  0.29850900  0.61143300  1
  Ni  Ni6  1  0.44621300  0.20070700  0.88886600  1
  Ni  Ni7  1  0.94384800  0.19982700  0.38397400  1
  Cu  Cu8  1  0.30531300  0.06666200  0.11016800  1
  Cu  Cu9  1  0.30805800  0.06458000  0.60530800  1
  Cu  Cu10  1  0.30497300  0.56808300  0.11257400  1
  Cu  Cu11  1  0.80222900  0.06732600  0.10805500  1
  Cu  Cu12  1  0.80687100  0.56501800  0.11020100  1
  Cu  Cu13  1  0.80569500  0.56538500  0.60883100  1
  Cu  Cu14  1  0.19586200  0.43371500  0.38889700  1
  Cu  Cu15  1  0.19843100  0.93398900  0.38949500  1
  Cu  Cu16  1  0.19710900  0.93566600  0.89357700  1
  Cu  Cu17  1  0.69456300  0.43337200  0.38940300  1
  Cu  Cu18  1  0.70036300  0.43246400  0.89259200  1
  Cu  Cu19  1  0.69296900  0.92974500  0.38917100  1
  Cu  Cu20  1  0.69399500  0.93628000  0.89072800  1
  Cu  Cu21  1  0.05593000  0.29370600  0.11088400  1
  Cu  Cu22  1  0.05618700  0.79158100  0.11064400  1
  Cu  Cu23  1  0.55558700  0.29376600  0.11193500  1
  Cu  Cu24  1  0.55431800  0.79532600  0.11131600  1
  Cu  Cu25  1  0.55875800  0.79451100  0.60858400  1
  Cu  Cu26  1  0.44498400  0.20461700  0.38879600  1
  Cu  Cu27  1  0.44887800  0.70795000  0.39076800  1
  Cu  Cu28  1  0.44509800  0.71157300  0.89279100  1
  Cu  Cu29  1  0.94714700  0.20701500  0.89257200  1
  Cu  Cu30  1  0.94552700  0.70631500  0.38853600  1
  Cu  Cu31  1  0.94759100  0.70605100  0.89207900  1
  C  C32  1  0.00586200  0.00093600  0.00111700  1
  C  C33  1  0.00217700  0.99711600  0.49500400  1
  C  C34  1  0.00697300  0.50028100  0.00364500  1
  C  C35  1  0.00160000  0.49932900  0.49616000  1
  C  C36  1  0.50636800  0.00222600  0.00410200  1
  C  C37  1  0.50274500  0.99735800  0.49596700  1
  C  C38  1  0.50682500  0.50191100  0.00344100  1
  C  C39  1  0.50307500  0.49741400  0.49423600  1
  C  C40  1  0.25562400  0.25207600  0.00336800  1
  C  C41  1  0.25220800  0.24709300  0.49404900  1
  C  C42  1  0.25693600  0.75312300  0.00443900  1
  C  C43  1  0.25494200  0.74992200  0.49665300  1
  C  C44  1  0.75726200  0.25134800  0.00359500  1
  C  C45  1  0.75059800  0.24783300  0.49620600  1
  C  C46  1  0.75603700  0.75065800  0.00092300  1
  C  C47  1  0.75209700  0.74553700  0.49522600  1
  C  C48  1  0.10875100  0.09075100  0.24493800  1
  C  C49  1  0.11059400  0.09260200  0.75392700  1
  C  C50  1  0.10831600  0.59498200  0.25017400  1
  C  C51  1  0.10682100  0.59991000  0.74997300  1
  C  C52  1  0.60491400  0.09342400  0.24938700  1
  C  C53  1  0.60767700  0.09133800  0.74780800  1
  C  C54  1  0.60651700  0.59308800  0.24781900  1
  C  C55  1  0.61537000  0.60165200  0.75443300  1
  C  C56  1  0.35821200  0.40656200  0.25008900  1
  C  C57  1  0.36731400  0.41020100  0.75387100  1
  C  C58  1  0.35853200  0.90561500  0.25054300  1
  C  C59  1  0.36337700  0.90527500  0.75019800  1
  C  C60  1  0.85788300  0.40939700  0.24977500  1
  C  C61  1  0.85933500  0.40901500  0.75303800  1
  C  C62  1  0.85741800  0.90158700  0.24675400  1
  C  C63  1  0.85889200  0.90226000  0.75396500  1
  C  C64  1  0.12810100  0.12192000  0.48876700  1
  C  C65  1  0.12485100  0.12436800  0.99003600  1
  C  C66  1  0.12358000  0.62339100  0.48200800  1
  C  C67  1  0.12301000  0.62662400  0.99109400  1
  C  C68  1  0.62167900  0.12126400  0.48325100  1
  C  C69  1  0.62758900  0.12049800  0.99066100  1
  C  C70  1  0.62726100  0.62002900  0.48659200  1
  C  C71  1  0.62890100  0.62829400  0.98995900  1
  C  C72  1  0.13258900  0.38643900  0.01653900  1
  C  C73  1  0.12908000  0.38198600  0.50380000  1
  C  C74  1  0.14117500  0.87310800  0.01351500  1
  C  C75  1  0.13157900  0.88392900  0.50574300  1
  C  C76  1  0.64290800  0.37439200  0.01464000  1
  C  C77  1  0.63067700  0.38421800  0.50723700  1
  C  C78  1  0.63160600  0.88567300  0.01413100  1
  C  C79  1  0.63000200  0.87210800  0.50711000  1
  C  C80  1  0.36803000  0.11380100  0.48267600  1
  C  C81  1  0.37742800  0.11246800  0.99302100  1
  C  C82  1  0.37823600  0.61462000  0.48608300  1
  C  C83  1  0.37351000  0.63154500  0.99283400  1
  C  C84  1  0.87322000  0.11098800  0.48809400  1
  C  C85  1  0.86860800  0.12625500  0.98941500  1
  C  C86  1  0.87434000  0.61321500  0.48638800  1
  C  C87  1  0.87726700  0.61095000  0.98858600  1
  C  C88  1  0.38572700  0.38329800  0.01743400  1
  C  C89  1  0.37745900  0.37545000  0.50300700  1
  C  C90  1  0.38624100  0.88349700  0.01701400  1
  C  C91  1  0.38189100  0.87838200  0.50979700  1
  C  C92  1  0.88596800  0.38222400  0.01668500  1
  C  C93  1  0.87492700  0.37897500  0.50723900  1
  C  C94  1  0.88351500  0.87735100  0.01401200  1
  C  C95  1  0.87719800  0.87166500  0.50212500  1
  C  C96  1  0.08830800  0.09839800  0.13747600  1
  C  C97  1  0.08276800  0.08835800  0.64255300  1
  C  C98  1  0.08762900  0.60339900  0.14253000  1
  C  C99  1  0.07521700  0.59219200  0.63753300  1
  C  C100  1  0.58822800  0.10388400  0.14298600  1
  C  C101  1  0.57893000  0.09063300  0.63786700  1
  C  C102  1  0.58776400  0.60139100  0.14067400  1
  C  C103  1  0.58637200  0.59987800  0.64307900  1
  C  C104  1  0.44549800  0.39824700  0.35801500  1
  C  C105  1  0.44980500  0.40778500  0.86354500  1
  C  C106  1  0.44411200  0.89783500  0.35802600  1
  C  C107  1  0.45148900  0.89992000  0.85910100  1
  C  C108  1  0.94452200  0.40728500  0.35831400  1
  C  C109  1  0.94260200  0.39595100  0.85996600  1
  C  C110  1  0.94478600  0.90066300  0.35652300  1
  C  C111  1  0.94604600  0.89935700  0.86374400  1
  C  C112  1  0.33739100  0.28894200  0.14408000  1
  C  C113  1  0.33619500  0.29424800  0.64553000  1
  C  C114  1  0.33976700  0.78771800  0.14443500  1
  C  C115  1  0.33517600  0.79583300  0.64080000  1
  C  C116  1  0.84046500  0.28842200  0.14486500  1
  C  C117  1  0.82924800  0.29753600  0.64389900  1
  C  C118  1  0.83668600  0.78391200  0.14027700  1
  C  C119  1  0.83132100  0.79156700  0.64427200  1
  C  C120  1  0.18857100  0.20804300  0.35101000  1
  C  C121  1  0.19183700  0.20699500  0.86095900  1
  C  C122  1  0.19529600  0.71015100  0.35553800  1
  C  C123  1  0.19507500  0.71366300  0.85715400  1
  C  C124  1  0.68557300  0.21068400  0.35527100  1
  C  C125  1  0.69262100  0.20894700  0.85451900  1
  C  C126  1  0.69093000  0.70743600  0.35397800  1
  C  C127  1  0.70236100  0.71752000  0.86174800  1
  C  C128  1  0.42345500  0.06586700  0.24880700  1
  C  C129  1  0.42517300  0.06220500  0.74304400  1
  C  C130  1  0.42544500  0.56701400  0.24969900  1
  C  C131  1  0.43806100  0.57277400  0.75876300  1
  C  C132  1  0.92563800  0.05567200  0.23920200  1
  C  C133  1  0.93223800  0.06297600  0.75845300  1
  C  C134  1  0.92507600  0.56957400  0.24896800  1
  C  C135  1  0.92681900  0.57003900  0.75196400  1
  C  C136  1  0.17562200  0.43215100  0.24961300  1
  C  C137  1  0.18685000  0.44411900  0.75122900  1
  C  C138  1  0.17592600  0.92987200  0.24864500  1
  C  C139  1  0.18697300  0.93589700  0.75943800  1
  C  C140  1  0.67494000  0.43140600  0.24920800  1
  C  C141  1  0.68229900  0.44202900  0.75927700  1
  C  C142  1  0.67661600  0.93223000  0.25002400  1
  C  C143  1  0.67566600  0.92955100  0.75108300  1
