# generated using pymatgen
data_Cu2Ni10C31
_symmetry_space_group_name_H-M   'P 1'
_cell_length_a   9.27558100
_cell_length_b   16.19783540
_cell_length_c   17.03690876
_cell_angle_alpha   117.18036038
_cell_angle_beta   101.61335121
_cell_angle_gamma   91.21392970
_symmetry_Int_Tables_number   1
_chemical_formula_structural   Cu2Ni10C31
_chemical_formula_sum   'Cu8 Ni40 C124'
_cell_volume   2211.54275605
_cell_formula_units_Z   4
loop_
 _symmetry_equiv_pos_site_id
 _symmetry_equiv_pos_as_xyz
  1  'x, y, z'
loop_
 _atom_site_type_symbol
 _atom_site_label
 _atom_site_symmetry_multiplicity
 _atom_site_fract_x
 _atom_site_fract_y
 _atom_site_fract_z
 _atom_site_occupancy
  C  C0  1  0.05422400  0.27223200  0.21289000  1
  C  C1  1  0.94577600  0.72776900  0.78711000  1
  C  C2  1  0.80023600  0.10840100  0.16970100  1
  C  C3  1  0.19976400  0.89159900  0.83029900  1
  C  C4  1  0.76638300  0.32578000  0.29471000  1
  C  C5  1  0.23361700  0.67421900  0.70529000  1
  C  C6  1  0.37452700  0.26415100  0.74059400  1
  C  C7  1  0.62547300  0.73584900  0.25940600  1
  C  C8  1  0.70674200  0.36506200  0.84792000  1
  C  C9  1  0.29325800  0.63493800  0.15208000  1
  C  C10  1  0.64561200  0.14128200  0.71695300  1
  C  C11  1  0.35438800  0.85871800  0.28304700  1
  C  C12  1  0.02006000  0.24675200  0.39546400  1
  C  C13  1  0.97994000  0.75324800  0.60453600  1
  C  C14  1  0.59846600  0.25999700  0.60440700  1
  C  C15  1  0.40153400  0.74000300  0.39559300  1
  C  C16  1  0.16167800  0.42749600  0.35358300  1
  C  C17  1  0.83832200  0.57250400  0.64641700  1
  C  C18  1  0.26492700  0.33558400  0.35403000  1
  C  C19  1  0.73507300  0.66441600  0.64597000  1
  C  C20  1  0.28478000  0.38294400  0.28180300  1
  C  C21  1  0.71522000  0.61705600  0.71819700  1
  C  C22  1  0.21650300  0.14437900  0.18548600  1
  C  C23  1  0.78349700  0.85562100  0.81451400  1
  C  C24  1  0.08429400  0.12024900  0.08301200  1
  C  C25  1  0.91570600  0.87975100  0.91698800  1
  C  C26  1  0.23957700  0.20684100  0.12474200  1
  C  C27  1  0.76042300  0.79315900  0.87525800  1
  C  C28  1  0.89816800  0.27046700  0.07417500  1
  C  C29  1  0.10183200  0.72953300  0.92582500  1
  C  C30  1  0.92229500  0.38492700  0.16795100  1
  C  C31  1  0.07770500  0.61507300  0.83204900  1
  C  C32  1  0.06972900  0.34387200  0.11377800  1
  C  C33  1  0.93027100  0.65612800  0.88622200  1
  C  C34  1  0.67044700  0.33152100  0.14918200  1
  C  C35  1  0.32955300  0.66847900  0.85081800  1
  C  C36  1  0.55016600  0.25178200  0.15952900  1
  C  C37  1  0.44983400  0.74821800  0.84047100  1
  C  C38  1  0.54926600  0.37447100  0.22384000  1
  C  C39  1  0.45073400  0.62552900  0.77616000  1
  C  C40  1  0.94694500  0.46166400  0.42193800  1
  C  C41  1  0.05305500  0.53833600  0.57806200  1
  C  C42  1  0.92666400  0.46784100  0.31871400  1
  C  C43  1  0.07333600  0.53215900  0.68128600  1
  C  C44  1  0.78428400  0.49773500  0.37885500  1
  C  C45  1  0.21571600  0.50226500  0.62114500  1
  C  C46  1  0.59941200  0.24895400  0.35064600  1
  C  C47  1  0.40058800  0.75104600  0.64935400  1
  C  C48  1  0.74323800  0.32924100  0.44320800  1
  C  C49  1  0.25676200  0.67075900  0.55679200  1
  C  C50  1  0.59528200  0.37157600  0.39704900  1
  C  C51  1  0.40471800  0.62842400  0.60295100  1
  C  C52  1  0.63910500  0.08358600  0.26158600  1
  C  C53  1  0.36089500  0.91641400  0.73841400  1
  C  C54  1  0.54064100  0.12859700  0.19114600  1
  C  C55  1  0.45935900  0.87140300  0.80885400  1
  C  C56  1  0.57223100  0.00993600  0.14270300  1
  C  C57  1  0.42776900  0.99006400  0.85729700  1
  C  C58  1  0.01710500  0.01646100  0.14307000  1
  C  C59  1  0.98289500  0.98353900  0.85693000  1
  C  C60  1  0.94424200  0.01143600  0.23014600  1
  C  C61  1  0.05575800  0.98856400  0.76985400  1
  C  C62  1  0.84732100  0.94490900  0.11477900  1
  C  C63  1  0.15267900  0.05509100  0.88522100  1
  C  C64  1  0.68771400  0.02457800  0.00371600  1
  C  C65  1  0.31228600  0.97542200  0.99628400  1
  C  C66  1  0.67092700  0.14585500  0.04830000  1
  C  C67  1  0.32907300  0.85414500  0.95170000  1
  C  C68  1  0.84214300  0.10503000  0.02623900  1
  C  C69  1  0.15785700  0.89497000  0.97376100  1
  C  C70  1  0.78484100  0.11453900  0.59392700  1
  C  C71  1  0.21515900  0.88546100  0.40607300  1
  C  C72  1  0.90685400  0.17037100  0.70369700  1
  C  C73  1  0.09314600  0.82962900  0.29630300  1
  C  C74  1  0.83905900  0.04918900  0.65083600  1
  C  C75  1  0.16094100  0.95081100  0.34916400  1
  C  C76  1  0.39390000  0.04387900  0.65620100  1
  C  C77  1  0.60610000  0.95612100  0.34379900  1
  C  C78  1  0.46668300  0.03989900  0.56599000  1
  C  C79  1  0.53331700  0.96010100  0.43401000  1
  C  C80  1  0.53834300  0.97551100  0.62264800  1
  C  C81  1  0.46165700  0.02448900  0.37735200  1
  C  C82  1  0.79061100  0.17875100  0.87341900  1
  C  C83  1  0.20938900  0.82124900  0.12658100  1
  C  C84  1  0.60351100  0.13246100  0.85363900  1
  C  C85  1  0.39648900  0.86753900  0.14636100  1
  C  C86  1  0.73224000  0.05705800  0.80363500  1
  C  C87  1  0.26776000  0.94294200  0.19636500  1
  C  C88  1  0.93088400  0.28829400  0.87580700  1
  C  C89  1  0.06911600  0.71170600  0.12419300  1
  C  C90  1  0.95662300  0.34555100  0.81038700  1
  C  C91  1  0.04337700  0.65444900  0.18961300  1
  C  C92  1  0.96970300  0.41172300  0.92907800  1
  C  C93  1  0.03029700  0.58827700  0.07092200  1
  C  C94  1  0.53728100  0.39202400  0.95342300  1
  C  C95  1  0.46271900  0.60797600  0.04657700  1
  C  C96  1  0.66455600  0.31359100  0.96058900  1
  C  C97  1  0.33544400  0.68640900  0.03941100  1
  C  C98  1  0.72519800  0.43551600  0.01384700  1
  C  C99  1  0.27480200  0.56448400  0.98615300  1
  C  C100  1  0.73274500  0.48238000  0.79159700  1
  C  C101  1  0.26725500  0.51762000  0.20840300  1
  C  C102  1  0.58323100  0.50121700  0.84645200  1
  C  C103  1  0.41676900  0.49878300  0.15354800  1
  C  C104  1  0.76955800  0.53485700  0.91210200  1
  C  C105  1  0.23044200  0.46514300  0.08789800  1
  C  C106  1  0.33833500  0.13478200  0.78011100  1
  C  C107  1  0.66166500  0.86521800  0.21988900  1
  C  C108  1  0.38499100  0.24509200  0.87994300  1
  C  C109  1  0.61500900  0.75490800  0.12005700  1
  C  C110  1  0.20318200  0.21243000  0.80786500  1
  C  C111  1  0.79681800  0.78757000  0.19213500  1
  C  C112  1  0.37898600  0.43060500  0.85937000  1
  C  C113  1  0.62101400  0.56939500  0.14063000  1
  C  C114  1  0.33563600  0.41911200  0.74751200  1
  C  C115  1  0.66436400  0.58088800  0.25248800  1
  C  C116  1  0.19982700  0.37917700  0.78698200  1
  C  C117  1  0.80017300  0.62082300  0.21301800  1
  C  C118  1  0.25949100  0.22780400  0.57729400  1
  C  C119  1  0.74050900  0.77219600  0.42270600  1
  C  C120  1  0.25609600  0.12348300  0.58821000  1
  C  C121  1  0.74390400  0.87651700  0.41179000  1
  C  C122  1  0.13228900  0.20512700  0.63083300  1
  C  C123  1  0.86771100  0.79487300  0.36916700  1
  Ni  Ni124  1  0.90017000  0.23247400  0.25456500  1
  Ni  Ni125  1  0.09983000  0.76752600  0.74543500  1
  Ni  Ni126  1  0.20281400  0.36283700  0.31080200  1
  Ni  Ni127  1  0.79718600  0.63716300  0.68919800  1
  Ni  Ni128  1  0.15712300  0.17545500  0.14522200  1
  Ni  Ni129  1  0.84287700  0.82454500  0.85477800  1
  Ni  Ni130  1  0.97709600  0.32279200  0.13529900  1
  Ni  Ni131  1  0.02290400  0.67720800  0.86470100  1
  Ni  Ni132  1  0.62067700  0.31943100  0.19687100  1
  Ni  Ni133  1  0.37932300  0.68056900  0.80312900  1
  Ni  Ni134  1  0.86735500  0.44916000  0.35920700  1
  Ni  Ni135  1  0.13264500  0.55084000  0.64079300  1
  Ni  Ni136  1  0.66862300  0.31641500  0.37856900  1
  Ni  Ni137  1  0.33137700  0.68358500  0.62143100  1
  Ni  Ni138  1  0.62145500  0.08141700  0.19492400  1
  Ni  Ni139  1  0.37854500  0.91858300  0.80507600  1
  Ni  Ni140  1  0.91493800  0.01221500  0.16482800  1
  Ni  Ni141  1  0.08506200  0.98778500  0.83517200  1
  Ni  Ni142  1  0.74606200  0.09543400  0.05118400  1
  Ni  Ni143  1  0.25393800  0.90456600  0.94881600  1
  Ni  Ni144  1  0.58304100  0.26229700  0.74086800  1
  Ni  Ni145  1  0.41695900  0.73770300  0.25913200  1
  Ni  Ni146  1  0.80887400  0.11840600  0.66170300  1
  Ni  Ni147  1  0.19112600  0.88159400  0.33829700  1
  Ni  Ni148  1  0.49609300  0.04174300  0.63258200  1
  Ni  Ni149  1  0.50390700  0.95825700  0.36741800  1
  Ni  Ni150  1  0.69787500  0.12707600  0.82242500  1
  Ni  Ni151  1  0.30212500  0.87292400  0.17757500  1
  Ni  Ni152  1  0.90995500  0.34976700  0.86625400  1
  Ni  Ni153  1  0.09004500  0.65023300  0.13374600  1
  Ni  Ni154  1  0.65212700  0.37715600  0.95343000  1
  Ni  Ni155  1  0.34787300  0.62284400  0.04657000  1
  Ni  Ni156  1  0.69543300  0.48134000  0.84837600  1
  Ni  Ni157  1  0.30456700  0.51866000  0.15162400  1
  Ni  Ni158  1  0.32204600  0.20876400  0.80888500  1
  Ni  Ni159  1  0.67795400  0.79123600  0.19111500  1
  Ni  Ni160  1  0.31907000  0.38549100  0.78870500  1
  Ni  Ni161  1  0.68093000  0.61450900  0.21129500  1
  Ni  Ni162  1  0.24726500  0.19856000  0.62284900  1
  Ni  Ni163  1  0.75273500  0.80144000  0.37715100  1
  Cu  Cu164  1  0.23840400  0.15757500  0.36118800  1
  Cu  Cu165  1  0.76159600  0.84242500  0.63881200  1
  Cu  Cu166  1  0.88061700  0.11981100  0.40688100  1
  Cu  Cu167  1  0.11938300  0.88018900  0.59311900  1
  Cu  Cu168  1  0.47122200  0.39567300  0.60512000  1
  Cu  Cu169  1  0.52877800  0.60432700  0.39488000  1
  Cu  Cu170  1  0.85218900  0.34617800  0.64189500  1
  Cu  Cu171  1  0.14781100  0.65382200  0.35810500  1
