# generated using pymatgen
data_CuNiC6
_symmetry_space_group_name_H-M   'P 1'
_cell_length_a   13.99435844
_cell_length_b   12.48279445
_cell_length_c   7.46811421
_cell_angle_alpha   85.15391598
_cell_angle_beta   62.72271190
_cell_angle_gamma   32.12337211
_symmetry_Int_Tables_number   1
_chemical_formula_structural   CuNiC6
_chemical_formula_sum   'Cu2 Ni2 C12'
_cell_volume   472.46751423
_cell_formula_units_Z   2
loop_
 _symmetry_equiv_pos_site_id
 _symmetry_equiv_pos_as_xyz
  1  'x, y, z'
loop_
 _atom_site_type_symbol
 _atom_site_label
 _atom_site_symmetry_multiplicity
 _atom_site_fract_x
 _atom_site_fract_y
 _atom_site_fract_z
 _atom_site_occupancy
  C  C0  1  0.82248800  0.82248800  0.17751200  1
  C  C1  1  0.17751200  0.17751200  0.82248800  1
  C  C2  1  0.42751200  0.42751200  0.07248800  1
  C  C3  1  0.07248800  0.07248800  0.42751200  1
  Ni  Ni4  1  0.00000000  0.00000000  0.00000000  1
  Ni  Ni5  1  0.25000000  0.25000000  0.25000000  1
  Cu  Cu6  1  0.50000000  0.50000000  0.50000000  1
  Cu  Cu7  1  0.75000000  0.75000000  0.75000000  1
  C  C8  1  0.53383900  0.85922900  0.15715800  1
  C  C9  1  0.44977400  0.15715800  0.85922900  1
  C  C10  1  0.80022600  0.09284200  0.39077100  1
  C  C11  1  0.71616100  0.39077100  0.09284200  1
  C  C12  1  0.39077100  0.71616100  0.80022600  1
  C  C13  1  0.09284200  0.80022600  0.71616100  1
  C  C14  1  0.15715800  0.44977400  0.53383900  1
  C  C15  1  0.85922900  0.53383900  0.44977400  1
