# generated using pymatgen
data_CuNi14C17
_symmetry_space_group_name_H-M   'P 1'
_cell_length_a   8.51102606
_cell_length_b   8.49466371
_cell_length_c   4.25524619
_cell_angle_alpha   90.00000000
_cell_angle_beta   90.00000000
_cell_angle_gamma   90.00000000
_symmetry_Int_Tables_number   1
_chemical_formula_structural   CuNi14C17
_chemical_formula_sum   'Cu1 Ni14 C17'
_cell_volume   307.64708352
_cell_formula_units_Z   1
loop_
 _symmetry_equiv_pos_site_id
 _symmetry_equiv_pos_as_xyz
  1  'x, y, z'
loop_
 _atom_site_type_symbol
 _atom_site_label
 _atom_site_symmetry_multiplicity
 _atom_site_fract_x
 _atom_site_fract_y
 _atom_site_fract_z
 _atom_site_occupancy
  C  C0  1  -0.00000000  -0.00000000  -0.00000000  1
  Ni  Ni1  1  0.50000000  -0.00000000  -0.00000000  1
  Ni  Ni2  1  0.50000000  0.50000000  -0.00000000  1
  Ni  Ni3  1  -0.00000000  0.24142824  0.50000000  1
  Ni  Ni4  1  -0.00000000  0.75857176  0.50000000  1
  Ni  Ni5  1  0.50000000  0.24768156  0.50000000  1
  Ni  Ni6  1  0.50000000  0.75231844  0.50000000  1
  Ni  Ni7  1  0.24443833  -0.00000000  0.50000000  1
  Ni  Ni8  1  0.25084524  0.50000000  0.50000000  1
  Ni  Ni9  1  0.75556167  -0.00000000  0.50000000  1
  Ni  Ni10  1  0.74915476  0.50000000  0.50000000  1
  Ni  Ni11  1  0.24933283  0.24395040  0.00000000  1
  Ni  Ni12  1  0.24933283  0.75604960  0.00000000  1
  Ni  Ni13  1  0.75066717  0.24395040  -0.00000000  1
  Ni  Ni14  1  0.75066717  0.75604960  -0.00000000  1
  Cu  Cu15  1  -0.00000000  0.50000000  -0.00000000  1
  C  C16  1  0.25514227  -0.00000000  -0.00000000  1
  C  C17  1  0.24189058  0.50000000  -0.00000000  1
  C  C18  1  0.74485773  -0.00000000  -0.00000000  1
  C  C19  1  0.75810942  0.50000000  -0.00000000  1
  C  C20  1  0.24891714  0.25166724  0.50000000  1
  C  C21  1  0.24891714  0.74833276  0.50000000  1
  C  C22  1  0.75108286  0.25166724  0.50000000  1
  C  C23  1  0.75108286  0.74833276  0.50000000  1
  C  C24  1  -0.00000000  -0.00000000  0.50000000  1
  C  C25  1  -0.00000000  0.50000000  0.50000000  1
  C  C26  1  0.50000000  -0.00000000  0.50000000  1
  C  C27  1  0.50000000  0.50000000  0.50000000  1
  C  C28  1  -0.00000000  0.27385332  0.00000000  1
  C  C29  1  -0.00000000  0.72614668  -0.00000000  1
  C  C30  1  0.50000000  0.25371771  -0.00000000  1
  C  C31  1  0.50000000  0.74628229  0.00000000  1
