# generated using pymatgen
data_CuNi6C
_symmetry_space_group_name_H-M   'P 1'
_cell_length_a   4.82266900
_cell_length_b   6.06537100
_cell_length_c   10.46967700
_cell_angle_alpha   90.00000000
_cell_angle_beta   90.00000000
_cell_angle_gamma   90.00000000
_symmetry_Int_Tables_number   1
_chemical_formula_structural   CuNi6C
_chemical_formula_sum   'Cu2 Ni12 C2'
_cell_volume   306.25141884
_cell_formula_units_Z   2
loop_
 _symmetry_equiv_pos_site_id
 _symmetry_equiv_pos_as_xyz
  1  'x, y, z'
loop_
 _atom_site_type_symbol
 _atom_site_label
 _atom_site_symmetry_multiplicity
 _atom_site_fract_x
 _atom_site_fract_y
 _atom_site_fract_z
 _atom_site_occupancy
  Ni  Ni0  1  0.50000000  0.24890900  0.08322600  1
  Ni  Ni1  1  0.50000000  0.75109100  0.08322600  1
  Ni  Ni2  1  0.00000000  0.24484800  0.91096500  1
  Ni  Ni3  1  0.00000000  0.75515200  0.91096500  1
  Ni  Ni4  1  0.00000000  0.50000000  0.17488600  1
  Ni  Ni5  1  0.00000000  0.50000000  0.67120100  1
  Ni  Ni6  1  0.50000000  0.74890900  0.58322600  1
  Ni  Ni7  1  0.50000000  0.25109100  0.58322600  1
  Ni  Ni8  1  0.00000000  0.74484800  0.41096500  1
  Ni  Ni9  1  0.00000000  0.25515200  0.41096500  1
  Ni  Ni10  1  0.00000000  0.00000000  0.67488600  1
  Ni  Ni11  1  0.00000000  0.00000000  0.17120100  1
  C  C12  1  0.50000000  0.50000000  0.83304900  1
  C  C13  1  0.50000000  0.00000000  0.33304900  1
  Cu  Cu14  1  0.50000000  0.50000000  0.33248600  1
  Cu  Cu15  1  0.50000000  0.00000000  0.83248600  1
