# generated using pymatgen
data_Cu5NiC2
_symmetry_space_group_name_H-M   'P 1'
_cell_length_a   5.42189400
_cell_length_b   7.59419422
_cell_length_c   9.06247628
_cell_angle_alpha   113.85550271
_cell_angle_beta   105.88555836
_cell_angle_gamma   92.89503972
_symmetry_Int_Tables_number   1
_chemical_formula_structural   Cu5NiC2
_chemical_formula_sum   'Cu15 Ni3 C6'
_cell_volume   322.67618432
_cell_formula_units_Z   3
loop_
 _symmetry_equiv_pos_site_id
 _symmetry_equiv_pos_as_xyz
  1  'x, y, z'
loop_
 _atom_site_type_symbol
 _atom_site_label
 _atom_site_symmetry_multiplicity
 _atom_site_fract_x
 _atom_site_fract_y
 _atom_site_fract_z
 _atom_site_occupancy
  C  C0  1  0.00441100  0.00282300  0.99585600  1
  C  C1  1  0.02551100  0.50090500  0.00723000  1
  C  C2  1  0.70278500  0.67538000  0.66001100  1
  C  C3  1  0.63750100  0.16375500  0.68200900  1
  C  C4  1  0.33161000  0.83354200  0.33745100  1
  C  C5  1  0.32528200  0.33655200  0.33079900  1
  Ni  Ni6  1  0.37148200  0.11291700  0.85203900  1
  Ni  Ni7  1  0.01490800  0.77142900  0.53537000  1
  Ni  Ni8  1  0.20913800  0.47323700  0.13305300  1
  Cu  Cu9  1  0.31500700  0.55549900  0.79788000  1
  Cu  Cu10  1  0.69453400  0.44934100  0.60244600  1
  Cu  Cu11  1  0.77739500  0.51916600  0.86929300  1
  Cu  Cu12  1  0.56435800  0.81522900  0.47027200  1
  Cu  Cu13  1  0.63635800  0.88247800  0.73417600  1
  Cu  Cu14  1  0.02916900  0.78210500  0.93180500  1
  Cu  Cu15  1  0.10262300  0.85079700  0.19816400  1
  Cu  Cu16  1  0.89723000  0.15209700  0.79852100  1
  Cu  Cu17  1  0.96357300  0.21945400  0.06217300  1
  Cu  Cu18  1  0.96029200  0.21576200  0.47678600  1
  Cu  Cu19  1  0.63520600  0.88500800  0.13387400  1
  Cu  Cu20  1  0.36315800  0.11671400  0.26775400  1
  Cu  Cu21  1  0.44237400  0.18439900  0.52814000  1
  Cu  Cu22  1  0.30227200  0.55059600  0.39908700  1
  Cu  Cu23  1  0.69382500  0.45081900  0.19581000  1
