# generated using pymatgen
data_Cu(Ni2C11)2
_symmetry_space_group_name_H-M   'P 1'
_cell_length_a   6.23852533
_cell_length_b   9.01464694
_cell_length_c   9.01464694
_cell_angle_alpha   91.20913603
_cell_angle_beta   84.01713255
_cell_angle_gamma   95.98286745
_symmetry_Int_Tables_number   1
_chemical_formula_structural   Cu(Ni2C11)2
_chemical_formula_sum   'Cu1 Ni4 C22'
_cell_volume   501.43204043
_cell_formula_units_Z   1
loop_
 _symmetry_equiv_pos_site_id
 _symmetry_equiv_pos_as_xyz
  1  'x, y, z'
loop_
 _atom_site_type_symbol
 _atom_site_label
 _atom_site_symmetry_multiplicity
 _atom_site_fract_x
 _atom_site_fract_y
 _atom_site_fract_z
 _atom_site_occupancy
  Ni  Ni0  1  0.18408200  0.62635600  0.22565500  1
  Ni  Ni1  1  0.29401800  0.80109600  0.69890400  1
  Ni  Ni2  1  0.18002300  0.15162200  0.34837800  1
  Ni  Ni3  1  0.18408200  0.27434500  0.87364400  1
  Cu  Cu4  1  0.81813400  0.84540500  0.65459500  1
  C  C5  1  0.63110800  0.86926900  0.35392400  1
  C  C6  1  0.62518800  0.36089900  0.13910100  1
  C  C7  1  0.63110800  0.14607600  0.63073100  1
  C  C8  1  0.67346800  0.62492300  0.87507700  1
  C  C9  1  0.63020500  0.00444000  0.98810300  1
  C  C10  1  0.63020500  0.51189700  0.49556000  1
  C  C11  1  0.89826900  0.53950200  0.46180200  1
  C  C12  1  0.89826900  0.03819800  0.96049800  1
  C  C13  1  0.52646000  0.48811400  0.01188600  1
  C  C14  1  0.52714300  0.00151200  0.49848800  1
  C  C15  1  0.94492800  0.67404400  0.82595600  1
  C  C16  1  0.89952500  0.11418200  0.62301300  1
  C  C17  1  0.89952500  0.87698700  0.38581800  1
  C  C18  1  0.89732200  0.37681200  0.12318800  1
  C  C19  1  0.57859100  0.61394200  0.68548800  1
  C  C20  1  0.51129900  0.40516200  0.31756200  1
  C  C21  1  0.51129900  0.18243800  0.09483800  1
  C  C22  1  0.54453500  0.90136400  0.17858300  1
  C  C23  1  0.50789000  0.08087800  0.80967700  1
  C  C24  1  0.57859100  0.81451200  0.88605800  1
  C  C25  1  0.54453500  0.32141700  0.59863600  1
  C  C26  1  0.50789000  0.69032300  0.41912200  1
