# generated using pymatgen
data_Cu(NiC5)2
_symmetry_space_group_name_H-M   'P 1'
_cell_length_a   6.67561700
_cell_length_b   8.84358954
_cell_length_c   10.33512443
_cell_angle_alpha   91.98489603
_cell_angle_beta   90.26083077
_cell_angle_gamma   91.11467526
_symmetry_Int_Tables_number   1
_chemical_formula_structural   Cu(NiC5)2
_chemical_formula_sum   'Cu4 Ni8 C40'
_cell_volume   609.65888565
_cell_formula_units_Z   4
loop_
 _symmetry_equiv_pos_site_id
 _symmetry_equiv_pos_as_xyz
  1  'x, y, z'
loop_
 _atom_site_type_symbol
 _atom_site_label
 _atom_site_symmetry_multiplicity
 _atom_site_fract_x
 _atom_site_fract_y
 _atom_site_fract_z
 _atom_site_occupancy
  Ni  Ni0  1  0.23708500  0.91852300  0.87880500  1
  Ni  Ni1  1  0.24703900  0.91631100  0.38082300  1
  Ni  Ni2  1  0.50174200  0.74023900  0.62710900  1
  Ni  Ni3  1  0.00174800  0.73627100  0.12728900  1
  Ni  Ni4  1  0.49900600  0.73770800  0.12637800  1
  Ni  Ni5  1  0.49977400  0.25975900  0.87310100  1
  Ni  Ni6  1  0.50579300  0.25896600  0.37594900  1
  Ni  Ni7  1  0.99647100  0.25938700  0.37655400  1
  Cu  Cu8  1  0.03139500  0.71608400  0.61356600  1
  Cu  Cu9  1  0.96950300  0.28094200  0.88478700  1
  Cu  Cu10  1  0.77805300  0.08991600  0.62922400  1
  Cu  Cu11  1  0.75574900  0.09972600  0.11979500  1
  C  C12  1  0.74831800  0.65117800  0.88752500  1
  C  C13  1  0.75601200  0.64667700  0.39526300  1
  C  C14  1  0.24796500  0.34716500  0.61402800  1
  C  C15  1  0.24273600  0.34874800  0.10728800  1
  C  C16  1  0.23620200  0.58456200  0.85152100  1
  C  C17  1  0.25362100  0.58424800  0.35915100  1
  C  C18  1  0.75854500  0.40943100  0.65032100  1
  C  C19  1  0.74635600  0.40923900  0.14316700  1
  C  C20  1  0.75988400  0.95805200  0.86230700  1
  C  C21  1  0.75250700  0.94894100  0.35781700  1
  C  C22  1  0.24154900  0.05009800  0.63585500  1
  C  C23  1  0.24764900  0.05711600  0.13660800  1
  C  C24  1  0.22559100  0.90401100  0.64146600  1
  C  C25  1  0.25563400  0.91242400  0.14663700  1
  C  C26  1  0.75193100  0.92089200  0.98316000  1
  C  C27  1  0.75220700  0.92053600  0.48056200  1
  C  C28  1  0.75006400  0.85222200  0.77095000  1
  C  C29  1  0.75999600  0.83648400  0.27232300  1
  C  C30  1  0.06051300  0.68494700  0.89949000  1
  C  C31  1  0.43321000  0.67314500  0.89012100  1
  C  C32  1  0.07112800  0.67928600  0.40745800  1
  C  C33  1  0.44381100  0.68192600  0.39671200  1
  C  C34  1  0.22505000  0.56718800  0.70029100  1
  C  C35  1  0.77277100  0.56767800  0.58925500  1
  C  C36  1  0.24418500  0.56232700  0.20864900  1
  C  C37  1  0.74556200  0.56350900  0.07823500  1
  C  C38  1  0.22596100  0.42526900  0.90962100  1
  C  C39  1  0.76824000  0.43127200  0.80099600  1
  C  C40  1  0.25582300  0.42892200  0.42169300  1
  C  C41  1  0.75699600  0.43449200  0.29294300  1
  C  C42  1  0.56354800  0.32034900  0.61085400  1
  C  C43  1  0.93209600  0.30425300  0.60577100  1
  C  C44  1  0.55658300  0.31091400  0.10689500  1
  C  C45  1  0.92526500  0.30903400  0.09585800  1
  C  C46  1  0.25191300  0.13577000  0.74051100  1
  C  C47  1  0.24036800  0.14614700  0.23981000  1
  C  C48  1  0.24751400  0.11555600  0.52457000  1
  C  C49  1  0.24592100  0.11798100  0.02376800  1
  C  C50  1  0.77735800  0.09850800  0.83002800  1
  C  C51  1  0.74605800  0.08567100  0.31714100  1
