# generated using pymatgen
data_CuNiC16
_symmetry_space_group_name_H-M   'P 1'
_cell_length_a   8.98003709
_cell_length_b   8.98003709
_cell_length_c   9.73161920
_cell_angle_alpha   57.27133571
_cell_angle_beta   57.27133571
_cell_angle_gamma   46.81791224
_symmetry_Int_Tables_number   1
_chemical_formula_structural   CuNiC16
_chemical_formula_sum   'Cu2 Ni2 C32'
_cell_volume   462.38166688
_cell_formula_units_Z   2
loop_
 _symmetry_equiv_pos_site_id
 _symmetry_equiv_pos_as_xyz
  1  'x, y, z'
loop_
 _atom_site_type_symbol
 _atom_site_label
 _atom_site_symmetry_multiplicity
 _atom_site_fract_x
 _atom_site_fract_y
 _atom_site_fract_z
 _atom_site_occupancy
  Ni  Ni0  1  0.29371500  0.70628500  0.25000000  1
  Ni  Ni1  1  0.70628500  0.29371500  0.75000000  1
  Cu  Cu2  1  0.79631400  0.20368600  0.25000000  1
  Cu  Cu3  1  0.20368600  0.79631400  0.75000000  1
  C  C4  1  0.41442300  0.31120400  0.11585200  1
  C  C5  1  0.00498600  0.70367500  0.19417800  1
  C  C6  1  0.29632500  0.99501400  0.30582200  1
  C  C7  1  0.99501400  0.29632500  0.80582200  1
  C  C8  1  0.70367500  0.00498600  0.69417800  1
  C  C9  1  0.58557700  0.68879600  0.88414800  1
  C  C10  1  0.68879600  0.58557700  0.38414800  1
  C  C11  1  0.31120400  0.41442300  0.61585200  1
  C  C12  1  0.17618000  0.60057900  0.68339600  1
  C  C13  1  0.43763400  0.42884100  0.92893200  1
  C  C14  1  0.57115900  0.56236600  0.57106800  1
  C  C15  1  0.56236600  0.57115900  0.07106800  1
  C  C16  1  0.42884100  0.43763400  0.42893200  1
  C  C17  1  0.82512800  0.66526100  0.34798600  1
  C  C18  1  0.33473900  0.17487200  0.15201400  1
  C  C19  1  0.17487200  0.33473900  0.65201400  1
  C  C20  1  0.66526100  0.82512800  0.84798600  1
  C  C21  1  0.21774700  0.47049600  0.23221600  1
  C  C22  1  0.15627200  0.98842800  0.27227700  1
  C  C23  1  0.39942100  0.82382000  0.81660400  1
  C  C24  1  0.82382000  0.39942100  0.31660400  1
  C  C25  1  0.60057900  0.17618000  0.18339600  1
  C  C26  1  0.84372800  0.01157200  0.72772300  1
  C  C27  1  0.98842800  0.15627200  0.77227700  1
  C  C28  1  0.01157200  0.84372800  0.22772300  1
  C  C29  1  0.78225300  0.52950400  0.76778400  1
  C  C30  1  0.75870700  0.99089500  0.52458700  1
  C  C31  1  0.00910500  0.24129300  0.97541300  1
  C  C32  1  0.24129300  0.00910500  0.47541300  1
  C  C33  1  0.99089500  0.75870700  0.02458700  1
  C  C34  1  0.47049600  0.21774700  0.73221600  1
  C  C35  1  0.52950400  0.78225300  0.26778400  1
