# generated using pymatgen
data_Cu12NiC5
_symmetry_space_group_name_H-M   'P 1'
_cell_length_a   4.16541100
_cell_length_b   7.15401500
_cell_length_c   19.82621300
_cell_angle_alpha   90.00000000
_cell_angle_beta   90.00000000
_cell_angle_gamma   90.00000000
_symmetry_Int_Tables_number   1
_chemical_formula_structural   Cu12NiC5
_chemical_formula_sum   'Cu24 Ni2 C10'
_cell_volume   590.80950496
_cell_formula_units_Z   2
loop_
 _symmetry_equiv_pos_site_id
 _symmetry_equiv_pos_as_xyz
  1  'x, y, z'
loop_
 _atom_site_type_symbol
 _atom_site_label
 _atom_site_symmetry_multiplicity
 _atom_site_fract_x
 _atom_site_fract_y
 _atom_site_fract_z
 _atom_site_occupancy
  C  C0  1  0.00000000  0.21332400  0.85362700  1
  C  C1  1  0.00000000  0.78667600  0.14637300  1
  C  C2  1  0.00000000  0.21332400  0.64637300  1
  C  C3  1  0.00000000  0.78667600  0.35362700  1
  C  C4  1  0.00000000  0.33205100  0.42952300  1
  C  C5  1  0.00000000  0.66794900  0.57047700  1
  C  C6  1  0.00000000  0.33205100  0.07047700  1
  C  C7  1  0.00000000  0.66794900  0.92952300  1
  C  C8  1  0.00000000  0.23895900  0.25000000  1
  C  C9  1  0.00000000  0.76104100  0.75000000  1
  Ni  Ni10  1  0.00000000  0.00000000  0.50000000  1
  Ni  Ni11  1  0.00000000  0.00000000  0.00000000  1
  Cu  Cu12  1  0.00000000  0.62521200  0.04878000  1
  Cu  Cu13  1  0.00000000  0.37478800  0.95122000  1
  Cu  Cu14  1  0.00000000  0.62521200  0.45122000  1
  Cu  Cu15  1  0.00000000  0.37478800  0.54878000  1
  Cu  Cu16  1  0.00000000  0.10429900  0.14540800  1
  Cu  Cu17  1  0.00000000  0.89570100  0.85459200  1
  Cu  Cu18  1  0.00000000  0.10429900  0.35459200  1
  Cu  Cu19  1  0.00000000  0.89570100  0.64540800  1
  Cu  Cu20  1  0.50000000  0.21261000  0.85503900  1
  Cu  Cu21  1  0.50000000  0.78739000  0.14496100  1
  Cu  Cu22  1  0.50000000  0.21261000  0.64496100  1
  Cu  Cu23  1  0.50000000  0.78739000  0.35503900  1
  Cu  Cu24  1  0.50000000  0.23249400  0.25000000  1
  Cu  Cu25  1  0.50000000  0.76750600  0.75000000  1
  Cu  Cu26  1  0.00000000  0.87349600  0.25000000  1
  Cu  Cu27  1  0.00000000  0.12650400  0.75000000  1
  Cu  Cu28  1  0.50000000  0.32523700  0.43035600  1
  Cu  Cu29  1  0.50000000  0.67476300  0.56964400  1
  Cu  Cu30  1  0.50000000  0.32523700  0.06964400  1
  Cu  Cu31  1  0.50000000  0.67476300  0.93035600  1
  Cu  Cu32  1  0.00000000  0.47418700  0.17144400  1
  Cu  Cu33  1  0.00000000  0.52581300  0.82855600  1
  Cu  Cu34  1  0.00000000  0.47418700  0.32855600  1
  Cu  Cu35  1  0.00000000  0.52581300  0.67144400  1
