# generated using pymatgen
data_Cu5NiC
_symmetry_space_group_name_H-M   'P 1'
_cell_length_a   8.97052709
_cell_length_b   8.97052709
_cell_length_c   7.29816924
_cell_angle_alpha   81.00984452
_cell_angle_beta   81.00984452
_cell_angle_gamma   116.16298733
_symmetry_Int_Tables_number   1
_chemical_formula_structural   Cu5NiC
_chemical_formula_sum   'Cu20 Ni4 C4'
_cell_volume   503.56609356
_cell_formula_units_Z   4
loop_
 _symmetry_equiv_pos_site_id
 _symmetry_equiv_pos_as_xyz
  1  'x, y, z'
loop_
 _atom_site_type_symbol
 _atom_site_label
 _atom_site_symmetry_multiplicity
 _atom_site_fract_x
 _atom_site_fract_y
 _atom_site_fract_z
 _atom_site_occupancy
  C  C0  1  0.38746000  0.61254000  0.25000000  1
  C  C1  1  0.61254000  0.38746000  0.75000000  1
  C  C2  1  0.80810100  0.19189900  0.25000000  1
  C  C3  1  0.19189900  0.80810100  0.75000000  1
  Ni  Ni4  1  0.89630700  0.60929200  0.18870300  1
  Ni  Ni5  1  0.39070800  0.10369300  0.31129700  1
  Ni  Ni6  1  0.10369300  0.39070800  0.81129700  1
  Ni  Ni7  1  0.60929200  0.89630700  0.68870300  1
  Cu  Cu8  1  0.78271600  0.58477400  0.05911200  1
  Cu  Cu9  1  0.41522600  0.21728400  0.44088800  1
  Cu  Cu10  1  0.21728400  0.41522600  0.94088800  1
  Cu  Cu11  1  0.58477400  0.78271600  0.55911200  1
  Cu  Cu12  1  0.08055400  0.68060400  0.07850200  1
  Cu  Cu13  1  0.31939600  0.91944600  0.42149800  1
  Cu  Cu14  1  0.91944600  0.31939600  0.92149800  1
  Cu  Cu15  1  0.68060400  0.08055400  0.57850200  1
  Cu  Cu16  1  0.87811100  0.71578900  0.31637600  1
  Cu  Cu17  1  0.28421100  0.12188900  0.18362400  1
  Cu  Cu18  1  0.12188900  0.28421100  0.68362400  1
  Cu  Cu19  1  0.71578900  0.87811100  0.81637600  1
  Cu  Cu20  1  0.85124200  0.43916300  0.32532400  1
  Cu  Cu21  1  0.56083700  0.14875800  0.17467600  1
  Cu  Cu22  1  0.14875800  0.56083700  0.67467600  1
  Cu  Cu23  1  0.43916300  0.85124200  0.82532400  1
  Cu  Cu24  1  0.03698900  0.19865500  0.33988200  1
  Cu  Cu25  1  0.80134500  0.96301100  0.16011800  1
  Cu  Cu26  1  0.96301100  0.80134500  0.66011800  1
  Cu  Cu27  1  0.19865500  0.03698900  0.83988200  1
