# generated using pymatgen
data_CuNi2C7
_symmetry_space_group_name_H-M   'P 1'
_cell_length_a   7.30148105
_cell_length_b   6.74958171
_cell_length_c   7.61019572
_cell_angle_alpha   90.00000000
_cell_angle_beta   58.59121142
_cell_angle_gamma   117.52957071
_symmetry_Int_Tables_number   1
_chemical_formula_structural   CuNi2C7
_chemical_formula_sum   'Cu2 Ni4 C14'
_cell_volume   269.08752342
_cell_formula_units_Z   2
loop_
 _symmetry_equiv_pos_site_id
 _symmetry_equiv_pos_as_xyz
  1  'x, y, z'
loop_
 _atom_site_type_symbol
 _atom_site_label
 _atom_site_symmetry_multiplicity
 _atom_site_fract_x
 _atom_site_fract_y
 _atom_site_fract_z
 _atom_site_occupancy
  C  C0  1  0.00000000  0.00000000  0.50000000  1
  C  C1  1  0.00000000  0.00000000  0.00000000  1
  Ni  Ni2  1  0.50000000  0.00000000  0.50000000  1
  Ni  Ni3  1  0.50000000  0.50000000  0.50000000  1
  Ni  Ni4  1  0.50000000  0.50000000  0.00000000  1
  Ni  Ni5  1  0.50000000  0.00000000  0.00000000  1
  Cu  Cu6  1  0.00000000  0.50000000  0.00000000  1
  Cu  Cu7  1  0.00000000  0.50000000  0.50000000  1
  C  C8  1  0.72310400  0.86155200  0.38844800  1
  C  C9  1  0.16180600  0.58090300  0.66909700  1
  C  C10  1  0.24044600  0.83516300  0.94626300  1
  C  C11  1  0.24044600  0.40528300  0.31329000  1
  C  C12  1  0.24044600  0.40528300  0.94626300  1
  C  C13  1  0.24044600  0.83516300  0.31329000  1
  C  C14  1  0.27689600  0.13844800  0.61155200  1
  C  C15  1  0.83819400  0.41909700  0.33090300  1
  C  C16  1  0.75955400  0.16483700  0.05373700  1
  C  C17  1  0.75955400  0.59471700  0.68671000  1
  C  C18  1  0.75955400  0.59471700  0.05373700  1
  C  C19  1  0.75955400  0.16483700  0.68671000  1
