# generated using pymatgen
data_Cu2NiC
_symmetry_space_group_name_H-M   'P 1'
_cell_length_a   7.02668260
_cell_length_b   7.02668260
_cell_length_c   7.02668281
_cell_angle_alpha   33.57201005
_cell_angle_beta   33.57201005
_cell_angle_gamma   33.57201744
_symmetry_Int_Tables_number   1
_chemical_formula_structural   Cu2NiC
_chemical_formula_sum   'Cu2 Ni1 C1'
_cell_volume   94.49972989
_cell_formula_units_Z   1
loop_
 _symmetry_equiv_pos_site_id
 _symmetry_equiv_pos_as_xyz
  1  'x, y, z'
loop_
 _atom_site_type_symbol
 _atom_site_label
 _atom_site_symmetry_multiplicity
 _atom_site_fract_x
 _atom_site_fract_y
 _atom_site_fract_z
 _atom_site_occupancy
  C  C0  1  0.99988500  0.99988500  0.99988500  1
  Ni  Ni1  1  0.50006700  0.50006700  0.50006700  1
  Cu  Cu2  1  0.12479700  0.12479700  0.12479700  1
  Cu  Cu3  1  0.62525200  0.62525200  0.62525200  1
