# generated using pymatgen
data_CuNiC6
_symmetry_space_group_name_H-M   'P 1'
_cell_length_a   5.81389600
_cell_length_b   8.70002100
_cell_length_c   8.89854000
_cell_angle_alpha   90.00000000
_cell_angle_beta   90.00000000
_cell_angle_gamma   90.00000000
_symmetry_Int_Tables_number   1
_chemical_formula_structural   CuNiC6
_chemical_formula_sum   'Cu4 Ni4 C24'
_cell_volume   450.09720561
_cell_formula_units_Z   4
loop_
 _symmetry_equiv_pos_site_id
 _symmetry_equiv_pos_as_xyz
  1  'x, y, z'
loop_
 _atom_site_type_symbol
 _atom_site_label
 _atom_site_symmetry_multiplicity
 _atom_site_fract_x
 _atom_site_fract_y
 _atom_site_fract_z
 _atom_site_occupancy
  Ni  Ni0  1  0.00000000  0.85079700  0.39114700  1
  Ni  Ni1  1  0.00000000  0.14920300  0.60885300  1
  Ni  Ni2  1  0.50000000  0.35079700  0.10885300  1
  Ni  Ni3  1  0.50000000  0.64920300  0.89114700  1
  Cu  Cu4  1  0.74602200  0.00000000  0.00000000  1
  Cu  Cu5  1  0.25397800  0.00000000  0.00000000  1
  Cu  Cu6  1  0.75397800  0.50000000  0.50000000  1
  Cu  Cu7  1  0.24602200  0.50000000  0.50000000  1
  C  C8  1  0.00000000  0.77295100  0.75460600  1
  C  C9  1  0.00000000  0.22704900  0.24539400  1
  C  C10  1  0.50000000  0.27295100  0.74539400  1
  C  C11  1  0.50000000  0.72704900  0.25460600  1
  C  C12  1  0.00000000  0.90575800  0.61053600  1
  C  C13  1  0.00000000  0.09424200  0.38946400  1
  C  C14  1  0.50000000  0.40575800  0.88946400  1
  C  C15  1  0.50000000  0.59424200  0.11053600  1
  C  C16  1  0.00000000  0.87584000  0.92916600  1
  C  C17  1  0.00000000  0.12416000  0.07083400  1
  C  C18  1  0.50000000  0.37584000  0.57083400  1
  C  C19  1  0.50000000  0.62416000  0.42916600  1
  C  C20  1  0.76054700  0.66118400  0.74977900  1
  C  C21  1  0.23945300  0.33881600  0.25022100  1
  C  C22  1  0.76054700  0.33881600  0.25022100  1
  C  C23  1  0.73945300  0.16118400  0.75022100  1
  C  C24  1  0.23945300  0.66118400  0.74977900  1
  C  C25  1  0.26054700  0.83881600  0.24977900  1
  C  C26  1  0.73945300  0.83881600  0.24977900  1
  C  C27  1  0.26054700  0.16118400  0.75022100  1
  C  C28  1  0.00000000  0.61556200  0.43439300  1
  C  C29  1  0.00000000  0.38443800  0.56560700  1
  C  C30  1  0.50000000  0.11556200  0.06560700  1
  C  C31  1  0.50000000  0.88443800  0.93439300  1
