# generated using pymatgen
data_Cu4Ni2C
_symmetry_space_group_name_H-M   'P 1'
_cell_length_a   13.18255000
_cell_length_b   7.04265800
_cell_length_c   8.25928063
_cell_angle_alpha   61.95940718
_cell_angle_beta   90.00000000
_cell_angle_gamma   90.00000000
_symmetry_Int_Tables_number   1
_chemical_formula_structural   Cu4Ni2C
_chemical_formula_sum   'Cu16 Ni8 C4'
_cell_volume   676.78299085
_cell_formula_units_Z   4
loop_
 _symmetry_equiv_pos_site_id
 _symmetry_equiv_pos_as_xyz
  1  'x, y, z'
loop_
 _atom_site_type_symbol
 _atom_site_label
 _atom_site_symmetry_multiplicity
 _atom_site_fract_x
 _atom_site_fract_y
 _atom_site_fract_z
 _atom_site_occupancy
  C  C0  1  0.01521200  0.23311100  0.75087900  1
  C  C1  1  0.48478800  0.23311100  0.25087900  1
  C  C2  1  0.98478800  0.76688900  0.24912100  1
  C  C3  1  0.51521200  0.76688900  0.74912100  1
  Ni  Ni4  1  0.88296700  0.19251000  0.65952800  1
  Ni  Ni5  1  0.61703300  0.19251000  0.15952800  1
  Ni  Ni6  1  0.11703300  0.80749000  0.34047200  1
  Ni  Ni7  1  0.38296700  0.80749000  0.84047200  1
  Ni  Ni8  1  0.94212100  0.45553000  0.78553600  1
  Ni  Ni9  1  0.55787900  0.45553000  0.28553600  1
  Ni  Ni10  1  0.05787900  0.54447000  0.21446400  1
  Ni  Ni11  1  0.44212100  0.54447000  0.71446400  1
  Cu  Cu12  1  0.14837100  0.28769000  0.84450800  1
  Cu  Cu13  1  0.35162900  0.28769000  0.34450800  1
  Cu  Cu14  1  0.85162900  0.71231000  0.15549200  1
  Cu  Cu15  1  0.64837100  0.71231000  0.65549200  1
  Cu  Cu16  1  0.08050900  0.99990700  0.71263800  1
  Cu  Cu17  1  0.41949100  0.99990700  0.21263800  1
  Cu  Cu18  1  0.91949100  0.00009300  0.28736200  1
  Cu  Cu19  1  0.58050900  0.00009300  0.78736200  1
  Cu  Cu20  1  0.80802900  0.15863400  0.60045400  1
  Cu  Cu21  1  0.69197100  0.15863400  0.10045400  1
  Cu  Cu22  1  0.19197100  0.84136600  0.39954600  1
  Cu  Cu23  1  0.30802900  0.84136600  0.89954600  1
  Cu  Cu24  1  0.90484900  0.59250500  0.80861700  1
  Cu  Cu25  1  0.59515100  0.59250500  0.30861700  1
  Cu  Cu26  1  0.09515100  0.40749500  0.19138300  1
  Cu  Cu27  1  0.40484900  0.40749500  0.69138300  1
