# generated using pymatgen
data_Cu12Ni2C7
_symmetry_space_group_name_H-M   'P 1'
_cell_length_a   10.10016571
_cell_length_b   10.10016571
_cell_length_c   3.94457800
_cell_angle_alpha   90.00000000
_cell_angle_beta   90.00000000
_cell_angle_gamma   119.99999808
_symmetry_Int_Tables_number   1
_chemical_formula_structural   Cu12Ni2C7
_chemical_formula_sum   'Cu12 Ni2 C7'
_cell_volume   348.48828757
_cell_formula_units_Z   1
loop_
 _symmetry_equiv_pos_site_id
 _symmetry_equiv_pos_as_xyz
  1  'x, y, z'
loop_
 _atom_site_type_symbol
 _atom_site_label
 _atom_site_symmetry_multiplicity
 _atom_site_fract_x
 _atom_site_fract_y
 _atom_site_fract_z
 _atom_site_occupancy
  C  C0  1  0.66666700  0.33333300  0.00000000  1
  C  C1  1  0.36619500  0.92200300  0.00000000  1
  C  C2  1  0.55580800  0.63380500  0.00000000  1
  C  C3  1  0.07799700  0.44419200  0.00000000  1
  C  C4  1  0.78008700  0.04513500  0.50000000  1
  C  C5  1  0.26504800  0.21991300  0.50000000  1
  C  C6  1  0.95486500  0.73495200  0.50000000  1
  Ni  Ni7  1  0.00000000  0.00000000  0.00000000  1
  Ni  Ni8  1  0.33333300  0.66666700  0.50000000  1
  Cu  Cu9  1  0.82294000  0.21414300  0.00000000  1
  Cu  Cu10  1  0.39120300  0.17706000  0.00000000  1
  Cu  Cu11  1  0.78585700  0.60879700  0.00000000  1
  Cu  Cu12  1  0.60376000  0.90298600  0.00000000  1
  Cu  Cu13  1  0.29922700  0.39624000  0.00000000  1
  Cu  Cu14  1  0.09701400  0.70077300  0.00000000  1
  Cu  Cu15  1  0.05504400  0.28566200  0.50000000  1
  Cu  Cu16  1  0.23061800  0.94495600  0.50000000  1
  Cu  Cu17  1  0.71433800  0.76938200  0.50000000  1
  Cu  Cu18  1  0.57085000  0.11673900  0.50000000  1
  Cu  Cu19  1  0.54588900  0.42915000  0.50000000  1
  Cu  Cu20  1  0.88326100  0.45411100  0.50000000  1
