# generated using pymatgen
data_Cu16Ni4C
_symmetry_space_group_name_H-M   'P 1'
_cell_length_a   17.37668000
_cell_length_b   8.02307900
_cell_length_c   12.41442275
_cell_angle_alpha   58.92898345
_cell_angle_beta   90.00000000
_cell_angle_gamma   90.00000000
_symmetry_Int_Tables_number   1
_chemical_formula_structural   Cu16Ni4C
_chemical_formula_sum   'Cu64 Ni16 C4'
_cell_volume   1482.43650954
_cell_formula_units_Z   4
loop_
 _symmetry_equiv_pos_site_id
 _symmetry_equiv_pos_as_xyz
  1  'x, y, z'
loop_
 _atom_site_type_symbol
 _atom_site_label
 _atom_site_symmetry_multiplicity
 _atom_site_fract_x
 _atom_site_fract_y
 _atom_site_fract_z
 _atom_site_occupancy
  C  C0  1  0.62307600  0.04884600  0.26284900  1
  C  C1  1  0.87692400  0.04884600  0.76284900  1
  C  C2  1  0.37692400  0.95115400  0.73715100  1
  C  C3  1  0.12307600  0.95115400  0.23715100  1
  Ni  Ni4  1  0.72415600  0.34452800  0.25423400  1
  Ni  Ni5  1  0.77584400  0.34452800  0.75423400  1
  Ni  Ni6  1  0.27584400  0.65547200  0.74576600  1
  Ni  Ni7  1  0.22415600  0.65547200  0.24576600  1
  Ni  Ni8  1  0.51766400  0.35925300  0.22113900  1
  Ni  Ni9  1  0.98233600  0.35925300  0.72113900  1
  Ni  Ni10  1  0.48233600  0.64074700  0.77886100  1
  Ni  Ni11  1  0.01766400  0.64074700  0.27886100  1
  Ni  Ni12  1  0.47401100  0.87526100  0.26037700  1
  Ni  Ni13  1  0.02598900  0.87526100  0.76037700  1
  Ni  Ni14  1  0.52598900  0.12473900  0.73962300  1
  Ni  Ni15  1  0.97401100  0.12473900  0.23962300  1
  Ni  Ni16  1  0.77461200  0.85479100  0.30745700  1
  Ni  Ni17  1  0.72538800  0.85479100  0.80745700  1
  Ni  Ni18  1  0.22538800  0.14520900  0.69254300  1
  Ni  Ni19  1  0.27461200  0.14520900  0.19254300  1
  Cu  Cu20  1  0.61972100  0.87060700  0.04649200  1
  Cu  Cu21  1  0.88027900  0.87060700  0.54649200  1
  Cu  Cu22  1  0.38027900  0.12939300  0.95350800  1
  Cu  Cu23  1  0.11972100  0.12939300  0.45350800  1
  Cu  Cu24  1  0.62674400  0.65613500  0.53848100  1
  Cu  Cu25  1  0.87325600  0.65613500  0.03848100  1
  Cu  Cu26  1  0.37325600  0.34386500  0.46151900  1
  Cu  Cu27  1  0.12674400  0.34386500  0.96151900  1
  Cu  Cu28  1  0.64115400  0.54944200  0.49679200  1
  Cu  Cu29  1  0.85884600  0.54944200  0.99679200  1
  Cu  Cu30  1  0.35884600  0.45055800  0.50320800  1
  Cu  Cu31  1  0.14115400  0.45055800  0.00320800  1
  Cu  Cu32  1  0.63087700  0.04053200  0.01737100  1
  Cu  Cu33  1  0.86912300  0.04053200  0.51737100  1
  Cu  Cu34  1  0.36912300  0.95946800  0.98262900  1
  Cu  Cu35  1  0.13087700  0.95946800  0.48262900  1
  Cu  Cu36  1  0.72546700  0.29887000  0.16777000  1
  Cu  Cu37  1  0.77453300  0.29887000  0.66777000  1
  Cu  Cu38  1  0.27453300  0.70113000  0.83223000  1
  Cu  Cu39  1  0.22546700  0.70113000  0.33223000  1
  Cu  Cu40  1  0.67402000  0.24571800  0.34404500  1
  Cu  Cu41  1  0.82598000  0.24571800  0.84404500  1
  Cu  Cu42  1  0.32598000  0.75428200  0.65595500  1
  Cu  Cu43  1  0.17402000  0.75428200  0.15595500  1
  Cu  Cu44  1  0.76508800  0.46796300  0.25257800  1
  Cu  Cu45  1  0.73491200  0.46796300  0.75257800  1
  Cu  Cu46  1  0.23491200  0.53203700  0.74742200  1
  Cu  Cu47  1  0.26508800  0.53203700  0.24742200  1
  Cu  Cu48  1  0.56655300  0.37300900  0.13678100  1
  Cu  Cu49  1  0.93344700  0.37300900  0.63678100  1
  Cu  Cu50  1  0.43344700  0.62699100  0.86321900  1
  Cu  Cu51  1  0.06655300  0.62699100  0.36321900  1
  Cu  Cu52  1  0.51572200  0.18826600  0.32345400  1
  Cu  Cu53  1  0.98427800  0.18826600  0.82345400  1
  Cu  Cu54  1  0.48427800  0.81173400  0.67654600  1
  Cu  Cu55  1  0.01572200  0.81173400  0.17654600  1
  Cu  Cu56  1  0.47857200  0.49507300  0.20537000  1
  Cu  Cu57  1  0.02142800  0.49507300  0.70537000  1
  Cu  Cu58  1  0.52142800  0.50492700  0.79463000  1
  Cu  Cu59  1  0.97857200  0.50492700  0.29463000  1
  Cu  Cu60  1  0.50325000  0.02117000  0.15947500  1
  Cu  Cu61  1  0.99675000  0.02117000  0.65947500  1
  Cu  Cu62  1  0.49675000  0.97883000  0.84052500  1
  Cu  Cu63  1  0.00325000  0.97883000  0.34052500  1
  Cu  Cu64  1  0.52022900  0.80067100  0.35760400  1
  Cu  Cu65  1  0.97977100  0.80067100  0.85760400  1
  Cu  Cu66  1  0.47977100  0.19932900  0.64239600  1
  Cu  Cu67  1  0.02022900  0.19932900  0.14239600  1
  Cu  Cu68  1  0.40971600  0.81310800  0.26522300  1
  Cu  Cu69  1  0.09028400  0.81310800  0.76522300  1
  Cu  Cu70  1  0.59028400  0.18689200  0.73477700  1
  Cu  Cu71  1  0.90971600  0.18689200  0.23477700  1
  Cu  Cu72  1  0.72835700  0.89123100  0.21405200  1
  Cu  Cu73  1  0.77164300  0.89123100  0.71405200  1
  Cu  Cu74  1  0.27164300  0.10876900  0.78594800  1
  Cu  Cu75  1  0.22835700  0.10876900  0.28594800  1
  Cu  Cu76  1  0.74591400  0.90272500  0.38428700  1
  Cu  Cu77  1  0.75408600  0.90272500  0.88428700  1
  Cu  Cu78  1  0.25408600  0.09727500  0.61571300  1
  Cu  Cu79  1  0.24591400  0.09727500  0.11571300  1
  Cu  Cu80  1  0.83780700  0.78421500  0.31954100  1
  Cu  Cu81  1  0.66219300  0.78421500  0.81954100  1
  Cu  Cu82  1  0.16219300  0.21578500  0.68045900  1
  Cu  Cu83  1  0.33780700  0.21578500  0.18045900  1
