# generated using pymatgen
data_Cu12Ni6C23
_symmetry_space_group_name_H-M   'P 1'
_cell_length_a   11.40762068
_cell_length_b   11.40762039
_cell_length_c   11.40762100
_cell_angle_alpha   109.47121994
_cell_angle_beta   109.47121943
_cell_angle_gamma   109.47122235
_symmetry_Int_Tables_number   1
_chemical_formula_structural   Cu12Ni6C23
_chemical_formula_sum   'Cu24 Ni12 C46'
_cell_volume   1142.78183111
_cell_formula_units_Z   2
loop_
 _symmetry_equiv_pos_site_id
 _symmetry_equiv_pos_as_xyz
  1  'x, y, z'
loop_
 _atom_site_type_symbol
 _atom_site_label
 _atom_site_symmetry_multiplicity
 _atom_site_fract_x
 _atom_site_fract_y
 _atom_site_fract_z
 _atom_site_occupancy
  Ni  Ni0  1  0.25000100  0.27397400  0.02397400  1
  Ni  Ni1  1  0.25000000  0.97602600  0.72602700  1
  Ni  Ni2  1  0.77397400  0.75000000  0.52397300  1
  Ni  Ni3  1  0.52397400  0.77397400  0.75000000  1
  Ni  Ni4  1  0.72602600  0.24999900  0.97602600  1
  Ni  Ni5  1  0.97602600  0.72602600  0.25000000  1
  Ni  Ni6  1  0.74999900  0.22602600  0.47602600  1
  Ni  Ni7  1  0.22602700  0.47602600  0.75000000  1
  Ni  Ni8  1  0.27397300  0.02397400  0.25000000  1
  Ni  Ni9  1  0.02397400  0.24999900  0.27397400  1
  Ni  Ni10  1  0.47602600  0.75000000  0.22602600  1
  Ni  Ni11  1  0.75000000  0.52397400  0.77397400  1
  Cu  Cu12  1  0.59337000  0.53748100  0.20805500  1
  Cu  Cu13  1  0.96251800  0.55588900  0.67057300  1
  Cu  Cu14  1  0.29194400  0.82942600  0.38531500  1
  Cu  Cu15  1  0.90663000  0.11468600  0.94411200  1
  Cu  Cu16  1  0.11468500  0.94411200  0.90663100  1
  Cu  Cu17  1  0.94411200  0.90663000  0.11468600  1
  Cu  Cu18  1  0.09337000  0.70805600  0.03748100  1
  Cu  Cu19  1  0.17057400  0.05588900  0.46251900  1
  Cu  Cu20  1  0.32942700  0.79194500  0.88531400  1
  Cu  Cu21  1  0.44411200  0.61468600  0.40663000  1
  Cu  Cu22  1  0.61468500  0.40663000  0.44411200  1
  Cu  Cu23  1  0.03748200  0.09337000  0.70805500  1
  Cu  Cu24  1  0.05588800  0.46251900  0.17057300  1
  Cu  Cu25  1  0.88531500  0.32942600  0.79194500  1
  Cu  Cu26  1  0.70805500  0.03748100  0.09337000  1
  Cu  Cu27  1  0.46251900  0.17057400  0.05588900  1
  Cu  Cu28  1  0.79194400  0.88531400  0.32942600  1
  Cu  Cu29  1  0.67057400  0.96251900  0.55588900  1
  Cu  Cu30  1  0.82942600  0.38531400  0.29194500  1
  Cu  Cu31  1  0.38531400  0.29194500  0.82942600  1
  Cu  Cu32  1  0.53748200  0.20805600  0.59337000  1
  Cu  Cu33  1  0.20805500  0.59337000  0.53748200  1
  Cu  Cu34  1  0.55588800  0.67057300  0.96251900  1
  Cu  Cu35  1  0.40663000  0.44411100  0.61468500  1
  C  C36  1  0.27560100  0.27560100  0.27560100  1
  C  C37  1  0.72439900  0.50000000  0.00000000  1
  C  C38  1  0.50000000  0.00000000  0.72439900  1
  C  C39  1  0.00000000  0.72439900  0.50000000  1
  C  C40  1  0.50000000  0.00000000  0.22439900  1
  C  C41  1  0.00000000  0.22439900  0.50000000  1
  C  C42  1  0.22439900  0.50000000  0.00000000  1
  C  C43  1  0.77560100  0.77560100  0.77560100  1
  C  C44  1  0.10922200  0.10922300  0.10922200  1
  C  C45  1  0.89077800  0.50000000  0.00000000  1
  C  C46  1  0.50000000  0.00000000  0.89077700  1
  C  C47  1  0.00000000  0.89077800  0.50000000  1
  C  C48  1  0.50000000  0.00000000  0.39077800  1
  C  C49  1  0.00000000  0.39077700  0.50000000  1
  C  C50  1  0.39077800  0.50000000  0.00000000  1
  C  C51  1  0.60922200  0.60922300  0.60922200  1
  C  C52  1  0.41858900  0.36674300  0.23407800  1
  C  C53  1  0.13325700  0.55184600  0.86733600  1
  C  C54  1  0.26592100  0.63266500  0.18451000  1
  C  C55  1  0.08141000  0.31548900  0.94815400  1
  C  C56  1  0.31548900  0.94815400  0.08141100  1
  C  C57  1  0.94815400  0.08141100  0.31548900  1
  C  C58  1  0.91858900  0.73407800  0.86674300  1
  C  C59  1  0.36733500  0.05184600  0.63325700  1
  C  C60  1  0.13266500  0.76592200  0.68451100  1
  C  C61  1  0.44815400  0.81548900  0.58141000  1
  C  C62  1  0.81549000  0.58141100  0.44815400  1
  C  C63  1  0.86674300  0.91858900  0.73407800  1
  C  C64  1  0.05184600  0.63325700  0.36733500  1
  C  C65  1  0.68451100  0.13266500  0.76592200  1
  C  C66  1  0.73407800  0.86674300  0.91858900  1
  C  C67  1  0.63325600  0.36733500  0.05184500  1
  C  C68  1  0.76592100  0.68451100  0.13266500  1
  C  C69  1  0.86733600  0.13325700  0.55184600  1
  C  C70  1  0.63266500  0.18451100  0.26592200  1
  C  C71  1  0.18451100  0.26592200  0.63266500  1
  C  C72  1  0.36674300  0.23407800  0.41858900  1
  C  C73  1  0.23407900  0.41858900  0.36674300  1
  C  C74  1  0.55184600  0.86733500  0.13325700  1
  C  C75  1  0.58141100  0.44815400  0.81549000  1
  C  C76  1  0.12500000  0.87500000  0.25000000  1
  C  C77  1  0.62500000  0.75000000  0.37500000  1
  C  C78  1  0.87500000  0.24999900  0.12500000  1
  C  C79  1  0.25000000  0.12500000  0.87500000  1
  C  C80  1  0.75000000  0.37500000  0.62500000  1
  C  C81  1  0.37500000  0.62500000  0.75000000  1
