# generated using pymatgen
data_CuNiC2
_symmetry_space_group_name_H-M   'P 1'
_cell_length_a   5.65907100
_cell_length_b   6.54996500
_cell_length_c   5.14642900
_cell_angle_alpha   90.00000000
_cell_angle_beta   90.00000000
_cell_angle_gamma   90.00000000
_symmetry_Int_Tables_number   1
_chemical_formula_structural   CuNiC2
_chemical_formula_sum   'Cu4 Ni4 C8'
_cell_volume   190.76122721
_cell_formula_units_Z   4
loop_
 _symmetry_equiv_pos_site_id
 _symmetry_equiv_pos_as_xyz
  1  'x, y, z'
loop_
 _atom_site_type_symbol
 _atom_site_label
 _atom_site_symmetry_multiplicity
 _atom_site_fract_x
 _atom_site_fract_y
 _atom_site_fract_z
 _atom_site_occupancy
  Ni  Ni0  1  0.59219400  0.87853600  0.99560000  1
  Ni  Ni1  1  0.40780600  0.12146400  0.49560000  1
  Ni  Ni2  1  0.90780600  0.37853600  0.49560000  1
  Ni  Ni3  1  0.09219400  0.62146400  0.99560000  1
  Cu  Cu4  1  0.57429500  0.37187300  0.00338000  1
  Cu  Cu5  1  0.42570500  0.62812700  0.50338000  1
  Cu  Cu6  1  0.92570500  0.87187300  0.50338000  1
  Cu  Cu7  1  0.07429500  0.12812700  0.00338000  1
  C  C8  1  0.55974500  0.39454100  0.36242400  1
  C  C9  1  0.44025500  0.60545900  0.86242400  1
  C  C10  1  0.94025500  0.89454100  0.86242400  1
  C  C11  1  0.05974500  0.10545900  0.36242400  1
  C  C12  1  0.60580300  0.85587500  0.40859500  1
  C  C13  1  0.39419700  0.14412500  0.90859500  1
  C  C14  1  0.89419700  0.35587500  0.90859500  1
  C  C15  1  0.10580300  0.64412500  0.40859500  1
