# generated using pymatgen
data_Cu(NiC3)2
_symmetry_space_group_name_H-M   'P 1'
_cell_length_a   3.40317028
_cell_length_b   3.40317028
_cell_length_c   31.41739800
_cell_angle_alpha   90.00000000
_cell_angle_beta   90.00000000
_cell_angle_gamma   120.00000550
_symmetry_Int_Tables_number   1
_chemical_formula_structural   Cu(NiC3)2
_chemical_formula_sum   'Cu1 Ni2 C6'
_cell_volume   315.11435065
_cell_formula_units_Z   1
loop_
 _symmetry_equiv_pos_site_id
 _symmetry_equiv_pos_as_xyz
  1  'x, y, z'
loop_
 _atom_site_type_symbol
 _atom_site_label
 _atom_site_symmetry_multiplicity
 _atom_site_fract_x
 _atom_site_fract_y
 _atom_site_fract_z
 _atom_site_occupancy
  C  C0  1  0.33333300  0.66666700  0.05989500  1
  C  C1  1  0.33333300  0.66666700  0.94010500  1
  Ni  Ni2  1  0.33333300  0.66666700  0.76865500  1
  Ni  Ni3  1  0.33333300  0.66666700  0.23134500  1
  Cu  Cu4  1  0.66666700  0.33333300  0.00000000  1
  C  C5  1  0.66666700  0.33333300  0.71618900  1
  C  C6  1  0.66666700  0.33333300  0.17882700  1
  C  C7  1  0.66666700  0.33333300  0.82117300  1
  C  C8  1  0.66666700  0.33333300  0.28381100  1
