# generated using pymatgen
data_Cu3NiC8
_symmetry_space_group_name_H-M   'P 1'
_cell_length_a   3.33972415
_cell_length_b   3.33972415
_cell_length_c   38.11921800
_cell_angle_alpha   90.00000000
_cell_angle_beta   90.00000000
_cell_angle_gamma   120.00000299
_symmetry_Int_Tables_number   1
_chemical_formula_structural   Cu3NiC8
_chemical_formula_sum   'Cu3 Ni1 C8'
_cell_volume   368.21018358
_cell_formula_units_Z   1
loop_
 _symmetry_equiv_pos_site_id
 _symmetry_equiv_pos_as_xyz
  1  'x, y, z'
loop_
 _atom_site_type_symbol
 _atom_site_label
 _atom_site_symmetry_multiplicity
 _atom_site_fract_x
 _atom_site_fract_y
 _atom_site_fract_z
 _atom_site_occupancy
  C  C0  1  0.33333300  0.66666700  0.33152600  1
  C  C1  1  0.33333300  0.66666700  0.23201700  1
  Ni  Ni2  1  0.66666700  0.33333300  0.28176400  1
  Cu  Cu3  1  0.33333300  0.66666700  0.09390900  1
  Cu  Cu4  1  0.33333300  0.66666700  0.46970600  1
  Cu  Cu5  1  0.66666700  0.33333300  0.65753200  1
  C  C6  1  0.33333300  0.66666700  0.70147300  1
  C  C7  1  0.66666700  0.33333300  0.42575400  1
  C  C8  1  0.66666700  0.33333300  0.51363900  1
  C  C9  1  0.33333300  0.66666700  0.61358800  1
  C  C10  1  0.66666700  0.33333300  0.05395500  1
  C  C11  1  0.66666700  0.33333300  0.13388400  1
