# generated using pymatgen
data_CuNi6C37
_symmetry_space_group_name_H-M   'P 1'
_cell_length_a   6.93522400
_cell_length_b   9.47427038
_cell_length_c   9.67028869
_cell_angle_alpha   118.07347575
_cell_angle_beta   89.76928854
_cell_angle_gamma   90.90673552
_symmetry_Int_Tables_number   1
_chemical_formula_structural   CuNi6C37
_chemical_formula_sum   'Cu1 Ni6 C37'
_cell_volume   560.56554010
_cell_formula_units_Z   1
loop_
 _symmetry_equiv_pos_site_id
 _symmetry_equiv_pos_as_xyz
  1  'x, y, z'
loop_
 _atom_site_type_symbol
 _atom_site_label
 _atom_site_symmetry_multiplicity
 _atom_site_fract_x
 _atom_site_fract_y
 _atom_site_fract_z
 _atom_site_occupancy
  C  C0  1  0.02234200  0.33729500  0.68288000  1
  C  C1  1  0.49078100  0.67705400  0.34406000  1
  C  C2  1  0.98966200  0.67813400  0.32035400  1
  C  C3  1  0.51643100  0.32985100  0.66048500  1
  C  C4  1  0.24194200  0.01997600  0.25163800  1
  C  C5  1  0.76386200  0.98117000  0.72445400  1
  C  C6  1  0.25178700  0.72001400  0.72343100  1
  C  C7  1  0.25857400  0.24664000  0.99419000  1
  C  C8  1  0.75808200  0.74285300  0.99862000  1
  C  C9  1  0.76407300  0.28437200  0.26789200  1
  Ni  Ni10  1  0.25615600  0.63707300  0.03522500  1
  Ni  Ni11  1  0.76099300  0.35746900  0.96664700  1
  Ni  Ni12  1  0.25285500  0.97122500  0.59831900  1
  Ni  Ni13  1  0.25685300  0.40649400  0.38002200  1
  Ni  Ni14  1  0.76027000  0.59570100  0.62701100  1
  Ni  Ni15  1  0.74585900  0.02751500  0.39412400  1
  Cu  Cu16  1  0.48948800  0.00410600  0.00132400  1
  C  C17  1  0.25556900  0.52564800  0.85516600  1
  C  C18  1  0.76364100  0.46895100  0.14749700  1
  C  C19  1  0.26691300  0.15750900  0.68123500  1
  C  C20  1  0.25197300  0.34266100  0.50237800  1
  C  C21  1  0.75867600  0.67195700  0.51522200  1
  C  C22  1  0.73747900  0.84185600  0.32731600  1
  C  C23  1  0.25024400  0.53519600  0.12483400  1
  C  C24  1  0.77362600  0.45929900  0.87789100  1
  C  C25  1  0.21580400  0.89739400  0.41731800  1
  C  C26  1  0.17803000  0.58022800  0.45370900  1
  C  C27  1  0.80309800  0.41183200  0.53689600  1
  C  C28  1  0.81628300  0.11035200  0.56926200  1
  C  C29  1  0.07599500  0.74680400  0.08919200  1
  C  C30  1  0.57561300  0.25222400  0.90635200  1
  C  C31  1  0.08808000  0.91736100  0.67180200  1
  C  C32  1  0.12672200  0.29155300  0.23855200  1
  C  C33  1  0.56261700  0.60848000  0.70730900  1
  C  C34  1  0.54587300  0.09827900  0.39836700  1
  C  C35  1  0.93475200  0.24175700  0.91671500  1
  C  C36  1  0.43760600  0.74776400  0.09178400  1
  C  C37  1  0.88788500  0.06263400  0.28839400  1
  C  C38  1  0.91837200  0.67668500  0.75568500  1
  C  C39  1  0.46400000  0.42195700  0.33050700  1
  C  C40  1  0.44319000  0.89521200  0.61589500  1
  C  C41  1  0.49927400  0.12678200  0.13718100  1
  C  C42  1  0.64400800  0.93477300  0.92733300  1
  C  C43  1  0.31516600  0.95770900  0.94533300  1
