# generated using pymatgen
data_Cu(NiC2)3
_symmetry_space_group_name_H-M   'P 1'
_cell_length_a   6.06027689
_cell_length_b   6.06027689
_cell_length_c   12.52962000
_cell_angle_alpha   90.00000000
_cell_angle_beta   90.00000000
_cell_angle_gamma   120.00000974
_symmetry_Int_Tables_number   1
_chemical_formula_structural   Cu(NiC2)3
_chemical_formula_sum   'Cu2 Ni6 C12'
_cell_volume   398.52303007
_cell_formula_units_Z   2
loop_
 _symmetry_equiv_pos_site_id
 _symmetry_equiv_pos_as_xyz
  1  'x, y, z'
loop_
 _atom_site_type_symbol
 _atom_site_label
 _atom_site_symmetry_multiplicity
 _atom_site_fract_x
 _atom_site_fract_y
 _atom_site_fract_z
 _atom_site_occupancy
  Ni  Ni0  1  0.00000000  0.00000000  0.50000000  1
  Ni  Ni1  1  0.00000000  0.00000000  0.00000000  1
  Ni  Ni2  1  0.33333300  0.66666700  0.99925000  1
  Ni  Ni3  1  0.66666700  0.33333300  0.00075000  1
  Ni  Ni4  1  0.66666700  0.33333300  0.49925000  1
  Ni  Ni5  1  0.33333300  0.66666700  0.50075000  1
  Cu  Cu6  1  0.33333300  0.66666700  0.25000000  1
  Cu  Cu7  1  0.66666700  0.33333300  0.75000000  1
  C  C8  1  0.33255200  0.33084900  0.36668900  1
  C  C9  1  0.66915100  0.00170300  0.36668900  1
  C  C10  1  0.99829700  0.66744800  0.36668900  1
  C  C11  1  0.33084900  0.33255200  0.63331100  1
  C  C12  1  0.00170300  0.66915100  0.63331100  1
  C  C13  1  0.66744800  0.99829700  0.63331100  1
  C  C14  1  0.66744800  0.66915100  0.86668900  1
  C  C15  1  0.33084900  0.99829700  0.86668900  1
  C  C16  1  0.00170300  0.33255200  0.86668900  1
  C  C17  1  0.66915100  0.66744800  0.13331100  1
  C  C18  1  0.99829700  0.33084900  0.13331100  1
  C  C19  1  0.33255200  0.00170300  0.13331100  1
