# generated using pymatgen
data_CuNiC11
_symmetry_space_group_name_H-M   'P 1'
_cell_length_a   11.43037160
_cell_length_b   11.43037160
_cell_length_c   11.03527208
_cell_angle_alpha   70.56535898
_cell_angle_beta   70.56535898
_cell_angle_gamma   36.45079402
_symmetry_Int_Tables_number   1
_chemical_formula_structural   CuNiC11
_chemical_formula_sum   'Cu4 Ni4 C44'
_cell_volume   802.33836235
_cell_formula_units_Z   4
loop_
 _symmetry_equiv_pos_site_id
 _symmetry_equiv_pos_as_xyz
  1  'x, y, z'
loop_
 _atom_site_type_symbol
 _atom_site_label
 _atom_site_symmetry_multiplicity
 _atom_site_fract_x
 _atom_site_fract_y
 _atom_site_fract_z
 _atom_site_occupancy
  Ni  Ni0  1  0.69289400  0.00177200  0.47702300  1
  Ni  Ni1  1  0.99822800  0.30710600  0.02297700  1
  Ni  Ni2  1  0.30710600  0.99822800  0.52297700  1
  Ni  Ni3  1  0.00177200  0.69289400  0.97702300  1
  C  C4  1  0.22572600  0.55503200  0.28426600  1
  C  C5  1  0.44496800  0.77427400  0.21573400  1
  C  C6  1  0.77427400  0.44496800  0.71573400  1
  C  C7  1  0.55503200  0.22572600  0.78426600  1
  C  C8  1  0.81286300  0.66119500  0.33312800  1
  C  C9  1  0.33880500  0.18713700  0.16687200  1
  C  C10  1  0.18713700  0.33880500  0.66687200  1
  C  C11  1  0.66119500  0.81286300  0.83312800  1
  Cu  Cu12  1  0.74589300  0.17419300  0.09454000  1
  Cu  Cu13  1  0.82580700  0.25410700  0.40546000  1
  Cu  Cu14  1  0.25410700  0.82580700  0.90546000  1
  Cu  Cu15  1  0.17419300  0.74589300  0.59454000  1
  C  C16  1  0.97793800  0.65575500  0.38379100  1
  C  C17  1  0.34424500  0.02206200  0.11620900  1
  C  C18  1  0.02206200  0.34424500  0.61620900  1
  C  C19  1  0.65575500  0.97793800  0.88379100  1
  C  C20  1  0.60630700  0.90256000  0.40814600  1
  C  C21  1  0.09744000  0.39369300  0.09185400  1
  C  C22  1  0.39369300  0.09744000  0.59185400  1
  C  C23  1  0.90256000  0.60630700  0.90814600  1
  C  C24  1  0.21714000  0.47393000  0.16285100  1
  C  C25  1  0.52607000  0.78286000  0.33714900  1
  C  C26  1  0.78286000  0.52607000  0.83714900  1
  C  C27  1  0.47393000  0.21714000  0.66285100  1
  C  C28  1  0.82465300  0.02006000  0.24909900  1
  C  C29  1  0.97994000  0.17534700  0.25090100  1
  C  C30  1  0.17534700  0.97994000  0.75090100  1
  C  C31  1  0.02006000  0.82465300  0.74909900  1
  C  C32  1  0.78758900  0.78669600  0.16367700  1
  C  C33  1  0.21330400  0.21241100  0.33632300  1
  C  C34  1  0.21241100  0.21330400  0.83632300  1
  C  C35  1  0.78669600  0.78758900  0.66367700  1
  C  C36  1  0.80750600  0.10167400  0.49913000  1
  C  C37  1  0.89832600  0.19249400  0.00087000  1
  C  C38  1  0.19249400  0.89832600  0.50087000  1
  C  C39  1  0.10167400  0.80750600  0.99913000  1
  C  C40  1  0.70337100  0.11081000  0.00173400  1
  C  C41  1  0.88918900  0.29662900  0.49826600  1
  C  C42  1  0.29662900  0.88919000  0.99826600  1
  C  C43  1  0.11081000  0.70337100  0.50173400  1
  C  C44  1  0.40852700  0.31094100  0.38550900  1
  C  C45  1  0.68905900  0.59147300  0.11449100  1
  C  C46  1  0.59147300  0.68905900  0.61449100  1
  C  C47  1  0.31094100  0.40852700  0.88550900  1
  C  C48  1  0.51462100  0.41688200  0.13841700  1
  C  C49  1  0.58311800  0.48537900  0.36158300  1
  C  C50  1  0.48537900  0.58311800  0.86158300  1
  C  C51  1  0.41688200  0.51462100  0.63841700  1
