# generated using pymatgen
data_Cu(NiC)3
_symmetry_space_group_name_H-M   'P 1'
_cell_length_a   5.62151900
_cell_length_b   7.77228726
_cell_length_c   9.02742068
_cell_angle_alpha   100.72958410
_cell_angle_beta   90.00000000
_cell_angle_gamma   90.00000000
_symmetry_Int_Tables_number   1
_chemical_formula_structural   Cu(NiC)3
_chemical_formula_sum   'Cu4 Ni12 C12'
_cell_volume   387.53077058
_cell_formula_units_Z   4
loop_
 _symmetry_equiv_pos_site_id
 _symmetry_equiv_pos_as_xyz
  1  'x, y, z'
loop_
 _atom_site_type_symbol
 _atom_site_label
 _atom_site_symmetry_multiplicity
 _atom_site_fract_x
 _atom_site_fract_y
 _atom_site_fract_z
 _atom_site_occupancy
  C  C0  1  0.36076500  0.08812100  0.74922200  1
  C  C1  1  0.63923500  0.91187900  0.25077800  1
  C  C2  1  0.86076500  0.41187900  0.75077800  1
  C  C3  1  0.13923500  0.58812100  0.24922200  1
  Ni  Ni4  1  0.66189000  0.65047300  0.52650300  1
  Ni  Ni5  1  0.33811000  0.34952700  0.47349700  1
  Ni  Ni6  1  0.16189000  0.84952700  0.97349700  1
  Ni  Ni7  1  0.83811000  0.15047300  0.02650300  1
  Ni  Ni8  1  0.19089400  0.98135300  0.89362900  1
  Ni  Ni9  1  0.80910600  0.01864700  0.10637100  1
  Ni  Ni10  1  0.69089400  0.51864700  0.60637100  1
  Ni  Ni11  1  0.30910600  0.48135300  0.39362900  1
  Ni  Ni12  1  0.02623700  0.13816800  0.91583200  1
  Ni  Ni13  1  0.97376300  0.86183200  0.08416800  1
  Ni  Ni14  1  0.52623700  0.36183200  0.58416800  1
  Ni  Ni15  1  0.47376300  0.63816800  0.41583200  1
  Cu  Cu16  1  0.34556400  0.67065300  0.94742100  1
  Cu  Cu17  1  0.65443600  0.32934700  0.05257900  1
  Cu  Cu18  1  0.84556400  0.82934700  0.55257900  1
  Cu  Cu19  1  0.15443600  0.17065300  0.44742100  1
  C  C20  1  0.06385600  0.24797000  0.83441200  1
  C  C21  1  0.93614400  0.75203000  0.16558800  1
  C  C22  1  0.56385600  0.25203000  0.66558800  1
  C  C23  1  0.43614400  0.74797000  0.33441200  1
  C  C24  1  0.36167700  0.97863400  0.79245000  1
  C  C25  1  0.63832300  0.02136600  0.20755000  1
  C  C26  1  0.86167700  0.52136600  0.70755000  1
  C  C27  1  0.13832300  0.47863400  0.29245000  1
