# generated using pymatgen
data_CuNiC8
_symmetry_space_group_name_H-M   'P 1'
_cell_length_a   5.41642097
_cell_length_b   5.44248352
_cell_length_c   6.05501353
_cell_angle_alpha   63.29354782
_cell_angle_beta   63.43149117
_cell_angle_gamma   90.00000000
_symmetry_Int_Tables_number   1
_chemical_formula_structural   CuNiC8
_chemical_formula_sum   'Cu1 Ni1 C8'
_cell_volume   138.02752749
_cell_formula_units_Z   1
loop_
 _symmetry_equiv_pos_site_id
 _symmetry_equiv_pos_as_xyz
  1  'x, y, z'
loop_
 _atom_site_type_symbol
 _atom_site_label
 _atom_site_symmetry_multiplicity
 _atom_site_fract_x
 _atom_site_fract_y
 _atom_site_fract_z
 _atom_site_occupancy
  C  C0  1  0.21932800  0.71932800  0.56134400  1
  C  C1  1  0.73335000  0.23335000  0.53330000  1
  Ni  Ni2  1  0.52602000  0.52602000  0.94796000  1
  Cu  Cu3  1  0.99139300  0.99139300  0.01721300  1
  C  C4  1  0.41990500  0.90998000  0.66903700  1
  C  C5  1  0.91105800  0.42098300  0.66903700  1
  C  C6  1  0.91105800  0.90998000  0.66903700  1
  C  C7  1  0.41990500  0.42098300  0.66903700  1
  C  C8  1  0.40699700  0.90699700  0.18600500  1
  C  C9  1  0.93058600  0.43058600  0.13882900  1
