# generated using pymatgen
data_Cu3NiC36
_symmetry_space_group_name_H-M   'P 1'
_cell_length_a   9.82867631
_cell_length_b   9.82867609
_cell_length_c   9.89209259
_cell_angle_alpha   86.78463139
_cell_angle_beta   93.21536821
_cell_angle_gamma   95.15326502
_symmetry_Int_Tables_number   1
_chemical_formula_structural   Cu3NiC36
_chemical_formula_sum   'Cu6 Ni2 C72'
_cell_volume   948.99063821
_cell_formula_units_Z   2
loop_
 _symmetry_equiv_pos_site_id
 _symmetry_equiv_pos_as_xyz
  1  'x, y, z'
loop_
 _atom_site_type_symbol
 _atom_site_label
 _atom_site_symmetry_multiplicity
 _atom_site_fract_x
 _atom_site_fract_y
 _atom_site_fract_z
 _atom_site_occupancy
  C  C0  1  0.01201874  0.51066031  0.23989493  1
  C  C1  1  0.97668870  0.24944070  0.38473244  1
  C  C2  1  0.21389678  0.56645142  0.46219958  1
  C  C3  1  0.23026760  0.73572605  0.17704195  1
  C  C4  1  0.24944070  0.97668870  0.61526756  1
  C  C5  1  0.36983996  0.74865909  0.81324340  1
  C  C6  1  0.51066031  0.01201874  0.76010507  1
  C  C7  1  0.56645142  0.21389678  0.53780042  1
  C  C8  1  0.70265629  0.92468684  0.98286492  1
  C  C9  1  0.73572605  0.23026760  0.82295805  1
  C  C10  1  0.74865909  0.36983996  0.18675660  1
  C  C11  1  0.92468684  0.70265629  0.01713508  1
  Ni  Ni12  1  0.75048637  0.97672211  0.27856322  1
  Ni  Ni13  1  0.97672211  0.75048637  0.72143678  1
  Cu  Cu14  1  0.03000710  0.24987226  0.78273535  1
  Cu  Cu15  1  0.25248552  0.25248552  1.00000000  1
  Cu  Cu16  1  0.24987226  0.03000710  0.21726465  1
  Cu  Cu17  1  0.46524232  0.46524232  -0.00000000  1
  Cu  Cu18  1  0.53352200  0.53352200  0.50000000  1
  Cu  Cu19  1  0.74641027  0.74641027  0.50000000  1
  C  C20  1  0.05250478  0.81750513  0.40194732  1
  C  C21  1  0.17243065  0.94784871  0.90782084  1
  C  C22  1  0.16017830  0.55159167  0.92944452  1
  C  C23  1  0.31978287  0.34293810  0.30290787  1
  C  C24  1  0.34293810  0.31978287  0.69709213  1
  C  C25  1  0.44303892  0.83632599  0.43027046  1
  C  C26  1  0.55159167  0.16017830  0.07055548  1
  C  C27  1  0.64717139  0.68405528  0.80480150  1
  C  C28  1  0.68405528  0.64717139  0.19519850  1
  C  C29  1  0.83632599  0.44303892  0.56972954  1
  C  C30  1  0.81750513  0.05250478  0.59805268  1
  C  C31  1  0.94784871  0.17243065  0.09217916  1
  C  C32  1  0.02975187  0.87640442  0.88213243  1
  C  C33  1  0.09558735  0.82486945  0.55332083  1
  C  C34  1  0.11364592  0.61196414  0.79240500  1
  C  C35  1  0.10319940  0.95430450  0.32763663  1
  C  C36  1  0.10186821  0.69286898  0.33702918  1
  C  C37  1  0.12852799  0.39001673  0.92731381  1
  C  C38  1  0.09665117  0.60162855  0.05420660  1
  C  C39  1  0.10967818  0.16709727  0.12093188  1
  C  C40  1  0.16709727  0.10967818  0.87906812  1
  C  C41  1  0.18597696  0.31331072  0.67094614  1
  C  C42  1  0.21563339  0.91134092  0.05967403  1
  C  C43  1  0.19424944  0.40653652  0.34604410  1
  C  C44  1  0.28064219  0.91159433  0.81268921  1
  C  C45  1  0.32084211  0.58800269  0.94406598  1
  C  C46  1  0.31331072  0.18597696  0.32905386  1
  C  C47  1  0.33101197  0.37901768  0.14119071  1
  C  C48  1  0.37344417  0.88051146  0.29307329  1
  C  C49  1  0.40593096  0.90896353  0.55234222  1
  C  C50  1  0.37901768  0.33101197  0.85880929  1
  C  C51  1  0.40089655  0.45723698  0.63225465  1
  C  C52  1  0.40588589  0.67598964  0.44744218  1
  C  C53  1  0.40653652  0.19424944  0.65395590  1
  C  C54  1  0.39001673  0.12852799  0.07268619  1
  C  C55  1  0.45723698  0.40089655  0.36774535  1
  C  C56  1  0.57125590  0.80587092  0.84026988  1
  C  C57  1  0.54513405  0.58078575  0.13675449  1
  C  C58  1  0.58078575  0.54513405  0.86324551  1
  C  C59  1  0.60523852  0.86379946  0.42109294  1
  C  C60  1  0.62399035  0.67030730  0.64276889  1
  C  C61  1  0.60162855  0.09665117  0.94579340  1
  C  C62  1  0.58800269  0.32084211  0.05593402  1
  C  C63  1  0.61196414  0.11364592  0.20759500  1
  C  C64  1  0.67030730  0.62399035  0.35723111  1
  C  C65  1  0.69869261  0.79879864  0.15162353  1
  C  C66  1  0.67598964  0.40588589  0.55255782  1
  C  C67  1  0.69286898  0.10186821  0.66297082  1
  C  C68  1  0.79879864  0.69869261  0.84837647  1
  C  C69  1  0.81287477  0.88985527  0.61969183  1
  C  C70  1  0.80587092  0.57125590  0.15973012  1
  C  C71  1  0.82486945  0.09558735  0.44667917  1
  C  C72  1  0.86379946  0.60523852  0.57890706  1
  C  C73  1  0.88985527  0.81287477  0.38030817  1
  C  C74  1  0.88051146  0.37344417  0.70692671  1
  C  C75  1  0.91134092  0.21563339  0.94032597  1
  C  C76  1  0.90896353  0.40593096  0.44765778  1
  C  C77  1  0.87640442  0.02975187  0.11786757  1
  C  C78  1  0.91159433  0.28064219  0.18731079  1
  C  C79  1  0.95430450  0.10319940  0.67236337  1
