# generated using pymatgen
data_Cu2NiC15
_symmetry_space_group_name_H-M   'P 1'
_cell_length_a   9.90601536
_cell_length_b   9.90601536
_cell_length_c   16.39280512
_cell_angle_alpha   90.00000000
_cell_angle_beta   90.00000000
_cell_angle_gamma   119.99999693
_symmetry_Int_Tables_number   1
_chemical_formula_structural   Cu2NiC15
_chemical_formula_sum   'Cu12 Ni6 C90'
_cell_volume   1393.09879073
_cell_formula_units_Z   6
loop_
 _symmetry_equiv_pos_site_id
 _symmetry_equiv_pos_as_xyz
  1  'x, y, z'
loop_
 _atom_site_type_symbol
 _atom_site_label
 _atom_site_symmetry_multiplicity
 _atom_site_fract_x
 _atom_site_fract_y
 _atom_site_fract_z
 _atom_site_occupancy
  C  C0  1  0.77405892  0.22594108  0.75000000  1
  C  C1  1  0.45188216  0.22594108  0.41666700  1
  C  C2  1  0.22594108  0.77405892  0.25000000  1
  C  C3  1  0.54811784  0.77405892  0.91666700  1
  C  C4  1  0.77405892  0.54811784  0.08333300  1
  C  C5  1  0.22594108  0.45188216  0.58333300  1
  C  C6  1  0.48190448  0.51809552  0.75000000  1
  C  C7  1  0.03619105  0.51809552  0.41666700  1
  C  C8  1  0.51809552  0.48190448  0.25000000  1
  C  C9  1  0.96380895  0.48190448  0.91666700  1
  C  C10  1  0.48190448  0.96380895  0.08333300  1
  C  C11  1  0.51809552  0.03619105  0.58333300  1
  Ni  Ni12  1  0.15044669  0.84955331  0.75000000  1
  Ni  Ni13  1  0.69910661  0.84955331  0.41666700  1
  Ni  Ni14  1  0.84955331  0.15044669  0.25000000  1
  Ni  Ni15  1  0.30089339  0.15044669  0.91666700  1
  Ni  Ni16  1  0.15044669  0.30089339  0.08333300  1
  Ni  Ni17  1  0.84955331  0.69910661  0.58333300  1
  Cu  Cu18  1  0.64421072  0.82200870  0.57822737  1
  Cu  Cu19  1  0.17779798  0.35578928  0.24489437  1
  Cu  Cu20  1  0.35578928  0.17799130  0.07822737  1
  Cu  Cu21  1  0.82220202  0.17799130  0.08843963  1
  Cu  Cu22  1  0.17799130  0.82220202  0.91156037  1
  Cu  Cu23  1  0.82220202  0.64421072  0.74489437  1
  Cu  Cu24  1  0.82200870  0.64421072  0.42177263  1
  Cu  Cu25  1  0.17779798  0.82200870  0.58843963  1
  Cu  Cu26  1  0.82200870  0.17779798  0.41156037  1
  Cu  Cu27  1  0.17799130  0.35578928  0.92177263  1
  Cu  Cu28  1  0.35578928  0.17779798  0.75510563  1
  Cu  Cu29  1  0.64421072  0.82220202  0.25510563  1
  C  C30  1  0.51638180  0.03994660  0.92959468  1
  C  C31  1  0.52356480  0.48361820  0.59626168  1
  C  C32  1  0.48361820  0.96005340  0.42959468  1
  C  C33  1  0.47643520  0.96005340  0.73707232  1
  C  C34  1  0.96005340  0.47643520  0.26292768  1
  C  C35  1  0.47643520  0.51638180  0.09626168  1
  C  C36  1  0.03994660  0.51638180  0.07040532  1
  C  C37  1  0.52356480  0.03994660  0.23707232  1
  C  C38  1  0.03994660  0.52356480  0.76292768  1
  C  C39  1  0.96005340  0.48361820  0.57040532  1
  C  C40  1  0.48361820  0.52356480  0.40373832  1
  C  C41  1  0.51638180  0.47643520  0.90373832  1
  C  C42  1  0.26974760  0.49905574  0.86607284  1
  C  C43  1  0.22930814  0.73025240  0.53273984  1
  C  C44  1  0.73025240  0.50094426  0.36607284  1
  C  C45  1  0.77069186  0.50094426  0.80059416  1
  C  C46  1  0.50094426  0.77069186  0.19940584  1
  C  C47  1  0.77069186  0.26974760  0.03273984  1
  C  C48  1  0.49905574  0.26974760  0.13392716  1
  C  C49  1  0.22930814  0.49905574  0.30059416  1
  C  C50  1  0.49905574  0.22930814  0.69940584  1
  C  C51  1  0.50094426  0.73025240  0.63392716  1
  C  C52  1  0.73025240  0.22930814  0.46726016  1
  C  C53  1  0.26974760  0.77069186  0.96726016  1
  C  C54  1  0.95228049  0.43925168  0.79288312  1
  C  C55  1  0.48697119  0.04771951  0.45955012  1
  C  C56  1  0.04771951  0.56074832  0.29288312  1
  C  C57  1  0.51302881  0.56074832  0.87378388  1
  C  C58  1  0.56074832  0.51302881  0.12621612  1
  C  C59  1  0.51302881  0.95228049  0.95955012  1
  C  C60  1  0.43925168  0.95228049  0.20711688  1
  C  C61  1  0.48697119  0.43925168  0.37378388  1
  C  C62  1  0.43925168  0.48697119  0.62621612  1
  C  C63  1  0.56074832  0.04771951  0.70711688  1
  C  C64  1  0.04771951  0.48697119  0.54044988  1
  C  C65  1  0.95228049  0.51302881  0.04044988  1
  C  C66  1  0.78532478  0.80243343  0.59870636  1
  C  C67  1  0.01710864  0.21467522  0.26537336  1
  C  C68  1  0.21467522  0.19756657  0.09870636  1
  C  C69  1  0.98289136  0.19756657  0.06796064  1
  C  C70  1  0.19756657  0.98289136  0.93203936  1
  C  C71  1  0.98289136  0.78532478  0.76537336  1
  C  C72  1  0.80243343  0.78532478  0.40129364  1
  C  C73  1  0.01710864  0.80243343  0.56796064  1
  C  C74  1  0.80243343  0.01710864  0.43203936  1
  C  C75  1  0.19756657  0.21467522  0.90129364  1
  C  C76  1  0.21467522  0.01710864  0.73462664  1
  C  C77  1  0.78532478  0.98289136  0.23462664  1
  C  C78  1  0.88908172  0.11091828  0.75000000  1
  C  C79  1  0.22183655  0.11091828  0.41666700  1
  C  C80  1  0.11091828  0.88908172  0.25000000  1
  C  C81  1  0.77816345  0.88908172  0.91666700  1
  C  C82  1  0.88908172  0.77816345  0.08333300  1
  C  C83  1  0.11091828  0.22183655  0.58333300  1
  C  C84  1  0.59370872  0.76994447  0.48669008  1
  C  C85  1  0.17623576  0.40629128  0.15335708  1
  C  C86  1  0.40629128  0.23005553  0.98669008  1
  C  C87  1  0.82376424  0.23005553  0.17997692  1
  C  C88  1  0.23005553  0.82376424  0.82002308  1
  C  C89  1  0.82376424  0.59370872  0.65335708  1
  C  C90  1  0.76994447  0.59370872  0.51330992  1
  C  C91  1  0.17623576  0.76994447  0.67997692  1
  C  C92  1  0.76994447  0.17623576  0.32002308  1
  C  C93  1  0.23005553  0.40629128  0.01330992  1
  C  C94  1  0.40629128  0.17623576  0.84664292  1
  C  C95  1  0.59370872  0.82376424  0.34664292  1
  C  C96  1  0.69038612  0.99460737  0.58709108  1
  C  C97  1  0.30422125  0.30961388  0.25375808  1
  C  C98  1  0.30961388  0.00539263  0.08709108  1
  C  C99  1  0.69577875  0.00539263  0.07957592  1
  C  C100  1  0.00539263  0.69577875  0.92042408  1
  C  C101  1  0.69577875  0.69038612  0.75375808  1
  C  C102  1  0.99460737  0.69038612  0.41290892  1
  C  C103  1  0.30422125  0.99460737  0.57957592  1
  C  C104  1  0.99460737  0.30422125  0.42042408  1
  C  C105  1  0.00539263  0.30961388  0.91290892  1
  C  C106  1  0.30961388  0.30422125  0.74624192  1
  C  C107  1  0.69038612  0.69577875  0.24624192  1
