# generated using pymatgen
data_Cu3NiC5
_symmetry_space_group_name_H-M   'P 1'
_cell_length_a   6.58792600
_cell_length_b   9.61353703
_cell_length_c   9.61353703
_cell_angle_alpha   119.90351304
_cell_angle_beta   90.00000000
_cell_angle_gamma   90.00000000
_symmetry_Int_Tables_number   1
_chemical_formula_structural   Cu3NiC5
_chemical_formula_sum   'Cu6 Ni2 C10'
_cell_volume   527.79731942
_cell_formula_units_Z   2
loop_
 _symmetry_equiv_pos_site_id
 _symmetry_equiv_pos_as_xyz
  1  'x, y, z'
loop_
 _atom_site_type_symbol
 _atom_site_label
 _atom_site_symmetry_multiplicity
 _atom_site_fract_x
 _atom_site_fract_y
 _atom_site_fract_z
 _atom_site_occupancy
  C  C0  1  0.75000000  0.73688300  0.73688300  1
  C  C1  1  0.75000000  0.26341900  0.00016100  1
  C  C2  1  0.75000000  0.00016100  0.26341900  1
  C  C3  1  0.25000000  0.26311700  0.26311700  1
  C  C4  1  0.25000000  0.73658100  0.99983900  1
  C  C5  1  0.25000000  0.99983900  0.73658100  1
  C  C6  1  0.00000000  0.66666100  0.33333900  1
  C  C7  1  0.00000000  0.33333900  0.66666100  1
  C  C8  1  0.50000000  0.33333900  0.66666100  1
  C  C9  1  0.50000000  0.66666100  0.33333900  1
  Ni  Ni10  1  0.00000000  0.00000000  0.00000000  1
  Ni  Ni11  1  0.50000000  0.00000000  0.00000000  1
  Cu  Cu12  1  0.75000000  0.38106600  0.38106600  1
  Cu  Cu13  1  0.75000000  0.61892100  0.99991000  1
  Cu  Cu14  1  0.75000000  0.99991000  0.61892100  1
  Cu  Cu15  1  0.25000000  0.61893400  0.61893400  1
  Cu  Cu16  1  0.25000000  0.38107900  0.00009000  1
  Cu  Cu17  1  0.25000000  0.00009000  0.38107900  1
