# generated using pymatgen
data_CuNi2C7
_symmetry_space_group_name_H-M   'P 1'
_cell_length_a   5.81340000
_cell_length_b   7.62101100
_cell_length_c   10.42325400
_cell_angle_alpha   90.00000000
_cell_angle_beta   90.00000000
_cell_angle_gamma   90.00000000
_symmetry_Int_Tables_number   1
_chemical_formula_structural   CuNi2C7
_chemical_formula_sum   'Cu4 Ni8 C28'
_cell_volume   461.79169249
_cell_formula_units_Z   4
loop_
 _symmetry_equiv_pos_site_id
 _symmetry_equiv_pos_as_xyz
  1  'x, y, z'
loop_
 _atom_site_type_symbol
 _atom_site_label
 _atom_site_symmetry_multiplicity
 _atom_site_fract_x
 _atom_site_fract_y
 _atom_site_fract_z
 _atom_site_occupancy
  C  C0  1  0.26044500  0.90260500  0.05510800  1
  C  C1  1  0.23955500  0.40260500  0.44489100  1
  C  C2  1  0.73955500  0.09739500  0.55510900  1
  C  C3  1  0.76044500  0.59739500  0.94489100  1
  C  C4  1  0.73955500  0.09739500  0.94489100  1
  C  C5  1  0.76044500  0.59739500  0.55510900  1
  C  C6  1  0.26044500  0.90260500  0.44489100  1
  C  C7  1  0.23955500  0.40260500  0.05510800  1
  Ni  Ni8  1  0.49636500  0.83097400  0.85236000  1
  Ni  Ni9  1  0.00363500  0.33097400  0.64764000  1
  Ni  Ni10  1  0.50363500  0.16902600  0.35236000  1
  Ni  Ni11  1  0.99636500  0.66902600  0.14764000  1
  Ni  Ni12  1  0.50363500  0.16902600  0.14764000  1
  Ni  Ni13  1  0.99636500  0.66902600  0.35236000  1
  Ni  Ni14  1  0.49636500  0.83097400  0.64764000  1
  Ni  Ni15  1  0.00363500  0.33097400  0.85236000  1
  Cu  Cu16  1  0.90249000  0.16186300  0.25000000  1
  Cu  Cu17  1  0.59751000  0.66186300  0.25000000  1
  Cu  Cu18  1  0.09751000  0.83813700  0.75000000  1
  Cu  Cu19  1  0.40249000  0.33813700  0.75000000  1
  C  C20  1  0.09177900  0.30677900  0.25000000  1
  C  C21  1  0.40822100  0.80677900  0.25000000  1
  C  C22  1  0.90822100  0.69322100  0.75000000  1
  C  C23  1  0.59177900  0.19322100  0.75000000  1
  C  C24  1  0.95447100  0.04587300  0.13145800  1
  C  C25  1  0.54552900  0.54587300  0.36854200  1
  C  C26  1  0.04552900  0.95412700  0.63145800  1
  C  C27  1  0.45447100  0.45412700  0.86854200  1
  C  C28  1  0.04552900  0.95412700  0.86854200  1
  C  C29  1  0.45447100  0.45412700  0.63145800  1
  C  C30  1  0.95447100  0.04587300  0.36854200  1
  C  C31  1  0.54552900  0.54587300  0.13145800  1
  C  C32  1  0.56176900  0.84067200  0.93862600  1
  C  C33  1  0.93823100  0.34067200  0.56137400  1
  C  C34  1  0.43823100  0.15932800  0.43862600  1
  C  C35  1  0.06176900  0.65932800  0.06137400  1
  C  C36  1  0.43823100  0.15932800  0.06137400  1
  C  C37  1  0.06176900  0.65932800  0.43862600  1
  C  C38  1  0.56176900  0.84067200  0.56137400  1
  C  C39  1  0.93823100  0.34067200  0.93862600  1
