# generated using pymatgen
data_Cu4NiC47
_symmetry_space_group_name_H-M   'P 1'
_cell_length_a   5.86616400
_cell_length_b   11.80423300
_cell_length_c   25.26562977
_cell_angle_alpha   77.90692292
_cell_angle_beta   90.00000000
_cell_angle_gamma   90.00000000
_symmetry_Int_Tables_number   1
_chemical_formula_structural   Cu4NiC47
_chemical_formula_sum   'Cu8 Ni2 C94'
_cell_volume   1710.70819311
_cell_formula_units_Z   2
loop_
 _symmetry_equiv_pos_site_id
 _symmetry_equiv_pos_as_xyz
  1  'x, y, z'
loop_
 _atom_site_type_symbol
 _atom_site_label
 _atom_site_symmetry_multiplicity
 _atom_site_fract_x
 _atom_site_fract_y
 _atom_site_fract_z
 _atom_site_occupancy
  C  C0  1  0.00000000  0.00000000  0.50000000  1
  C  C1  1  0.00000000  0.00000000  0.00000000  1
  Ni  Ni2  1  0.50484300  0.00000000  0.75000000  1
  Ni  Ni3  1  0.49515700  0.00000000  0.25000000  1
  C  C4  1  0.41826000  0.34062600  0.74516900  1
  C  C5  1  0.41826000  0.65937400  0.75483100  1
  C  C6  1  0.58174000  0.65937400  0.25483100  1
  C  C7  1  0.58174000  0.34062600  0.24516900  1
  C  C8  1  0.92015000  0.54004700  0.67432800  1
  C  C9  1  0.92015000  0.45995300  0.82567200  1
  C  C10  1  0.07985000  0.45995300  0.32567200  1
  C  C11  1  0.07985000  0.54004700  0.17432800  1
  C  C12  1  0.51494300  0.74323300  0.60028300  1
  C  C13  1  0.51494300  0.25676700  0.89971700  1
  C  C14  1  0.48505700  0.25676700  0.39971700  1
  C  C15  1  0.48505700  0.74323300  0.10028300  1
  C  C16  1  0.99274000  0.76984900  0.34052800  1
  C  C17  1  0.99274000  0.23015100  0.15947200  1
  C  C18  1  0.00726000  0.23015100  0.65947200  1
  C  C19  1  0.00726000  0.76984900  0.84052800  1
  C  C20  1  0.51219200  0.41779700  0.59240000  1
  C  C21  1  0.51219200  0.58220300  0.90760000  1
  C  C22  1  0.48780800  0.58220300  0.40760000  1
  C  C23  1  0.48780800  0.41779700  0.09240000  1
  C  C24  1  0.00374300  0.86314400  0.67820300  1
  C  C25  1  0.00374300  0.13685600  0.82179700  1
  C  C26  1  0.99625700  0.13685600  0.32179700  1
  C  C27  1  0.99625700  0.86314400  0.17820300  1
  Cu  Cu28  1  0.49666300  0.07666400  0.57716600  1
  Cu  Cu29  1  0.49666300  0.92333600  0.92283400  1
  Cu  Cu30  1  0.50333700  0.92333600  0.42283400  1
  Cu  Cu31  1  0.50333700  0.07666400  0.07716600  1
  Cu  Cu32  1  0.00874800  0.66980700  0.51158100  1
  Cu  Cu33  1  0.00874800  0.33019300  0.98841900  1
  Cu  Cu34  1  0.99125200  0.33019300  0.48841900  1
  Cu  Cu35  1  0.99125200  0.66980700  0.01158100  1
  C  C36  1  0.22521000  0.50000000  0.75000000  1
  C  C37  1  0.77479000  0.50000000  0.25000000  1
  C  C38  1  0.73290100  0.50000000  0.75000000  1
  C  C39  1  0.26709900  0.50000000  0.25000000  1
  C  C40  1  0.24191100  0.63751900  0.34048500  1
  C  C41  1  0.24191100  0.36248100  0.15951500  1
  C  C42  1  0.75808900  0.36248100  0.65951500  1
  C  C43  1  0.75808900  0.63751900  0.84048500  1
  C  C44  1  0.77087800  0.72835100  0.66654000  1
  C  C45  1  0.77087800  0.27164900  0.83346000  1
  C  C46  1  0.22912200  0.27164900  0.33346000  1
  C  C47  1  0.22912200  0.72835100  0.16654000  1
  C  C48  1  0.26661900  0.73881000  0.66395700  1
  C  C49  1  0.26661900  0.26119000  0.83604300  1
  C  C50  1  0.73338100  0.26119000  0.33604300  1
  C  C51  1  0.73338100  0.73881000  0.16395700  1
  C  C52  1  0.74963100  0.62863700  0.34505200  1
  C  C53  1  0.74963100  0.37136300  0.15494800  1
  C  C54  1  0.25036900  0.37136300  0.65494800  1
  C  C55  1  0.25036900  0.62863700  0.84505200  1
  C  C56  1  0.08941200  0.75834400  0.75724800  1
  C  C57  1  0.08941200  0.24165600  0.74275200  1
  C  C58  1  0.91058800  0.24165600  0.24275200  1
  C  C59  1  0.91058800  0.75834400  0.25724800  1
  C  C60  1  0.57025800  0.56117000  0.63382900  1
  C  C61  1  0.57025800  0.43883000  0.86617100  1
  C  C62  1  0.42974200  0.43883000  0.36617100  1
  C  C63  1  0.42974200  0.56117000  0.13382900  1
  C  C64  1  0.67245100  0.11799300  0.74332800  1
  C  C65  1  0.67245100  0.88200700  0.75667200  1
  C  C66  1  0.32754900  0.88200700  0.25667200  1
  C  C67  1  0.32754900  0.11799300  0.24332800  1
  C  C68  1  0.92171900  0.80152300  0.53170100  1
  C  C69  1  0.92171900  0.19847700  0.96829900  1
  C  C70  1  0.07828100  0.19847700  0.46829900  1
  C  C71  1  0.07828100  0.80152300  0.03170100  1
  C  C72  1  0.48345800  0.19600600  0.61151800  1
  C  C73  1  0.48345800  0.80399400  0.88848200  1
  C  C74  1  0.51654200  0.80399400  0.38848200  1
  C  C75  1  0.51654200  0.19600600  0.11151800  1
  C  C76  1  0.22180400  0.00611300  0.57604400  1
  C  C77  1  0.22180400  0.99388700  0.92395600  1
  C  C78  1  0.77819600  0.99388700  0.42395600  1
  C  C79  1  0.77819600  0.00611300  0.07604400  1
  C  C80  1  0.05693400  0.69321400  0.43946500  1
  C  C81  1  0.05693400  0.30678600  0.06053500  1
  C  C82  1  0.94306600  0.30678600  0.56053500  1
  C  C83  1  0.94306600  0.69321400  0.93946500  1
  C  C84  1  0.25355000  0.61173300  0.55189900  1
  C  C85  1  0.25355000  0.38826700  0.94810100  1
  C  C86  1  0.74645000  0.38826700  0.44810100  1
  C  C87  1  0.74645000  0.61173300  0.05189900  1
  C  C88  1  0.70807200  0.96714200  0.60259200  1
  C  C89  1  0.70807200  0.03285800  0.89740800  1
  C  C90  1  0.29192800  0.03285800  0.39740800  1
  C  C91  1  0.29192800  0.96714200  0.10259200  1
  C  C92  1  0.58949500  0.13443700  0.50990400  1
  C  C93  1  0.58949500  0.86556300  0.99009600  1
  C  C94  1  0.41050500  0.86556300  0.49009600  1
  C  C95  1  0.41050500  0.13443700  0.00990400  1
  C  C96  1  0.77855700  0.57080000  0.52788400  1
  C  C97  1  0.77855700  0.42920000  0.97211600  1
  C  C98  1  0.22144300  0.42920000  0.47211600  1
  C  C99  1  0.22144300  0.57080000  0.02788400  1
  C  C100  1  0.33950200  0.00802800  0.69600400  1
  C  C101  1  0.33950200  0.99197200  0.80399600  1
  C  C102  1  0.66049800  0.99197200  0.30399600  1
  C  C103  1  0.66049800  0.00802800  0.19600400  1
