# generated using pymatgen
data_Cu3Ni3C17
_symmetry_space_group_name_H-M   'P 1'
_cell_length_a   9.08175161
_cell_length_b   9.08178956
_cell_length_c   18.16343075
_cell_angle_alpha   90.00000000
_cell_angle_beta   90.00000000
_cell_angle_gamma   90.00000000
_symmetry_Int_Tables_number   1
_chemical_formula_structural   Cu3Ni3C17
_chemical_formula_sum   'Cu12 Ni12 C68'
_cell_volume   1498.09355767
_cell_formula_units_Z   4
loop_
 _symmetry_equiv_pos_site_id
 _symmetry_equiv_pos_as_xyz
  1  'x, y, z'
loop_
 _atom_site_type_symbol
 _atom_site_label
 _atom_site_symmetry_multiplicity
 _atom_site_fract_x
 _atom_site_fract_y
 _atom_site_fract_z
 _atom_site_occupancy
  C  C0  1  0.30409713  0.69590265  0.15205156  1
  C  C1  1  0.30411246  0.69588837  0.65205363  1
  C  C2  1  0.69590287  0.30409735  0.15205156  1
  C  C3  1  0.69588754  0.30411163  0.65205363  1
  C  C4  1  0.30411246  0.30411163  0.34794637  1
  C  C5  1  0.30409713  0.30409735  0.84794844  1
  C  C6  1  0.69588754  0.69588837  0.34794637  1
  C  C7  1  0.69590287  0.69590265  0.84794844  1
  C  C8  1  0.80406280  0.80406158  0.09797117  1
  C  C9  1  0.80926485  0.80925819  0.59537779  1
  C  C10  1  0.19073515  0.80925819  0.40462221  1
  C  C11  1  0.19593720  0.80406158  0.90202883  1
  C  C12  1  0.80926485  0.19074181  0.40462221  1
  C  C13  1  0.80406280  0.19593842  0.90202883  1
  C  C14  1  0.19593720  0.19593842  0.09797117  1
  C  C15  1  0.19073515  0.19074181  0.59537779  1
  Ni  Ni16  1  0.50000000  -0.00000000  0.12501666  1
  Ni  Ni17  1  0.50000000  -0.00000000  0.62502118  1
  Ni  Ni18  1  0.00005031  0.74995369  0.25002680  1
  Ni  Ni19  1  0.99994969  0.74995369  0.74997320  1
  Ni  Ni20  1  0.25000320  0.50000000  -0.00000000  1
  Ni  Ni21  1  0.25007317  0.50000000  0.50000000  1
  Ni  Ni22  1  0.99994969  0.25004631  0.25002680  1
  Ni  Ni23  1  0.00005031  0.25004631  0.74997320  1
  Ni  Ni24  1  0.74999680  0.50000000  -0.00000000  1
  Ni  Ni25  1  0.74992683  0.50000000  0.50000000  1
  Ni  Ni26  1  0.50000000  -0.00000000  0.37497882  1
  Ni  Ni27  1  0.50000000  -0.00000000  0.87498334  1
  Cu  Cu28  1  -0.00000000  0.50000000  0.12499472  1
  Cu  Cu29  1  -0.00000000  0.50000000  0.62491431  1
  Cu  Cu30  1  0.50000000  0.74998812  -0.00000000  1
  Cu  Cu31  1  0.50000000  0.75014883  0.50000000  1
  Cu  Cu32  1  0.24993119  0.99987366  0.25007498  1
  Cu  Cu33  1  0.24993119  0.00012634  0.74992502  1
  Cu  Cu34  1  0.50000000  0.25001188  -0.00000000  1
  Cu  Cu35  1  0.50000000  0.24985117  0.50000000  1
  Cu  Cu36  1  0.75006881  0.00012634  0.25007498  1
  Cu  Cu37  1  0.75006881  0.99987366  0.74992502  1
  Cu  Cu38  1  -0.00000000  0.50000000  0.37508569  1
  Cu  Cu39  1  -0.00000000  0.50000000  0.87500528  1
  C  C40  1  0.50000000  0.50000000  0.24997623  1
  C  C41  1  0.50000000  0.50000000  0.75002377  1
  C  C42  1  -0.00000000  -0.00000000  -0.00000000  1
  C  C43  1  -0.00000000  -0.00000000  0.50000000  1
  C  C44  1  0.34881427  0.94748205  0.17915843  1
  C  C45  1  0.34865710  0.94743513  0.67911523  1
  C  C46  1  0.05249652  0.64166770  0.17439540  1
  C  C47  1  0.05258977  0.64179287  0.67434392  1
  C  C48  1  0.35831577  0.65120655  0.02624568  1
  C  C49  1  0.35822708  0.65131734  0.52629829  1
  C  C50  1  0.65118573  0.05251795  0.17915843  1
  C  C51  1  0.65134290  0.05256487  0.67911523  1
  C  C52  1  0.94750348  0.35833230  0.17439540  1
  C  C53  1  0.94741023  0.35820713  0.67434392  1
  C  C54  1  0.64168423  0.34879345  0.02624568  1
  C  C55  1  0.64177292  0.34868266  0.52629829  1
  C  C56  1  0.34865710  0.05256487  0.32088477  1
  C  C57  1  0.34881427  0.05251795  0.82084157  1
  C  C58  1  0.05258977  0.35820713  0.32565608  1
  C  C59  1  0.05249652  0.35833230  0.82560460  1
  C  C60  1  0.35822708  0.34868266  0.47370171  1
  C  C61  1  0.35831577  0.34879345  0.97375432  1
  C  C62  1  0.65134290  0.94743513  0.32088477  1
  C  C63  1  0.65118573  0.94748205  0.82084157  1
  C  C64  1  0.94741023  0.64179287  0.32565608  1
  C  C65  1  0.94750348  0.64166770  0.82560460  1
  C  C66  1  0.64177292  0.65131734  0.47370171  1
  C  C67  1  0.64168423  0.65120655  0.97375432  1
  C  C68  1  0.84883522  0.85829956  0.22376652  1
  C  C69  1  0.84892976  0.85847654  0.72354072  1
  C  C70  1  0.55249520  0.84881419  0.07084348  1
  C  C71  1  0.55289597  0.84895304  0.57076960  1
  C  C72  1  0.85830423  0.55250121  0.07558893  1
  C  C73  1  0.85846109  0.55289017  0.57552414  1
  C  C74  1  0.15107024  0.85847654  0.27645928  1
  C  C75  1  0.15116478  0.85829956  0.77623348  1
  C  C76  1  0.44710403  0.84895304  0.42923040  1
  C  C77  1  0.44750480  0.84881419  0.92915652  1
  C  C78  1  0.14153891  0.55289017  0.42447586  1
  C  C79  1  0.14169577  0.55250121  0.92441107  1
  C  C80  1  0.84892976  0.14152346  0.27645928  1
  C  C81  1  0.84883522  0.14170044  0.77623348  1
  C  C82  1  0.55289597  0.15104696  0.42923040  1
  C  C83  1  0.55249520  0.15118581  0.92915652  1
  C  C84  1  0.85846109  0.44710983  0.42447586  1
  C  C85  1  0.85830423  0.44749879  0.92441107  1
  C  C86  1  0.15116478  0.14170044  0.22376652  1
  C  C87  1  0.15107024  0.14152346  0.72354072  1
  C  C88  1  0.44750480  0.15118581  0.07084348  1
  C  C89  1  0.44710403  0.15104696  0.57076960  1
  C  C90  1  0.14169577  0.44749879  0.07558893  1
  C  C91  1  0.14153891  0.44710983  0.57552414  1
