# generated using pymatgen
data_Cu(Ni3C5)2
_symmetry_space_group_name_H-M   'P 1'
_cell_length_a   8.52864145
_cell_length_b   8.52864145
_cell_length_c   6.42889000
_cell_angle_alpha   90.00000000
_cell_angle_beta   90.00000000
_cell_angle_gamma   119.99999576
_symmetry_Int_Tables_number   1
_chemical_formula_structural   Cu(Ni3C5)2
_chemical_formula_sum   'Cu1 Ni6 C10'
_cell_volume   404.97327015
_cell_formula_units_Z   1
loop_
 _symmetry_equiv_pos_site_id
 _symmetry_equiv_pos_as_xyz
  1  'x, y, z'
loop_
 _atom_site_type_symbol
 _atom_site_label
 _atom_site_symmetry_multiplicity
 _atom_site_fract_x
 _atom_site_fract_y
 _atom_site_fract_z
 _atom_site_occupancy
  C  C0  1  0.33333300  0.66666700  0.50000000  1
  C  C1  1  0.66666700  0.33333300  0.50000000  1
  C  C2  1  0.66666700  0.33333300  0.00000000  1
  C  C3  1  0.33333300  0.66666700  0.00000000  1
  C  C4  1  0.00000000  0.75681300  0.26591700  1
  C  C5  1  0.24318700  0.24318700  0.26591700  1
  C  C6  1  0.75681300  0.00000000  0.26591700  1
  C  C7  1  0.00000000  0.24318700  0.73408300  1
  C  C8  1  0.75681300  0.75681300  0.73408300  1
  C  C9  1  0.24318700  0.00000000  0.73408300  1
  Ni  Ni10  1  0.00000000  0.39679400  0.25106300  1
  Ni  Ni11  1  0.60320600  0.60320600  0.25106300  1
  Ni  Ni12  1  0.39679400  0.00000000  0.25106300  1
  Ni  Ni13  1  0.00000000  0.60320600  0.74893700  1
  Ni  Ni14  1  0.39679400  0.39679400  0.74893700  1
  Ni  Ni15  1  0.60320600  0.00000000  0.74893700  1
  Cu  Cu16  1  0.00000000  0.00000000  0.50000000  1
