# generated using pymatgen
data_Cu11Ni2C3
_symmetry_space_group_name_H-M   'P 1'
_cell_length_a   6.18327800
_cell_length_b   9.45110500
_cell_length_c   16.49766700
_cell_angle_alpha   90.00000000
_cell_angle_beta   90.00000000
_cell_angle_gamma   90.00000000
_symmetry_Int_Tables_number   1
_chemical_formula_structural   Cu11Ni2C3
_chemical_formula_sum   'Cu44 Ni8 C12'
_cell_volume   964.10402102
_cell_formula_units_Z   4
loop_
 _symmetry_equiv_pos_site_id
 _symmetry_equiv_pos_as_xyz
  1  'x, y, z'
loop_
 _atom_site_type_symbol
 _atom_site_label
 _atom_site_symmetry_multiplicity
 _atom_site_fract_x
 _atom_site_fract_y
 _atom_site_fract_z
 _atom_site_occupancy
  C  C0  1  0.75000000  0.97563000  0.91139800  1
  C  C1  1  0.75000000  0.52437000  0.41139800  1
  C  C2  1  0.25000000  0.02437000  0.08860200  1
  C  C3  1  0.25000000  0.47563000  0.58860200  1
  C  C4  1  0.02840500  0.15536800  0.70082700  1
  C  C5  1  0.47159500  0.34463100  0.20082700  1
  C  C6  1  0.52840500  0.84463100  0.29917300  1
  C  C7  1  0.97159500  0.65536900  0.79917300  1
  C  C8  1  0.97159500  0.84463100  0.29917300  1
  C  C9  1  0.52840500  0.65536900  0.79917300  1
  C  C10  1  0.47159500  0.15536800  0.70082700  1
  C  C11  1  0.02840500  0.34463100  0.20082700  1
  Ni  Ni12  1  0.25000000  0.07931000  0.84981300  1
  Ni  Ni13  1  0.25000000  0.42069000  0.34981300  1
  Ni  Ni14  1  0.75000000  0.92069000  0.15018700  1
  Ni  Ni15  1  0.75000000  0.57931000  0.65018700  1
  Ni  Ni16  1  0.25000000  0.73475900  0.94255200  1
  Ni  Ni17  1  0.25000000  0.76524100  0.44255200  1
  Ni  Ni18  1  0.75000000  0.26524100  0.05744800  1
  Ni  Ni19  1  0.75000000  0.23475900  0.55744800  1
  Cu  Cu20  1  0.06626300  0.09749300  0.81202300  1
  Cu  Cu21  1  0.43373700  0.40250700  0.31202300  1
  Cu  Cu22  1  0.56626300  0.90250700  0.18797700  1
  Cu  Cu23  1  0.93373700  0.59749300  0.68797700  1
  Cu  Cu24  1  0.93373700  0.90250700  0.18797700  1
  Cu  Cu25  1  0.56626300  0.59749300  0.68797700  1
  Cu  Cu26  1  0.43373700  0.09749300  0.81202300  1
  Cu  Cu27  1  0.06626300  0.40250700  0.31202300  1
  Cu  Cu28  1  0.25000000  0.03928200  0.92365000  1
  Cu  Cu29  1  0.25000000  0.46071800  0.42365000  1
  Cu  Cu30  1  0.75000000  0.96071800  0.07635000  1
  Cu  Cu31  1  0.75000000  0.53928200  0.57635000  1
  Cu  Cu32  1  0.06498400  0.72734900  0.90517900  1
  Cu  Cu33  1  0.43501600  0.77265100  0.40517900  1
  Cu  Cu34  1  0.56498400  0.27265100  0.09482100  1
  Cu  Cu35  1  0.93501600  0.22734900  0.59482100  1
  Cu  Cu36  1  0.93501600  0.27265100  0.09482100  1
  Cu  Cu37  1  0.56498400  0.22734900  0.59482100  1
  Cu  Cu38  1  0.43501600  0.72734900  0.90517900  1
  Cu  Cu39  1  0.06498400  0.77265100  0.40517900  1
  Cu  Cu40  1  0.25000000  0.75573500  0.01888400  1
  Cu  Cu41  1  0.25000000  0.74426500  0.51888400  1
  Cu  Cu42  1  0.75000000  0.24426500  0.98111600  1
  Cu  Cu43  1  0.75000000  0.25573500  0.48111600  1
  Cu  Cu44  1  0.25000000  0.28253800  0.70270900  1
  Cu  Cu45  1  0.25000000  0.21746200  0.20270900  1
  Cu  Cu46  1  0.75000000  0.71746200  0.29729100  1
  Cu  Cu47  1  0.75000000  0.78253800  0.79729100  1
  Cu  Cu48  1  0.75000000  0.06812400  0.71095500  1
  Cu  Cu49  1  0.75000000  0.43187600  0.21095500  1
  Cu  Cu50  1  0.25000000  0.93187600  0.28904500  1
  Cu  Cu51  1  0.25000000  0.56812400  0.78904500  1
  Cu  Cu52  1  0.25000000  0.05254900  0.65926500  1
  Cu  Cu53  1  0.25000000  0.44745100  0.15926500  1
  Cu  Cu54  1  0.75000000  0.94745100  0.34073500  1
  Cu  Cu55  1  0.75000000  0.55254900  0.84073500  1
  Cu  Cu56  1  0.75000000  0.22003600  0.73905100  1
  Cu  Cu57  1  0.75000000  0.27996400  0.23905100  1
  Cu  Cu58  1  0.25000000  0.77996400  0.26094900  1
  Cu  Cu59  1  0.25000000  0.72003600  0.76094900  1
  Cu  Cu60  1  0.25000000  0.39088400  0.95647300  1
  Cu  Cu61  1  0.25000000  0.10911600  0.45647300  1
  Cu  Cu62  1  0.75000000  0.60911600  0.04352700  1
  Cu  Cu63  1  0.75000000  0.89088400  0.54352700  1
