# generated using pymatgen
data_Cu6Ni2C13
_symmetry_space_group_name_H-M   'P 1'
_cell_length_a   7.19067700
_cell_length_b   7.45101900
_cell_length_c   9.12756315
_cell_angle_alpha   65.91067253
_cell_angle_beta   66.80266797
_cell_angle_gamma   90.00000000
_symmetry_Int_Tables_number   1
_chemical_formula_structural   Cu6Ni2C13
_chemical_formula_sum   'Cu12 Ni4 C26'
_cell_volume   402.74924932
_cell_formula_units_Z   2
loop_
 _symmetry_equiv_pos_site_id
 _symmetry_equiv_pos_as_xyz
  1  'x, y, z'
loop_
 _atom_site_type_symbol
 _atom_site_label
 _atom_site_symmetry_multiplicity
 _atom_site_fract_x
 _atom_site_fract_y
 _atom_site_fract_z
 _atom_site_occupancy
  C  C0  1  0.50000000  0.00000000  0.00000000  1
  C  C1  1  0.03081600  0.70483700  0.16798200  1
  C  C2  1  0.80120200  0.12718100  0.16798200  1
  C  C3  1  0.96918400  0.87281900  0.83201800  1
  C  C4  1  0.19879800  0.29516300  0.83201800  1
  C  C5  1  0.78829300  0.67231300  0.20087600  1
  C  C6  1  0.01083100  0.12681100  0.20087600  1
  C  C7  1  0.21170700  0.87318900  0.79912400  1
  C  C8  1  0.98916900  0.32768700  0.79912400  1
  C  C9  1  0.87976900  0.48410300  0.31358200  1
  C  C10  1  0.80665000  0.20231500  0.31358200  1
  C  C11  1  0.12023100  0.79768500  0.68641800  1
  C  C12  1  0.19335000  0.51589700  0.68641800  1
  C  C13  1  0.20495400  0.32178800  0.37097100  1
  C  C14  1  0.42407500  0.30724100  0.37097100  1
  C  C15  1  0.79504600  0.69275900  0.62902900  1
  C  C16  1  0.57592500  0.67821200  0.62902900  1
  C  C17  1  0.44883500  0.59329000  0.10854400  1
  C  C18  1  0.44262100  0.29816600  0.10854400  1
  C  C19  1  0.55116500  0.70183400  0.89145600  1
  C  C20  1  0.55737900  0.40671000  0.89145600  1
  C  C21  1  0.00000000  0.50000000  0.00000000  1
  C  C22  1  0.57166300  0.17258600  0.63884500  1
  C  C23  1  0.78949300  0.18857000  0.63884500  1
  C  C24  1  0.42833700  0.81143000  0.36115500  1
  C  C25  1  0.21050700  0.82741400  0.36115500  1
  Ni  Ni26  1  0.91329100  0.60318600  0.19164600  1
  Ni  Ni27  1  0.89506300  0.20516900  0.19164600  1
  Ni  Ni28  1  0.08670900  0.79483100  0.80835400  1
  Ni  Ni29  1  0.10493700  0.39681400  0.80835400  1
  Cu  Cu30  1  0.56761700  0.23261500  0.49041800  1
  Cu  Cu31  1  0.94196500  0.27696700  0.49041800  1
  Cu  Cu32  1  0.43238300  0.72303300  0.50958200  1
  Cu  Cu33  1  0.05803500  0.76738500  0.50958200  1
  Cu  Cu34  1  0.41573600  0.09882300  0.79111100  1
  Cu  Cu35  1  0.79315300  0.11006600  0.79111100  1
  Cu  Cu36  1  0.58426400  0.88993400  0.20888900  1
  Cu  Cu37  1  0.20684700  0.90117700  0.20888900  1
  Cu  Cu38  1  0.35481300  0.35481300  0.29037400  1
  Cu  Cu39  1  0.64518700  0.64518700  0.70962600  1
  Cu  Cu40  1  0.50000000  0.72330300  0.00000000  1
  Cu  Cu41  1  0.50000000  0.27669700  0.00000000  1
