# generated using pymatgen
data_Cu3(Ni2C)2
_symmetry_space_group_name_H-M   'P 1'
_cell_length_a   6.39837000
_cell_length_b   11.15410400
_cell_length_c   10.60834800
_cell_angle_alpha   90.00000000
_cell_angle_beta   90.00000000
_cell_angle_gamma   90.00000000
_symmetry_Int_Tables_number   1
_chemical_formula_structural   Cu3(Ni2C)2
_chemical_formula_sum   'Cu12 Ni16 C8'
_cell_volume   757.09747552
_cell_formula_units_Z   4
loop_
 _symmetry_equiv_pos_site_id
 _symmetry_equiv_pos_as_xyz
  1  'x, y, z'
loop_
 _atom_site_type_symbol
 _atom_site_label
 _atom_site_symmetry_multiplicity
 _atom_site_fract_x
 _atom_site_fract_y
 _atom_site_fract_z
 _atom_site_occupancy
  Ni  Ni0  1  0.72195600  0.25000000  0.95830400  1
  Ni  Ni1  1  0.22195600  0.25000000  0.54169600  1
  Ni  Ni2  1  0.27804400  0.75000000  0.04169600  1
  Ni  Ni3  1  0.77804400  0.75000000  0.45830400  1
  Ni  Ni4  1  0.89362600  0.25000000  0.39201100  1
  Ni  Ni5  1  0.39362600  0.25000000  0.10798900  1
  Ni  Ni6  1  0.10637400  0.75000000  0.60798900  1
  Ni  Ni7  1  0.60637400  0.75000000  0.89201100  1
  Ni  Ni8  1  0.61471100  0.52494300  0.09979100  1
  Ni  Ni9  1  0.11471100  0.97505700  0.40020900  1
  Ni  Ni10  1  0.38529000  0.02494300  0.90020900  1
  Ni  Ni11  1  0.88528900  0.47505700  0.59979100  1
  Ni  Ni12  1  0.38529000  0.47505700  0.90020900  1
  Ni  Ni13  1  0.88528900  0.02494300  0.59979100  1
  Ni  Ni14  1  0.61471100  0.97505700  0.09979100  1
  Ni  Ni15  1  0.11471100  0.52494300  0.40020900  1
  Cu  Cu16  1  0.99460300  0.25000000  0.15093300  1
  Cu  Cu17  1  0.49460300  0.25000000  0.34906700  1
  Cu  Cu18  1  0.00539700  0.75000000  0.84906700  1
  Cu  Cu19  1  0.50539700  0.75000000  0.65093300  1
  Cu  Cu20  1  0.51786000  0.57389900  0.34017800  1
  Cu  Cu21  1  0.01786000  0.92610100  0.15982200  1
  Cu  Cu22  1  0.48214000  0.07389900  0.65982200  1
  Cu  Cu23  1  0.98214000  0.42610100  0.84017800  1
  Cu  Cu24  1  0.48214000  0.42610100  0.65982200  1
  Cu  Cu25  1  0.98214000  0.07389900  0.84017800  1
  Cu  Cu26  1  0.51786000  0.92610100  0.34017800  1
  Cu  Cu27  1  0.01786000  0.57389900  0.15982200  1
  C  C28  1  0.47322000  0.62383400  0.97920800  1
  C  C29  1  0.97322000  0.87616600  0.52079200  1
  C  C30  1  0.52678000  0.12383400  0.02079200  1
  C  C31  1  0.02678000  0.37616600  0.47920800  1
  C  C32  1  0.52678000  0.37616600  0.02079200  1
  C  C33  1  0.02678000  0.12383400  0.47920800  1
  C  C34  1  0.47322000  0.87616600  0.97920800  1
  C  C35  1  0.97322000  0.62383400  0.52079200  1
