# generated using pymatgen
data_CuNi2C7
_symmetry_space_group_name_H-M   'P 1'
_cell_length_a   8.17853800
_cell_length_b   5.53155100
_cell_length_c   5.61081233
_cell_angle_alpha   87.94704515
_cell_angle_beta   90.00000000
_cell_angle_gamma   90.00000000
_symmetry_Int_Tables_number   1
_chemical_formula_structural   CuNi2C7
_chemical_formula_sum   'Cu2 Ni4 C14'
_cell_volume   253.67022593
_cell_formula_units_Z   2
loop_
 _symmetry_equiv_pos_site_id
 _symmetry_equiv_pos_as_xyz
  1  'x, y, z'
loop_
 _atom_site_type_symbol
 _atom_site_label
 _atom_site_symmetry_multiplicity
 _atom_site_fract_x
 _atom_site_fract_y
 _atom_site_fract_z
 _atom_site_occupancy
  Ni  Ni0  1  0.75000000  0.52277500  0.49407500  1
  Ni  Ni1  1  0.25000000  0.47722500  0.50592500  1
  Ni  Ni2  1  0.75000000  0.01130300  0.03230400  1
  Ni  Ni3  1  0.25000000  0.98869700  0.96769600  1
  Cu  Cu4  1  0.50000000  0.00000000  0.50000000  1
  Cu  Cu5  1  0.00000000  0.00000000  0.50000000  1
  C  C6  1  0.50000000  0.50000000  0.00000000  1
  C  C7  1  0.00000000  0.50000000  0.00000000  1
  C  C8  1  0.42779100  0.63932500  0.30759400  1
  C  C9  1  0.07239500  0.18146800  0.12686300  1
  C  C10  1  0.92779100  0.36067500  0.69240600  1
  C  C11  1  0.57239500  0.81853200  0.87313700  1
  C  C12  1  0.42760500  0.18146800  0.12686300  1
  C  C13  1  0.92760500  0.81853200  0.87313700  1
  C  C14  1  0.25000000  0.61193400  0.86305600  1
  C  C15  1  0.07220900  0.63932500  0.30759400  1
  C  C16  1  0.75000000  0.86593000  0.36767700  1
  C  C17  1  0.57220900  0.36067500  0.69240600  1
  C  C18  1  0.75000000  0.38806600  0.13694400  1
  C  C19  1  0.25000000  0.13407000  0.63232300  1
