# generated using pymatgen
data_Cu2NiC5
_symmetry_space_group_name_H-M   'P 1'
_cell_length_a   11.25086200
_cell_length_b   15.77901300
_cell_length_c   6.42341703
_cell_angle_alpha   90.00000000
_cell_angle_beta   91.27206315
_cell_angle_gamma   90.00000000
_symmetry_Int_Tables_number   1
_chemical_formula_structural   Cu2NiC5
_chemical_formula_sum   'Cu32 Ni16 C80'
_cell_volume   1140.05212104
_cell_formula_units_Z   16
loop_
 _symmetry_equiv_pos_site_id
 _symmetry_equiv_pos_as_xyz
  1  'x, y, z'
loop_
 _atom_site_type_symbol
 _atom_site_label
 _atom_site_symmetry_multiplicity
 _atom_site_fract_x
 _atom_site_fract_y
 _atom_site_fract_z
 _atom_site_occupancy
  C  C0  1  0.13711100  0.11063900  0.30017400  1
  C  C1  1  0.86288900  0.61063900  0.19982600  1
  C  C2  1  0.86288900  0.88936100  0.69982600  1
  C  C3  1  0.13711100  0.38936100  0.80017400  1
  C  C4  1  0.63589000  0.13183900  0.81695100  1
  C  C5  1  0.36411000  0.63183900  0.68304900  1
  C  C6  1  0.36411000  0.86816100  0.18304900  1
  C  C7  1  0.63589000  0.36816100  0.31695100  1
  C  C8  1  0.19708900  0.99128600  0.13903000  1
  C  C9  1  0.80291100  0.49128600  0.36097000  1
  C  C10  1  0.80291100  0.00871400  0.86097000  1
  C  C11  1  0.19708900  0.50871400  0.63903000  1
  C  C12  1  0.63914600  0.24452700  0.03669500  1
  C  C13  1  0.36085400  0.74452700  0.46330500  1
  C  C14  1  0.36085400  0.75547300  0.96330500  1
  C  C15  1  0.63914600  0.25547300  0.53669500  1
  C  C16  1  0.00446900  0.76538900  0.22283200  1
  C  C17  1  0.99553100  0.26538900  0.27716800  1
  C  C18  1  0.99553100  0.23461100  0.77716800  1
  C  C19  1  0.00446900  0.73461100  0.72283200  1
  C  C20  1  0.12031000  0.83434500  0.23640500  1
  C  C21  1  0.87969000  0.33434500  0.26359500  1
  C  C22  1  0.87969000  0.16565500  0.76359500  1
  C  C23  1  0.12031000  0.66565500  0.73640500  1
  C  C24  1  0.97863100  0.86696200  0.29799200  1
  C  C25  1  0.02136900  0.36696200  0.20200800  1
  C  C26  1  0.02136900  0.13303800  0.70200800  1
  C  C27  1  0.97863100  0.63303800  0.79799200  1
  C  C28  1  0.01205900  0.84409000  0.04433700  1
  C  C29  1  0.98794100  0.34409000  0.45566300  1
  C  C30  1  0.98794100  0.15591000  0.95566300  1
  C  C31  1  0.01205900  0.65591000  0.54433700  1
  C  C32  1  0.50256500  0.09667600  0.44823000  1
  C  C33  1  0.49743500  0.59667600  0.05177000  1
  C  C34  1  0.49743500  0.90332400  0.55177000  1
  C  C35  1  0.50256500  0.40332400  0.94823000  1
  C  C36  1  0.52741800  0.12120700  0.19111200  1
  C  C37  1  0.47258200  0.62120700  0.30888800  1
  C  C38  1  0.47258200  0.87879300  0.80888800  1
  C  C39  1  0.52741800  0.37879300  0.69111200  1
  C  C40  1  0.47969200  0.02200500  0.26185600  1
  C  C41  1  0.52030800  0.52200500  0.23814400  1
  C  C42  1  0.52030800  0.97799500  0.73814400  1
  C  C43  1  0.47969200  0.47799500  0.76185600  1
  C  C44  1  0.38676500  0.10823800  0.27062400  1
  C  C45  1  0.61323500  0.60823800  0.22937600  1
  C  C46  1  0.61323500  0.89176200  0.72937600  1
  C  C47  1  0.38676500  0.39176200  0.77062400  1
  C  C48  1  0.24296400  0.14085600  0.69138300  1
  C  C49  1  0.75703600  0.64085600  0.80861700  1
  C  C50  1  0.75703600  0.85914400  0.30861700  1
  C  C51  1  0.24296400  0.35914400  0.19138300  1
  C  C52  1  0.27822100  0.15844700  0.95220800  1
  C  C53  1  0.72177900  0.65844700  0.54779200  1
  C  C54  1  0.72177900  0.84155300  0.04779200  1
  C  C55  1  0.27822100  0.34155300  0.45220800  1
  C  C56  1  0.38806700  0.15277300  0.77332700  1
  C  C57  1  0.61193300  0.65277300  0.72667300  1
  C  C58  1  0.61193300  0.84722700  0.22667300  1
  C  C59  1  0.38806700  0.34722700  0.27332700  1
  C  C60  1  0.28983100  0.23758500  0.77582200  1
  C  C61  1  0.71016900  0.73758500  0.72417800  1
  C  C62  1  0.71016900  0.76241500  0.22417800  1
  C  C63  1  0.28983100  0.26241500  0.27582200  1
  C  C64  1  0.76680700  0.07576700  0.19667900  1
  C  C65  1  0.23319300  0.57576700  0.30332100  1
  C  C66  1  0.23319300  0.92423300  0.80332100  1
  C  C67  1  0.76680700  0.42423300  0.69667900  1
  C  C68  1  0.77392200  0.11205800  0.45180900  1
  C  C69  1  0.22607800  0.61205800  0.04819100  1
  C  C70  1  0.22607800  0.88794200  0.54819100  1
  C  C71  1  0.77392200  0.38794200  0.95180900  1
  C  C72  1  0.83295300  0.01545500  0.38857500  1
  C  C73  1  0.16704700  0.51545500  0.11142500  1
  C  C74  1  0.16704700  0.98454500  0.61142500  1
  C  C75  1  0.83295300  0.48454500  0.88857500  1
  C  C76  1  0.89878900  0.10718400  0.30622200  1
  C  C77  1  0.10121100  0.60718400  0.19377800  1
  C  C78  1  0.10121100  0.89281600  0.69377800  1
  C  C79  1  0.89878900  0.39281600  0.80622200  1
  Ni  Ni80  1  0.02948200  0.82911000  0.20044100  1
  Ni  Ni81  1  0.97051800  0.32911000  0.29955900  1
  Ni  Ni82  1  0.97051800  0.17089000  0.79955900  1
  Ni  Ni83  1  0.02948200  0.67089000  0.70044100  1
  Ni  Ni84  1  0.47522800  0.08704400  0.29163900  1
  Ni  Ni85  1  0.52477200  0.58704400  0.20836100  1
  Ni  Ni86  1  0.52477200  0.91295600  0.70836100  1
  Ni  Ni87  1  0.47522800  0.41295600  0.79163900  1
  Ni  Ni88  1  0.30093900  0.17239700  0.79842000  1
  Ni  Ni89  1  0.69906100  0.67239700  0.70158000  1
  Ni  Ni90  1  0.69906100  0.82760300  0.20158000  1
  Ni  Ni91  1  0.30093900  0.32760300  0.29842000  1
  Ni  Ni92  1  0.81712600  0.07734000  0.33685600  1
  Ni  Ni93  1  0.18287400  0.57734000  0.16314400  1
  Ni  Ni94  1  0.18287400  0.92266000  0.66314400  1
  Ni  Ni95  1  0.81712600  0.42266000  0.83685600  1
  Cu  Cu96  1  0.12179700  0.02192300  0.18344100  1
  Cu  Cu97  1  0.87820300  0.52192300  0.31655900  1
  Cu  Cu98  1  0.87820300  0.97807700  0.81655900  1
  Cu  Cu99  1  0.12179700  0.47807700  0.68344100  1
  Cu  Cu100  1  0.25204200  0.15365400  0.22335000  1
  Cu  Cu101  1  0.74795800  0.65365400  0.27665000  1
  Cu  Cu102  1  0.74795800  0.84634600  0.77665000  1
  Cu  Cu103  1  0.25204200  0.34634600  0.72335000  1
  Cu  Cu104  1  0.14254200  0.09359300  0.53739800  1
  Cu  Cu105  1  0.85745800  0.59359300  0.96260200  1
  Cu  Cu106  1  0.85745800  0.90640700  0.46260200  1
  Cu  Cu107  1  0.14254200  0.40640700  0.03739800  1
  Cu  Cu108  1  0.02433500  0.16143200  0.23834300  1
  Cu  Cu109  1  0.97566500  0.66143200  0.26165700  1
  Cu  Cu110  1  0.97566500  0.83856800  0.76165700  1
  Cu  Cu111  1  0.02433500  0.33856800  0.73834300  1
  Cu  Cu112  1  0.58121800  0.20256100  0.97125300  1
  Cu  Cu113  1  0.41878200  0.70256100  0.52874700  1
  Cu  Cu114  1  0.41878200  0.79743900  0.02874700  1
  Cu  Cu115  1  0.58121800  0.29743900  0.47125300  1
  Cu  Cu116  1  0.52435800  0.09309600  0.70983700  1
  Cu  Cu117  1  0.47564200  0.59309600  0.79016300  1
  Cu  Cu118  1  0.47564200  0.90690400  0.29016300  1
  Cu  Cu119  1  0.52435800  0.40690400  0.20983700  1
  Cu  Cu120  1  0.70188700  0.06573200  0.95291100  1
  Cu  Cu121  1  0.29811300  0.56573200  0.54708900  1
  Cu  Cu122  1  0.29811300  0.93426800  0.04708900  1
  Cu  Cu123  1  0.70188700  0.43426800  0.45291100  1
  Cu  Cu124  1  0.71803200  0.17708900  0.66281500  1
  Cu  Cu125  1  0.28196800  0.67708900  0.83718500  1
  Cu  Cu126  1  0.28196800  0.82291100  0.33718500  1
  Cu  Cu127  1  0.71803200  0.32291100  0.16281500  1
