# generated using pymatgen
data_CuNi4C15
_symmetry_space_group_name_H-M   'P 1'
_cell_length_a   5.34980700
_cell_length_b   9.30648300
_cell_length_c   20.02552000
_cell_angle_alpha   90.00000000
_cell_angle_beta   90.00000000
_cell_angle_gamma   90.00000000
_symmetry_Int_Tables_number   1
_chemical_formula_structural   CuNi4C15
_chemical_formula_sum   'Cu4 Ni16 C60'
_cell_volume   997.02834487
_cell_formula_units_Z   4
loop_
 _symmetry_equiv_pos_site_id
 _symmetry_equiv_pos_as_xyz
  1  'x, y, z'
loop_
 _atom_site_type_symbol
 _atom_site_label
 _atom_site_symmetry_multiplicity
 _atom_site_fract_x
 _atom_site_fract_y
 _atom_site_fract_z
 _atom_site_occupancy
  C  C0  1  0.66799600  0.00000000  0.24881100  1
  C  C1  1  0.33200400  0.00000000  0.75118900  1
  C  C2  1  0.83200400  0.50000000  0.74881100  1
  C  C3  1  0.16799600  0.50000000  0.25118900  1
  C  C4  1  0.00000000  0.33428500  0.50000000  1
  C  C5  1  0.00000000  0.66571500  0.50000000  1
  C  C6  1  0.50000000  0.16571500  0.00000000  1
  C  C7  1  0.50000000  0.83428500  0.00000000  1
  C  C8  1  0.00000000  0.35048600  0.00000000  1
  C  C9  1  0.00000000  0.64951400  0.00000000  1
  C  C10  1  0.50000000  0.14951400  0.50000000  1
  C  C11  1  0.50000000  0.85048600  0.50000000  1
  C  C12  1  0.00000000  0.00000000  0.50000000  1
  C  C13  1  0.50000000  0.50000000  0.00000000  1
  C  C14  1  0.00000000  0.00000000  0.00000000  1
  C  C15  1  0.50000000  0.50000000  0.50000000  1
  Ni  Ni16  1  0.16777900  0.16657300  0.13832100  1
  Ni  Ni17  1  0.83222100  0.83342700  0.86167900  1
  Ni  Ni18  1  0.83222100  0.16657300  0.86167900  1
  Ni  Ni19  1  0.33222100  0.33342700  0.63832100  1
  Ni  Ni20  1  0.16777900  0.83342700  0.13832100  1
  Ni  Ni21  1  0.66777900  0.66657300  0.36167900  1
  Ni  Ni22  1  0.66777900  0.33342700  0.36167900  1
  Ni  Ni23  1  0.33222100  0.66657300  0.63832100  1
  Ni  Ni24  1  0.16824600  0.16787800  0.36087600  1
  Ni  Ni25  1  0.83175400  0.83212200  0.63912400  1
  Ni  Ni26  1  0.83175400  0.16787800  0.63912400  1
  Ni  Ni27  1  0.33175400  0.33212200  0.86087600  1
  Ni  Ni28  1  0.16824600  0.83212200  0.36087600  1
  Ni  Ni29  1  0.66824600  0.66787800  0.13912400  1
  Ni  Ni30  1  0.66824600  0.33212200  0.13912400  1
  Ni  Ni31  1  0.33175400  0.66787800  0.86087600  1
  Cu  Cu32  1  0.66449400  0.00000000  0.08687700  1
  Cu  Cu33  1  0.33550600  0.00000000  0.91312300  1
  Cu  Cu34  1  0.83550600  0.50000000  0.58687700  1
  Cu  Cu35  1  0.16449400  0.50000000  0.41312300  1
  C  C36  1  0.16818900  0.00000000  0.17369800  1
  C  C37  1  0.83181100  0.00000000  0.82630200  1
  C  C38  1  0.33181100  0.50000000  0.67369800  1
  C  C39  1  0.66818900  0.50000000  0.32630200  1
  C  C40  1  0.16053400  0.17092000  0.05867700  1
  C  C41  1  0.83946600  0.82908000  0.94132300  1
  C  C42  1  0.83946600  0.17092000  0.94132300  1
  C  C43  1  0.33946600  0.32908000  0.55867700  1
  C  C44  1  0.16053400  0.82908000  0.05867700  1
  C  C45  1  0.66053400  0.67092000  0.44132300  1
  C  C46  1  0.66053400  0.32908000  0.44132300  1
  C  C47  1  0.33946600  0.67092000  0.55867700  1
  C  C48  1  0.41350600  0.25411300  0.17370800  1
  C  C49  1  0.58649400  0.74588700  0.82629200  1
  C  C50  1  0.58649400  0.25411300  0.82629200  1
  C  C51  1  0.08649400  0.24588700  0.67370800  1
  C  C52  1  0.41350600  0.74588700  0.17370800  1
  C  C53  1  0.91350600  0.75411300  0.32629200  1
  C  C54  1  0.91350600  0.24588700  0.32629200  1
  C  C55  1  0.08649400  0.75411300  0.67370800  1
  C  C56  1  0.16596500  0.17137100  0.43997300  1
  C  C57  1  0.83403500  0.82862900  0.56002700  1
  C  C58  1  0.83403500  0.17137100  0.56002700  1
  C  C59  1  0.33403500  0.32862900  0.93997300  1
  C  C60  1  0.16596500  0.82862900  0.43997300  1
  C  C61  1  0.66596500  0.67137100  0.06002700  1
  C  C62  1  0.66596500  0.32862900  0.06002700  1
  C  C63  1  0.33403500  0.67137100  0.93997300  1
  C  C64  1  0.17034300  0.00000000  0.32826500  1
  C  C65  1  0.82965700  0.00000000  0.67173500  1
  C  C66  1  0.32965700  0.50000000  0.82826500  1
  C  C67  1  0.67034300  0.50000000  0.17173500  1
  C  C68  1  0.31577700  0.00000000  0.55668200  1
  C  C69  1  0.68422300  0.00000000  0.44331800  1
  C  C70  1  0.18422300  0.50000000  0.05668200  1
  C  C71  1  0.81577700  0.50000000  0.94331800  1
  C  C72  1  0.42347400  0.24505700  0.32604000  1
  C  C73  1  0.57652600  0.75494300  0.67396000  1
  C  C74  1  0.57652600  0.24505700  0.67396000  1
  C  C75  1  0.07652600  0.25494300  0.82604000  1
  C  C76  1  0.42347400  0.75494300  0.32604000  1
  C  C77  1  0.92347400  0.74505700  0.17396000  1
  C  C78  1  0.92347400  0.25494300  0.17396000  1
  C  C79  1  0.07652600  0.74505700  0.82604000  1
