# generated using pymatgen
data_Cu10NiC3
_symmetry_space_group_name_H-M   'P 1'
_cell_length_a   8.43437041
_cell_length_b   8.43437041
_cell_length_c   8.43437041
_cell_angle_alpha   121.97073075
_cell_angle_beta   121.97073075
_cell_angle_gamma   86.61919475
_symmetry_Int_Tables_number   1
_chemical_formula_structural   Cu10NiC3
_chemical_formula_sum   'Cu20 Ni2 C6'
_cell_volume   410.85427475
_cell_formula_units_Z   2
loop_
 _symmetry_equiv_pos_site_id
 _symmetry_equiv_pos_as_xyz
  1  'x, y, z'
loop_
 _atom_site_type_symbol
 _atom_site_label
 _atom_site_symmetry_multiplicity
 _atom_site_fract_x
 _atom_site_fract_y
 _atom_site_fract_z
 _atom_site_occupancy
  C  C0  1  0.24094200  0.75905800  0.00000000  1
  C  C1  1  0.24094200  0.24094200  0.48188400  1
  C  C2  1  0.75905800  0.24094200  0.00000000  1
  C  C3  1  0.75905800  0.75905800  0.51811600  1
  C  C4  1  0.75911700  0.75911700  0.00000000  1
  C  C5  1  0.24088300  0.24088300  0.00000000  1
  Ni  Ni6  1  0.25000000  0.75000000  0.50000000  1
  Ni  Ni7  1  0.75000000  0.25000000  0.50000000  1
  Cu  Cu8  1  0.11690900  0.89522000  0.22168900  1
  Cu  Cu9  1  0.10478000  0.32647000  0.22168900  1
  Cu  Cu10  1  0.10478000  0.88309100  0.77831100  1
  Cu  Cu11  1  0.67353000  0.89522000  0.77831100  1
  Cu  Cu12  1  0.88309100  0.10478000  0.77831100  1
  Cu  Cu13  1  0.89522000  0.67353000  0.77831100  1
  Cu  Cu14  1  0.89522000  0.11690900  0.22168900  1
  Cu  Cu15  1  0.32647000  0.10478000  0.22168900  1
  Cu  Cu16  1  0.18420100  0.50000000  0.68420100  1
  Cu  Cu17  1  0.49375700  0.49375700  0.66490500  1
  Cu  Cu18  1  0.49375700  0.82885200  0.00000000  1
  Cu  Cu19  1  0.50000000  0.18420100  0.68420100  1
  Cu  Cu20  1  0.17114800  0.17114800  0.66490500  1
  Cu  Cu21  1  0.50624300  0.17114800  0.00000000  1
  Cu  Cu22  1  0.50000000  0.81579900  0.31579900  1
  Cu  Cu23  1  0.50624300  0.50624300  0.33509500  1
  Cu  Cu24  1  0.17114800  0.50624300  0.00000000  1
  Cu  Cu25  1  0.81579900  0.50000000  0.31579900  1
  Cu  Cu26  1  0.82885200  0.82885200  0.33509500  1
  Cu  Cu27  1  0.82885200  0.49375700  0.00000000  1
