# generated using pymatgen
data_Cu4NiC13
_symmetry_space_group_name_H-M   'P 1'
_cell_length_a   5.13574700
_cell_length_b   5.87841900
_cell_length_c   14.55731500
_cell_angle_alpha   90.00000000
_cell_angle_beta   90.00000000
_cell_angle_gamma   90.00000000
_symmetry_Int_Tables_number   1
_chemical_formula_structural   Cu4NiC13
_chemical_formula_sum   'Cu8 Ni2 C26'
_cell_volume   439.48639881
_cell_formula_units_Z   2
loop_
 _symmetry_equiv_pos_site_id
 _symmetry_equiv_pos_as_xyz
  1  'x, y, z'
loop_
 _atom_site_type_symbol
 _atom_site_label
 _atom_site_symmetry_multiplicity
 _atom_site_fract_x
 _atom_site_fract_y
 _atom_site_fract_z
 _atom_site_occupancy
  Ni  Ni0  1  0.50000000  0.07794400  0.00000000  1
  Ni  Ni1  1  0.00000000  0.92205600  0.50000000  1
  Cu  Cu2  1  0.00521300  0.43033500  0.66196700  1
  Cu  Cu3  1  0.50521300  0.56966500  0.83803300  1
  Cu  Cu4  1  0.49478700  0.56966500  0.16196700  1
  Cu  Cu5  1  0.99478700  0.43033500  0.33803300  1
  Cu  Cu6  1  0.49340800  0.06933800  0.33776000  1
  Cu  Cu7  1  0.99340800  0.93066200  0.16224000  1
  Cu  Cu8  1  0.00659200  0.93066200  0.83776000  1
  Cu  Cu9  1  0.50659200  0.06933800  0.66224000  1
  C  C10  1  0.00000000  0.42101600  0.00000000  1
  C  C11  1  0.50000000  0.57898400  0.50000000  1
  C  C12  1  0.15619600  0.62959500  0.58124200  1
  C  C13  1  0.65619600  0.37040500  0.91875800  1
  C  C14  1  0.34380400  0.37040500  0.08124200  1
  C  C15  1  0.84380400  0.62959500  0.41875800  1
  C  C16  1  0.34757100  0.86754600  0.41976100  1
  C  C17  1  0.84757100  0.13245400  0.08023900  1
  C  C18  1  0.15242900  0.13245400  0.91976100  1
  C  C19  1  0.65242900  0.86754600  0.58023900  1
  C  C20  1  0.16545900  0.62319000  0.24544900  1
  C  C21  1  0.66545900  0.37681000  0.25455100  1
  C  C22  1  0.33454100  0.37681000  0.74544900  1
  C  C23  1  0.83454100  0.62319000  0.75455100  1
  C  C24  1  0.33480100  0.87668800  0.75536700  1
  C  C25  1  0.83480100  0.12331200  0.74463300  1
  C  C26  1  0.16519900  0.12331200  0.25536700  1
  C  C27  1  0.66519900  0.87668800  0.24463300  1
  C  C28  1  0.18335400  0.64805900  0.90238200  1
  C  C29  1  0.68335400  0.35194100  0.59761800  1
  C  C30  1  0.31664600  0.35194100  0.40238200  1
  C  C31  1  0.81664600  0.64805900  0.09761800  1
  C  C32  1  0.31466800  0.85281800  0.09934500  1
  C  C33  1  0.81466800  0.14718200  0.40065500  1
  C  C34  1  0.18533200  0.14718200  0.59934500  1
  C  C35  1  0.68533200  0.85281800  0.90065500  1
