# generated using pymatgen
data_Cu7NiC16
_symmetry_space_group_name_H-M   'P 1'
_cell_length_a   6.28442142
_cell_length_b   6.28442142
_cell_length_c   6.28442142
_cell_angle_alpha   60.00000000
_cell_angle_beta   60.00000000
_cell_angle_gamma   60.00000000
_symmetry_Int_Tables_number   1
_chemical_formula_structural   Cu7NiC16
_chemical_formula_sum   'Cu7 Ni1 C16'
_cell_volume   175.50152810
_cell_formula_units_Z   1
loop_
 _symmetry_equiv_pos_site_id
 _symmetry_equiv_pos_as_xyz
  1  'x, y, z'
loop_
 _atom_site_type_symbol
 _atom_site_label
 _atom_site_symmetry_multiplicity
 _atom_site_fract_x
 _atom_site_fract_y
 _atom_site_fract_z
 _atom_site_occupancy
  Ni  Ni0  1  0.00000000  0.00000000  0.00000000  1
  Cu  Cu1  1  0.50000000  0.50000000  0.50000000  1
  Cu  Cu2  1  0.00000000  0.00000000  0.50000000  1
  Cu  Cu3  1  0.50000000  0.00000000  0.50000000  1
  Cu  Cu4  1  0.00000000  0.50000000  0.50000000  1
  Cu  Cu5  1  0.50000000  0.50000000  0.00000000  1
  Cu  Cu6  1  0.00000000  0.50000000  0.00000000  1
  Cu  Cu7  1  0.50000000  0.00000000  0.00000000  1
  C  C8  1  0.87196300  0.87196300  0.38411200  1
  C  C9  1  0.87196300  0.38411200  0.87196300  1
  C  C10  1  0.38411200  0.87196300  0.87196300  1
  C  C11  1  0.87196300  0.87196300  0.87196300  1
  C  C12  1  0.12803700  0.12803700  0.61588800  1
  C  C13  1  0.12803700  0.61588800  0.12803700  1
  C  C14  1  0.61588800  0.12803700  0.12803700  1
  C  C15  1  0.12803700  0.12803700  0.12803700  1
  C  C16  1  0.62450600  0.62450600  0.12648300  1
  C  C17  1  0.62450600  0.12648300  0.62450600  1
  C  C18  1  0.12648300  0.62450600  0.62450600  1
  C  C19  1  0.62450600  0.62450600  0.62450600  1
  C  C20  1  0.37549400  0.37549400  0.87351700  1
  C  C21  1  0.37549400  0.87351700  0.37549400  1
  C  C22  1  0.87351700  0.37549400  0.37549400  1
  C  C23  1  0.37549400  0.37549400  0.37549400  1
