# generated using pymatgen
data_Cu8NiC6
_symmetry_space_group_name_H-M   'P 1'
_cell_length_a   6.51620300
_cell_length_b   7.25913000
_cell_length_c   9.67287100
_cell_angle_alpha   90.00000000
_cell_angle_beta   90.00000000
_cell_angle_gamma   90.00000000
_symmetry_Int_Tables_number   1
_chemical_formula_structural   Cu8NiC6
_chemical_formula_sum   'Cu16 Ni2 C12'
_cell_volume   457.54580243
_cell_formula_units_Z   2
loop_
 _symmetry_equiv_pos_site_id
 _symmetry_equiv_pos_as_xyz
  1  'x, y, z'
loop_
 _atom_site_type_symbol
 _atom_site_label
 _atom_site_symmetry_multiplicity
 _atom_site_fract_x
 _atom_site_fract_y
 _atom_site_fract_z
 _atom_site_occupancy
  C  C0  1  0.00000000  0.22763200  0.00000000  1
  C  C1  1  0.50000000  0.77236800  0.50000000  1
  C  C2  1  0.25000000  0.50000000  0.75000000  1
  C  C3  1  0.25000000  0.50000000  0.25000000  1
  C  C4  1  0.75000000  0.50000000  0.75000000  1
  C  C5  1  0.50000000  0.29853400  0.50000000  1
  C  C6  1  0.00000000  0.70146600  0.00000000  1
  C  C7  1  0.75000000  0.50000000  0.25000000  1
  C  C8  1  0.50000000  0.08553000  0.81294300  1
  C  C9  1  0.00000000  0.91447000  0.68705700  1
  C  C10  1  0.50000000  0.08553000  0.18705700  1
  C  C11  1  0.00000000  0.91447000  0.31294300  1
  Ni  Ni12  1  0.00000000  0.37196400  0.50000000  1
  Ni  Ni13  1  0.50000000  0.62803600  0.00000000  1
  Cu  Cu14  1  0.00000000  0.49114700  0.86346100  1
  Cu  Cu15  1  0.00000000  0.92447900  0.86745100  1
  Cu  Cu16  1  0.50000000  0.07552100  0.36745100  1
  Cu  Cu17  1  0.29197400  0.22863300  0.84131600  1
  Cu  Cu18  1  0.20802600  0.77136700  0.34131600  1
  Cu  Cu19  1  0.79197400  0.77136700  0.34131600  1
  Cu  Cu20  1  0.50000000  0.50885300  0.63653900  1
  Cu  Cu21  1  0.70802600  0.22863300  0.84131600  1
  Cu  Cu22  1  0.70802600  0.22863300  0.15868400  1
  Cu  Cu23  1  0.79197400  0.77136700  0.65868400  1
  Cu  Cu24  1  0.00000000  0.49114700  0.13653900  1
  Cu  Cu25  1  0.50000000  0.50885300  0.36346100  1
  Cu  Cu26  1  0.20802600  0.77136700  0.65868400  1
  Cu  Cu27  1  0.29197400  0.22863300  0.15868400  1
  Cu  Cu28  1  0.50000000  0.07552100  0.63254900  1
  Cu  Cu29  1  0.00000000  0.92447900  0.13254900  1
