# generated using pymatgen
data_Cu6Ni9C2
_symmetry_space_group_name_H-M   'P 1'
_cell_length_a   14.99748743
_cell_length_b   14.99748743
_cell_length_c   14.99748743
_cell_angle_alpha   130.37544935
_cell_angle_beta   130.37544935
_cell_angle_gamma   72.80725657
_symmetry_Int_Tables_number   1
_chemical_formula_structural   Cu6Ni9C2
_chemical_formula_sum   'Cu24 Ni36 C8'
_cell_volume   1912.49869677
_cell_formula_units_Z   4
loop_
 _symmetry_equiv_pos_site_id
 _symmetry_equiv_pos_as_xyz
  1  'x, y, z'
loop_
 _atom_site_type_symbol
 _atom_site_label
 _atom_site_symmetry_multiplicity
 _atom_site_fract_x
 _atom_site_fract_y
 _atom_site_fract_z
 _atom_site_occupancy
  C  C0  1  0.62488600  0.15395700  0.74834700  1
  C  C1  1  0.40561000  0.87654000  0.25165300  1
  C  C2  1  0.62654000  0.87488600  0.97092900  1
  C  C3  1  0.90395700  0.65561000  0.02907100  1
  C  C4  1  0.12511400  0.09604300  0.75165300  1
  C  C5  1  0.34439000  0.37346000  0.24834700  1
  C  C6  1  0.12346000  0.37511400  0.52907100  1
  C  C7  1  0.84604300  0.59439000  0.47092900  1
  Ni  Ni8  1  0.69232000  0.13124800  0.62711600  1
  Ni  Ni9  1  0.50413200  0.06520400  0.37288400  1
  Ni  Ni10  1  0.81520400  0.94232000  0.06107300  1
  Ni  Ni11  1  0.88124800  0.75413200  0.93892700  1
  Ni  Ni12  1  0.05768000  0.11875200  0.87288400  1
  Ni  Ni13  1  0.24586800  0.18479600  0.12711600  1
  Ni  Ni14  1  0.93479600  0.30768000  0.43892700  1
  Ni  Ni15  1  0.86875200  0.49586800  0.56107300  1
  Ni  Ni16  1  0.74921700  0.94031800  0.52361500  1
  Ni  Ni17  1  0.41670200  0.22560200  0.47638500  1
  Ni  Ni18  1  0.97560200  0.99921700  0.30890000  1
  Ni  Ni19  1  0.69031800  0.66670200  0.69110000  1
  Ni  Ni20  1  0.00078300  0.30968200  0.97638500  1
  Ni  Ni21  1  0.33329800  0.02439800  0.02361500  1
  Ni  Ni22  1  0.77439800  0.25078300  0.19110000  1
  Ni  Ni23  1  0.05968200  0.58329800  0.80890000  1
  Ni  Ni24  1  0.57310700  0.82660600  0.40485300  1
  Ni  Ni25  1  0.42175300  0.16825400  0.59514700  1
  Ni  Ni26  1  0.91825400  0.82310700  0.24650100  1
  Ni  Ni27  1  0.57660600  0.67175300  0.75349900  1
  Ni  Ni28  1  0.17689300  0.42339400  0.09514700  1
  Ni  Ni29  1  0.32824700  0.08174600  0.90485300  1
  Ni  Ni30  1  0.83174600  0.42689300  0.25349900  1
  Ni  Ni31  1  0.17339400  0.57824700  0.74650100  1
  Ni  Ni32  1  0.59201600  0.94837900  0.64031600  1
  Ni  Ni33  1  0.30806300  0.95170100  0.35968400  1
  Ni  Ni34  1  0.70170100  0.84201600  0.14363700  1
  Ni  Ni35  1  0.69837900  0.55806300  0.85636300  1
  Ni  Ni36  1  0.15798400  0.30162100  0.85968400  1
  Ni  Ni37  1  0.44193700  0.29829900  0.14031600  1
  Ni  Ni38  1  0.04829900  0.40798400  0.35636300  1
  Ni  Ni39  1  0.05162100  0.69193700  0.64363700  1
  Ni  Ni40  1  0.38457700  0.88457700  0.50000000  1
  Ni  Ni41  1  0.63457700  0.63457700  0.00000000  1
  Ni  Ni42  1  0.36542300  0.36542300  0.00000000  1
  Ni  Ni43  1  0.11542300  0.61542300  0.50000000  1
  Cu  Cu44  1  0.57211100  0.20521600  0.89594800  1
  Cu  Cu45  1  0.30926900  0.67616400  0.10405200  1
  Cu  Cu46  1  0.42616400  0.82211100  0.86689500  1
  Cu  Cu47  1  0.95521600  0.55926900  0.13310500  1
  Cu  Cu48  1  0.17788900  0.04478400  0.60405200  1
  Cu  Cu49  1  0.44073100  0.57383600  0.39594800  1
  Cu  Cu50  1  0.32383600  0.42788900  0.63310500  1
  Cu  Cu51  1  0.79478400  0.69073100  0.36689500  1
  Cu  Cu52  1  0.68007800  0.36476400  0.89045200  1
  Cu  Cu53  1  0.47431200  0.78962600  0.10954800  1
  Cu  Cu54  1  0.53962600  0.93007800  0.81531400  1
  Cu  Cu55  1  0.11476400  0.72431200  0.18468600  1
  Cu  Cu56  1  0.06992200  0.88523600  0.60954800  1
  Cu  Cu57  1  0.27568800  0.46037400  0.39045200  1
  Cu  Cu58  1  0.21037400  0.31992200  0.68468600  1
  Cu  Cu59  1  0.63523600  0.52568800  0.31531400  1
  Cu  Cu60  1  0.82963200  0.15974700  0.92955000  1
  Cu  Cu61  1  0.23019700  0.90008200  0.07045000  1
  Cu  Cu62  1  0.65008200  0.07963200  0.16988500  1
  Cu  Cu63  1  0.90974700  0.48019700  0.83011500  1
  Cu  Cu64  1  0.92036800  0.09025300  0.57045000  1
  Cu  Cu65  1  0.51980300  0.34991800  0.42955000  1
  Cu  Cu66  1  0.09991800  0.17036800  0.33011500  1
  Cu  Cu67  1  0.84025300  0.76980300  0.66988500  1
