# generated using pymatgen
data_Cu15Ni7C
_symmetry_space_group_name_H-M   'P 1'
_cell_length_a   11.28827842
_cell_length_b   11.28827842
_cell_length_c   9.42772400
_cell_angle_alpha   90.00000000
_cell_angle_beta   90.00000000
_cell_angle_gamma   120.00000247
_symmetry_Int_Tables_number   1
_chemical_formula_structural   Cu15Ni7C
_chemical_formula_sum   'Cu45 Ni21 C3'
_cell_volume   1040.38218279
_cell_formula_units_Z   3
loop_
 _symmetry_equiv_pos_site_id
 _symmetry_equiv_pos_as_xyz
  1  'x, y, z'
loop_
 _atom_site_type_symbol
 _atom_site_label
 _atom_site_symmetry_multiplicity
 _atom_site_fract_x
 _atom_site_fract_y
 _atom_site_fract_z
 _atom_site_occupancy
  C  C0  1  0.33174200  0.00000000  0.33333300  1
  C  C1  1  0.00000000  0.33174200  0.66666700  1
  C  C2  1  0.66825800  0.66825800  0.00000000  1
  Ni  Ni3  1  0.10079600  0.35999100  0.37432400  1
  Ni  Ni4  1  0.64000900  0.74080500  0.70765800  1
  Ni  Ni5  1  0.25919500  0.89920400  0.04099100  1
  Ni  Ni6  1  0.07907900  0.00000000  0.33333300  1
  Ni  Ni7  1  0.00000000  0.07907900  0.66666700  1
  Ni  Ni8  1  0.92092100  0.92092100  0.00000000  1
  Ni  Ni9  1  0.25087600  0.58384600  0.72871900  1
  Ni  Ni10  1  0.41615400  0.66703000  0.06205200  1
  Ni  Ni11  1  0.33297000  0.74912400  0.39538500  1
  Ni  Ni12  1  0.45350900  0.45350900  0.50000000  1
  Ni  Ni13  1  0.54649100  0.00000000  0.83333300  1
  Ni  Ni14  1  0.00000000  0.54649100  0.16666700  1
  Ni  Ni15  1  0.58384600  0.25087600  0.27128100  1
  Ni  Ni16  1  0.74912400  0.33297000  0.60461500  1
  Ni  Ni17  1  0.66703000  0.41615400  0.93794800  1
  Ni  Ni18  1  0.35999100  0.10079600  0.62567600  1
  Ni  Ni19  1  0.89920400  0.25919500  0.95900900  1
  Ni  Ni20  1  0.74080500  0.64000900  0.29234200  1
  Ni  Ni21  1  0.72822700  0.00000000  0.33333300  1
  Ni  Ni22  1  0.00000000  0.72822700  0.66666700  1
  Ni  Ni23  1  0.27177300  0.27177300  0.00000000  1
  Cu  Cu24  1  0.33455700  0.15527200  0.52287900  1
  Cu  Cu25  1  0.84472800  0.17928500  0.85621200  1
  Cu  Cu26  1  0.82071500  0.66544300  0.18954500  1
  Cu  Cu27  1  0.37364800  0.14098600  0.74936500  1
  Cu  Cu28  1  0.85901400  0.23266200  0.08269900  1
  Cu  Cu29  1  0.76733800  0.62635200  0.41603200  1
  Cu  Cu30  1  0.57681700  0.13762400  0.30888900  1
  Cu  Cu31  1  0.86237600  0.43919300  0.64222200  1
  Cu  Cu32  1  0.56080700  0.42318300  0.97555500  1
  Cu  Cu33  1  0.00185100  0.37534700  0.92642200  1
  Cu  Cu34  1  0.62465300  0.62650400  0.25975500  1
  Cu  Cu35  1  0.37349600  0.99814900  0.59308900  1
  Cu  Cu36  1  0.47015900  0.24664400  0.25543400  1
  Cu  Cu37  1  0.75335600  0.22351500  0.58876700  1
  Cu  Cu38  1  0.77648500  0.52984100  0.92210100  1
  Cu  Cu39  1  0.08462900  0.17992200  0.73879700  1
  Cu  Cu40  1  0.82007800  0.90470800  0.07213000  1
  Cu  Cu41  1  0.09529200  0.91537100  0.40546400  1
  Cu  Cu42  1  0.14098600  0.37364800  0.25063500  1
  Cu  Cu43  1  0.62635200  0.76733800  0.58396800  1
  Cu  Cu44  1  0.23266200  0.85901400  0.91730100  1
  Cu  Cu45  1  0.15527200  0.33455700  0.47712100  1
  Cu  Cu46  1  0.66544300  0.82071500  0.81045500  1
  Cu  Cu47  1  0.17928500  0.84472800  0.14378800  1
  Cu  Cu48  1  0.64241500  0.33737500  0.58312900  1
  Cu  Cu49  1  0.66262500  0.30504000  0.91646300  1
  Cu  Cu50  1  0.69496000  0.35758500  0.24979600  1
  Cu  Cu51  1  0.13762400  0.57681700  0.69111100  1
  Cu  Cu52  1  0.42318300  0.56080700  0.02444500  1
  Cu  Cu53  1  0.43919300  0.86237600  0.35777800  1
  Cu  Cu54  1  0.02824400  0.02824400  0.00000000  1
  Cu  Cu55  1  0.97175600  0.00000000  0.33333300  1
  Cu  Cu56  1  0.00000000  0.97175600  0.66666700  1
  Cu  Cu57  1  0.99814900  0.37349600  0.40691100  1
  Cu  Cu58  1  0.62650400  0.62465300  0.74024500  1
  Cu  Cu59  1  0.37534700  0.00185100  0.07357800  1
  Cu  Cu60  1  0.33737500  0.64241500  0.41687100  1
  Cu  Cu61  1  0.35758500  0.69496000  0.75020400  1
  Cu  Cu62  1  0.30504000  0.66262500  0.08353700  1
  Cu  Cu63  1  0.17992200  0.08462900  0.26120300  1
  Cu  Cu64  1  0.91537100  0.09529200  0.59453600  1
  Cu  Cu65  1  0.90470800  0.82007800  0.92787000  1
  Cu  Cu66  1  0.24664400  0.47015900  0.74456600  1
  Cu  Cu67  1  0.52984100  0.77648500  0.07789900  1
  Cu  Cu68  1  0.22351500  0.75335600  0.41123300  1
