# generated using pymatgen
data_Cu8NiC
_symmetry_space_group_name_H-M   'P 1'
_cell_length_a   6.55765419
_cell_length_b   8.12099938
_cell_length_c   12.55191808
_cell_angle_alpha   106.98703738
_cell_angle_beta   100.91222389
_cell_angle_gamma   82.79151177
_symmetry_Int_Tables_number   1
_chemical_formula_structural   Cu8NiC
_chemical_formula_sum   'Cu32 Ni4 C4'
_cell_volume   625.97047919
_cell_formula_units_Z   4
loop_
 _symmetry_equiv_pos_site_id
 _symmetry_equiv_pos_as_xyz
  1  'x, y, z'
loop_
 _atom_site_type_symbol
 _atom_site_label
 _atom_site_symmetry_multiplicity
 _atom_site_fract_x
 _atom_site_fract_y
 _atom_site_fract_z
 _atom_site_occupancy
  C  C0  1  0.83478100  0.10359300  0.07500700  1
  C  C1  1  0.16521900  0.89640700  0.92499300  1
  C  C2  1  0.70867600  0.03046300  0.77205700  1
  C  C3  1  0.29132400  0.96953700  0.22794300  1
  Ni  Ni4  1  0.93215300  0.17834700  0.34815500  1
  Ni  Ni5  1  0.06784700  0.82165300  0.65184500  1
  Ni  Ni6  1  0.58944100  0.75722000  0.06296200  1
  Ni  Ni7  1  0.41055900  0.24278000  0.93703800  1
  Cu  Cu8  1  0.92800900  0.99116100  0.68423400  1
  Cu  Cu9  1  0.07199100  0.00883900  0.31576600  1
  Cu  Cu10  1  0.94562500  0.68712000  0.57309500  1
  Cu  Cu11  1  0.05437500  0.31288000  0.42690500  1
  Cu  Cu12  1  0.84049600  0.22366100  0.24139900  1
  Cu  Cu13  1  0.15950400  0.77633900  0.75860100  1
  Cu  Cu14  1  0.76595300  0.13742700  0.40082100  1
  Cu  Cu15  1  0.23404700  0.86257300  0.59917900  1
  Cu  Cu16  1  0.55788300  0.21977700  0.03941400  1
  Cu  Cu17  1  0.44211700  0.78022300  0.96058600  1
  Cu  Cu18  1  0.54026500  0.22446000  0.84326300  1
  Cu  Cu19  1  0.45973500  0.77554000  0.15673700  1
  Cu  Cu20  1  0.70075900  0.59009300  0.04357300  1
  Cu  Cu21  1  0.29924100  0.40990700  0.95642700  1
  Cu  Cu22  1  0.72722100  0.90288500  0.10469100  1
  Cu  Cu23  1  0.27277900  0.09711500  0.89530900  1
  Cu  Cu24  1  0.86323300  0.99199600  0.90824400  1
  Cu  Cu25  1  0.13676700  0.00800400  0.09175600  1
  Cu  Cu26  1  0.57683500  0.56743600  0.31273700  1
  Cu  Cu27  1  0.42316500  0.43256400  0.68726300  1
  Cu  Cu28  1  0.54123300  0.16468100  0.61122600  1
  Cu  Cu29  1  0.45876700  0.83531900  0.38877400  1
  Cu  Cu30  1  0.95875300  0.42123400  0.77857000  1
  Cu  Cu31  1  0.04124700  0.57876600  0.22143000  1
  Cu  Cu32  1  0.60203500  0.70939200  0.38953400  1
  Cu  Cu33  1  0.39796500  0.29060800  0.61046600  1
  Cu  Cu34  1  0.01225900  0.28390700  0.07109800  1
  Cu  Cu35  1  0.98774100  0.71609300  0.92890200  1
  Cu  Cu36  1  0.86706100  0.56347200  0.80032700  1
  Cu  Cu37  1  0.13293900  0.43652800  0.19967300  1
  Cu  Cu38  1  0.54582600  0.87256700  0.70300000  1
  Cu  Cu39  1  0.45417400  0.12743300  0.29700000  1
