# generated using pymatgen
data_Cu2NiC18
_symmetry_space_group_name_H-M   'P 1'
_cell_length_a   9.24033091
_cell_length_b   9.24033091
_cell_length_c   6.79199016
_cell_angle_alpha   74.96550628
_cell_angle_beta   74.96550628
_cell_angle_gamma   45.20106188
_symmetry_Int_Tables_number   1
_chemical_formula_structural   Cu2NiC18
_chemical_formula_sum   'Cu2 Ni1 C18'
_cell_volume   394.92783663
_cell_formula_units_Z   1
loop_
 _symmetry_equiv_pos_site_id
 _symmetry_equiv_pos_as_xyz
  1  'x, y, z'
loop_
 _atom_site_type_symbol
 _atom_site_label
 _atom_site_symmetry_multiplicity
 _atom_site_fract_x
 _atom_site_fract_y
 _atom_site_fract_z
 _atom_site_occupancy
  Ni  Ni0  1  0.00000000  0.00000000  0.50000000  1
  C  C1  1  0.74184800  0.74184800  0.14769600  1
  C  C2  1  0.25815200  0.25815200  0.85230400  1
  Cu  Cu3  1  0.78374400  0.78374400  0.64881600  1
  Cu  Cu4  1  0.21625600  0.21625600  0.35118400  1
  C  C5  1  0.73559200  0.73559200  0.47274900  1
  C  C6  1  0.26440800  0.26440800  0.52725100  1
  C  C7  1  0.88168600  0.88168600  0.53641300  1
  C  C8  1  0.11831400  0.11831400  0.46358700  1
  C  C9  1  0.58224500  0.93776200  0.81009100  1
  C  C10  1  0.06223800  0.41775500  0.18990900  1
  C  C11  1  0.41775500  0.06223800  0.18990900  1
  C  C12  1  0.93776200  0.58224500  0.81009100  1
  C  C13  1  0.85243200  0.85243200  0.08131400  1
  C  C14  1  0.14756800  0.14756800  0.91868600  1
  C  C15  1  0.63265900  0.63265900  0.17984800  1
  C  C16  1  0.36734100  0.36734100  0.82015200  1
  C  C17  1  0.77385100  0.18109100  0.72633100  1
  C  C18  1  0.81890900  0.22614900  0.27366900  1
  C  C19  1  0.22614900  0.81890900  0.27366900  1
  C  C20  1  0.18109100  0.77385100  0.72633100  1
