# generated using pymatgen
data_Cu8Ni6C5
_symmetry_space_group_name_H-M   'P 1'
_cell_length_a   5.07460496
_cell_length_b   9.11764756
_cell_length_c   14.01472600
_cell_angle_alpha   90.00000000
_cell_angle_beta   90.00000000
_cell_angle_gamma   115.10776537
_symmetry_Int_Tables_number   1
_chemical_formula_structural   Cu8Ni6C5
_chemical_formula_sum   'Cu16 Ni12 C10'
_cell_volume   587.16955013
_cell_formula_units_Z   2
loop_
 _symmetry_equiv_pos_site_id
 _symmetry_equiv_pos_as_xyz
  1  'x, y, z'
loop_
 _atom_site_type_symbol
 _atom_site_label
 _atom_site_symmetry_multiplicity
 _atom_site_fract_x
 _atom_site_fract_y
 _atom_site_fract_z
 _atom_site_occupancy
  C  C0  1  0.71207700  0.55007900  0.86207400  1
  C  C1  1  0.28792300  0.44992100  0.13792600  1
  C  C2  1  0.28792300  0.94992100  0.36207400  1
  C  C3  1  0.71207700  0.05007900  0.63792600  1
  C  C4  1  0.95611100  0.72884100  0.11105100  1
  C  C5  1  0.04388900  0.27115900  0.88894900  1
  C  C6  1  0.04388900  0.77115900  0.61105100  1
  C  C7  1  0.95611100  0.22884100  0.38894900  1
  C  C8  1  0.50000000  0.00000000  0.00000000  1
  C  C9  1  0.50000000  0.50000000  0.50000000  1
  Ni  Ni10  1  0.21574400  0.90795200  0.82431700  1
  Ni  Ni11  1  0.78425600  0.09204800  0.17568300  1
  Ni  Ni12  1  0.78425600  0.59204800  0.32431700  1
  Ni  Ni13  1  0.21574400  0.40795200  0.67568300  1
  Ni  Ni14  1  0.34097500  0.53101000  0.62654700  1
  Ni  Ni15  1  0.65902500  0.46899000  0.37345300  1
  Ni  Ni16  1  0.65902500  0.96899000  0.12654700  1
  Ni  Ni17  1  0.34097500  0.03101000  0.87345300  1
  Ni  Ni18  1  0.83496700  0.04026900  0.93697500  1
  Ni  Ni19  1  0.16503300  0.95973100  0.06302500  1
  Ni  Ni20  1  0.16503300  0.45973100  0.43697500  1
  Ni  Ni21  1  0.83496700  0.54026900  0.56302500  1
  Cu  Cu22  1  0.35559500  0.50730400  0.85756800  1
  Cu  Cu23  1  0.64440500  0.49269600  0.14243200  1
  Cu  Cu24  1  0.64440500  0.99269600  0.35756800  1
  Cu  Cu25  1  0.35559500  0.00730400  0.64243200  1
  Cu  Cu26  1  0.69282400  0.87294600  0.61830800  1
  Cu  Cu27  1  0.30717600  0.12705400  0.38169200  1
  Cu  Cu28  1  0.30717600  0.62705400  0.11830800  1
  Cu  Cu29  1  0.69282400  0.37294600  0.88169200  1
  Cu  Cu30  1  0.84014700  0.65975500  0.94905500  1
  Cu  Cu31  1  0.15985300  0.34024500  0.05094500  1
  Cu  Cu32  1  0.15985300  0.84024500  0.44905500  1
  Cu  Cu33  1  0.84014700  0.15975500  0.55094500  1
  Cu  Cu34  1  0.84861900  0.62232500  0.76632100  1
  Cu  Cu35  1  0.15138100  0.37767500  0.23367900  1
  Cu  Cu36  1  0.15138100  0.87767500  0.26632100  1
  Cu  Cu37  1  0.84861900  0.12232500  0.73367900  1
