# generated using pymatgen
data_CuNiC7
_symmetry_space_group_name_H-M   'P 1'
_cell_length_a   10.80663937
_cell_length_b   11.34739301
_cell_length_c   17.46379854
_cell_angle_alpha   108.96168627
_cell_angle_beta   108.04915228
_cell_angle_gamma   90.00282506
_symmetry_Int_Tables_number   1
_chemical_formula_structural   CuNiC7
_chemical_formula_sum   'Cu16 Ni16 C112'
_cell_volume   1913.54453164
_cell_formula_units_Z   16
loop_
 _symmetry_equiv_pos_site_id
 _symmetry_equiv_pos_as_xyz
  1  'x, y, z'
loop_
 _atom_site_type_symbol
 _atom_site_label
 _atom_site_symmetry_multiplicity
 _atom_site_fract_x
 _atom_site_fract_y
 _atom_site_fract_z
 _atom_site_occupancy
  Ni  Ni0  1  0.30863900  0.06094800  0.60820800  1
  Ni  Ni1  1  0.30962600  0.56372000  0.61074100  1
  Ni  Ni2  1  0.80617600  0.06126600  0.60873800  1
  Ni  Ni3  1  0.80790500  0.56359400  0.61097900  1
  Ni  Ni4  1  0.19855100  0.43753800  0.38877100  1
  Ni  Ni5  1  0.19730500  0.44115500  0.89236100  1
  Ni  Ni6  1  0.69621800  0.43769400  0.38893000  1
  Ni  Ni7  1  0.69460400  0.93579800  0.38766300  1
  Ni  Ni8  1  0.05790100  0.29669100  0.60918800  1
  Ni  Ni9  1  0.05713400  0.79833200  0.61018100  1
  Ni  Ni10  1  0.55880000  0.29813300  0.61085600  1
  Ni  Ni11  1  0.44571400  0.20089100  0.38794400  1
  Ni  Ni12  1  0.44927400  0.20292300  0.89146900  1
  Ni  Ni13  1  0.94806300  0.20091500  0.38770900  1
  Ni  Ni14  1  0.94746400  0.20244600  0.89153500  1
  Ni  Ni15  1  0.94788000  0.70296200  0.38884900  1
  Cu  Cu16  1  0.30372700  0.06410600  0.10663400  1
  Cu  Cu17  1  0.30483600  0.56454000  0.11021900  1
  Cu  Cu18  1  0.80289000  0.06279000  0.10550700  1
  Cu  Cu19  1  0.80426700  0.56356100  0.10752700  1
  Cu  Cu20  1  0.19849200  0.93377400  0.39029400  1
  Cu  Cu21  1  0.19773800  0.93597200  0.89445200  1
  Cu  Cu22  1  0.69848000  0.43856900  0.89381000  1
  Cu  Cu23  1  0.69633500  0.93524500  0.89220900  1
  Cu  Cu24  1  0.05369300  0.29385000  0.10803300  1
  Cu  Cu25  1  0.05451600  0.79483500  0.10857000  1
  Cu  Cu26  1  0.55431400  0.29409600  0.10771800  1
  Cu  Cu27  1  0.55313700  0.79342000  0.10679100  1
  Cu  Cu28  1  0.55559700  0.79325600  0.60715400  1
  Cu  Cu29  1  0.44750600  0.70718000  0.39224500  1
  Cu  Cu30  1  0.44888000  0.70762800  0.89461500  1
  Cu  Cu31  1  0.94671100  0.70818100  0.89518700  1
  C  C32  1  0.00684600  0.00016400  0.00137700  1
  C  C33  1  0.00576400  0.99946600  0.49852800  1
  C  C34  1  0.00708600  0.50095300  0.00173800  1
  C  C35  1  0.00550800  0.49966600  0.49926100  1
  C  C36  1  0.50706500  0.00007700  0.00121700  1
  C  C37  1  0.50532900  0.99911600  0.49934800  1
  C  C38  1  0.50741800  0.50066500  0.00145400  1
  C  C39  1  0.50518400  0.50006700  0.49889400  1
  C  C40  1  0.25738000  0.25177400  0.00208300  1
  C  C41  1  0.25568800  0.24859400  0.49878700  1
  C  C42  1  0.25708200  0.75144500  0.00177700  1
  C  C43  1  0.25643000  0.74959100  0.49939600  1
  C  C44  1  0.75703000  0.25097400  0.00134300  1
  C  C45  1  0.75497500  0.24988900  0.49909000  1
  C  C46  1  0.75729000  0.74989000  0.00099600  1
  C  C47  1  0.75457500  0.74965600  0.49923200  1
  C  C48  1  0.10628300  0.09277600  0.24678300  1
  C  C49  1  0.11024500  0.09478200  0.75211500  1
  C  C50  1  0.10882500  0.59615100  0.24714300  1
  C  C51  1  0.11005000  0.60020900  0.75302900  1
  C  C52  1  0.60598300  0.09359700  0.24597700  1
  C  C53  1  0.60949700  0.09443200  0.75157500  1
  C  C54  1  0.60428200  0.59555300  0.24683000  1
  C  C55  1  0.61019400  0.60071800  0.75328900  1
  C  C56  1  0.35660200  0.40448700  0.24704500  1
  C  C57  1  0.36228800  0.40707700  0.75236400  1
  C  C58  1  0.35471900  0.90031400  0.24744800  1
  C  C59  1  0.36214800  0.90224700  0.75250200  1
  C  C60  1  0.85646900  0.40242500  0.24618100  1
  C  C61  1  0.85777700  0.40759900  0.75310600  1
  C  C62  1  0.85803000  0.90163900  0.24610800  1
  C  C63  1  0.85693200  0.90177800  0.75211100  1
  C  C64  1  0.12101200  0.11540100  0.48062100  1
  C  C65  1  0.12145800  0.11866900  0.98411600  1
  C  C66  1  0.12083700  0.61987500  0.48410700  1
  C  C67  1  0.11635400  0.62353900  0.98300400  1
  C  C68  1  0.61924800  0.11904900  0.48341700  1
  C  C69  1  0.62120200  0.11793600  0.98321300  1
  C  C70  1  0.61625000  0.62227500  0.48286000  1
  C  C71  1  0.61814300  0.61859200  0.98010700  1
  C  C72  1  0.13971100  0.38369100  0.02396700  1
  C  C73  1  0.13640500  0.37999000  0.51595200  1
  C  C74  1  0.13723300  0.88118400  0.01977400  1
  C  C75  1  0.13658200  0.87982800  0.51382700  1
  C  C76  1  0.63949600  0.38305100  0.02195700  1
  C  C77  1  0.63654400  0.38184900  0.51677500  1
  C  C78  1  0.63647500  0.87928400  0.01884700  1
  C  C79  1  0.63297800  0.87742600  0.51707900  1
  C  C80  1  0.36578100  0.10879600  0.48002800  1
  C  C81  1  0.36653100  0.10996200  0.98265300  1
  C  C82  1  0.37278000  0.61723400  0.48256000  1
  C  C83  1  0.37217400  0.61621200  0.98366900  1
  C  C84  1  0.86977700  0.11392300  0.48316800  1
  C  C85  1  0.86564400  0.10893100  0.98172400  1
  C  C86  1  0.86967300  0.61457200  0.48393600  1
  C  C87  1  0.86755200  0.61100100  0.98063100  1
  C  C88  1  0.38940400  0.39092700  0.02333000  1
  C  C89  1  0.38631000  0.38614200  0.51649400  1
  C  C90  1  0.38703300  0.88884600  0.01943700  1
  C  C91  1  0.38828600  0.88247500  0.51509000  1
  C  C92  1  0.88744000  0.38991400  0.02112300  1
  C  C93  1  0.88603200  0.38589500  0.51616000  1
  C  C94  1  0.88776000  0.88769700  0.01956200  1
  C  C95  1  0.88562900  0.88501300  0.51481800  1
  C  C96  1  0.09242500  0.10807900  0.13690500  1
  C  C97  1  0.08550100  0.10181000  0.63849400  1
  C  C98  1  0.09223300  0.61060900  0.13667000  1
  C  C99  1  0.08417100  0.60562600  0.63891000  1
  C  C100  1  0.59194400  0.10839000  0.13613600  1
  C  C101  1  0.58421400  0.10397000  0.63841200  1
  C  C102  1  0.59174200  0.61006800  0.13687600  1
  C  C103  1  0.58333600  0.60699400  0.63875000  1
  C  C104  1  0.44451000  0.39565300  0.36109800  1
  C  C105  1  0.45525900  0.39479200  0.86371700  1
  C  C106  1  0.44485300  0.89388900  0.36181600  1
  C  C107  1  0.45698000  0.89262400  0.86413600  1
  C  C108  1  0.94500300  0.39709600  0.36073000  1
  C  C109  1  0.94821200  0.39426200  0.86448100  1
  C  C110  1  0.95194000  0.89621500  0.36011700  1
  C  C111  1  0.95474200  0.89310500  0.86390500  1
  C  C112  1  0.34373700  0.27844500  0.13755900  1
  C  C113  1  0.33581700  0.28530300  0.63853300  1
  C  C114  1  0.34104100  0.77780400  0.13674000  1
  C  C115  1  0.34087400  0.78566100  0.63804800  1
  C  C116  1  0.84296900  0.27734400  0.13641700  1
  C  C117  1  0.83343700  0.28649200  0.63955900  1
  C  C118  1  0.84222000  0.77699700  0.13563800  1
  C  C119  1  0.83229600  0.78444500  0.63777300  1
  C  C120  1  0.19466500  0.21609400  0.36044200  1
  C  C121  1  0.19813600  0.22088600  0.86378200  1
  C  C122  1  0.20154300  0.71671600  0.36121600  1
  C  C123  1  0.20666700  0.72127400  0.86444800  1
  C  C124  1  0.69395400  0.21429200  0.36056600  1
  C  C125  1  0.69770300  0.22163400  0.86321600  1
  C  C126  1  0.69413200  0.71519800  0.36140600  1
  C  C127  1  0.70641100  0.72296000  0.86419000  1
  C  C128  1  0.41647900  0.06723000  0.24387800  1
  C  C129  1  0.42262400  0.06918000  0.75096500  1
  C  C130  1  0.41629900  0.57567100  0.24960400  1
  C  C131  1  0.42412800  0.57766400  0.75634800  1
  C  C132  1  0.91629900  0.06912900  0.24301900  1
  C  C133  1  0.92222300  0.06773700  0.75059200  1
  C  C134  1  0.91849300  0.56985600  0.24445100  1
  C  C135  1  0.92430500  0.57695300  0.75716600  1
  C  C136  1  0.16645300  0.42523200  0.24383900  1
  C  C137  1  0.17404300  0.43237800  0.75101300  1
  C  C138  1  0.16650500  0.92407500  0.24920400  1
  C  C139  1  0.17583000  0.92926700  0.75659200  1
  C  C140  1  0.66653900  0.42553800  0.24387400  1
  C  C141  1  0.67162800  0.43300900  0.75580000  1
  C  C142  1  0.66796200  0.92446600  0.24424600  1
  C  C143  1  0.66844100  0.92492900  0.75150200  1
