# generated using pymatgen
data_CuNiC10
_symmetry_space_group_name_H-M   'P 1'
_cell_length_a   9.81536797
_cell_length_b   9.81536797
_cell_length_c   6.24413700
_cell_angle_alpha   90.00000000
_cell_angle_beta   90.00000000
_cell_angle_gamma   119.99999979
_symmetry_Int_Tables_number   1
_chemical_formula_structural   CuNiC10
_chemical_formula_sum   'Cu2 Ni2 C20'
_cell_volume   520.97421251
_cell_formula_units_Z   2
loop_
 _symmetry_equiv_pos_site_id
 _symmetry_equiv_pos_as_xyz
  1  'x, y, z'
loop_
 _atom_site_type_symbol
 _atom_site_label
 _atom_site_symmetry_multiplicity
 _atom_site_fract_x
 _atom_site_fract_y
 _atom_site_fract_z
 _atom_site_occupancy
  C  C0  1  0.62661200  0.84629700  0.27679300  1
  C  C1  1  0.15370300  0.78031400  0.27679300  1
  C  C2  1  0.21968600  0.37338800  0.27679300  1
  C  C3  1  0.37338800  0.15370300  0.77679300  1
  C  C4  1  0.84629700  0.21968600  0.77679300  1
  C  C5  1  0.78031400  0.62661200  0.77679300  1
  Ni  Ni6  1  0.33333300  0.66666700  0.85050800  1
  Ni  Ni7  1  0.66666700  0.33333300  0.35050800  1
  Cu  Cu8  1  0.00000000  0.00000000  0.43366300  1
  Cu  Cu9  1  0.00000000  0.00000000  0.93366300  1
  C  C10  1  0.78960300  0.91176600  0.68110200  1
  C  C11  1  0.08823400  0.87783700  0.68110200  1
  C  C12  1  0.12216300  0.21039700  0.68110200  1
  C  C13  1  0.21039700  0.08823400  0.18110200  1
  C  C14  1  0.91176600  0.12216300  0.18110200  1
  C  C15  1  0.87783700  0.78960300  0.18110200  1
  C  C16  1  0.47882500  0.56994100  0.99544400  1
  C  C17  1  0.43005900  0.90888300  0.99544400  1
  C  C18  1  0.09111700  0.52117500  0.99544400  1
  C  C19  1  0.52117500  0.43005900  0.49544400  1
  C  C20  1  0.56994100  0.09111700  0.49544400  1
  C  C21  1  0.90888300  0.47882500  0.49544400  1
  C  C22  1  0.33333300  0.66666700  0.49175500  1
  C  C23  1  0.66666700  0.33333300  0.99175500  1
