# generated using pymatgen
data_CuNi149
_symmetry_space_group_name_H-M   'P 1'
_cell_length_a   15.88929390
_cell_length_b   15.88929821
_cell_length_c   15.57181665
_cell_angle_alpha   90.00000000
_cell_angle_beta   90.00000000
_cell_angle_gamma   120.00001328
_symmetry_Int_Tables_number   1
_chemical_formula_structural   CuNi149
_chemical_formula_sum   'Cu1 Ni149'
_cell_volume   3404.70249649
_cell_formula_units_Z   1
loop_
 _symmetry_equiv_pos_site_id
 _symmetry_equiv_pos_as_xyz
  1  'x, y, z'
loop_
 _atom_site_type_symbol
 _atom_site_label
 _atom_site_symmetry_multiplicity
 _atom_site_fract_x
 _atom_site_fract_y
 _atom_site_fract_z
 _atom_site_occupancy
  Ni  Ni0  1  0.19479586  0.00118634  -0.00000000  1
  Ni  Ni1  1  0.80639048  0.00118634  -0.00000000  1
  Ni  Ni2  1  0.99881266  0.19360952  -0.00000000  1
  Ni  Ni3  1  0.19479586  0.19360952  -0.00000000  1
  Ni  Ni4  1  0.80077144  0.19922856  -0.00000000  1
  Ni  Ni5  1  0.39845712  0.19922856  -0.00000000  1
  Ni  Ni6  1  0.59982904  0.19965808  -0.00000000  1
  Ni  Ni7  1  0.19888144  0.39776188  -0.00000000  1
  Ni  Ni8  1  0.39894489  0.39897292  -0.00000000  1
  Ni  Ni9  1  0.00002803  0.39897292  -0.00000000  1
  Ni  Ni10  1  0.80034092  0.40017096  -0.00000000  1
  Ni  Ni11  1  0.59982904  0.40017096  -0.00000000  1
  Ni  Ni12  1  0.40014061  0.59985939  -0.00000000  1
  Ni  Ni13  1  0.19971878  0.59985939  -0.00000000  1
  Ni  Ni14  1  0.00002803  0.60105511  -0.00000000  1
  Ni  Ni15  1  0.60102708  0.60105511  -0.00000000  1
  Ni  Ni16  1  0.80077144  0.60154388  -0.00000000  1
  Ni  Ni17  1  0.40014061  0.80028122  -0.00000000  1
  Ni  Ni18  1  0.19888144  0.80111956  -0.00000000  1
  Ni  Ni19  1  0.60223812  0.80111956  -0.00000000  1
  Ni  Ni20  1  0.99881266  0.80520314  -0.00000000  1
  Ni  Ni21  1  0.80639048  0.80520314  -0.00000000  1
  Ni  Ni22  1  0.60102708  0.99997197  -0.00000000  1
  Ni  Ni23  1  0.39894489  0.99997197  -0.00000000  1
  Ni  Ni24  1  0.06471267  0.12942435  0.16168505  1
  Ni  Ni25  1  0.06471267  0.93528733  0.16168505  1
  Ni  Ni26  1  0.87057465  0.93528733  0.16168505  1
  Ni  Ni27  1  0.26555593  0.33163421  0.16581762  1
  Ni  Ni28  1  0.06607828  0.33163421  0.16581762  1
  Ni  Ni29  1  0.06607828  0.73444407  0.16581762  1
  Ni  Ni30  1  0.66836579  0.73444407  0.16581762  1
  Ni  Ni31  1  0.26555593  0.93392172  0.16581762  1
  Ni  Ni32  1  0.66836579  0.93392172  0.16581762  1
  Ni  Ni33  1  0.26635633  0.53271166  0.16629555  1
  Ni  Ni34  1  0.26635633  0.73364367  0.16629555  1
  Ni  Ni35  1  0.46728734  0.73364367  0.16629555  1
  Ni  Ni36  1  0.46671036  0.53328964  0.16624887  1
  Ni  Ni37  1  0.06658028  0.53329064  0.16624887  1
  Ni  Ni38  1  0.46671036  0.93341972  0.16624887  1
  Ni  Ni39  1  0.46678831  0.13336973  0.16649759  1
  Ni  Ni40  1  0.66658142  0.13336973  0.16649759  1
  Ni  Ni41  1  0.46678831  0.33341858  0.16649759  1
  Ni  Ni42  1  0.86663027  0.33341858  0.16649759  1
  Ni  Ni43  1  0.66658142  0.53321069  0.16649759  1
  Ni  Ni44  1  0.86663027  0.53321169  0.16649759  1
  Ni  Ni45  1  0.66666700  0.33333300  0.16657034  1
  Ni  Ni46  1  0.26746960  0.13373430  0.16711305  1
  Ni  Ni47  1  0.86626470  0.13373530  0.16711305  1
  Ni  Ni48  1  0.86626470  0.73253040  0.16711305  1
  Ni  Ni49  1  0.00000000  0.00000000  0.33179652  1
  Ni  Ni50  1  0.19909818  0.99971799  0.33254454  1
  Ni  Ni51  1  0.80062082  0.99971899  0.33254454  1
  Ni  Ni52  1  0.00028101  0.19937918  0.33254454  1
  Ni  Ni53  1  0.19909818  0.19937918  0.33254454  1
  Ni  Ni54  1  0.80062082  0.80090182  0.33254454  1
  Ni  Ni55  1  0.00028101  0.80090182  0.33254454  1
  Ni  Ni56  1  0.60032395  0.99990173  0.33295509  1
  Ni  Ni57  1  0.39957778  0.99990173  0.33295509  1
  Ni  Ni58  1  0.39957778  0.39967605  0.33295509  1
  Ni  Ni59  1  0.00009827  0.39967705  0.33295509  1
  Ni  Ni60  1  0.60032395  0.60042122  0.33295509  1
  Ni  Ni61  1  0.00009827  0.60042222  0.33295509  1
  Ni  Ni62  1  0.19986807  0.39973514  0.33295668  1
  Ni  Ni63  1  0.19986807  0.80013293  0.33295668  1
  Ni  Ni64  1  0.60026486  0.80013293  0.33295668  1
  Ni  Ni65  1  0.40000709  0.59999291  0.33310063  1
  Ni  Ni66  1  0.19998583  0.59999291  0.33310063  1
  Ni  Ni67  1  0.40000709  0.80001517  0.33310063  1
  Ni  Ni68  1  0.59995538  0.19991075  0.33314697  1
  Ni  Ni69  1  0.80008925  0.40004462  0.33314697  1
  Ni  Ni70  1  0.59995538  0.40004462  0.33314697  1
  Ni  Ni71  1  0.80012965  0.19987035  0.33338137  1
  Ni  Ni72  1  0.39974069  0.19987035  0.33338137  1
  Ni  Ni73  1  0.80012965  0.60025931  0.33338137  1
  Ni  Ni74  1  0.06647232  0.13294363  0.50000000  1
  Ni  Ni75  1  0.86683724  0.13316176  0.50000000  1
  Ni  Ni76  1  0.26632453  0.13316276  0.50000000  1
  Ni  Ni77  1  0.46661189  0.13321493  0.50000000  1
  Ni  Ni78  1  0.66660404  0.13321593  0.50000000  1
  Ni  Ni79  1  0.26649124  0.33285790  0.50000000  1
  Ni  Ni80  1  0.06636666  0.33285790  0.50000000  1
  Ni  Ni81  1  0.66666700  0.33333300  0.50000000  1
  Ni  Ni82  1  0.86678407  0.33339596  0.50000000  1
  Ni  Ni83  1  0.46661189  0.33339696  0.50000000  1
  Ni  Ni84  1  0.26651827  0.53303553  0.50000000  1
  Ni  Ni85  1  0.46677796  0.53322204  0.50000000  1
  Ni  Ni86  1  0.06644509  0.53322304  0.50000000  1
  Ni  Ni87  1  0.86678407  0.53338811  0.50000000  1
  Ni  Ni88  1  0.66660404  0.53338811  0.50000000  1
  Ni  Ni89  1  0.26651827  0.73348173  0.50000000  1
  Ni  Ni90  1  0.46696447  0.73348273  0.50000000  1
  Ni  Ni91  1  0.06636666  0.73350776  0.50000000  1
  Ni  Ni92  1  0.66714110  0.73350776  0.50000000  1
  Ni  Ni93  1  0.86683724  0.73367547  0.50000000  1
  Ni  Ni94  1  0.06647232  0.93352768  0.50000000  1
  Ni  Ni95  1  0.86705637  0.93352868  0.50000000  1
  Ni  Ni96  1  0.46677796  0.93355491  0.50000000  1
  Ni  Ni97  1  0.66714110  0.93363334  0.50000000  1
  Ni  Ni98  1  0.26649124  0.93363334  0.50000000  1
  Ni  Ni99  1  0.80012965  0.19987035  0.66661863  1
  Ni  Ni100  1  0.39974069  0.19987035  0.66661863  1
  Ni  Ni101  1  0.80012965  0.60025931  0.66661863  1
  Ni  Ni102  1  0.59995538  0.19991075  0.66685303  1
  Ni  Ni103  1  0.80008925  0.40004462  0.66685303  1
  Ni  Ni104  1  0.59995538  0.40004462  0.66685303  1
  Ni  Ni105  1  0.40000709  0.59999291  0.66690037  1
  Ni  Ni106  1  0.19998583  0.59999291  0.66690037  1
  Ni  Ni107  1  0.40000709  0.80001517  0.66690037  1
  Ni  Ni108  1  0.19986807  0.39973514  0.66704332  1
  Ni  Ni109  1  0.19986807  0.80013293  0.66704332  1
  Ni  Ni110  1  0.60026486  0.80013293  0.66704332  1
  Ni  Ni111  1  0.60032395  0.99990173  0.66704391  1
  Ni  Ni112  1  0.39957778  0.99990173  0.66704391  1
  Ni  Ni113  1  0.39957778  0.39967605  0.66704391  1
  Ni  Ni114  1  0.00009827  0.39967705  0.66704391  1
  Ni  Ni115  1  0.60032395  0.60042122  0.66704391  1
  Ni  Ni116  1  0.00009827  0.60042222  0.66704391  1
  Ni  Ni117  1  0.19909818  0.99971799  0.66745546  1
  Ni  Ni118  1  0.80062082  0.99971899  0.66745546  1
  Ni  Ni119  1  0.00028101  0.19937918  0.66745546  1
  Ni  Ni120  1  0.19909818  0.19937918  0.66745546  1
  Ni  Ni121  1  0.80062082  0.80090182  0.66745546  1
  Ni  Ni122  1  0.00028101  0.80090182  0.66745546  1
  Ni  Ni123  1  0.00000000  0.00000000  0.66820348  1
  Ni  Ni124  1  0.26746960  0.13373430  0.83288695  1
  Ni  Ni125  1  0.86626470  0.13373530  0.83288695  1
  Ni  Ni126  1  0.86626470  0.73253040  0.83288695  1
  Ni  Ni127  1  0.66666700  0.33333300  0.83342966  1
  Ni  Ni128  1  0.46678831  0.13336973  0.83350241  1
  Ni  Ni129  1  0.66658142  0.13336973  0.83350241  1
  Ni  Ni130  1  0.46678831  0.33341858  0.83350241  1
  Ni  Ni131  1  0.86663027  0.33341858  0.83350241  1
  Ni  Ni132  1  0.66658142  0.53321069  0.83350241  1
  Ni  Ni133  1  0.86663027  0.53321169  0.83350241  1
  Ni  Ni134  1  0.46671036  0.53328964  0.83375013  1
  Ni  Ni135  1  0.06658028  0.53329064  0.83375013  1
  Ni  Ni136  1  0.46671036  0.93341972  0.83375013  1
  Ni  Ni137  1  0.26635633  0.53271166  0.83370445  1
  Ni  Ni138  1  0.26635633  0.73364367  0.83370445  1
  Ni  Ni139  1  0.46728734  0.73364367  0.83370445  1
  Ni  Ni140  1  0.26555593  0.33163421  0.83418338  1
  Ni  Ni141  1  0.06607828  0.33163421  0.83418338  1
  Ni  Ni142  1  0.06607828  0.73444407  0.83418338  1
  Ni  Ni143  1  0.66836579  0.73444407  0.83418338  1
  Ni  Ni144  1  0.26555593  0.93392172  0.83418338  1
  Ni  Ni145  1  0.66836579  0.93392172  0.83418338  1
  Ni  Ni146  1  0.06471267  0.12942435  0.83831495  1
  Ni  Ni147  1  0.06471267  0.93528733  0.83831495  1
  Ni  Ni148  1  0.87057465  0.93528733  0.83831495  1
  Cu  Cu149  1  0.00000000  0.00000000  -0.00000000  1
