# generated using pymatgen
data_CuNi3C14
_symmetry_space_group_name_H-M   'P 1'
_cell_length_a   6.54201310
_cell_length_b   6.54201310
_cell_length_c   12.83882000
_cell_angle_alpha   90.00000000
_cell_angle_beta   90.00000000
_cell_angle_gamma   99.38599419
_symmetry_Int_Tables_number   1
_chemical_formula_structural   CuNi3C14
_chemical_formula_sum   'Cu2 Ni6 C28'
_cell_volume   542.11864893
_cell_formula_units_Z   2
loop_
 _symmetry_equiv_pos_site_id
 _symmetry_equiv_pos_as_xyz
  1  'x, y, z'
loop_
 _atom_site_type_symbol
 _atom_site_label
 _atom_site_symmetry_multiplicity
 _atom_site_fract_x
 _atom_site_fract_y
 _atom_site_fract_z
 _atom_site_occupancy
  C  C0  1  0.95581900  0.95581900  0.75522800  1
  C  C1  1  0.04418100  0.04418100  0.25522800  1
  C  C2  1  0.34423500  0.34423500  0.42399200  1
  C  C3  1  0.65576500  0.65576500  0.92399200  1
  C  C4  1  0.39628100  0.64856900  0.59696600  1
  C  C5  1  0.64856900  0.39628100  0.59696600  1
  C  C6  1  0.60371900  0.35143100  0.09696600  1
  C  C7  1  0.35143100  0.60371900  0.09696600  1
  C  C8  1  0.19294200  0.42901100  0.58757500  1
  C  C9  1  0.42901100  0.19294200  0.58757500  1
  C  C10  1  0.80705800  0.57098900  0.08757500  1
  C  C11  1  0.57098900  0.80705800  0.08757500  1
  C  C12  1  0.20953200  0.63281700  0.49328400  1
  C  C13  1  0.63281700  0.20953200  0.49328400  1
  C  C14  1  0.79046800  0.36718300  0.99328400  1
  C  C15  1  0.36718300  0.79046800  0.99328400  1
  C  C16  1  0.68566300  0.68566300  0.47208900  1
  C  C17  1  0.31433700  0.31433700  0.97208900  1
  C  C18  1  0.50053600  0.68039600  0.36807100  1
  C  C19  1  0.68039600  0.50053600  0.36807100  1
  C  C20  1  0.49946400  0.31960400  0.86807100  1
  C  C21  1  0.31960400  0.49946400  0.86807100  1
  Ni  Ni22  1  0.29838400  0.54438600  0.54338700  1
  Ni  Ni23  1  0.54438600  0.29838400  0.54338700  1
  Ni  Ni24  1  0.70161600  0.45561400  0.04338700  1
  Ni  Ni25  1  0.45561400  0.70161600  0.04338700  1
  Ni  Ni26  1  0.58683400  0.58683400  0.41702800  1
  Ni  Ni27  1  0.41316600  0.41316600  0.91702800  1
  Cu  Cu28  1  0.43621900  0.43621900  0.47768000  1
  Cu  Cu29  1  0.56378100  0.56378100  0.97768000  1
  C  C30  1  0.97501000  0.97501000  0.95170400  1
  C  C31  1  0.02499000  0.02499000  0.45170400  1
  C  C32  1  0.56436800  0.92786000  0.75880800  1
  C  C33  1  0.92786000  0.56436800  0.75880800  1
  C  C34  1  0.43563200  0.07214000  0.25880800  1
  C  C35  1  0.07214000  0.43563200  0.25880800  1
