# generated using pymatgen
data_Cu3NiC8
_symmetry_space_group_name_H-M   'P 1'
_cell_length_a   5.76467100
_cell_length_b   5.75283200
_cell_length_c   5.85520158
_cell_angle_alpha   89.97451869
_cell_angle_beta   90.00000000
_cell_angle_gamma   90.00000000
_symmetry_Int_Tables_number   1
_chemical_formula_structural   Cu3NiC8
_chemical_formula_sum   'Cu3 Ni1 C8'
_cell_volume   194.17710694
_cell_formula_units_Z   1
loop_
 _symmetry_equiv_pos_site_id
 _symmetry_equiv_pos_as_xyz
  1  'x, y, z'
loop_
 _atom_site_type_symbol
 _atom_site_label
 _atom_site_symmetry_multiplicity
 _atom_site_fract_x
 _atom_site_fract_y
 _atom_site_fract_z
 _atom_site_occupancy
  C  C0  1  0.50000000  0.12052400  0.79042300  1
  C  C1  1  0.34407200  0.18674800  0.04738700  1
  C  C2  1  0.65592800  0.18674800  0.04738700  1
  C  C3  1  0.35431600  0.77033900  0.97853800  1
  C  C4  1  0.64568400  0.77033900  0.97853800  1
  C  C5  1  0.50000000  0.82904300  0.21641200  1
  C  C6  1  0.00000000  0.52601200  0.48387400  1
  C  C7  1  0.50000000  0.10573200  0.97684800  1
  Ni  Ni8  1  0.50000000  0.85506800  0.04073100  1
  Cu  Cu9  1  0.00000000  0.57210900  0.97555800  1
  Cu  Cu10  1  0.50000000  0.57080800  0.52003600  1
  Cu  Cu11  1  0.00000000  0.02817400  0.43966000  1
