# generated using pymatgen
data_Cu2(NiC3)3
_symmetry_space_group_name_H-M   'P 1'
_cell_length_a   7.67808194
_cell_length_b   7.67808194
_cell_length_c   19.69285000
_cell_angle_alpha   90.00000000
_cell_angle_beta   90.00000000
_cell_angle_gamma   119.99999952
_symmetry_Int_Tables_number   1
_chemical_formula_structural   Cu2(NiC3)3
_chemical_formula_sum   'Cu4 Ni6 C18'
_cell_volume   1005.41345366
_cell_formula_units_Z   2
loop_
 _symmetry_equiv_pos_site_id
 _symmetry_equiv_pos_as_xyz
  1  'x, y, z'
loop_
 _atom_site_type_symbol
 _atom_site_label
 _atom_site_symmetry_multiplicity
 _atom_site_fract_x
 _atom_site_fract_y
 _atom_site_fract_z
 _atom_site_occupancy
  Ni  Ni0  1  0.33333300  0.66666700  0.07023400  1
  Ni  Ni1  1  0.66666700  0.33333300  0.92976600  1
  Ni  Ni2  1  0.66666700  0.33333300  0.57023400  1
  Ni  Ni3  1  0.33333300  0.66666700  0.42976600  1
  Ni  Ni4  1  0.00000000  0.00000000  0.25000000  1
  Ni  Ni5  1  0.00000000  0.00000000  0.75000000  1
  Cu  Cu6  1  0.33333300  0.66666700  0.65666200  1
  Cu  Cu7  1  0.66666700  0.33333300  0.34333800  1
  Cu  Cu8  1  0.66666700  0.33333300  0.15666200  1
  Cu  Cu9  1  0.33333300  0.66666700  0.84333800  1
  C  C10  1  0.16832500  0.33665100  0.58970500  1
  C  C11  1  0.83167500  0.66334900  0.41029500  1
  C  C12  1  0.66334900  0.83167500  0.58970500  1
  C  C13  1  0.83167500  0.66334900  0.08970500  1
  C  C14  1  0.33665100  0.16832500  0.41029500  1
  C  C15  1  0.16832500  0.33665100  0.91029500  1
  C  C16  1  0.16832500  0.83167500  0.58970500  1
  C  C17  1  0.33665100  0.16832500  0.08970500  1
  C  C18  1  0.83167500  0.16832500  0.41029500  1
  C  C19  1  0.66334900  0.83167500  0.91029500  1
  C  C20  1  0.83167500  0.16832500  0.08970500  1
  C  C21  1  0.16832500  0.83167500  0.91029500  1
  C  C22  1  0.50933200  0.01866500  0.25000000  1
  C  C23  1  0.49066800  0.98133500  0.75000000  1
  C  C24  1  0.98133500  0.49066800  0.25000000  1
  C  C25  1  0.01866500  0.50933200  0.75000000  1
  C  C26  1  0.50933200  0.49066800  0.25000000  1
  C  C27  1  0.49066800  0.50933200  0.75000000  1
