# generated using pymatgen
data_Cu2NiC10
_symmetry_space_group_name_H-M   'P 1'
_cell_length_a   8.95297500
_cell_length_b   8.95297500
_cell_length_c   8.33879800
_cell_angle_alpha   90.00000000
_cell_angle_beta   90.00000000
_cell_angle_gamma   90.00000000
_symmetry_Int_Tables_number   1
_chemical_formula_structural   Cu2NiC10
_chemical_formula_sum   'Cu8 Ni4 C40'
_cell_volume   668.40270244
_cell_formula_units_Z   4
loop_
 _symmetry_equiv_pos_site_id
 _symmetry_equiv_pos_as_xyz
  1  'x, y, z'
loop_
 _atom_site_type_symbol
 _atom_site_label
 _atom_site_symmetry_multiplicity
 _atom_site_fract_x
 _atom_site_fract_y
 _atom_site_fract_z
 _atom_site_occupancy
  C  C0  1  0.50000000  0.00000000  0.84075200  1
  C  C1  1  0.00000000  0.50000000  0.65924800  1
  C  C2  1  0.00000000  0.50000000  0.15924800  1
  C  C3  1  0.50000000  0.00000000  0.34075200  1
  Ni  Ni4  1  0.50000000  0.50000000  0.50000000  1
  Ni  Ni5  1  0.00000000  0.00000000  0.50000000  1
  Ni  Ni6  1  0.00000000  0.00000000  0.00000000  1
  Ni  Ni7  1  0.50000000  0.50000000  0.00000000  1
  Cu  Cu8  1  0.17823000  0.17823000  0.75000000  1
  Cu  Cu9  1  0.67823000  0.32177000  0.75000000  1
  Cu  Cu10  1  0.32177000  0.67823000  0.75000000  1
  Cu  Cu11  1  0.82177000  0.82177000  0.75000000  1
  Cu  Cu12  1  0.32177000  0.32177000  0.25000000  1
  Cu  Cu13  1  0.82177000  0.17823000  0.25000000  1
  Cu  Cu14  1  0.17823000  0.82177000  0.25000000  1
  Cu  Cu15  1  0.67823000  0.67823000  0.25000000  1
  C  C16  1  0.63447800  0.43293900  0.89067200  1
  C  C17  1  0.36552200  0.56706100  0.89067200  1
  C  C18  1  0.06706100  0.13447800  0.89067200  1
  C  C19  1  0.93293900  0.86552200  0.89067200  1
  C  C20  1  0.43293900  0.63447800  0.60932800  1
  C  C21  1  0.13447800  0.06706100  0.60932800  1
  C  C22  1  0.86552200  0.93293900  0.60932800  1
  C  C23  1  0.56706100  0.36552200  0.60932800  1
  C  C24  1  0.86552200  0.06706100  0.10932800  1
  C  C25  1  0.13447800  0.93293900  0.10932800  1
  C  C26  1  0.43293900  0.36552200  0.10932800  1
  C  C27  1  0.56706100  0.63447800  0.10932800  1
  C  C28  1  0.06706100  0.86552200  0.39067200  1
  C  C29  1  0.36552200  0.43293900  0.39067200  1
  C  C30  1  0.63447800  0.56706100  0.39067200  1
  C  C31  1  0.93293900  0.13447800  0.39067200  1
  C  C32  1  0.50000000  0.00000000  0.53731600  1
  C  C33  1  0.00000000  0.50000000  0.96268400  1
  C  C34  1  0.00000000  0.50000000  0.46268400  1
  C  C35  1  0.50000000  0.00000000  0.03731600  1
  C  C36  1  0.66237500  0.15025300  0.29748000  1
  C  C37  1  0.65025300  0.83762500  0.29748000  1
  C  C38  1  0.34974700  0.16237500  0.29748000  1
  C  C39  1  0.33762500  0.84974700  0.29748000  1
  C  C40  1  0.83762500  0.65025300  0.20252000  1
  C  C41  1  0.16237500  0.34974700  0.20252000  1
  C  C42  1  0.15025300  0.66237500  0.20252000  1
  C  C43  1  0.84974700  0.33762500  0.20252000  1
  C  C44  1  0.83762500  0.34974700  0.70252000  1
  C  C45  1  0.84974700  0.66237500  0.70252000  1
  C  C46  1  0.15025300  0.33762500  0.70252000  1
  C  C47  1  0.16237500  0.65025300  0.70252000  1
  C  C48  1  0.66237500  0.84974700  0.79748000  1
  C  C49  1  0.33762500  0.15025300  0.79748000  1
  C  C50  1  0.34974700  0.83762500  0.79748000  1
  C  C51  1  0.65025300  0.16237500  0.79748000  1
