# generated using pymatgen
data_Cu19Ni7C3
_symmetry_space_group_name_H-M   'P 1'
_cell_length_a   7.86519400
_cell_length_b   10.55069434
_cell_length_c   13.82637482
_cell_angle_alpha   81.05905953
_cell_angle_beta   78.79539090
_cell_angle_gamma   82.65479063
_symmetry_Int_Tables_number   1
_chemical_formula_structural   Cu19Ni7C3
_chemical_formula_sum   'Cu38 Ni14 C6'
_cell_volume   1106.15334955
_cell_formula_units_Z   2
loop_
 _symmetry_equiv_pos_site_id
 _symmetry_equiv_pos_as_xyz
  1  'x, y, z'
loop_
 _atom_site_type_symbol
 _atom_site_label
 _atom_site_symmetry_multiplicity
 _atom_site_fract_x
 _atom_site_fract_y
 _atom_site_fract_z
 _atom_site_occupancy
  C  C0  1  0.14437700  0.80216200  0.37764900  1
  C  C1  1  0.85562300  0.19783800  0.62235100  1
  C  C2  1  0.04371600  0.69400000  0.17974600  1
  C  C3  1  0.95628400  0.30600000  0.82025400  1
  C  C4  1  0.93852400  0.00689000  0.21595900  1
  C  C5  1  0.06147600  0.99311000  0.78404100  1
  Ni  Ni6  1  0.69811800  0.82346000  0.16194100  1
  Ni  Ni7  1  0.30188200  0.17654000  0.83805900  1
  Ni  Ni8  1  0.39532500  0.02525200  0.28761100  1
  Ni  Ni9  1  0.60467500  0.97474800  0.71238900  1
  Ni  Ni10  1  0.30406400  0.85908800  0.04083400  1
  Ni  Ni11  1  0.69593600  0.14091200  0.95916600  1
  Ni  Ni12  1  0.81934600  0.96288300  0.44729300  1
  Ni  Ni13  1  0.18065400  0.03711700  0.55270700  1
  Ni  Ni14  1  0.85552100  0.58011100  0.41595400  1
  Ni  Ni15  1  0.14447900  0.41988900  0.58404600  1
  Ni  Ni16  1  0.36663900  0.72851400  0.57556900  1
  Ni  Ni17  1  0.63336100  0.27148600  0.42443100  1
  Ni  Ni18  1  0.43711700  0.58861500  0.28064900  1
  Ni  Ni19  1  0.56288300  0.41138500  0.71935100  1
  Cu  Cu20  1  0.24730200  0.73991100  0.53355300  1
  Cu  Cu21  1  0.75269800  0.26008900  0.46644700  1
  Cu  Cu22  1  0.37741500  0.93051800  0.34614000  1
  Cu  Cu23  1  0.62258500  0.06948200  0.65386000  1
  Cu  Cu24  1  0.07954800  0.40702400  0.25228200  1
  Cu  Cu25  1  0.92045200  0.59297600  0.74771800  1
  Cu  Cu26  1  0.32845600  0.96747600  0.03201700  1
  Cu  Cu27  1  0.67154400  0.03252400  0.96798300  1
  Cu  Cu28  1  0.79332600  0.71943200  0.15488700  1
  Cu  Cu29  1  0.20667400  0.28056800  0.84511300  1
  Cu  Cu30  1  0.96377200  0.62352100  0.44522100  1
  Cu  Cu31  1  0.03622800  0.37647900  0.55477900  1
  Cu  Cu32  1  0.40858600  0.11903000  0.23101000  1
  Cu  Cu33  1  0.59141400  0.88097000  0.76899000  1
  Cu  Cu34  1  0.51155500  0.53858400  0.21316500  1
  Cu  Cu35  1  0.48844500  0.46141600  0.78683500  1
  Cu  Cu36  1  0.13460500  0.52437100  0.24071900  1
  Cu  Cu37  1  0.86539500  0.47562900  0.75928100  1
  Cu  Cu38  1  0.08611600  0.83750600  0.24644200  1
  Cu  Cu39  1  0.91388400  0.16249400  0.75355800  1
  Cu  Cu40  1  0.27704700  0.74937800  0.05059300  1
  Cu  Cu41  1  0.72295300  0.25062200  0.94940700  1
  Cu  Cu42  1  0.01229600  0.14984600  0.10521500  1
  Cu  Cu43  1  0.98770400  0.85015400  0.89478500  1
  Cu  Cu44  1  0.79078700  0.02162800  0.36636900  1
  Cu  Cu45  1  0.20921300  0.97837200  0.63363100  1
  Cu  Cu46  1  0.74506600  0.53882800  0.38826500  1
  Cu  Cu47  1  0.25493400  0.46117200  0.61173500  1
  Cu  Cu48  1  0.72112900  0.93279900  0.17523500  1
  Cu  Cu49  1  0.27887100  0.06720100  0.82476500  1
  Cu  Cu50  1  0.48686400  0.71438200  0.61574000  1
  Cu  Cu51  1  0.51313600  0.28561800  0.38426000  1
  Cu  Cu52  1  0.37067400  0.64141800  0.35079800  1
  Cu  Cu53  1  0.62932600  0.35858200  0.64920200  1
  Cu  Cu54  1  0.93881900  0.88334800  0.47465700  1
  Cu  Cu55  1  0.06118100  0.11665200  0.52534300  1
  Cu  Cu56  1  0.87129800  0.19847300  0.16871200  1
  Cu  Cu57  1  0.12870200  0.80152700  0.83128800  1
