# generated using pymatgen
data_Cu8NiC3
_symmetry_space_group_name_H-M   'P 1'
_cell_length_a   5.11901299
_cell_length_b   5.11901299
_cell_length_c   16.24570800
_cell_angle_alpha   90.00000000
_cell_angle_beta   90.00000000
_cell_angle_gamma   119.99998695
_symmetry_Int_Tables_number   1
_chemical_formula_structural   Cu8NiC3
_chemical_formula_sum   'Cu16 Ni2 C6'
_cell_volume   368.67339226
_cell_formula_units_Z   2
loop_
 _symmetry_equiv_pos_site_id
 _symmetry_equiv_pos_as_xyz
  1  'x, y, z'
loop_
 _atom_site_type_symbol
 _atom_site_label
 _atom_site_symmetry_multiplicity
 _atom_site_fract_x
 _atom_site_fract_y
 _atom_site_fract_z
 _atom_site_occupancy
  C  C0  1  0.33333300  0.66666700  0.95867300  1
  C  C1  1  0.66666700  0.33333300  0.04132700  1
  C  C2  1  0.66666700  0.33333300  0.45867300  1
  C  C3  1  0.33333300  0.66666700  0.54132700  1
  C  C4  1  0.33333300  0.66666700  0.75000000  1
  C  C5  1  0.66666700  0.33333300  0.25000000  1
  Ni  Ni6  1  0.33333300  0.66666700  0.25000000  1
  Ni  Ni7  1  0.66666700  0.33333300  0.75000000  1
  Cu  Cu8  1  0.16570200  0.83429800  0.37256800  1
  Cu  Cu9  1  0.16570200  0.33140400  0.37256800  1
  Cu  Cu10  1  0.66859600  0.83429800  0.37256800  1
  Cu  Cu11  1  0.83429800  0.16570200  0.62743200  1
  Cu  Cu12  1  0.83429800  0.66859600  0.62743200  1
  Cu  Cu13  1  0.33140400  0.16570200  0.62743200  1
  Cu  Cu14  1  0.83429800  0.16570200  0.87256800  1
  Cu  Cu15  1  0.83429800  0.66859600  0.87256800  1
  Cu  Cu16  1  0.33140400  0.16570200  0.87256800  1
  Cu  Cu17  1  0.16570200  0.83429800  0.12743200  1
  Cu  Cu18  1  0.16570200  0.33140400  0.12743200  1
  Cu  Cu19  1  0.66859600  0.83429800  0.12743200  1
  Cu  Cu20  1  0.00000000  0.00000000  0.25000000  1
  Cu  Cu21  1  0.00000000  0.00000000  0.75000000  1
  Cu  Cu22  1  0.00000000  0.00000000  0.50000000  1
  Cu  Cu23  1  0.00000000  0.00000000  0.00000000  1
