# generated using pymatgen
data_Cu4NiC17
_symmetry_space_group_name_H-M   'P 1'
_cell_length_a   7.91400200
_cell_length_b   7.30766700
_cell_length_c   9.50148539
_cell_angle_alpha   68.47298433
_cell_angle_beta   90.00000000
_cell_angle_gamma   90.00000000
_symmetry_Int_Tables_number   1
_chemical_formula_structural   Cu4NiC17
_chemical_formula_sum   'Cu8 Ni2 C34'
_cell_volume   511.16792292
_cell_formula_units_Z   2
loop_
 _symmetry_equiv_pos_site_id
 _symmetry_equiv_pos_as_xyz
  1  'x, y, z'
loop_
 _atom_site_type_symbol
 _atom_site_label
 _atom_site_symmetry_multiplicity
 _atom_site_fract_x
 _atom_site_fract_y
 _atom_site_fract_z
 _atom_site_occupancy
  C  C0  1  0.47891500  0.70986800  0.04438600  1
  C  C1  1  0.97891500  0.29013200  0.95561400  1
  C  C2  1  0.52136700  0.29083800  0.45519400  1
  C  C3  1  0.02136700  0.70916200  0.54480600  1
  Ni  Ni4  1  0.99034600  0.26161300  0.50092600  1
  Ni  Ni5  1  0.49034600  0.73838700  0.49907400  1
  C  C6  1  0.00679600  0.73886600  0.99704900  1
  C  C7  1  0.50679600  0.26113400  0.00295100  1
  Cu  Cu8  1  0.75881200  0.07785200  0.79393800  1
  Cu  Cu9  1  0.25881200  0.92214800  0.20606200  1
  Cu  Cu10  1  0.24515600  0.92798300  0.69851400  1
  Cu  Cu11  1  0.74515600  0.07201700  0.30148600  1
  Cu  Cu12  1  0.70802700  0.67400400  0.79073800  1
  Cu  Cu13  1  0.20802700  0.32599600  0.20926200  1
  Cu  Cu14  1  0.28888600  0.33049000  0.70106800  1
  Cu  Cu15  1  0.78888600  0.66951000  0.29893200  1
  C  C16  1  0.58369700  0.53698200  0.90213700  1
  C  C17  1  0.08369700  0.46301800  0.09786300  1
  C  C18  1  0.41333300  0.47510600  0.59551900  1
  C  C19  1  0.91333300  0.52489400  0.40448100  1
  C  C20  1  0.65486400  0.88240800  0.80406500  1
  C  C21  1  0.15486400  0.11759200  0.19593500  1
  C  C22  1  0.35083100  0.12314500  0.68976000  1
  C  C23  1  0.85083100  0.87685500  0.31024000  1
  C  C24  1  0.63651800  0.19095800  0.85340700  1
  C  C25  1  0.13651800  0.80904200  0.14659300  1
  C  C26  1  0.36482600  0.81825000  0.63342800  1
  C  C27  1  0.86482600  0.18175000  0.36657200  1
  C  C28  1  0.69002500  0.68846600  0.62720800  1
  C  C29  1  0.19002500  0.31153400  0.37279200  1
  C  C30  1  0.29563000  0.31507400  0.86607600  1
  C  C31  1  0.79563000  0.68492600  0.13392400  1
  C  C32  1  0.79834000  0.19505800  0.62815800  1
  C  C33  1  0.29834000  0.80494200  0.37184200  1
  C  C34  1  0.21259700  0.80518200  0.86548200  1
  C  C35  1  0.71259700  0.19481800  0.13451800  1
  C  C36  1  0.91791600  0.01231300  0.89271600  1
  C  C37  1  0.41791600  0.98768700  0.10728400  1
  C  C38  1  0.08389700  0.99912700  0.60416400  1
  C  C39  1  0.58389700  0.00087300  0.39583600  1
  C  C40  1  0.89395900  0.63710700  0.84231600  1
  C  C41  1  0.39395900  0.36289300  0.15768400  1
  C  C42  1  0.10526300  0.36046500  0.64273700  1
  C  C43  1  0.60526300  0.63953500  0.35726300  1
