# generated using pymatgen
data_CuNiC61
_symmetry_space_group_name_H-M   'P 1'
_cell_length_a   8.58585400
_cell_length_b   8.58726100
_cell_length_c   8.63545000
_cell_angle_alpha   90.00000000
_cell_angle_beta   90.00000000
_cell_angle_gamma   90.00000000
_symmetry_Int_Tables_number   1
_chemical_formula_structural   CuNiC61
_chemical_formula_sum   'Cu1 Ni1 C61'
_cell_volume   636.68282713
_cell_formula_units_Z   1
loop_
 _symmetry_equiv_pos_site_id
 _symmetry_equiv_pos_as_xyz
  1  'x, y, z'
loop_
 _atom_site_type_symbol
 _atom_site_label
 _atom_site_symmetry_multiplicity
 _atom_site_fract_x
 _atom_site_fract_y
 _atom_site_fract_z
 _atom_site_occupancy
  Ni  Ni0  1  0.00000000  0.00443200  0.00000000  1
  Cu  Cu1  1  0.50000000  0.00321900  0.50000000  1
  C  C2  1  0.50000000  0.02117100  0.00000000  1
  C  C3  1  0.00000000  0.00142500  0.50000000  1
  C  C4  1  0.00000000  0.50011400  0.00000000  1
  C  C5  1  0.50000000  0.47995400  0.00000000  1
  C  C6  1  0.00000000  0.49880400  0.50000000  1
  C  C7  1  0.50000000  0.49860300  0.50000000  1
  C  C8  1  0.25442800  0.99860400  0.25553400  1
  C  C9  1  0.74557200  0.99860400  0.25553400  1
  C  C10  1  0.25442800  0.99860400  0.74446600  1
  C  C11  1  0.74557200  0.99860400  0.74446600  1
  C  C12  1  0.25095300  0.50086800  0.25066400  1
  C  C13  1  0.74904700  0.50086800  0.25066400  1
  C  C14  1  0.25095300  0.50086800  0.74933600  1
  C  C15  1  0.74904700  0.50086800  0.74933600  1
  C  C16  1  0.22932600  0.75054800  0.00000000  1
  C  C17  1  0.77067400  0.75054800  0.00000000  1
  C  C18  1  0.24936400  0.75301000  0.50000000  1
  C  C19  1  0.75063600  0.75301000  0.50000000  1
  C  C20  1  0.24841800  0.25141700  0.00000000  1
  C  C21  1  0.75158200  0.25141700  0.00000000  1
  C  C22  1  0.25186600  0.24589000  0.50000000  1
  C  C23  1  0.74813400  0.24589000  0.50000000  1
  C  C24  1  0.00000000  0.75003100  0.25616800  1
  C  C25  1  0.50000000  0.75647200  0.27426800  1
  C  C26  1  0.00000000  0.75003100  0.74383200  1
  C  C27  1  0.50000000  0.75647200  0.72573200  1
  C  C28  1  0.00000000  0.25055500  0.25370100  1
  C  C29  1  0.50000000  0.24451000  0.25684200  1
  C  C30  1  0.00000000  0.25055500  0.74629900  1
  C  C31  1  0.50000000  0.24451000  0.74315800  1
  C  C32  1  0.00000000  0.72683000  0.00000000  1
  C  C33  1  0.00000000  0.74387000  0.50000000  1
  C  C34  1  0.50000000  0.74042800  0.50000000  1
  C  C35  1  0.00000000  0.27566500  0.00000000  1
  C  C36  1  0.50000000  0.25196300  0.00000000  1
  C  C37  1  0.00000000  0.25529200  0.50000000  1
  C  C38  1  0.50000000  0.25884600  0.50000000  1
  C  C39  1  0.25466900  0.74925700  0.24568800  1
  C  C40  1  0.74533100  0.74925700  0.24568800  1
  C  C41  1  0.25466900  0.74925700  0.75431200  1
  C  C42  1  0.74533100  0.74925700  0.75431200  1
  C  C43  1  0.25135000  0.24983200  0.24720100  1
  C  C44  1  0.74865000  0.24983200  0.24720100  1
  C  C45  1  0.25135000  0.24983200  0.75279900  1
  C  C46  1  0.74865000  0.24983200  0.75279900  1
  C  C47  1  0.27712800  0.98597500  0.00000000  1
  C  C48  1  0.72287200  0.98597500  0.00000000  1
  C  C49  1  0.24990100  0.99857500  0.50000000  1
  C  C50  1  0.75009900  0.99857500  0.50000000  1
  C  C51  1  0.26081100  0.50751700  0.00000000  1
  C  C52  1  0.73918900  0.50751700  0.00000000  1
  C  C53  1  0.25159000  0.50084900  0.50000000  1
  C  C54  1  0.74841000  0.50084900  0.50000000  1
  C  C55  1  0.00000000  0.99789600  0.27260500  1
  C  C56  1  0.50000000  0.99560900  0.24392000  1
  C  C57  1  0.00000000  0.99789600  0.72739500  1
  C  C58  1  0.50000000  0.99560900  0.75608000  1
  C  C59  1  0.00000000  0.50152300  0.25256100  1
  C  C60  1  0.50000000  0.50719500  0.24328000  1
  C  C61  1  0.00000000  0.50152300  0.74743900  1
  C  C62  1  0.50000000  0.50719500  0.75672000  1
