# generated using pymatgen
data_CuNi9C20
_symmetry_space_group_name_H-M   'P 1'
_cell_length_a   11.37849772
_cell_length_b   11.37849772
_cell_length_c   17.84046615
_cell_angle_alpha   66.88972421
_cell_angle_beta   66.88972421
_cell_angle_gamma   51.39595519
_symmetry_Int_Tables_number   1
_chemical_formula_structural   CuNi9C20
_chemical_formula_sum   'Cu2 Ni18 C40'
_cell_volume   1624.82174195
_cell_formula_units_Z   2
loop_
 _symmetry_equiv_pos_site_id
 _symmetry_equiv_pos_as_xyz
  1  'x, y, z'
loop_
 _atom_site_type_symbol
 _atom_site_label
 _atom_site_symmetry_multiplicity
 _atom_site_fract_x
 _atom_site_fract_y
 _atom_site_fract_z
 _atom_site_occupancy
  Ni  Ni0  1  0.41066700  0.42564300  0.60380200  1
  Ni  Ni1  1  0.58933300  0.57435700  0.39619800  1
  Ni  Ni2  1  0.57435700  0.58933300  0.89619800  1
  Ni  Ni3  1  0.42564300  0.41066700  0.10380200  1
  Ni  Ni4  1  0.08856800  0.07478900  0.52211900  1
  Ni  Ni5  1  0.91143200  0.92521100  0.47788100  1
  Ni  Ni6  1  0.92521100  0.91143200  0.97788100  1
  Ni  Ni7  1  0.07478900  0.08856800  0.02211900  1
  Ni  Ni8  1  0.24906200  0.75093800  0.75000000  1
  Ni  Ni9  1  0.75093800  0.24906200  0.25000000  1
  Ni  Ni10  1  0.50190000  0.00985900  0.87082700  1
  Ni  Ni11  1  0.49810000  0.99014100  0.12917300  1
  Ni  Ni12  1  0.99014100  0.49810000  0.62917300  1
  Ni  Ni13  1  0.00985900  0.50190000  0.37082700  1
  Ni  Ni14  1  0.48621100  0.99488700  0.62827500  1
  Ni  Ni15  1  0.51378900  0.00511300  0.37172500  1
  Ni  Ni16  1  0.00511300  0.51378900  0.87172500  1
  Ni  Ni17  1  0.99488700  0.48621100  0.12827500  1
  Cu  Cu18  1  0.74911800  0.25088200  0.75000000  1
  Cu  Cu19  1  0.25088200  0.74911800  0.25000000  1
  C  C20  1  0.37757200  0.36722900  0.91622900  1
  C  C21  1  0.62242800  0.63277100  0.08377100  1
  C  C22  1  0.63277100  0.62242800  0.58377100  1
  C  C23  1  0.36722900  0.37757200  0.41622900  1
  C  C24  1  0.86506500  0.87992800  0.71127800  1
  C  C25  1  0.13493500  0.12007200  0.28872200  1
  C  C26  1  0.12007200  0.13493500  0.78872200  1
  C  C27  1  0.87992800  0.86506500  0.21127800  1
  C  C28  1  0.41301300  0.37500200  0.79156500  1
  C  C29  1  0.58698700  0.62499800  0.20843500  1
  C  C30  1  0.62499800  0.58698700  0.70843500  1
  C  C31  1  0.37500200  0.41301300  0.29156500  1
  C  C32  1  0.87281200  0.91486500  0.81448900  1
  C  C33  1  0.12718800  0.08513500  0.18551100  1
  C  C34  1  0.08513500  0.12718800  0.68551100  1
  C  C35  1  0.91486500  0.87281200  0.31448900  1
  C  C36  1  0.24352000  0.92431300  0.85992600  1
  C  C37  1  0.75648000  0.07568700  0.14007400  1
  C  C38  1  0.07568700  0.75648000  0.64007400  1
  C  C39  1  0.92431300  0.24352000  0.35992600  1
  C  C40  1  0.75078800  0.10129800  0.64209700  1
  C  C41  1  0.24921200  0.89870200  0.35790300  1
  C  C42  1  0.89870200  0.24921200  0.85790300  1
  C  C43  1  0.10129800  0.75078800  0.14209700  1
  C  C44  1  0.75352600  0.77370300  0.74578700  1
  C  C45  1  0.24647400  0.22629700  0.25421300  1
  C  C46  1  0.22629700  0.24647400  0.75421300  1
  C  C47  1  0.77370300  0.75352600  0.24578700  1
  C  C48  1  0.72952700  0.74349400  0.00950600  1
  C  C49  1  0.27047300  0.25650600  0.99049400  1
  C  C50  1  0.25650600  0.27047300  0.49049400  1
  C  C51  1  0.74349400  0.72952700  0.50950600  1
  C  C52  1  0.59901700  0.25230200  0.93196300  1
  C  C53  1  0.40098300  0.74769800  0.06803700  1
  C  C54  1  0.74769800  0.40098300  0.56803700  1
  C  C55  1  0.25230200  0.59901700  0.43196300  1
  C  C56  1  0.42245700  0.74539900  0.55589700  1
  C  C57  1  0.57754300  0.25460100  0.44410300  1
  C  C58  1  0.25460100  0.57754300  0.94410300  1
  C  C59  1  0.74539900  0.42245700  0.05589700  1
