# generated using pymatgen
data_Cu8Ni4C13
_symmetry_space_group_name_H-M   'P 1'
_cell_length_a   8.41141318
_cell_length_b   8.41141318
_cell_length_c   8.41141306
_cell_angle_alpha   60.01488094
_cell_angle_beta   60.01488094
_cell_angle_gamma   60.01488845
_symmetry_Int_Tables_number   1
_chemical_formula_structural   Cu8Ni4C13
_chemical_formula_sum   'Cu8 Ni4 C13'
_cell_volume   420.95765126
_cell_formula_units_Z   1
loop_
 _symmetry_equiv_pos_site_id
 _symmetry_equiv_pos_as_xyz
  1  'x, y, z'
loop_
 _atom_site_type_symbol
 _atom_site_label
 _atom_site_symmetry_multiplicity
 _atom_site_fract_x
 _atom_site_fract_y
 _atom_site_fract_z
 _atom_site_occupancy
  C  C0  1  0.43281700  0.43281700  0.81941700  1
  C  C1  1  0.81941700  0.43281700  0.43281700  1
  C  C2  1  0.43281700  0.81941700  0.43281700  1
  C  C3  1  0.81859300  0.81859300  0.42930300  1
  C  C4  1  0.42930300  0.81859300  0.81859300  1
  C  C5  1  0.81859300  0.42930300  0.81859300  1
  C  C6  1  0.56718300  0.56718300  0.18058300  1
  C  C7  1  0.18058300  0.56718300  0.56718300  1
  C  C8  1  0.56718300  0.18058300  0.56718300  1
  C  C9  1  0.18140700  0.18140700  0.57069700  1
  C  C10  1  0.57069700  0.18140700  0.18140700  1
  C  C11  1  0.18140700  0.57069700  0.18140700  1
  Ni  Ni12  1  0.00000000  0.00000000  0.00000000  1
  Ni  Ni13  1  0.00000000  0.50000000  0.00000000  1
  Ni  Ni14  1  0.50000000  0.00000000  0.00000000  1
  Ni  Ni15  1  0.00000000  0.00000000  0.50000000  1
  Cu  Cu16  1  0.79058700  0.79058700  0.79058700  1
  Cu  Cu17  1  0.79641000  0.11034000  0.79641000  1
  Cu  Cu18  1  0.11034000  0.79641000  0.79641000  1
  Cu  Cu19  1  0.79641000  0.79641000  0.11034000  1
  Cu  Cu20  1  0.20941300  0.20941300  0.20941300  1
  Cu  Cu21  1  0.20359000  0.88966000  0.20359000  1
  Cu  Cu22  1  0.88966000  0.20359000  0.20359000  1
  Cu  Cu23  1  0.20359000  0.20359000  0.88966000  1
  C  C24  1  0.50000000  0.50000000  0.50000000  1
