# generated using pymatgen
data_Cu12NiC2
_symmetry_space_group_name_H-M   'P 1'
_cell_length_a   5.24178117
_cell_length_b   5.24178117
_cell_length_c   5.24178135
_cell_angle_alpha   64.60019878
_cell_angle_beta   64.60019878
_cell_angle_gamma   64.60020474
_symmetry_Int_Tables_number   1
_chemical_formula_structural   Cu12NiC2
_chemical_formula_sum   'Cu12 Ni1 C2'
_cell_volume   112.10667598
_cell_formula_units_Z   1
loop_
 _symmetry_equiv_pos_site_id
 _symmetry_equiv_pos_as_xyz
  1  'x, y, z'
loop_
 _atom_site_type_symbol
 _atom_site_label
 _atom_site_symmetry_multiplicity
 _atom_site_fract_x
 _atom_site_fract_y
 _atom_site_fract_z
 _atom_site_occupancy
  Ni  Ni0  1  0.50000000  0.50000000  0.50000000  1
  Cu  Cu1  1  0.67949300  0.19671100  0.19671100  1
  Cu  Cu2  1  0.19671100  0.19671100  0.67949300  1
  Cu  Cu3  1  0.19671100  0.67949300  0.19671100  1
  Cu  Cu4  1  0.32050700  0.80328900  0.80328900  1
  Cu  Cu5  1  0.80328900  0.80328900  0.32050700  1
  Cu  Cu6  1  0.80328900  0.32050700  0.80328900  1
  Cu  Cu7  1  0.33268700  0.00265600  0.00265600  1
  Cu  Cu8  1  0.00265600  0.00265600  0.33268700  1
  Cu  Cu9  1  0.00265600  0.33268700  0.00265600  1
  Cu  Cu10  1  0.66731300  0.99734400  0.99734400  1
  Cu  Cu11  1  0.99734400  0.99734400  0.66731300  1
  Cu  Cu12  1  0.99734400  0.66731300  0.99734400  1
  C  C13  1  0.63482700  0.63482700  0.63482700  1
  C  C14  1  0.36517300  0.36517300  0.36517300  1
