# generated using pymatgen
data_Cu4Ni2C
_symmetry_space_group_name_H-M   'P 1'
_cell_length_a   8.72102266
_cell_length_b   8.72102266
_cell_length_c   16.55481509
_cell_angle_alpha   68.53892939
_cell_angle_beta   68.53892939
_cell_angle_gamma   65.35434811
_symmetry_Int_Tables_number   1
_chemical_formula_structural   Cu4Ni2C
_chemical_formula_sum   'Cu24 Ni12 C6'
_cell_volume   1030.63618667
_cell_formula_units_Z   6
loop_
 _symmetry_equiv_pos_site_id
 _symmetry_equiv_pos_as_xyz
  1  'x, y, z'
loop_
 _atom_site_type_symbol
 _atom_site_label
 _atom_site_symmetry_multiplicity
 _atom_site_fract_x
 _atom_site_fract_y
 _atom_site_fract_z
 _atom_site_occupancy
  C  C0  1  0.65536400  0.61473500  0.48219000  1
  C  C1  1  0.38526500  0.34463600  0.01781000  1
  C  C2  1  0.34463600  0.38526500  0.51781000  1
  C  C3  1  0.61473500  0.65536400  0.98219000  1
  C  C4  1  0.00000000  0.00000000  0.50000000  1
  C  C5  1  0.00000000  0.00000000  0.00000000  1
  Ni  Ni6  1  0.26709400  0.76108900  0.62709700  1
  Ni  Ni7  1  0.23891100  0.73290600  0.87290300  1
  Ni  Ni8  1  0.73290600  0.23891100  0.37290300  1
  Ni  Ni9  1  0.76108900  0.26709400  0.12709700  1
  Ni  Ni10  1  0.09148000  0.38116700  0.36468700  1
  Ni  Ni11  1  0.61883300  0.90852000  0.13531300  1
  Ni  Ni12  1  0.90852000  0.61883300  0.63531300  1
  Ni  Ni13  1  0.38116700  0.09148000  0.86468700  1
  Ni  Ni14  1  0.73457700  0.21039700  0.62021200  1
  Ni  Ni15  1  0.78960300  0.26542300  0.87978800  1
  Ni  Ni16  1  0.26542300  0.78960300  0.37978800  1
  Ni  Ni17  1  0.21039700  0.73457700  0.12021200  1
  Cu  Cu18  1  0.89543000  0.55049400  0.36874500  1
  Cu  Cu19  1  0.44950600  0.10457000  0.13125500  1
  Cu  Cu20  1  0.10457000  0.44950600  0.63125500  1
  Cu  Cu21  1  0.55049400  0.89543000  0.86874500  1
  Cu  Cu22  1  0.56421300  0.92899700  0.39232600  1
  Cu  Cu23  1  0.07100300  0.43578700  0.10767400  1
  Cu  Cu24  1  0.43578700  0.07100300  0.60767400  1
  Cu  Cu25  1  0.92899700  0.56421300  0.89232600  1
  Cu  Cu26  1  0.51651200  0.91419400  0.63354500  1
  Cu  Cu27  1  0.08580600  0.48348800  0.86645500  1
  Cu  Cu28  1  0.48348800  0.08580600  0.36645500  1
  Cu  Cu29  1  0.91419400  0.51651200  0.13354500  1
  Cu  Cu30  1  0.56041700  0.38357600  0.57186700  1
  Cu  Cu31  1  0.61642400  0.43958300  0.92813300  1
  Cu  Cu32  1  0.43958300  0.61642400  0.42813300  1
  Cu  Cu33  1  0.38357600  0.56041700  0.07186700  1
  Cu  Cu34  1  0.85902800  0.01197400  0.41536900  1
  Cu  Cu35  1  0.98802600  0.14097200  0.08463100  1
  Cu  Cu36  1  0.14097200  0.98802600  0.58463100  1
  Cu  Cu37  1  0.01197400  0.85902800  0.91536900  1
  Cu  Cu38  1  0.78975100  0.60526200  0.57662500  1
  Cu  Cu39  1  0.39473800  0.21024900  0.92337500  1
  Cu  Cu40  1  0.21024900  0.39473800  0.42337500  1
  Cu  Cu41  1  0.60526200  0.78975100  0.07662500  1
