# generated using pymatgen
data_Cu8Ni3C29
_symmetry_space_group_name_H-M   'P 1'
_cell_length_a   5.98409700
_cell_length_b   6.00002128
_cell_length_c   11.30397080
_cell_angle_alpha   98.23334229
_cell_angle_beta   98.05324222
_cell_angle_gamma   104.12767599
_symmetry_Int_Tables_number   1
_chemical_formula_structural   Cu8Ni3C29
_chemical_formula_sum   'Cu8 Ni3 C29'
_cell_volume   382.99966919
_cell_formula_units_Z   1
loop_
 _symmetry_equiv_pos_site_id
 _symmetry_equiv_pos_as_xyz
  1  'x, y, z'
loop_
 _atom_site_type_symbol
 _atom_site_label
 _atom_site_symmetry_multiplicity
 _atom_site_fract_x
 _atom_site_fract_y
 _atom_site_fract_z
 _atom_site_occupancy
  C  C0  1  0.99993100  0.99967400  0.99989300  1
  C  C1  1  0.49983400  0.49996700  0.49995200  1
  C  C2  1  0.44628300  0.55404900  0.99905400  1
  C  C3  1  0.33083400  0.77584000  0.77804100  1
  C  C4  1  0.82969500  0.27645400  0.27620000  1
  Ni  Ni5  1  0.72283600  0.17234500  0.72521800  1
  Ni  Ni6  1  0.22355200  0.67100800  0.22327500  1
  Ni  Ni7  1  0.94820300  0.05176500  0.49891800  1
  Cu  Cu8  1  0.02850300  0.58173400  0.52814500  1
  Cu  Cu9  1  0.52756900  0.08372400  0.02765300  1
  Cu  Cu10  1  0.80590700  0.69600900  0.75027500  1
  Cu  Cu11  1  0.30609200  0.19618500  0.25000100  1
  Cu  Cu12  1  0.91697100  0.47355500  0.97316400  1
  Cu  Cu13  1  0.41852400  0.97246800  0.47257100  1
  Cu  Cu14  1  0.25182700  0.25171100  0.75247300  1
  Cu  Cu15  1  0.74891300  0.74890000  0.24787400  1
  C  C16  1  0.45390000  0.86216100  0.95407800  1
  C  C17  1  0.95550700  0.36556200  0.45070400  1
  C  C18  1  0.65368300  0.83713400  0.75289600  1
  C  C19  1  0.15401000  0.33750600  0.25190700  1
  C  C20  1  0.63729300  0.04562700  0.54583200  1
  C  C21  1  0.14088000  0.54739900  0.04230100  1
  C  C22  1  0.23557500  0.63648100  0.61028600  1
  C  C23  1  0.73575400  0.13747000  0.10966100  1
  C  C24  1  0.71297200  0.47284200  0.68314900  1
  C  C25  1  0.21368200  0.97314800  0.18274000  1
  C  C26  1  0.76766300  0.61316700  0.98612300  1
  C  C27  1  0.27560100  0.11889000  0.48414400  1
  C  C28  1  0.88176000  0.72560600  0.51516200  1
  C  C29  1  0.38748100  0.23368400  0.01313700  1
  C  C30  1  0.86415300  0.26061900  0.89590200  1
  C  C31  1  0.36472500  0.76085100  0.39510200  1
  C  C32  1  0.03197100  0.78507600  0.81339500  1
  C  C33  1  0.53225700  0.28583200  0.31297300  1
  C  C34  1  0.32678700  0.47338400  0.82495200  1
  C  C35  1  0.82123900  0.97204300  0.31843700  1
  C  C36  1  0.39138200  0.09765400  0.75247500  1
  C  C37  1  0.89132900  0.59794200  0.25230000  1
  C  C38  1  0.03308500  0.17998700  0.67808500  1
  C  C39  1  0.53183700  0.67454900  0.17155500  1
