# generated using pymatgen
data_Cu9Ni18C7
_symmetry_space_group_name_H-M   'P 1'
_cell_length_a   14.01210534
_cell_length_b   14.01210534
_cell_length_c   7.60127600
_cell_angle_alpha   90.00000000
_cell_angle_beta   90.00000000
_cell_angle_gamma   119.99999691
_symmetry_Int_Tables_number   1
_chemical_formula_structural   Cu9Ni18C7
_chemical_formula_sum   'Cu18 Ni36 C14'
_cell_volume   1292.48030696
_cell_formula_units_Z   2
loop_
 _symmetry_equiv_pos_site_id
 _symmetry_equiv_pos_as_xyz
  1  'x, y, z'
loop_
 _atom_site_type_symbol
 _atom_site_label
 _atom_site_symmetry_multiplicity
 _atom_site_fract_x
 _atom_site_fract_y
 _atom_site_fract_z
 _atom_site_occupancy
  C  C0  1  0.66666700  0.33333300  0.75000000  1
  C  C1  1  0.33333300  0.66666700  0.25000000  1
  C  C2  1  0.00661500  0.22871800  0.75000000  1
  C  C3  1  0.99338500  0.77128200  0.25000000  1
  C  C4  1  0.77128200  0.77789800  0.75000000  1
  C  C5  1  0.22871800  0.22210200  0.25000000  1
  C  C6  1  0.22210200  0.99338500  0.75000000  1
  C  C7  1  0.77789800  0.00661500  0.25000000  1
  C  C8  1  0.06087600  0.38081800  0.75000000  1
  C  C9  1  0.93912400  0.61918200  0.25000000  1
  C  C10  1  0.61918200  0.68005800  0.75000000  1
  C  C11  1  0.38081800  0.31994200  0.25000000  1
  C  C12  1  0.31994200  0.93912400  0.75000000  1
  C  C13  1  0.68005800  0.06087600  0.25000000  1
  Ni  Ni14  1  0.51161100  0.35094600  0.75000000  1
  Ni  Ni15  1  0.48838900  0.64905400  0.25000000  1
  Ni  Ni16  1  0.64905400  0.16066500  0.75000000  1
  Ni  Ni17  1  0.35094600  0.83933500  0.25000000  1
  Ni  Ni18  1  0.83933500  0.48838900  0.75000000  1
  Ni  Ni19  1  0.16066500  0.51161100  0.25000000  1
  Ni  Ni20  1  0.01793100  0.40300800  0.58917700  1
  Ni  Ni21  1  0.98206900  0.59699200  0.41082300  1
  Ni  Ni22  1  0.59699200  0.61492300  0.58917700  1
  Ni  Ni23  1  0.98206900  0.59699200  0.08917700  1
  Ni  Ni24  1  0.40300800  0.38507700  0.41082300  1
  Ni  Ni25  1  0.01793100  0.40300800  0.91082300  1
  Ni  Ni26  1  0.38507700  0.98206900  0.58917700  1
  Ni  Ni27  1  0.40300800  0.38507700  0.08917700  1
  Ni  Ni28  1  0.61492300  0.01793100  0.41082300  1
  Ni  Ni29  1  0.59699200  0.61492300  0.91082300  1
  Ni  Ni30  1  0.61492300  0.01793100  0.08917700  1
  Ni  Ni31  1  0.38507700  0.98206900  0.91082300  1
  Ni  Ni32  1  0.55112400  0.21370000  0.53934500  1
  Ni  Ni33  1  0.44887600  0.78630000  0.46065500  1
  Ni  Ni34  1  0.78630000  0.33742500  0.53934500  1
  Ni  Ni35  1  0.44887600  0.78630000  0.03934500  1
  Ni  Ni36  1  0.21370000  0.66257500  0.46065500  1
  Ni  Ni37  1  0.55112400  0.21370000  0.96065500  1
  Ni  Ni38  1  0.66257500  0.44887600  0.53934500  1
  Ni  Ni39  1  0.21370000  0.66257500  0.03934500  1
  Ni  Ni40  1  0.33742500  0.55112400  0.46065500  1
  Ni  Ni41  1  0.78630000  0.33742500  0.96065500  1
  Ni  Ni42  1  0.33742500  0.55112400  0.03934500  1
  Ni  Ni43  1  0.66257500  0.44887600  0.96065500  1
  Ni  Ni44  1  0.18110600  0.43208000  0.75000000  1
  Ni  Ni45  1  0.81889400  0.56792000  0.25000000  1
  Ni  Ni46  1  0.56792000  0.74902700  0.75000000  1
  Ni  Ni47  1  0.43208000  0.25097300  0.25000000  1
  Ni  Ni48  1  0.25097300  0.81889400  0.75000000  1
  Ni  Ni49  1  0.74902700  0.18110600  0.25000000  1
  Cu  Cu50  1  0.04246400  0.20025300  0.60541700  1
  Cu  Cu51  1  0.95753600  0.79974700  0.39458300  1
  Cu  Cu52  1  0.79974700  0.84221100  0.60541700  1
  Cu  Cu53  1  0.95753600  0.79974700  0.10541700  1
  Cu  Cu54  1  0.20025300  0.15778900  0.39458300  1
  Cu  Cu55  1  0.04246400  0.20025300  0.89458300  1
  Cu  Cu56  1  0.15778900  0.95753600  0.60541700  1
  Cu  Cu57  1  0.20025300  0.15778900  0.10541700  1
  Cu  Cu58  1  0.84221100  0.04246400  0.39458300  1
  Cu  Cu59  1  0.79974700  0.84221100  0.89458300  1
  Cu  Cu60  1  0.84221100  0.04246400  0.10541700  1
  Cu  Cu61  1  0.15778900  0.95753600  0.89458300  1
  Cu  Cu62  1  0.27998700  0.10460900  0.75000000  1
  Cu  Cu63  1  0.72001300  0.89539100  0.25000000  1
  Cu  Cu64  1  0.89539100  0.17537800  0.75000000  1
  Cu  Cu65  1  0.10460900  0.82462200  0.25000000  1
  Cu  Cu66  1  0.82462200  0.72001300  0.75000000  1
  Cu  Cu67  1  0.17537800  0.27998700  0.25000000  1
