# generated using pymatgen
data_CuNi3C10
_symmetry_space_group_name_H-M   'P 1'
_cell_length_a   5.68538300
_cell_length_b   7.50368600
_cell_length_c   9.44489872
_cell_angle_alpha   88.81507221
_cell_angle_beta   90.00000000
_cell_angle_gamma   90.00000000
_symmetry_Int_Tables_number   1
_chemical_formula_structural   CuNi3C10
_chemical_formula_sum   'Cu2 Ni6 C20'
_cell_volume   402.84576604
_cell_formula_units_Z   2
loop_
 _symmetry_equiv_pos_site_id
 _symmetry_equiv_pos_as_xyz
  1  'x, y, z'
loop_
 _atom_site_type_symbol
 _atom_site_label
 _atom_site_symmetry_multiplicity
 _atom_site_fract_x
 _atom_site_fract_y
 _atom_site_fract_z
 _atom_site_occupancy
  Ni  Ni0  1  0.25000000  0.20404600  0.91804600  1
  Ni  Ni1  1  0.75000000  0.79595400  0.08195400  1
  Ni  Ni2  1  0.25000000  0.63821200  0.58795400  1
  Ni  Ni3  1  0.75000000  0.36178800  0.41204600  1
  Ni  Ni4  1  0.25000000  0.49691900  0.19154300  1
  Ni  Ni5  1  0.75000000  0.50308100  0.80845700  1
  Cu  Cu6  1  0.25000000  0.99390500  0.28788900  1
  Cu  Cu7  1  0.75000000  0.00609500  0.71211100  1
  C  C8  1  0.25000000  0.18248200  0.57142400  1
  C  C9  1  0.75000000  0.81751800  0.42857600  1
  C  C10  1  0.75000000  0.22620200  0.09080300  1
  C  C11  1  0.25000000  0.77379800  0.90919700  1
  C  C12  1  0.25000000  0.98201600  0.53560000  1
  C  C13  1  0.75000000  0.01798400  0.46440000  1
  C  C14  1  0.25000000  0.28409900  0.42516400  1
  C  C15  1  0.75000000  0.71590100  0.57483600  1
  C  C16  1  0.02655100  0.23148800  0.65919600  1
  C  C17  1  0.52655100  0.76851200  0.34080400  1
  C  C18  1  0.97344900  0.76851200  0.34080400  1
  C  C19  1  0.47344900  0.23148800  0.65919600  1
  C  C20  1  0.97389500  0.14774900  0.16614100  1
  C  C21  1  0.47389500  0.85225100  0.83385900  1
  C  C22  1  0.02610500  0.85225100  0.83385900  1
  C  C23  1  0.52610500  0.14774900  0.16614100  1
  C  C24  1  0.75000000  0.17031600  0.93241700  1
  C  C25  1  0.25000000  0.82968400  0.06758300  1
  C  C26  1  0.75000000  0.43073900  0.10351200  1
  C  C27  1  0.25000000  0.56926100  0.89648800  1
