# generated using pymatgen
data_CuNiC8
_symmetry_space_group_name_H-M   'P 1'
_cell_length_a   5.58823600
_cell_length_b   5.47519900
_cell_length_c   9.51389385
_cell_angle_alpha   54.87853960
_cell_angle_beta   90.00000000
_cell_angle_gamma   90.00000000
_symmetry_Int_Tables_number   1
_chemical_formula_structural   CuNiC8
_chemical_formula_sum   'Cu2 Ni2 C16'
_cell_volume   238.09559662
_cell_formula_units_Z   2
loop_
 _symmetry_equiv_pos_site_id
 _symmetry_equiv_pos_as_xyz
  1  'x, y, z'
loop_
 _atom_site_type_symbol
 _atom_site_label
 _atom_site_symmetry_multiplicity
 _atom_site_fract_x
 _atom_site_fract_y
 _atom_site_fract_z
 _atom_site_occupancy
  C  C0  1  0.45012900  0.23978100  0.74952900  1
  C  C1  1  0.54987100  0.76021900  0.25047100  1
  C  C2  1  0.95012900  0.76021900  0.75047100  1
  C  C3  1  0.04987100  0.23978100  0.24952900  1
  Ni  Ni4  1  0.00000000  0.00000000  0.00000000  1
  Ni  Ni5  1  0.50000000  0.00000000  0.50000000  1
  Cu  Cu6  1  0.00000000  0.50000000  0.50000000  1
  Cu  Cu7  1  0.50000000  0.50000000  0.00000000  1
  C  C8  1  0.01770700  0.32175700  0.75777400  1
  C  C9  1  0.98229300  0.67824300  0.24222600  1
  C  C10  1  0.51770700  0.67824300  0.74222600  1
  C  C11  1  0.48229300  0.32175700  0.25777400  1
  C  C12  1  0.71710500  0.84304900  0.95673500  1
  C  C13  1  0.28289500  0.15695100  0.04326500  1
  C  C14  1  0.21710500  0.15695100  0.54326500  1
  C  C15  1  0.78289500  0.84304900  0.45673500  1
  C  C16  1  0.20156200  0.75890500  0.95826000  1
  C  C17  1  0.79843800  0.24109500  0.04174000  1
  C  C18  1  0.70156200  0.24109500  0.54174000  1
  C  C19  1  0.29843800  0.75890500  0.45826000  1
