# generated using pymatgen
data_CuNiC14
_symmetry_space_group_name_H-M   'P 1'
_cell_length_a   6.67155560
_cell_length_b   6.67375840
_cell_length_c   10.83638812
_cell_angle_alpha   90.00000000
_cell_angle_beta   90.00000000
_cell_angle_gamma   120.01092855
_symmetry_Int_Tables_number   1
_chemical_formula_structural   CuNiC14
_chemical_formula_sum   'Cu1 Ni1 C14'
_cell_volume   417.79663394
_cell_formula_units_Z   1
loop_
 _symmetry_equiv_pos_site_id
 _symmetry_equiv_pos_as_xyz
  1  'x, y, z'
loop_
 _atom_site_type_symbol
 _atom_site_label
 _atom_site_symmetry_multiplicity
 _atom_site_fract_x
 _atom_site_fract_y
 _atom_site_fract_z
 _atom_site_occupancy
  Ni  Ni0  1  0.16674114  0.83337007  0.12500000  1
  Cu  Cu1  1  0.17504719  0.33752309  0.12500000  1
  C  C2  1  0.16300256  0.33150078  0.62500000  1
  C  C3  1  0.16507117  0.83253509  0.62500000  1
  C  C4  1  0.66499822  0.33112971  0.12500000  1
  C  C5  1  0.66914427  0.33367412  0.62500000  1
  C  C6  1  0.66499822  0.83386752  0.12500000  1
  C  C7  1  0.66914427  0.83546916  0.62500000  1
  C  C8  1  0.34221658  0.17767912  0.39475487  1
  C  C9  1  0.34221658  0.17767912  0.85524513  1
  C  C10  1  0.34221658  0.66453846  0.39475487  1
  C  C11  1  0.34221658  0.66453846  0.85524513  1
  C  C12  1  0.82812189  0.16406145  0.37799069  1
  C  C13  1  0.82812189  0.16406145  0.87200931  1
  C  C14  1  0.81837143  0.65918621  0.38781962  1
  C  C15  1  0.81837143  0.65918621  0.86218038  1
