# generated using pymatgen
data_CuNiC7
_symmetry_space_group_name_H-M   'P 1'
_cell_length_a   5.60965800
_cell_length_b   5.60965800
_cell_length_c   7.81885600
_cell_angle_alpha   90.00000000
_cell_angle_beta   90.00000000
_cell_angle_gamma   90.00000000
_symmetry_Int_Tables_number   1
_chemical_formula_structural   CuNiC7
_chemical_formula_sum   'Cu2 Ni2 C14'
_cell_volume   246.04581601
_cell_formula_units_Z   2
loop_
 _symmetry_equiv_pos_site_id
 _symmetry_equiv_pos_as_xyz
  1  'x, y, z'
loop_
 _atom_site_type_symbol
 _atom_site_label
 _atom_site_symmetry_multiplicity
 _atom_site_fract_x
 _atom_site_fract_y
 _atom_site_fract_z
 _atom_site_occupancy
  Ni  Ni0  1  0.00000000  0.00000000  0.00000000  1
  Ni  Ni1  1  0.50000000  0.50000000  0.00000000  1
  Cu  Cu2  1  0.00000000  0.00000000  0.50000000  1
  Cu  Cu3  1  0.50000000  0.50000000  0.50000000  1
  C  C4  1  0.00000000  0.50000000  0.25864700  1
  C  C5  1  0.50000000  0.00000000  0.74135300  1
  C  C6  1  0.00000000  0.50000000  0.72353900  1
  C  C7  1  0.50000000  0.00000000  0.27646100  1
  C  C8  1  0.24399000  0.74399000  0.67791400  1
  C  C9  1  0.75601000  0.74399000  0.67791400  1
  C  C10  1  0.24399000  0.25601000  0.67791400  1
  C  C11  1  0.75601000  0.25601000  0.67791400  1
  C  C12  1  0.25601000  0.75601000  0.32208600  1
  C  C13  1  0.74399000  0.75601000  0.32208600  1
  C  C14  1  0.25601000  0.24399000  0.32208600  1
  C  C15  1  0.74399000  0.24399000  0.32208600  1
  C  C16  1  0.00000000  0.50000000  0.99377900  1
  C  C17  1  0.50000000  0.00000000  0.00622100  1
