# generated using pymatgen
data_Cu24Ni2C17
_symmetry_space_group_name_H-M   'P 1'
_cell_length_a   11.04739570
_cell_length_b   11.30902713
_cell_length_c   7.81785453
_cell_angle_alpha   90.00000000
_cell_angle_beta   90.00000000
_cell_angle_gamma   122.15263827
_symmetry_Int_Tables_number   1
_chemical_formula_structural   Cu24Ni2C17
_chemical_formula_sum   'Cu24 Ni2 C17'
_cell_volume   826.92880295
_cell_formula_units_Z   1
loop_
 _symmetry_equiv_pos_site_id
 _symmetry_equiv_pos_as_xyz
  1  'x, y, z'
loop_
 _atom_site_type_symbol
 _atom_site_label
 _atom_site_symmetry_multiplicity
 _atom_site_fract_x
 _atom_site_fract_y
 _atom_site_fract_z
 _atom_site_occupancy
  C  C0  1  0.66540675  0.33785949  0.49896469  1
  C  C1  1  0.35069297  0.63753100  0.48344162  1
  C  C2  1  0.99482073  0.26001424  0.25000000  1
  C  C3  1  0.35069297  0.63753100  0.01655838  1
  C  C4  1  0.76002173  0.74466139  0.25000000  1
  C  C5  1  0.25664313  0.98707601  0.25000000  1
  C  C6  1  0.70028482  0.97160110  0.75000000  1
  C  C7  1  0.95261988  0.75127808  0.75000000  1
  C  C8  1  0.66540675  0.33785949  0.00103531  1
  C  C9  1  0.23828550  0.23490847  0.75000000  1
  C  C10  1  0.25817763  0.78749356  0.75000000  1
  C  C11  1  0.97864643  0.60178227  0.25000000  1
  C  C12  1  0.59545213  0.61261814  0.75000000  1
  C  C13  1  0.43184401  0.04303790  0.75000000  1
  C  C14  1  0.40111931  0.35197574  0.25000000  1
  C  C15  1  0.02392936  0.42064669  0.75000000  1
  C  C16  1  0.62741679  0.03024651  0.25000000  1
  Ni  Ni17  1  0.99076885  0.00215653  0.00088973  1
  Ni  Ni18  1  0.99076885  0.00215653  0.49911027  1
  Cu  Cu19  1  0.64860585  0.71898582  0.92868003  1
  Cu  Cu20  1  0.31902241  0.44617354  0.25000000  1
  Cu  Cu21  1  0.35611901  0.24798988  0.42768013  1
  Cu  Cu22  1  0.41288824  0.50374367  0.75000000  1
  Cu  Cu23  1  0.09156525  0.38515459  0.57199456  1
  Cu  Cu24  1  0.68570309  0.52603550  0.75000000  1
  Cu  Cu25  1  0.84092771  0.33617238  0.75000000  1
  Cu  Cu26  1  0.09200804  0.60130426  0.75000000  1
  Cu  Cu27  1  0.58687698  0.46401780  0.25000000  1
  Cu  Cu28  1  0.73646318  0.09028469  0.07147656  1
  Cu  Cu29  1  0.09156525  0.38515459  0.92800544  1
  Cu  Cu30  1  0.88007079  0.42052841  0.25000000  1
  Cu  Cu31  1  0.42860497  0.78232553  0.75000000  1
  Cu  Cu32  1  0.92336602  0.65653190  0.07547196  1
  Cu  Cu33  1  0.92336602  0.65653190  0.42452804  1
  Cu  Cu34  1  0.46046978  0.21086307  0.75000000  1
  Cu  Cu35  1  0.35611901  0.24798988  0.07231987  1
  Cu  Cu36  1  0.73646318  0.09028469  0.42852344  1
  Cu  Cu37  1  0.15992013  0.66980295  0.25000000  1
  Cu  Cu38  1  0.29706572  0.93935309  0.91518273  1
  Cu  Cu39  1  0.52049386  0.84949346  0.25000000  1
  Cu  Cu40  1  0.29706572  0.93935309  0.58481727  1
  Cu  Cu41  1  0.64860585  0.71898582  0.57131997  1
  Cu  Cu42  1  0.53614536  0.11675538  0.25000000  1
