# generated using pymatgen
data_Cu17NiC11
_symmetry_space_group_name_H-M   'P 1'
_cell_length_a   5.65487936
_cell_length_b   5.65487936
_cell_length_c   23.02154200
_cell_angle_alpha   90.00000000
_cell_angle_beta   90.00000000
_cell_angle_gamma   119.99999255
_symmetry_Int_Tables_number   1
_chemical_formula_structural   Cu17NiC11
_chemical_formula_sum   'Cu34 Ni2 C22'
_cell_volume   637.54634872
_cell_formula_units_Z   2
loop_
 _symmetry_equiv_pos_site_id
 _symmetry_equiv_pos_as_xyz
  1  'x, y, z'
loop_
 _atom_site_type_symbol
 _atom_site_label
 _atom_site_symmetry_multiplicity
 _atom_site_fract_x
 _atom_site_fract_y
 _atom_site_fract_z
 _atom_site_occupancy
  C  C0  1  0.16733600  0.33467100  0.60619600  1
  C  C1  1  0.83266400  0.66532900  0.39380400  1
  C  C2  1  0.66532900  0.83266400  0.60619600  1
  C  C3  1  0.83266400  0.66532900  0.10619600  1
  C  C4  1  0.33467100  0.16733600  0.39380400  1
  C  C5  1  0.16733600  0.33467100  0.89380400  1
  C  C6  1  0.16733600  0.83266400  0.60619600  1
  C  C7  1  0.33467100  0.16733600  0.10619600  1
  C  C8  1  0.83266400  0.16733600  0.39380400  1
  C  C9  1  0.66532900  0.83266400  0.89380400  1
  C  C10  1  0.83266400  0.16733600  0.10619600  1
  C  C11  1  0.16733600  0.83266400  0.89380400  1
  C  C12  1  0.33333300  0.66666700  0.17471400  1
  C  C13  1  0.66666700  0.33333300  0.82528600  1
  C  C14  1  0.66666700  0.33333300  0.67471400  1
  C  C15  1  0.33333300  0.66666700  0.32528600  1
  C  C16  1  0.33333300  0.66666700  0.02458700  1
  C  C17  1  0.66666700  0.33333300  0.97541300  1
  C  C18  1  0.66666700  0.33333300  0.52458700  1
  C  C19  1  0.33333300  0.66666700  0.47541300  1
  C  C20  1  0.00000000  0.00000000  0.00000000  1
  C  C21  1  0.00000000  0.00000000  0.50000000  1
  Ni  Ni22  1  0.33333300  0.66666700  0.75000000  1
  Ni  Ni23  1  0.66666700  0.33333300  0.25000000  1
  Cu  Cu24  1  0.50013700  0.00027500  0.14353800  1
  Cu  Cu25  1  0.49986300  0.99972500  0.85646200  1
  Cu  Cu26  1  0.99972500  0.49986300  0.14353800  1
  Cu  Cu27  1  0.49986300  0.99972500  0.64353800  1
  Cu  Cu28  1  0.00027500  0.50013700  0.85646200  1
  Cu  Cu29  1  0.50013700  0.00027500  0.35646200  1
  Cu  Cu30  1  0.50013700  0.49986300  0.14353800  1
  Cu  Cu31  1  0.00027500  0.50013700  0.64353800  1
  Cu  Cu32  1  0.49986300  0.50013700  0.85646200  1
  Cu  Cu33  1  0.99972500  0.49986300  0.35646200  1
  Cu  Cu34  1  0.49986300  0.50013700  0.64353800  1
  Cu  Cu35  1  0.50013700  0.49986300  0.35646200  1
  Cu  Cu36  1  0.15715100  0.31430300  0.04913000  1
  Cu  Cu37  1  0.84284900  0.68569700  0.95087000  1
  Cu  Cu38  1  0.68569700  0.84284900  0.04913000  1
  Cu  Cu39  1  0.84284900  0.68569700  0.54913000  1
  Cu  Cu40  1  0.31430300  0.15715100  0.95087000  1
  Cu  Cu41  1  0.15715100  0.31430300  0.45087000  1
  Cu  Cu42  1  0.15715100  0.84284900  0.04913000  1
  Cu  Cu43  1  0.31430300  0.15715100  0.54913000  1
  Cu  Cu44  1  0.84284900  0.15715100  0.95087000  1
  Cu  Cu45  1  0.68569700  0.84284900  0.45087000  1
  Cu  Cu46  1  0.84284900  0.15715100  0.54913000  1
  Cu  Cu47  1  0.15715100  0.84284900  0.45087000  1
  Cu  Cu48  1  0.33333300  0.66666700  0.55530100  1
  Cu  Cu49  1  0.66666700  0.33333300  0.44469900  1
  Cu  Cu50  1  0.66666700  0.33333300  0.05530100  1
  Cu  Cu51  1  0.33333300  0.66666700  0.94469900  1
  Cu  Cu52  1  0.33333300  0.66666700  0.25000000  1
  Cu  Cu53  1  0.66666700  0.33333300  0.75000000  1
  Cu  Cu54  1  0.00000000  0.00000000  0.13995100  1
  Cu  Cu55  1  0.00000000  0.00000000  0.86004900  1
  Cu  Cu56  1  0.00000000  0.00000000  0.63995100  1
  Cu  Cu57  1  0.00000000  0.00000000  0.36004900  1
