# generated using pymatgen
data_Cu5Ni2C25
_symmetry_space_group_name_H-M   'P 1'
_cell_length_a   5.93267203
_cell_length_b   5.93267203
_cell_length_c   10.34420895
_cell_angle_alpha   71.16282156
_cell_angle_beta   71.16282156
_cell_angle_gamma   58.06287299
_symmetry_Int_Tables_number   1
_chemical_formula_structural   Cu5Ni2C25
_chemical_formula_sum   'Cu5 Ni2 C25'
_cell_volume   287.13134735
_cell_formula_units_Z   1
loop_
 _symmetry_equiv_pos_site_id
 _symmetry_equiv_pos_as_xyz
  1  'x, y, z'
loop_
 _atom_site_type_symbol
 _atom_site_label
 _atom_site_symmetry_multiplicity
 _atom_site_fract_x
 _atom_site_fract_y
 _atom_site_fract_z
 _atom_site_occupancy
  C  C0  1  0.50490800  0.50490800  0.99518700  1
  C  C1  1  0.00710200  0.00710200  0.99179700  1
  C  C2  1  0.74756200  0.24721100  0.26001700  1
  C  C3  1  0.24721100  0.74756200  0.26001700  1
  C  C4  1  0.99779000  0.99779000  0.50512100  1
  C  C5  1  0.49741700  0.49741700  0.50929200  1
  C  C6  1  0.25188900  0.74789700  0.73648400  1
  C  C7  1  0.74789700  0.25188900  0.73648400  1
  C  C8  1  0.24999200  0.24999200  0.74692400  1
  Ni  Ni9  1  0.99987500  0.50083200  0.99696500  1
  Ni  Ni10  1  0.50083200  0.99987500  0.99696500  1
  Cu  Cu11  1  0.24820700  0.24820700  0.25833900  1
  Cu  Cu12  1  0.74875700  0.74875700  0.25107500  1
  Cu  Cu13  1  0.50171200  0.00131000  0.50749100  1
  Cu  Cu14  1  0.00131000  0.50171200  0.50749100  1
  Cu  Cu15  1  0.75229900  0.75229900  0.74947100  1
  C  C16  1  0.36704600  0.36704600  0.89370400  1
  C  C17  1  0.87033900  0.87033900  0.89130400  1
  C  C18  1  0.60813800  0.09742900  0.12765100  1
  C  C19  1  0.09742900  0.60813800  0.12765100  1
  C  C20  1  0.86394700  0.86394700  0.37970500  1
  C  C21  1  0.36739300  0.36739300  0.37213100  1
  C  C22  1  0.09573600  0.62840700  0.62774400  1
  C  C23  1  0.62840700  0.09573600  0.62774400  1
  C  C24  1  0.63549300  0.63549300  0.11054300  1
  C  C25  1  0.13518200  0.13518200  0.10964500  1
  C  C26  1  0.87866000  0.39349800  0.36426400  1
  C  C27  1  0.39349800  0.87866000  0.36426400  1
  C  C28  1  0.13307700  0.13307700  0.61162800  1
  C  C29  1  0.62547000  0.62547000  0.62524700  1
  C  C30  1  0.40918600  0.88623900  0.87882700  1
  C  C31  1  0.88623900  0.40918600  0.87882700  1
