# generated using pymatgen
data_CuNi9C4
_symmetry_space_group_name_H-M   'P 1'
_cell_length_a   7.49193876
_cell_length_b   7.49193876
_cell_length_c   8.53472421
_cell_angle_alpha   77.40816658
_cell_angle_beta   77.40816658
_cell_angle_gamma   120.01314643
_symmetry_Int_Tables_number   1
_chemical_formula_structural   CuNi9C4
_chemical_formula_sum   'Cu2 Ni18 C8'
_cell_volume   373.28933920
_cell_formula_units_Z   2
loop_
 _symmetry_equiv_pos_site_id
 _symmetry_equiv_pos_as_xyz
  1  'x, y, z'
loop_
 _atom_site_type_symbol
 _atom_site_label
 _atom_site_symmetry_multiplicity
 _atom_site_fract_x
 _atom_site_fract_y
 _atom_site_fract_z
 _atom_site_occupancy
  C  C0  1  0.05473800  0.80393600  0.50009000  1
  C  C1  1  0.80393600  0.05473800  0.00009000  1
  C  C2  1  0.48336700  0.23271000  0.48730200  1
  C  C3  1  0.23271000  0.48336700  0.98730200  1
  C  C4  1  0.74001400  0.48960300  0.97245800  1
  C  C5  1  0.22704700  0.97816100  0.99526200  1
  C  C6  1  0.48960300  0.74001400  0.47245800  1
  C  C7  1  0.97816100  0.22704700  0.49526200  1
  Ni  Ni8  1  0.92952300  0.38756100  0.00200800  1
  Ni  Ni9  1  0.13391100  0.17560300  0.00949100  1
  Ni  Ni10  1  0.38756100  0.92952300  0.50200800  1
  Ni  Ni11  1  0.17560300  0.13391100  0.50949100  1
  Ni  Ni12  1  0.75396100  0.93164600  0.51050200  1
  Ni  Ni13  1  0.18562300  0.50720800  0.50160700  1
  Ni  Ni14  1  0.93164600  0.75396100  0.01050200  1
  Ni  Ni15  1  0.50720800  0.18562300  0.00160700  1
  Ni  Ni16  1  0.59523500  0.34316300  0.25188500  1
  Ni  Ni17  1  0.34066100  0.09172800  0.75645900  1
  Ni  Ni18  1  0.34316300  0.59523500  0.75188500  1
  Ni  Ni19  1  0.09172800  0.34066100  0.25645900  1
  Ni  Ni20  1  0.75355000  0.28974300  0.51110800  1
  Ni  Ni21  1  0.54418300  0.50764500  0.50071200  1
  Ni  Ni22  1  0.28974300  0.75355000  0.01110800  1
  Ni  Ni23  1  0.50764500  0.54418300  0.00071200  1
  Ni  Ni24  1  0.85810100  0.60922400  0.74270600  1
  Ni  Ni25  1  0.60922400  0.85810100  0.24270600  1
  Cu  Cu26  1  0.10116200  0.84899100  0.25841100  1
  Cu  Cu27  1  0.84899100  0.10116200  0.75841100  1
