# generated using pymatgen
data_Cu(NiC2)3
_symmetry_space_group_name_H-M   'P 1'
_cell_length_a   6.65463800
_cell_length_b   6.40695400
_cell_length_c   11.10586046
_cell_angle_alpha   55.59270111
_cell_angle_beta   90.00000000
_cell_angle_gamma   90.00000000
_symmetry_Int_Tables_number   1
_chemical_formula_structural   Cu(NiC2)3
_chemical_formula_sum   'Cu2 Ni6 C12'
_cell_volume   390.66459965
_cell_formula_units_Z   2
loop_
 _symmetry_equiv_pos_site_id
 _symmetry_equiv_pos_as_xyz
  1  'x, y, z'
loop_
 _atom_site_type_symbol
 _atom_site_label
 _atom_site_symmetry_multiplicity
 _atom_site_fract_x
 _atom_site_fract_y
 _atom_site_fract_z
 _atom_site_occupancy
  Ni  Ni0  1  0.94891400  0.72726900  0.75673500  1
  Ni  Ni1  1  0.44891400  0.27273100  0.74326500  1
  Ni  Ni2  1  0.05108600  0.27273100  0.24326500  1
  Ni  Ni3  1  0.55108600  0.72726900  0.25673500  1
  Ni  Ni4  1  0.00000000  0.50000000  0.50000000  1
  Ni  Ni5  1  0.50000000  0.50000000  0.00000000  1
  Cu  Cu6  1  0.50000000  0.00000000  0.50000000  1
  Cu  Cu7  1  0.00000000  0.00000000  0.00000000  1
  C  C8  1  0.93741300  0.89376800  0.22277400  1
  C  C9  1  0.43741300  0.10623200  0.27722600  1
  C  C10  1  0.06258700  0.10623200  0.77722600  1
  C  C11  1  0.56258700  0.89376800  0.72277400  1
  C  C12  1  0.73082400  0.24386700  0.92522200  1
  C  C13  1  0.23082400  0.75613300  0.57477800  1
  C  C14  1  0.26917600  0.75613300  0.07477800  1
  C  C15  1  0.76917600  0.24386700  0.42522200  1
  C  C16  1  0.32331500  0.32883200  0.45048000  1
  C  C17  1  0.82331500  0.67116800  0.04952000  1
  C  C18  1  0.67668500  0.67116800  0.54952000  1
  C  C19  1  0.17668500  0.32883200  0.95048000  1
