# generated using pymatgen
data_CuNi3C16
_symmetry_space_group_name_H-M   'P 1'
_cell_length_a   6.02487800
_cell_length_b   6.06584109
_cell_length_c   8.56013544
_cell_angle_alpha   90.51217864
_cell_angle_beta   90.10952966
_cell_angle_gamma   90.30168584
_symmetry_Int_Tables_number   1
_chemical_formula_structural   CuNi3C16
_chemical_formula_sum   'Cu1 Ni3 C16'
_cell_volume   312.82086729
_cell_formula_units_Z   1
loop_
 _symmetry_equiv_pos_site_id
 _symmetry_equiv_pos_as_xyz
  1  'x, y, z'
loop_
 _atom_site_type_symbol
 _atom_site_label
 _atom_site_symmetry_multiplicity
 _atom_site_fract_x
 _atom_site_fract_y
 _atom_site_fract_z
 _atom_site_occupancy
  Ni  Ni0  1  0.75135900  0.74678000  0.50246900  1
  Ni  Ni1  1  0.25118500  0.24660100  0.00208600  1
  Ni  Ni2  1  0.24894000  0.25286700  0.49763400  1
  Cu  Cu3  1  0.74325900  0.75568100  0.99426600  1
  C  C4  1  0.75040100  0.24993700  0.75132400  1
  C  C5  1  0.24926900  0.74971900  0.24866600  1
  C  C6  1  0.74997800  0.24992400  0.24837900  1
  C  C7  1  0.25089600  0.74966700  0.75215900  1
  C  C8  1  0.22426200  0.72193600  0.52006700  1
  C  C9  1  0.72451900  0.21390200  0.01935600  1
  C  C10  1  0.00737800  0.04625200  0.24810900  1
  C  C11  1  0.51249300  0.54940700  0.75404200  1
  C  C12  1  0.77598500  0.27861000  0.48006500  1
  C  C13  1  0.28474800  0.77780700  0.98094100  1
  C  C14  1  0.98892300  0.95058900  0.75658000  1
  C  C15  1  0.49251200  0.45396800  0.25016600  1
  C  C16  1  0.45419600  0.00535200  0.72525400  1
  C  C17  1  0.94832300  0.50980400  0.21797000  1
  C  C18  1  0.54693200  0.99382500  0.27309600  1
  C  C19  1  0.04444200  0.49737100  0.77736900  1
