# generated using pymatgen
data_CuNiC6
_symmetry_space_group_name_H-M   'P 1'
_cell_length_a   7.60548500
_cell_length_b   10.96698800
_cell_length_c   12.49996400
_cell_angle_alpha   90.00000000
_cell_angle_beta   90.00000000
_cell_angle_gamma   90.00000000
_symmetry_Int_Tables_number   1
_chemical_formula_structural   CuNiC6
_chemical_formula_sum   'Cu8 Ni8 C48'
_cell_volume   1042.61278138
_cell_formula_units_Z   8
loop_
 _symmetry_equiv_pos_site_id
 _symmetry_equiv_pos_as_xyz
  1  'x, y, z'
loop_
 _atom_site_type_symbol
 _atom_site_label
 _atom_site_symmetry_multiplicity
 _atom_site_fract_x
 _atom_site_fract_y
 _atom_site_fract_z
 _atom_site_occupancy
  Ni  Ni0  1  0.80736400  0.70448200  0.62705800  1
  Ni  Ni1  1  0.19263600  0.29551800  0.37294200  1
  Ni  Ni2  1  0.69263600  0.20448200  0.37294200  1
  Ni  Ni3  1  0.19263600  0.79551800  0.12705800  1
  Ni  Ni4  1  0.30736400  0.79551800  0.62705800  1
  Ni  Ni5  1  0.80736400  0.20448200  0.87294200  1
  Ni  Ni6  1  0.30736400  0.29551800  0.87294200  1
  Ni  Ni7  1  0.69263600  0.70448200  0.12705800  1
  Cu  Cu8  1  0.99517300  0.91808000  0.82726400  1
  Cu  Cu9  1  0.00482800  0.08192000  0.17273600  1
  Cu  Cu10  1  0.50482700  0.41808000  0.17273600  1
  Cu  Cu11  1  0.00482800  0.58192000  0.32726400  1
  Cu  Cu12  1  0.49517300  0.58192000  0.82726400  1
  Cu  Cu13  1  0.99517300  0.41808000  0.67273600  1
  Cu  Cu14  1  0.49517300  0.08192000  0.67273600  1
  Cu  Cu15  1  0.50482700  0.91808000  0.32726400  1
  C  C16  1  0.56069300  0.87907600  0.87656800  1
  C  C17  1  0.43930700  0.12092400  0.12343200  1
  C  C18  1  0.93930700  0.37907600  0.12343200  1
  C  C19  1  0.43930700  0.62092400  0.37656800  1
  C  C20  1  0.06069300  0.62092400  0.87656800  1
  C  C21  1  0.56069300  0.37907600  0.62343200  1
  C  C22  1  0.06069300  0.12092400  0.62343200  1
  C  C23  1  0.93930700  0.87907600  0.37656800  1
  C  C24  1  0.77610500  0.93961000  0.90543200  1
  C  C25  1  0.22389500  0.06039000  0.09456800  1
  C  C26  1  0.72389500  0.43961000  0.09456800  1
  C  C27  1  0.22389500  0.56039000  0.40543200  1
  C  C28  1  0.27610500  0.56039000  0.90543200  1
  C  C29  1  0.77610500  0.43961000  0.59456800  1
  C  C30  1  0.27610500  0.06039000  0.59456800  1
  C  C31  1  0.72389500  0.93961000  0.40543200  1
  C  C32  1  0.96199900  0.66785200  0.99795800  1
  C  C33  1  0.03800100  0.33214800  0.00204200  1
  C  C34  1  0.53800100  0.16785200  0.00204200  1
  C  C35  1  0.03800100  0.83214800  0.49795800  1
  C  C36  1  0.46199900  0.83214800  0.99795800  1
  C  C37  1  0.96199900  0.16785200  0.50204200  1
  C  C38  1  0.46199900  0.33214800  0.50204200  1
  C  C39  1  0.53800100  0.66785200  0.49795800  1
  C  C40  1  0.92548600  0.51051000  0.80489900  1
  C  C41  1  0.07451400  0.48949000  0.19510100  1
  C  C42  1  0.57451400  0.01051000  0.19510100  1
  C  C43  1  0.07451400  0.98949000  0.30489900  1
  C  C44  1  0.42548600  0.98949000  0.80489900  1
  C  C45  1  0.92548600  0.01051000  0.69510100  1
  C  C46  1  0.42548600  0.48949000  0.69510100  1
  C  C47  1  0.57451400  0.51051000  0.30489900  1
  C  C48  1  0.66554700  0.95065700  0.61091600  1
  C  C49  1  0.33445300  0.04934300  0.38908400  1
  C  C50  1  0.83445300  0.45065700  0.38908400  1
  C  C51  1  0.33445300  0.54934300  0.11091600  1
  C  C52  1  0.16554700  0.54934300  0.61091600  1
  C  C53  1  0.66554700  0.45065700  0.88908400  1
  C  C54  1  0.16554700  0.04934300  0.88908400  1
  C  C55  1  0.83445300  0.95065700  0.11091600  1
  C  C56  1  0.57929100  0.74617000  0.79210800  1
  C  C57  1  0.42070900  0.25383000  0.20789200  1
  C  C58  1  0.92070900  0.24617000  0.20789200  1
  C  C59  1  0.42070900  0.75383000  0.29210800  1
  C  C60  1  0.07929100  0.75383000  0.79210800  1
  C  C61  1  0.57929100  0.24617000  0.70789200  1
  C  C62  1  0.07929100  0.25383000  0.70789200  1
  C  C63  1  0.92070900  0.74617000  0.29210800  1
