# generated using pymatgen
data_Cu5NiC3
_symmetry_space_group_name_H-M   'P 1'
_cell_length_a   9.02040039
_cell_length_b   9.02040100
_cell_length_c   11.78356955
_cell_angle_alpha   67.49566768
_cell_angle_beta   67.49566886
_cell_angle_gamma   60.00000142
_symmetry_Int_Tables_number   1
_chemical_formula_structural   Cu5NiC3
_chemical_formula_sum   'Cu15 Ni3 C9'
_cell_volume   744.84712451
_cell_formula_units_Z   3
loop_
 _symmetry_equiv_pos_site_id
 _symmetry_equiv_pos_as_xyz
  1  'x, y, z'
loop_
 _atom_site_type_symbol
 _atom_site_label
 _atom_site_symmetry_multiplicity
 _atom_site_fract_x
 _atom_site_fract_y
 _atom_site_fract_z
 _atom_site_occupancy
  C  C0  1  0.50499400  0.99386500  0.99614700  1
  C  C1  1  0.99386500  0.50499400  0.99614700  1
  C  C2  1  0.50499400  0.50499400  0.99614700  1
  C  C3  1  0.30120800  0.73341800  0.66416600  1
  C  C4  1  0.73341800  0.30120800  0.66416600  1
  C  C5  1  0.30120800  0.30120800  0.66416600  1
  C  C6  1  0.70165200  0.27106000  0.32563600  1
  C  C7  1  0.27106000  0.70165200  0.32563600  1
  C  C8  1  0.70165200  0.70165200  0.32563600  1
  Ni  Ni9  1  0.00792500  0.00792500  0.97622400  1
  Ni  Ni10  1  0.22281400  0.22281400  0.33155900  1
  Ni  Ni11  1  0.78838900  0.78838900  0.63483400  1
  Cu  Cu12  1  0.08466900  0.08466900  0.74599300  1
  Cu  Cu13  1  0.29805100  0.29805100  0.10584700  1
  Cu  Cu14  1  0.86515800  0.86515800  0.40452600  1
  Cu  Cu15  1  0.38842200  0.38842200  0.83473500  1
  Cu  Cu16  1  0.50048400  0.50048400  0.49854700  1
  Cu  Cu17  1  0.61623500  0.61623500  0.15129400  1
  Cu  Cu18  1  0.83600600  0.26911400  0.05887300  1
  Cu  Cu19  1  0.26911400  0.83600600  0.05887300  1
  Cu  Cu20  1  0.83600600  0.83600600  0.05887300  1
  Cu  Cu21  1  0.34236800  0.90864500  0.40661800  1
  Cu  Cu22  1  0.90864500  0.34236800  0.40661800  1
  Cu  Cu23  1  0.34236800  0.34236800  0.40661800  1
  Cu  Cu24  1  0.61648600  0.03832300  0.72870600  1
  Cu  Cu25  1  0.03832300  0.61648600  0.72870600  1
  Cu  Cu26  1  0.61648600  0.61648600  0.72870600  1
