# generated using pymatgen
data_CuNi3C
_symmetry_space_group_name_H-M   'P 1'
_cell_length_a   15.10865171
_cell_length_b   17.59610577
_cell_length_c   17.73386052
_cell_angle_alpha   90.00000000
_cell_angle_beta   90.00000000
_cell_angle_gamma   92.85933458
_symmetry_Int_Tables_number   1
_chemical_formula_structural   CuNi3C
_chemical_formula_sum   'Cu32 Ni96 C32'
_cell_volume   4708.73808644
_cell_formula_units_Z   32
loop_
 _symmetry_equiv_pos_site_id
 _symmetry_equiv_pos_as_xyz
  1  'x, y, z'
loop_
 _atom_site_type_symbol
 _atom_site_label
 _atom_site_symmetry_multiplicity
 _atom_site_fract_x
 _atom_site_fract_y
 _atom_site_fract_z
 _atom_site_occupancy
  C  C0  1  0.04106843  0.34985831  0.50608526  1
  C  C1  1  0.45893157  0.65014169  0.00608526  1
  C  C2  1  0.95893157  0.65014169  0.49391474  1
  C  C3  1  0.54106843  0.34985831  0.99391474  1
  C  C4  1  0.87276308  0.46453114  0.39031308  1
  C  C5  1  0.62723692  0.53546886  0.89031308  1
  C  C6  1  0.12723692  0.53546886  0.60968692  1
  C  C7  1  0.37276308  0.46453114  0.10968692  1
  C  C8  1  0.06317931  0.14896181  0.98663331  1
  C  C9  1  0.43682069  0.85103819  0.48663331  1
  C  C10  1  0.93682069  0.85103819  0.01336669  1
  C  C11  1  0.56317931  0.14896181  0.51336669  1
  C  C12  1  0.84749839  0.04848494  0.06863042  1
  C  C13  1  0.65250161  0.95151506  0.56863042  1
  C  C14  1  0.15250161  0.95151506  0.93136958  1
  C  C15  1  0.34749839  0.04848494  0.43136958  1
  C  C16  1  0.96345594  0.18083345  0.38913827  1
  C  C17  1  0.53654406  0.81916655  0.88913827  1
  C  C18  1  0.03654406  0.81916655  0.61086173  1
  C  C19  1  0.46345594  0.18083345  0.11086173  1
  C  C20  1  0.76247918  0.60228243  0.26760397  1
  C  C21  1  0.73752082  0.39771757  0.76760397  1
  C  C22  1  0.23752082  0.39771757  0.73239603  1
  C  C23  1  0.26247918  0.60228243  0.23239603  1
  C  C24  1  0.97835160  0.33850501  0.03819984  1
  C  C25  1  0.52164840  0.66149499  0.53819984  1
  C  C26  1  0.02164840  0.66149499  0.96180016  1
  C  C27  1  0.47835160  0.33850501  0.46180016  1
  C  C28  1  0.68137447  0.93559186  0.18339452  1
  C  C29  1  0.81862553  0.06440814  0.68339452  1
  C  C30  1  0.31862553  0.06440814  0.81660548  1
  C  C31  1  0.18137447  0.93559186  0.31660548  1
  Ni  Ni32  1  0.92342480  0.31912909  0.58966174  1
  Ni  Ni33  1  0.57657520  0.68087091  0.08966174  1
  Ni  Ni34  1  0.07657520  0.68087091  0.41033826  1
  Ni  Ni35  1  0.42342480  0.31912909  0.91033826  1
  Ni  Ni36  1  0.13021719  0.36264316  0.39602025  1
  Ni  Ni37  1  0.36978281  0.63735684  0.89602025  1
  Ni  Ni38  1  0.86978281  0.63735684  0.60397975  1
  Ni  Ni39  1  0.63021719  0.36264316  0.10397975  1
  Ni  Ni40  1  0.13360280  0.26134179  0.56085437  1
  Ni  Ni41  1  0.36639720  0.73865821  0.06085437  1
  Ni  Ni42  1  0.86639720  0.73865821  0.43914563  1
  Ni  Ni43  1  0.63360280  0.26134179  0.93914563  1
  Ni  Ni44  1  0.01018745  0.19868137  0.28570440  1
  Ni  Ni45  1  0.48981255  0.80131863  0.78570440  1
  Ni  Ni46  1  0.98981255  0.80131863  0.71429560  1
  Ni  Ni47  1  0.51018745  0.19868137  0.21429560  1
  Ni  Ni48  1  0.83630160  0.15001805  0.37767040  1
  Ni  Ni49  1  0.66369840  0.84998195  0.87767040  1
  Ni  Ni50  1  0.16369840  0.84998195  0.62232960  1
  Ni  Ni51  1  0.33630160  0.15001805  0.12232960  1
  Ni  Ni52  1  0.02123517  0.08857398  0.42700683  1
  Ni  Ni53  1  0.47876483  0.91142602  0.92700683  1
  Ni  Ni54  1  0.97876483  0.91142602  0.57299317  1
  Ni  Ni55  1  0.52123517  0.08857398  0.07299317  1
  Ni  Ni56  1  0.97355387  0.50167044  0.29272725  1
  Ni  Ni57  1  0.52644613  0.49832956  0.79272725  1
  Ni  Ni58  1  0.02644613  0.49832956  0.70727275  1
  Ni  Ni59  1  0.47355387  0.50167044  0.20727275  1
  Ni  Ni60  1  0.75475722  0.46238720  0.47802904  1
  Ni  Ni61  1  0.74524278  0.53761280  0.97802904  1
  Ni  Ni62  1  0.24524278  0.53761280  0.52197096  1
  Ni  Ni63  1  0.25475722  0.46238720  0.02197096  1
  Ni  Ni64  1  0.79931996  0.37329784  0.31286787  1
  Ni  Ni65  1  0.70068004  0.62670216  0.81286787  1
  Ni  Ni66  1  0.20068004  0.62670216  0.68713213  1
  Ni  Ni67  1  0.29931996  0.37329784  0.18713213  1
  Ni  Ni68  1  0.85889859  0.67692026  0.23593944  1
  Ni  Ni69  1  0.64110141  0.32307974  0.73593944  1
  Ni  Ni70  1  0.14110141  0.32307974  0.76406056  1
  Ni  Ni71  1  0.35889859  0.67692026  0.26406056  1
  Ni  Ni72  1  0.65956792  0.66436054  0.29196517  1
  Ni  Ni73  1  0.84043208  0.33563946  0.79196517  1
  Ni  Ni74  1  0.34043208  0.33563946  0.70803483  1
  Ni  Ni75  1  0.15956792  0.66436054  0.20803483  1
  Ni  Ni76  1  0.72954499  0.54411076  0.17540859  1
  Ni  Ni77  1  0.77045501  0.45588924  0.67540859  1
  Ni  Ni78  1  0.27045501  0.45588924  0.82459141  1
  Ni  Ni79  1  0.22954499  0.54411076  0.32459141  1
  Ni  Ni80  1  0.98680959  0.17096432  0.87256700  1
  Ni  Ni81  1  0.51319041  0.82903568  0.37256700  1
  Ni  Ni82  1  0.01319041  0.82903568  0.12743300  1
  Ni  Ni83  1  0.48680959  0.17096432  0.62743300  1
  Ni  Ni84  1  0.10686053  0.15168608  0.11580880  1
  Ni  Ni85  1  0.39313947  0.84831392  0.61580880  1
  Ni  Ni86  1  0.89313947  0.84831392  0.88419120  1
  Ni  Ni87  1  0.60686053  0.15168608  0.38419120  1
  Ni  Ni88  1  0.18231504  0.23324190  0.95448169  1
  Ni  Ni89  1  0.31768496  0.76675810  0.45448169  1
  Ni  Ni90  1  0.81768496  0.76675810  0.04551831  1
  Ni  Ni91  1  0.68231504  0.23324190  0.54551831  1
  Ni  Ni92  1  0.01507791  0.40369393  0.95022092  1
  Ni  Ni93  1  0.48492209  0.59630607  0.45022092  1
  Ni  Ni94  1  0.98492209  0.59630607  0.04977908  1
  Ni  Ni95  1  0.51507791  0.40369393  0.54977908  1
  Ni  Ni96  1  0.85337805  0.36061207  0.05884369  1
  Ni  Ni97  1  0.64662195  0.63938793  0.55884369  1
  Ni  Ni98  1  0.14662195  0.63938793  0.94115631  1
  Ni  Ni99  1  0.35337805  0.36061207  0.44115631  1
  Ni  Ni100  1  0.04746935  0.37898221  0.12602288  1
  Ni  Ni101  1  0.45253065  0.62101779  0.62602288  1
  Ni  Ni102  1  0.95253065  0.62101779  0.87397712  1
  Ni  Ni103  1  0.54746935  0.37898221  0.37397712  1
  Ni  Ni104  1  0.90990645  0.02173735  0.18778202  1
  Ni  Ni105  1  0.59009355  0.97826265  0.68778202  1
  Ni  Ni106  1  0.09009355  0.97826265  0.81221798  1
  Ni  Ni107  1  0.40990645  0.02173735  0.31221798  1
  Ni  Ni108  1  0.75821363  0.04031271  0.95963578  1
  Ni  Ni109  1  0.74178637  0.95968729  0.45963578  1
  Ni  Ni110  1  0.24178637  0.95968729  0.04036422  1
  Ni  Ni111  1  0.25821363  0.04031271  0.54036422  1
  Ni  Ni112  1  0.77552250  0.15229414  0.11750821  1
  Ni  Ni113  1  0.72447750  0.84770586  0.61750821  1
  Ni  Ni114  1  0.22447750  0.84770586  0.88249179  1
  Ni  Ni115  1  0.27552250  0.15229414  0.38249179  1
  Ni  Ni116  1  0.64794098  0.00768082  0.26322088  1
  Ni  Ni117  1  0.85205902  0.99231918  0.76322088  1
  Ni  Ni118  1  0.35205902  0.99231918  0.73677912  1
  Ni  Ni119  1  0.14794098  0.00768082  0.23677912  1
  Ni  Ni120  1  0.75102859  0.85854639  0.23602444  1
  Ni  Ni121  1  0.74897141  0.14145361  0.73602444  1
  Ni  Ni122  1  0.24897141  0.14145361  0.76397556  1
  Ni  Ni123  1  0.25102859  0.85854639  0.26397556  1
  Ni  Ni124  1  0.56878097  0.88072996  0.15218061  1
  Ni  Ni125  1  0.93121903  0.11927004  0.65218061  1
  Ni  Ni126  1  0.43121903  0.11927004  0.84781939  1
  Ni  Ni127  1  0.06878097  0.88072996  0.34781939  1
  Cu  Cu128  1  0.97833922  0.24652997  0.44067251  1
  Cu  Cu129  1  0.52166078  0.75347003  0.94067251  1
  Cu  Cu130  1  0.02166078  0.75347003  0.55932749  1
  Cu  Cu131  1  0.47833922  0.24652997  0.05932749  1
  Cu  Cu132  1  0.78573188  0.55392370  0.33251030  1
  Cu  Cu133  1  0.71426812  0.44607630  0.83251030  1
  Cu  Cu134  1  0.21426812  0.44607630  0.66748970  1
  Cu  Cu135  1  0.28573188  0.55392370  0.16748970  1
  Cu  Cu136  1  0.91639055  0.56549049  0.44515812  1
  Cu  Cu137  1  0.58360945  0.43450951  0.94515812  1
  Cu  Cu138  1  0.08360945  0.43450951  0.55484188  1
  Cu  Cu139  1  0.41639055  0.56549049  0.05484188  1
  Cu  Cu140  1  0.94595059  0.40443354  0.44145655  1
  Cu  Cu141  1  0.55404941  0.59556646  0.94145655  1
  Cu  Cu142  1  0.05404941  0.59556646  0.55854345  1
  Cu  Cu143  1  0.44595059  0.40443354  0.05854345  1
  Cu  Cu144  1  0.99001302  0.25662055  0.02370842  1
  Cu  Cu145  1  0.50998698  0.74337945  0.52370842  1
  Cu  Cu146  1  0.00998698  0.74337945  0.97629158  1
  Cu  Cu147  1  0.49001302  0.25662055  0.47629158  1
  Cu  Cu148  1  0.72752134  0.97195956  0.11767151  1
  Cu  Cu149  1  0.77247866  0.02804044  0.61767151  1
  Cu  Cu150  1  0.27247866  0.02804044  0.88232849  1
  Cu  Cu151  1  0.22752134  0.97195956  0.38232849  1
  Cu  Cu152  1  0.88816393  0.93910901  0.03956913  1
  Cu  Cu153  1  0.61183607  0.06089099  0.53956913  1
  Cu  Cu154  1  0.11183607  0.06089099  0.96043087  1
  Cu  Cu155  1  0.38816393  0.93910901  0.46043087  1
  Cu  Cu156  1  0.94376434  0.09849527  0.02741500  1
  Cu  Cu157  1  0.55623566  0.90150473  0.52741500  1
  Cu  Cu158  1  0.05623566  0.90150473  0.97258500  1
  Cu  Cu159  1  0.44376434  0.09849527  0.47258500  1
