# generated using pymatgen
data_Cu4NiC4
_symmetry_space_group_name_H-M   'P 1'
_cell_length_a   8.77234447
_cell_length_b   8.77234447
_cell_length_c   7.83423229
_cell_angle_alpha   72.76142673
_cell_angle_beta   72.76142673
_cell_angle_gamma   83.52405367
_symmetry_Int_Tables_number   1
_chemical_formula_structural   Cu4NiC4
_chemical_formula_sum   'Cu8 Ni2 C8'
_cell_volume   549.72283211
_cell_formula_units_Z   2
loop_
 _symmetry_equiv_pos_site_id
 _symmetry_equiv_pos_as_xyz
  1  'x, y, z'
loop_
 _atom_site_type_symbol
 _atom_site_label
 _atom_site_symmetry_multiplicity
 _atom_site_fract_x
 _atom_site_fract_y
 _atom_site_fract_z
 _atom_site_occupancy
  C  C0  1  0.20502900  0.19977600  0.91953900  1
  C  C1  1  0.19977600  0.20502900  0.41953900  1
  C  C2  1  0.03655800  0.58639400  0.94474900  1
  C  C3  1  0.58639400  0.03655800  0.44474900  1
  C  C4  1  0.73255400  0.01020100  0.91062300  1
  C  C5  1  0.01020100  0.73255400  0.41062300  1
  C  C6  1  0.63566400  0.42014300  0.98118700  1
  C  C7  1  0.42014300  0.63566400  0.48118700  1
  Ni  Ni8  1  0.79885300  0.37580500  0.46341300  1
  Ni  Ni9  1  0.37580500  0.79885300  0.96341300  1
  Cu  Cu10  1  0.20416500  0.91125900  0.79665000  1
  Cu  Cu11  1  0.91125900  0.20416500  0.29665000  1
  Cu  Cu12  1  0.61944400  0.76449500  0.77598500  1
  Cu  Cu13  1  0.76449500  0.61944400  0.27598500  1
  Cu  Cu14  1  0.56079400  0.28468000  0.65262800  1
  Cu  Cu15  1  0.28468000  0.56079400  0.15262800  1
  Cu  Cu16  1  0.95142600  0.39115900  0.64192600  1
  Cu  Cu17  1  0.39115900  0.95142600  0.14192600  1
