# generated using pymatgen
data_Cu19Ni3C5
_symmetry_space_group_name_H-M   'P 1'
_cell_length_a   8.74631642
_cell_length_b   12.89346037
_cell_length_c   27.55663733
_cell_angle_alpha   90.00000000
_cell_angle_beta   90.00000000
_cell_angle_gamma   90.00000000
_symmetry_Int_Tables_number   1
_chemical_formula_structural   Cu19Ni3C5
_chemical_formula_sum   'Cu76 Ni12 C20'
_cell_volume   3107.56982178
_cell_formula_units_Z   4
loop_
 _symmetry_equiv_pos_site_id
 _symmetry_equiv_pos_as_xyz
  1  'x, y, z'
loop_
 _atom_site_type_symbol
 _atom_site_label
 _atom_site_symmetry_multiplicity
 _atom_site_fract_x
 _atom_site_fract_y
 _atom_site_fract_z
 _atom_site_occupancy
  C  C0  1  0.45702407  0.59823689  0.51939849  1
  C  C1  1  0.54297593  0.40176311  0.01939849  1
  C  C2  1  0.54297593  0.09823689  0.51939849  1
  C  C3  1  0.45702407  0.90176311  0.01939849  1
  C  C4  1  0.33161151  0.38183495  0.68785320  1
  C  C5  1  0.66838849  0.61816505  0.18785320  1
  C  C6  1  0.33109150  0.11680265  0.31298466  1
  C  C7  1  0.66890850  0.88319735  0.81298466  1
  C  C8  1  0.66890850  0.61680265  0.31298466  1
  C  C9  1  0.33109150  0.38319735  0.81298466  1
  C  C10  1  0.66838849  0.88183495  0.68785320  1
  C  C11  1  0.33161151  0.11816505  0.18785320  1
  C  C12  1  0.02577661  0.34179232  0.61226694  1
  C  C13  1  0.97422339  0.65820768  0.11226694  1
  C  C14  1  0.02542126  0.15923843  0.38782220  1
  C  C15  1  0.97457874  0.84076157  0.88782220  1
  C  C16  1  0.97457874  0.65923843  0.38782220  1
  C  C17  1  0.02542126  0.34076157  0.88782220  1
  C  C18  1  0.97422339  0.84179232  0.61226694  1
  C  C19  1  0.02577661  0.15820768  0.11226694  1
  Ni  Ni20  1  0.03473231  0.25037464  0.49954127  1
  Ni  Ni21  1  0.96526769  0.74962536  0.99954127  1
  Ni  Ni22  1  0.96526769  0.75037464  0.49954127  1
  Ni  Ni23  1  0.03473231  0.24962536  0.99954127  1
  Ni  Ni24  1  0.33040415  0.89698765  0.63894258  1
  Ni  Ni25  1  0.66959585  0.10301235  0.13894258  1
  Ni  Ni26  1  0.33123125  0.60305116  0.36101644  1
  Ni  Ni27  1  0.66876875  0.39694884  0.86101644  1
  Ni  Ni28  1  0.66876875  0.10305116  0.36101644  1
  Ni  Ni29  1  0.33123125  0.89694884  0.86101644  1
  Ni  Ni30  1  0.66959585  0.39698765  0.63894258  1
  Ni  Ni31  1  0.33040415  0.60301235  0.13894258  1
  Cu  Cu32  1  0.55469626  0.50307532  0.68115513  1
  Cu  Cu33  1  0.44530374  0.49692468  0.18115513  1
  Cu  Cu34  1  0.55522889  0.99706534  0.31846377  1
  Cu  Cu35  1  0.44477111  0.00293466  0.81846377  1
  Cu  Cu36  1  0.44477111  0.49706534  0.31846377  1
  Cu  Cu37  1  0.55522889  0.50293466  0.81846377  1
  Cu  Cu38  1  0.44530374  0.00307532  0.68115513  1
  Cu  Cu39  1  0.55469626  0.99692468  0.18115513  1
  Cu  Cu40  1  0.17141392  0.22978138  0.65770699  1
  Cu  Cu41  1  0.82858608  0.77021862  0.15770699  1
  Cu  Cu42  1  0.17183605  0.27020324  0.34220293  1
  Cu  Cu43  1  0.82816395  0.72979676  0.84220293  1
  Cu  Cu44  1  0.82816395  0.77020324  0.34220293  1
  Cu  Cu45  1  0.17183605  0.22979676  0.84220293  1
  Cu  Cu46  1  0.82858608  0.72978138  0.65770699  1
  Cu  Cu47  1  0.17141392  0.27021862  0.15770699  1
  Cu  Cu48  1  0.43823148  0.27586058  0.74995624  1
  Cu  Cu49  1  0.56176852  0.72413942  0.24995624  1
  Cu  Cu50  1  0.43823148  0.22413942  0.24995624  1
  Cu  Cu51  1  0.56176852  0.77586058  0.74995624  1
  Cu  Cu52  1  0.48537544  0.30274507  0.62113798  1
  Cu  Cu53  1  0.51462456  0.69725493  0.12113798  1
  Cu  Cu54  1  0.48568244  0.19781387  0.37885468  1
  Cu  Cu55  1  0.51431756  0.80218613  0.87885468  1
  Cu  Cu56  1  0.51431756  0.69781387  0.37885468  1
  Cu  Cu57  1  0.48568244  0.30218613  0.87885468  1
  Cu  Cu58  1  0.51462456  0.80274507  0.62113798  1
  Cu  Cu59  1  0.48537544  0.19725493  0.12113798  1
  Cu  Cu60  1  0.91384221  0.19788650  0.55850480  1
  Cu  Cu61  1  0.08615779  0.80211350  0.05850480  1
  Cu  Cu62  1  0.91136939  0.30217853  0.44150377  1
  Cu  Cu63  1  0.08863061  0.69782147  0.94150377  1
  Cu  Cu64  1  0.08863061  0.80217853  0.44150377  1
  Cu  Cu65  1  0.91136939  0.19782147  0.94150377  1
  Cu  Cu66  1  0.08615779  0.69788650  0.55850480  1
  Cu  Cu67  1  0.91384221  0.30211350  0.05850480  1
  Cu  Cu68  1  0.17176915  0.80630022  0.67455844  1
  Cu  Cu69  1  0.82823085  0.19369978  0.17455844  1
  Cu  Cu70  1  0.17149217  0.69332378  0.32544594  1
  Cu  Cu71  1  0.82850783  0.30667622  0.82544594  1
  Cu  Cu72  1  0.82850783  0.19332378  0.32544594  1
  Cu  Cu73  1  0.17149217  0.80667622  0.82544594  1
  Cu  Cu74  1  0.82823085  0.30630022  0.67455844  1
  Cu  Cu75  1  0.17176915  0.69369978  0.17455844  1
  Cu  Cu76  1  0.15756444  0.36848197  0.53194559  1
  Cu  Cu77  1  0.84243556  0.63151803  0.03194559  1
  Cu  Cu78  1  0.15660452  0.13067333  0.46837287  1
  Cu  Cu79  1  0.84339548  0.86932667  0.96837287  1
  Cu  Cu80  1  0.84339548  0.63067333  0.46837287  1
  Cu  Cu81  1  0.15660452  0.36932667  0.96837287  1
  Cu  Cu82  1  0.84243556  0.86848197  0.53194559  1
  Cu  Cu83  1  0.15756444  0.13151803  0.03194559  1
  Cu  Cu84  1  0.11586199  0.40903062  0.75005083  1
  Cu  Cu85  1  0.88413801  0.59096938  0.25005083  1
  Cu  Cu86  1  0.11586199  0.09096938  0.25005083  1
  Cu  Cu87  1  0.88413801  0.90903062  0.75005083  1
  Cu  Cu88  1  0.27601345  0.52426034  0.74993248  1
  Cu  Cu89  1  0.72398655  0.47573966  0.24993248  1
  Cu  Cu90  1  0.27601345  0.97573966  0.24993248  1
  Cu  Cu91  1  0.72398655  0.02426034  0.74993248  1
  Cu  Cu92  1  0.20677054  0.96206555  0.58483486  1
  Cu  Cu93  1  0.79322946  0.03793445  0.08483486  1
  Cu  Cu94  1  0.20609431  0.53782901  0.41498892  1
  Cu  Cu95  1  0.79390569  0.46217099  0.91498892  1
  Cu  Cu96  1  0.79390569  0.03782901  0.41498892  1
  Cu  Cu97  1  0.20609431  0.96217099  0.91498892  1
  Cu  Cu98  1  0.79322946  0.46206555  0.58483486  1
  Cu  Cu99  1  0.20677054  0.53793445  0.08483486  1
  Cu  Cu100  1  0.16335849  0.48974524  0.63450209  1
  Cu  Cu101  1  0.83664151  0.51025476  0.13450209  1
  Cu  Cu102  1  0.16272691  0.01072732  0.36525591  1
  Cu  Cu103  1  0.83727309  0.98927268  0.86525591  1
  Cu  Cu104  1  0.83727309  0.51072732  0.36525591  1
  Cu  Cu105  1  0.16272691  0.48927268  0.86525591  1
  Cu  Cu106  1  0.83664151  0.98974524  0.63450209  1
  Cu  Cu107  1  0.16335849  0.01025476  0.13450209  1
