# generated using pymatgen
data_Cu3Ni5C28
_symmetry_space_group_name_H-M   'P 1'
_cell_length_a   11.58043008
_cell_length_b   11.74748414
_cell_length_c   17.74012973
_cell_angle_alpha   109.54237011
_cell_angle_beta   108.96010260
_cell_angle_gamma   90.23251090
_symmetry_Int_Tables_number   1
_chemical_formula_structural   Cu3Ni5C28
_chemical_formula_sum   'Cu12 Ni20 C112'
_cell_volume   2133.68537352
_cell_formula_units_Z   4
loop_
 _symmetry_equiv_pos_site_id
 _symmetry_equiv_pos_as_xyz
  1  'x, y, z'
loop_
 _atom_site_type_symbol
 _atom_site_label
 _atom_site_symmetry_multiplicity
 _atom_site_fract_x
 _atom_site_fract_y
 _atom_site_fract_z
 _atom_site_occupancy
  Ni  Ni0  1  0.30158800  0.06487000  0.11584100  1
  Ni  Ni1  1  0.30517200  0.56343300  0.10691400  1
  Ni  Ni2  1  0.79870300  0.06153600  0.10640200  1
  Ni  Ni3  1  0.81145400  0.56378800  0.11714800  1
  Ni  Ni4  1  0.81422900  0.57048200  0.61978100  1
  Ni  Ni5  1  0.20411100  0.93242500  0.39086100  1
  Ni  Ni6  1  0.19447200  0.93028700  0.88012700  1
  Ni  Ni7  1  0.69636600  0.43859800  0.38816700  1
  Ni  Ni8  1  0.68747100  0.42568300  0.88244600  1
  Ni  Ni9  1  0.69558800  0.93031100  0.38464900  1
  Ni  Ni10  1  0.69220300  0.91952400  0.87612300  1
  Ni  Ni11  1  0.05018800  0.29170900  0.10824500  1
  Ni  Ni12  1  0.06304700  0.79387200  0.11218900  1
  Ni  Ni13  1  0.55460400  0.30193200  0.11593000  1
  Ni  Ni14  1  0.56127500  0.79813500  0.11668100  1
  Ni  Ni15  1  0.43633800  0.19906500  0.38504100  1
  Ni  Ni16  1  0.45436300  0.71226600  0.39812100  1
  Ni  Ni17  1  0.44752500  0.70612100  0.88756600  1
  Ni  Ni18  1  0.94971000  0.69737200  0.38586800  1
  Ni  Ni19  1  0.94134700  0.69871600  0.87974300  1
  Cu  Cu20  1  0.29860600  0.07695300  0.60412500  1
  Cu  Cu21  1  0.30324000  0.56936200  0.60468200  1
  Cu  Cu22  1  0.80108100  0.06942700  0.59999100  1
  Cu  Cu23  1  0.20369600  0.43920000  0.40573500  1
  Cu  Cu24  1  0.19641600  0.42661300  0.89552000  1
  Cu  Cu25  1  0.04536500  0.27822200  0.60418200  1
  Cu  Cu26  1  0.05998200  0.79193000  0.60862800  1
  Cu  Cu27  1  0.55157400  0.28353600  0.59882300  1
  Cu  Cu28  1  0.55716000  0.79183200  0.60934600  1
  Cu  Cu29  1  0.43835900  0.21557300  0.89443900  1
  Cu  Cu30  1  0.95667200  0.22048500  0.40700600  1
  Cu  Cu31  1  0.94704600  0.21613600  0.89641100  1
  C  C32  1  0.00702900  0.00004200  0.50276100  1
  C  C33  1  0.00916700  0.50311400  0.50525700  1
  C  C34  1  0.50703600  0.50304100  0.50366800  1
  C  C35  1  0.25535600  0.25435800  0.50393700  1
  C  C36  1  0.25937800  0.75263500  0.50577800  1
  C  C37  1  0.74697200  0.24530600  0.99599300  1
  C  C38  1  0.75646600  0.24779100  0.49981300  1
  C  C39  1  0.75865300  0.75218300  0.50425500  1
  C  C40  1  0.09272100  0.08832900  0.25349200  1
  C  C41  1  0.08510600  0.08538000  0.74632600  1
  C  C42  1  0.14851900  0.58219500  0.25321800  1
  C  C43  1  0.13575300  0.56827400  0.74872600  1
  C  C44  1  0.61548700  0.09850600  0.24973600  1
  C  C45  1  0.58326200  0.08076600  0.74637800  1
  C  C46  1  0.60642600  0.59459400  0.25054800  1
  C  C47  1  0.59615900  0.56867000  0.74358100  1
  C  C48  1  0.34273800  0.42349200  0.25399400  1
  C  C49  1  0.33376300  0.42007000  0.74633200  1
  C  C50  1  0.36355700  0.88940300  0.25189000  1
  C  C51  1  0.37191200  0.92698300  0.74551700  1
  C  C52  1  0.87776100  0.40274600  0.25251700  1
  C  C53  1  0.85862500  0.39698500  0.74565600  1
  C  C54  1  0.89279500  0.93164900  0.25346500  1
  C  C55  1  0.87667600  0.93427900  0.74756100  1
  C  C56  1  0.99847000  0.99593200  0.99577600  1
  C  C57  1  0.00099000  0.49563700  0.99630600  1
  C  C58  1  0.49979400  0.99824600  0.99579800  1
  C  C59  1  0.50895600  0.00490400  0.50923000  1
  C  C60  1  0.49842300  0.49759800  0.99548200  1
  C  C61  1  0.24774600  0.24667200  0.99641600  1
  C  C62  1  0.25123600  0.74654500  0.99498200  1
  C  C63  1  0.75304200  0.74563300  0.99876500  1
  C  C64  1  0.12436000  0.12491200  0.49925300  1
  C  C65  1  0.11815100  0.11998800  0.99042800  1
  C  C66  1  0.13345500  0.62391200  0.50111300  1
  C  C67  1  0.11950700  0.61191200  0.98072000  1
  C  C68  1  0.63475700  0.13218300  0.50116300  1
  C  C69  1  0.62159100  0.12207300  0.98951000  1
  C  C70  1  0.63222300  0.62851300  0.50424300  1
  C  C71  1  0.62593600  0.61909600  0.99570800  1
  C  C72  1  0.12341500  0.37086500  0.99683000  1
  C  C73  1  0.13515500  0.38026100  0.51120900  1
  C  C74  1  0.12724900  0.87524400  0.00209900  1
  C  C75  1  0.13700400  0.88025300  0.51390100  1
  C  C76  1  0.62559700  0.36724500  0.99860300  1
  C  C77  1  0.63250500  0.38043200  0.51047100  1
  C  C78  1  0.62960300  0.87570000  0.00291900  1
  C  C79  1  0.64971600  0.88143200  0.52215900  1
  C  C80  1  0.37209000  0.13208300  0.50056000  1
  C  C81  1  0.37242900  0.12081600  0.98836800  1
  C  C82  1  0.38095300  0.62066400  0.50198400  1
  C  C83  1  0.36986500  0.61662500  0.98641100  1
  C  C84  1  0.87763100  0.12144200  0.49120100  1
  C  C85  1  0.86684000  0.11931800  0.98637400  1
  C  C86  1  0.88545200  0.62679500  0.50271300  1
  C  C87  1  0.87408800  0.61690800  0.99283900  1
  C  C88  1  0.37396800  0.37222800  0.99586200  1
  C  C89  1  0.38086600  0.38129700  0.50998500  1
  C  C90  1  0.37974300  0.87840200  0.00511600  1
  C  C91  1  0.38478400  0.87913200  0.52013000  1
  C  C92  1  0.87305000  0.36848300  0.00018900  1
  C  C93  1  0.88935400  0.37790100  0.51275800  1
  C  C94  1  0.87590500  0.87266500  0.99873100  1
  C  C95  1  0.88667900  0.87907600  0.50648900  1
  C  C96  1  0.05176900  0.07323400  0.13607600  1
  C  C97  1  0.06181700  0.09087000  0.63522600  1
  C  C98  1  0.08131400  0.56870200  0.13483200  1
  C  C99  1  0.09172500  0.59143100  0.64207000  1
  C  C100  1  0.56926700  0.08132600  0.13174900  1
  C  C101  1  0.56727900  0.10807800  0.64474900  1
  C  C102  1  0.56648400  0.56738600  0.13136400  1
  C  C103  1  0.57726700  0.59056000  0.63903000  1
  C  C104  1  0.43930600  0.42714800  0.36765300  1
  C  C105  1  0.42850200  0.42190600  0.85703400  1
  C  C106  1  0.44461500  0.92111300  0.37155200  1
  C  C107  1  0.43656300  0.91569000  0.85484100  1
  C  C108  1  0.94438300  0.41727300  0.37214400  1
  C  C109  1  0.92524600  0.40150100  0.86036300  1
  C  C110  1  0.95018700  0.91248700  0.36195300  1
  C  C111  1  0.93797200  0.91540600  0.85498600  1
  C  C112  1  0.30973900  0.31541100  0.13788800  1
  C  C113  1  0.31561700  0.30241700  0.63682200  1
  C  C114  1  0.31791800  0.80201900  0.13070500  1
  C  C115  1  0.33681400  0.79050300  0.64391700  1
  C  C116  1  0.81744100  0.29935400  0.12999800  1
  C  C117  1  0.83664200  0.28638800  0.63414000  1
  C  C118  1  0.83687800  0.81031100  0.14109900  1
  C  C119  1  0.85428900  0.80488500  0.64520000  1
  C  C120  1  0.17877100  0.20235800  0.36952500  1
  C  C121  1  0.17735600  0.19053600  0.85897000  1
  C  C122  1  0.20154400  0.69116800  0.37333700  1
  C  C123  1  0.19503800  0.69529100  0.85579300  1
  C  C124  1  0.69288600  0.20223300  0.37043500  1
  C  C125  1  0.67476500  0.18561100  0.86015000  1
  C  C126  1  0.68950100  0.68961300  0.37561600  1
  C  C127  1  0.67940200  0.67536300  0.85909900  1
  C  C128  1  0.46481200  0.03731900  0.25150700  1
  C  C129  1  0.41070300  0.09556200  0.74743800  1
  C  C130  1  0.44770800  0.56057700  0.25420500  1
  C  C131  1  0.42414300  0.56039500  0.73601200  1
  C  C132  1  0.92668700  0.10699500  0.26663400  1
  C  C133  1  0.91170700  0.10107200  0.74644400  1
  C  C134  1  0.98013700  0.52977500  0.25184900  1
  C  C135  1  0.96813500  0.52492200  0.74885900  1
  C  C136  1  0.17975800  0.41714900  0.26560500  1
  C  C137  1  0.16332400  0.39648900  0.74716200  1
  C  C138  1  0.22733900  0.98693400  0.25544900  1
  C  C139  1  0.19751600  0.95498400  0.73463900  1
  C  C140  1  0.73685000  0.48516500  0.25592000  1
  C  C141  1  0.68478400  0.42305900  0.73199400  1
  C  C142  1  0.72686300  0.97758900  0.25303200  1
  C  C143  1  0.70039600  0.95523700  0.73500800  1
