# generated using pymatgen
data_CuNiC5
_symmetry_space_group_name_H-M   'P 1'
_cell_length_a   7.63962300
_cell_length_b   8.20372000
_cell_length_c   16.37259838
_cell_angle_alpha   60.06118487
_cell_angle_beta   90.00000000
_cell_angle_gamma   90.00000000
_symmetry_Int_Tables_number   1
_chemical_formula_structural   CuNiC5
_chemical_formula_sum   'Cu12 Ni12 C60'
_cell_volume   889.19789643
_cell_formula_units_Z   12
loop_
 _symmetry_equiv_pos_site_id
 _symmetry_equiv_pos_as_xyz
  1  'x, y, z'
loop_
 _atom_site_type_symbol
 _atom_site_label
 _atom_site_symmetry_multiplicity
 _atom_site_fract_x
 _atom_site_fract_y
 _atom_site_fract_z
 _atom_site_occupancy
  C  C0  1  0.44333300  0.66455500  0.08755600  1
  C  C1  1  0.05666700  0.66455500  0.58755600  1
  C  C2  1  0.55666700  0.33544500  0.91244400  1
  C  C3  1  0.94333300  0.33544500  0.41244400  1
  C  C4  1  0.56708200  0.32751400  0.42270000  1
  C  C5  1  0.06708200  0.67248600  0.07730000  1
  C  C6  1  0.43291800  0.67248600  0.57730000  1
  C  C7  1  0.93291800  0.32751400  0.92270000  1
  Ni  Ni8  1  0.85000200  0.31324800  0.76287000  1
  Ni  Ni9  1  0.65631100  0.66679400  0.40503400  1
  Ni  Ni10  1  0.15631100  0.33320600  0.09496600  1
  Ni  Ni11  1  0.34368900  0.33320600  0.59496600  1
  Ni  Ni12  1  0.84368900  0.66679400  0.90503400  1
  Ni  Ni13  1  0.15152700  0.97478400  0.41617100  1
  Ni  Ni14  1  0.65152700  0.02521600  0.08382900  1
  Ni  Ni15  1  0.84847300  0.02521600  0.58382900  1
  Ni  Ni16  1  0.34847300  0.97478400  0.91617100  1
  Ni  Ni17  1  0.64999800  0.31324800  0.26287000  1
  Ni  Ni18  1  0.14999800  0.68675200  0.23713000  1
  Ni  Ni19  1  0.35000200  0.68675200  0.73713000  1
  C  C20  1  0.41691800  0.99712700  0.24994900  1
  C  C21  1  0.91691800  0.00287300  0.25005100  1
  C  C22  1  0.58308200  0.00287300  0.75005100  1
  C  C23  1  0.08308200  0.99712700  0.74994900  1
  Cu  Cu24  1  0.23241800  0.31467900  0.76900000  1
  Cu  Cu25  1  0.73241800  0.68532100  0.73100000  1
  Cu  Cu26  1  0.76758200  0.68532100  0.23100000  1
  Cu  Cu27  1  0.26758200  0.31467900  0.26900000  1
  Cu  Cu28  1  0.73323200  0.96315000  0.92689700  1
  Cu  Cu29  1  0.23323200  0.03685000  0.57310300  1
  Cu  Cu30  1  0.26676800  0.03685000  0.07310300  1
  Cu  Cu31  1  0.76676800  0.96315000  0.42689700  1
  Cu  Cu32  1  0.23258000  0.64413500  0.90722500  1
  Cu  Cu33  1  0.73258000  0.35586500  0.59277500  1
  Cu  Cu34  1  0.76742000  0.35586500  0.09277500  1
  Cu  Cu35  1  0.26742000  0.64413500  0.40722500  1
  C  C36  1  0.12945500  0.21387100  0.03890000  1
  C  C37  1  0.03878100  0.28151100  0.81903800  1
  C  C38  1  0.53878100  0.71848900  0.68096200  1
  C  C39  1  0.96121900  0.71848900  0.18096200  1
  C  C40  1  0.46121900  0.28151100  0.31903800  1
  C  C41  1  0.53640100  0.86752200  0.95600100  1
  C  C42  1  0.03640100  0.13247800  0.54399900  1
  C  C43  1  0.46359900  0.13247800  0.04399900  1
  C  C44  1  0.96359900  0.86752200  0.45600100  1
  C  C45  1  0.03350000  0.58850700  0.89028500  1
  C  C46  1  0.53350000  0.41149300  0.60971500  1
  C  C47  1  0.96650000  0.41149300  0.10971500  1
  C  C48  1  0.13034200  0.57573800  0.35232000  1
  C  C49  1  0.63034200  0.42426200  0.14768000  1
  C  C50  1  0.86965800  0.42426200  0.64768000  1
  C  C51  1  0.36965800  0.57573800  0.85232000  1
  C  C52  1  0.62945500  0.78612900  0.46110000  1
  C  C53  1  0.46650000  0.58850700  0.39028500  1
  C  C54  1  0.37054500  0.21387100  0.53890000  1
  C  C55  1  0.87054500  0.78612900  0.96110000  1
  C  C56  1  0.76349000  0.45653000  0.47633800  1
  C  C57  1  0.62528800  0.79447600  0.14497600  1
  C  C58  1  0.87471200  0.79447600  0.64497600  1
  C  C59  1  0.37471200  0.20552400  0.85502400  1
  C  C60  1  0.73748800  0.76286800  0.80597000  1
  C  C61  1  0.23748800  0.23713200  0.69403000  1
  C  C62  1  0.26251200  0.23713200  0.19403000  1
  C  C63  1  0.76251200  0.76286800  0.30597000  1
  C  C64  1  0.74509900  0.11390000  0.81369000  1
  C  C65  1  0.24509900  0.88610000  0.68631000  1
  C  C66  1  0.25490100  0.88610000  0.18631000  1
  C  C67  1  0.75490100  0.11390000  0.31369000  1
  C  C68  1  0.24015800  0.87147700  0.86903100  1
  C  C69  1  0.74015800  0.12852300  0.63096900  1
  C  C70  1  0.75984200  0.12852300  0.13096900  1
  C  C71  1  0.25984200  0.87147700  0.36903100  1
  C  C72  1  0.75545600  0.45382200  0.79809600  1
  C  C73  1  0.25545600  0.54617800  0.70190400  1
  C  C74  1  0.24454400  0.54617800  0.20190400  1
  C  C75  1  0.74454400  0.45382200  0.29809600  1
  C  C76  1  0.75862300  0.09069700  0.97956800  1
  C  C77  1  0.25862300  0.90930300  0.52043200  1
  C  C78  1  0.24137700  0.90930300  0.02043200  1
  C  C79  1  0.74137700  0.09069700  0.47956800  1
  C  C80  1  0.73651000  0.45653000  0.97633800  1
  C  C81  1  0.23651000  0.54347000  0.52366200  1
  C  C82  1  0.26349000  0.54347000  0.02366200  1
  C  C83  1  0.12528800  0.20552400  0.35502400  1
