# generated using pymatgen
data_Cu6Ni12C25
_symmetry_space_group_name_H-M   'P 1'
_cell_length_a   6.18604234
_cell_length_b   6.31583482
_cell_length_c   17.74720725
_cell_angle_alpha   62.49292695
_cell_angle_beta   60.84191241
_cell_angle_gamma   57.27141602
_symmetry_Int_Tables_number   1
_chemical_formula_structural   Cu6Ni12C25
_chemical_formula_sum   'Cu6 Ni12 C25'
_cell_volume   490.45111679
_cell_formula_units_Z   1
loop_
 _symmetry_equiv_pos_site_id
 _symmetry_equiv_pos_as_xyz
  1  'x, y, z'
loop_
 _atom_site_type_symbol
 _atom_site_label
 _atom_site_symmetry_multiplicity
 _atom_site_fract_x
 _atom_site_fract_y
 _atom_site_fract_z
 _atom_site_occupancy
  C  C0  1  0.01113600  0.48493400  0.99885400  1
  Ni  Ni1  1  0.51238600  0.45064200  0.17354500  1
  Ni  Ni2  1  0.50519700  0.95851700  0.16759300  1
  Ni  Ni3  1  0.50657100  0.50457900  0.49936600  1
  Ni  Ni4  1  0.00949600  0.45443400  0.17391900  1
  Ni  Ni5  1  0.50855600  0.00809000  0.50040300  1
  Ni  Ni6  1  0.49199500  0.51421400  0.66375000  1
  Ni  Ni7  1  0.87457000  0.85946200  0.29290900  1
  Ni  Ni8  1  0.48022200  0.54978900  0.82423000  1
  Ni  Ni9  1  0.00796000  0.50610900  0.50090800  1
  Ni  Ni10  1  0.47965900  0.03050900  0.83428900  1
  Ni  Ni11  1  0.98308400  0.53695300  0.82513000  1
  Ni  Ni12  1  0.80612300  0.98766000  0.95119700  1
  Cu  Cu13  1  0.13607900  0.00853200  0.07230500  1
  Cu  Cu14  1  0.13724000  0.10620100  0.38156700  1
  Cu  Cu15  1  0.50118600  0.49212700  0.33698000  1
  Cu  Cu16  1  0.11001100  0.14417600  0.70756700  1
  Cu  Cu17  1  0.49772900  0.52206900  0.99487600  1
  Cu  Cu18  1  0.86529800  0.90149700  0.62079600  1
  C  C19  1  0.25873400  0.22308000  0.08876400  1
  C  C20  1  0.30084500  0.19090000  0.24445000  1
  C  C21  1  0.25646600  0.64438800  0.10348400  1
  C  C22  1  0.76469100  0.27000800  0.07581300  1
  C  C23  1  0.26719500  0.25260400  0.42523100  1
  C  C24  1  0.29153200  0.70189300  0.24317100  1
  C  C25  1  0.25247500  0.25805100  0.57560700  1
  C  C26  1  0.77061300  0.26587200  0.23892600  1
  C  C27  1  0.74575500  0.74092100  0.08057800  1
  C  C28  1  0.27161600  0.71858300  0.42586500  1
  C  C29  1  0.73425500  0.26503800  0.42345800  1
  C  C30  1  0.75448500  0.72153000  0.23858000  1
  C  C31  1  0.23623500  0.27300900  0.75950900  1
  C  C32  1  0.27514300  0.73216100  0.58391700  1
  C  C33  1  0.72803500  0.29418200  0.58136600  1
  C  C34  1  0.25499900  0.24012800  0.91947000  1
  C  C35  1  0.75383300  0.74657700  0.43004200  1
  C  C36  1  0.23122600  0.73090400  0.75393400  1
  C  C37  1  0.70094500  0.30074300  0.74985700  1
  C  C38  1  0.73810700  0.75244000  0.57919600  1
  C  C39  1  0.22205900  0.72736200  0.92010400  1
  C  C40  1  0.73299400  0.35906400  0.89221100  1
  C  C41  1  0.69196400  0.80646600  0.75498000  1
  C  C42  1  0.73713300  0.76360000  0.90916000  1
