# generated using pymatgen
data_CuNiC4
_symmetry_space_group_name_H-M   'P 1'
_cell_length_a   3.76761600
_cell_length_b   12.64664700
_cell_length_c   13.63600300
_cell_angle_alpha   90.00000000
_cell_angle_beta   90.00000000
_cell_angle_gamma   90.00000000
_symmetry_Int_Tables_number   1
_chemical_formula_structural   CuNiC4
_chemical_formula_sum   'Cu4 Ni4 C16'
_cell_volume   649.72431082
_cell_formula_units_Z   4
loop_
 _symmetry_equiv_pos_site_id
 _symmetry_equiv_pos_as_xyz
  1  'x, y, z'
loop_
 _atom_site_type_symbol
 _atom_site_label
 _atom_site_symmetry_multiplicity
 _atom_site_fract_x
 _atom_site_fract_y
 _atom_site_fract_z
 _atom_site_occupancy
  Ni  Ni0  1  0.50000000  0.94131000  0.50551700  1
  Ni  Ni1  1  0.00000000  0.05869000  0.00551700  1
  Ni  Ni2  1  0.50000000  0.72472700  0.98999200  1
  Ni  Ni3  1  0.00000000  0.27527300  0.48999200  1
  C  C4  1  0.50000000  0.93406700  0.89606700  1
  C  C5  1  0.00000000  0.06593300  0.39606700  1
  C  C6  1  0.50000000  0.80439800  0.35320400  1
  C  C7  1  0.00000000  0.19560200  0.85320400  1
  C  C8  1  0.50000000  0.65176100  0.58963100  1
  C  C9  1  0.00000000  0.34823900  0.08963100  1
  C  C10  1  0.50000000  0.58457200  0.13867900  1
  C  C11  1  0.00000000  0.41542800  0.63867900  1
  C  C12  1  0.50000000  0.43406900  0.90118800  1
  C  C13  1  0.00000000  0.56593100  0.40118800  1
  C  C14  1  0.50000000  0.32480300  0.34784600  1
  C  C15  1  0.00000000  0.67519700  0.84784600  1
  C  C16  1  0.50000000  0.15109100  0.60278900  1
  C  C17  1  0.00000000  0.84890900  0.10278900  1
  C  C18  1  0.50000000  0.10843500  0.14727400  1
  C  C19  1  0.00000000  0.89156500  0.64727400  1
  Cu  Cu20  1  0.50000000  0.45535700  0.50311600  1
  Cu  Cu21  1  0.00000000  0.54464300  0.00311600  1
  Cu  Cu22  1  0.50000000  0.23699400  0.98869800  1
  Cu  Cu23  1  0.00000000  0.76300600  0.48869800  1
