# generated using pymatgen
data_Cu3Ni2C11
_symmetry_space_group_name_H-M   'P 1'
_cell_length_a   11.09115505
_cell_length_b   11.09115505
_cell_length_c   11.09115505
_cell_angle_alpha   114.26552661
_cell_angle_beta   114.26552661
_cell_angle_gamma   100.25725619
_symmetry_Int_Tables_number   1
_chemical_formula_structural   Cu3Ni2C11
_chemical_formula_sum   'Cu12 Ni8 C44'
_cell_volume   1030.39478896
_cell_formula_units_Z   4
loop_
 _symmetry_equiv_pos_site_id
 _symmetry_equiv_pos_as_xyz
  1  'x, y, z'
loop_
 _atom_site_type_symbol
 _atom_site_label
 _atom_site_symmetry_multiplicity
 _atom_site_fract_x
 _atom_site_fract_y
 _atom_site_fract_z
 _atom_site_occupancy
  C  C0  1  0.42147700  0.92147700  0.84295400  1
  C  C1  1  0.67147700  0.32852300  0.00000000  1
  C  C2  1  0.32852300  0.67147700  0.00000000  1
  C  C3  1  0.07852300  0.57852300  0.15704600  1
  C  C4  1  0.32852300  0.32852300  0.65704600  1
  C  C5  1  0.07852300  0.92147700  0.50000000  1
  C  C6  1  0.42147700  0.57852300  0.50000000  1
  C  C7  1  0.67147700  0.67147700  0.34295400  1
  C  C8  1  0.03189000  0.79513900  0.76324800  1
  C  C9  1  0.03189000  0.26864200  0.23675200  1
  C  C10  1  0.20486100  0.96811000  0.23675200  1
  C  C11  1  0.01864200  0.28189000  0.73675200  1
  C  C12  1  0.54513900  0.28189000  0.26324800  1
  C  C13  1  0.71811000  0.98135800  0.26324800  1
  C  C14  1  0.71811000  0.45486100  0.73675200  1
  C  C15  1  0.73135800  0.96811000  0.76324800  1
  Ni  Ni16  1  0.27750500  0.40174700  0.12424200  1
  Ni  Ni17  1  0.27750500  0.15326300  0.87575800  1
  Ni  Ni18  1  0.59825300  0.72249500  0.87575800  1
  Ni  Ni19  1  0.90326300  0.52750500  0.37575800  1
  Ni  Ni20  1  0.15174700  0.52750500  0.62424200  1
  Ni  Ni21  1  0.47249500  0.09673700  0.62424200  1
  Ni  Ni22  1  0.47249500  0.84825300  0.37575800  1
  Ni  Ni23  1  0.84673700  0.72249500  0.12424200  1
  Cu  Cu24  1  0.50000000  0.50000000  0.00000000  1
  Cu  Cu25  1  0.25000000  0.75000000  0.50000000  1
  Cu  Cu26  1  0.75000000  0.25000000  0.50000000  1
  Cu  Cu27  1  0.00000000  0.00000000  0.00000000  1
  Cu  Cu28  1  0.87500000  0.97643400  0.60143400  1
  Cu  Cu29  1  0.72643400  0.62500000  0.60143400  1
  Cu  Cu30  1  0.02356600  0.12500000  0.39856600  1
  Cu  Cu31  1  0.37500000  0.27356600  0.39856600  1
  Cu  Cu32  1  0.87500000  0.27356600  0.89856600  1
  Cu  Cu33  1  0.02356600  0.62500000  0.89856600  1
  Cu  Cu34  1  0.72643400  0.12500000  0.10143400  1
  Cu  Cu35  1  0.37500000  0.97643400  0.10143400  1
  C  C36  1  0.77145100  0.77145100  0.00000000  1
  C  C37  1  0.52145100  0.02145100  0.50000000  1
  C  C38  1  0.97854900  0.47854900  0.50000000  1
  C  C39  1  0.22854900  0.22854900  0.00000000  1
  C  C40  1  0.20034700  0.97298000  0.77263300  1
  C  C41  1  0.20034700  0.42771300  0.22736700  1
  C  C42  1  0.02702000  0.79965300  0.22736700  1
  C  C43  1  0.17771300  0.45034700  0.72736700  1
  C  C44  1  0.72298000  0.45034700  0.27263300  1
  C  C45  1  0.54965300  0.82228700  0.27263300  1
  C  C46  1  0.54965300  0.27702000  0.72736700  1
  C  C47  1  0.57228700  0.79965300  0.77263300  1
  C  C48  1  0.29907900  0.05916300  0.52131900  1
  C  C49  1  0.53784400  0.77775900  0.47868100  1
  C  C50  1  0.94083700  0.70092100  0.47868100  1
  C  C51  1  0.52775900  0.54907900  0.73991500  1
  C  C52  1  0.80916300  0.78784400  0.26008500  1
  C  C53  1  0.45092100  0.47224100  0.26008500  1
  C  C54  1  0.21215600  0.19083700  0.73991500  1
  C  C55  1  0.22224100  0.46215600  0.52131900  1
  C  C56  1  0.45092100  0.19083700  0.97868100  1
  C  C57  1  0.21215600  0.47224100  0.02131900  1
  C  C58  1  0.80916300  0.54907900  0.02131900  1
  C  C59  1  0.22224100  0.70092100  0.76008500  1
  C  C60  1  0.94083700  0.46215600  0.23991500  1
  C  C61  1  0.29907900  0.77775900  0.23991500  1
  C  C62  1  0.53784400  0.05916300  0.76008500  1
  C  C63  1  0.52775900  0.78784400  0.97868100  1
