# generated using pymatgen
data_CuNi14C17
_symmetry_space_group_name_H-M   'P 1'
_cell_length_a   4.34959400
_cell_length_b   8.70638800
_cell_length_c   8.77458100
_cell_angle_alpha   90.00000000
_cell_angle_beta   90.00000000
_cell_angle_gamma   90.00000000
_symmetry_Int_Tables_number   1
_chemical_formula_structural   CuNi14C17
_chemical_formula_sum   'Cu1 Ni14 C17'
_cell_volume   332.28682791
_cell_formula_units_Z   1
loop_
 _symmetry_equiv_pos_site_id
 _symmetry_equiv_pos_as_xyz
  1  'x, y, z'
loop_
 _atom_site_type_symbol
 _atom_site_label
 _atom_site_symmetry_multiplicity
 _atom_site_fract_x
 _atom_site_fract_y
 _atom_site_fract_z
 _atom_site_occupancy
  C  C0  1  0.00000000  0.00000000  0.00000000  1
  Ni  Ni1  1  0.00000000  0.50000000  0.00000000  1
  Ni  Ni2  1  0.00000000  0.50000000  0.50000000  1
  Ni  Ni3  1  0.50000000  0.00000000  0.26518800  1
  Ni  Ni4  1  0.50000000  0.00000000  0.73481200  1
  Ni  Ni5  1  0.50000000  0.50000000  0.25342600  1
  Ni  Ni6  1  0.50000000  0.50000000  0.74657400  1
  Ni  Ni7  1  0.50000000  0.26311300  0.00000000  1
  Ni  Ni8  1  0.50000000  0.25230200  0.50000000  1
  Ni  Ni9  1  0.50000000  0.73688700  0.00000000  1
  Ni  Ni10  1  0.50000000  0.74769800  0.50000000  1
  Ni  Ni11  1  0.00000000  0.25672800  0.25960800  1
  Ni  Ni12  1  0.00000000  0.25672800  0.74039200  1
  Ni  Ni13  1  0.00000000  0.74327200  0.25960800  1
  Ni  Ni14  1  0.00000000  0.74327200  0.74039200  1
  Cu  Cu15  1  0.00000000  0.00000000  0.50000000  1
  C  C16  1  0.00000000  0.25994800  0.00000000  1
  C  C17  1  0.00000000  0.26618900  0.50000000  1
  C  C18  1  0.00000000  0.74005200  0.00000000  1
  C  C19  1  0.00000000  0.73381100  0.50000000  1
  C  C20  1  0.50000000  0.25049400  0.24814300  1
  C  C21  1  0.50000000  0.25049400  0.75185700  1
  C  C22  1  0.50000000  0.74950600  0.24814300  1
  C  C23  1  0.50000000  0.74950600  0.75185700  1
  C  C24  1  0.50000000  0.00000000  0.00000000  1
  C  C25  1  0.50000000  0.00000000  0.50000000  1
  C  C26  1  0.50000000  0.50000000  0.00000000  1
  C  C27  1  0.50000000  0.50000000  0.50000000  1
  C  C28  1  0.00000000  0.00000000  0.25051300  1
  C  C29  1  0.00000000  0.00000000  0.74948700  1
  C  C30  1  0.00000000  0.50000000  0.24770900  1
  C  C31  1  0.00000000  0.50000000  0.75229100  1
