# generated using pymatgen
data_Cu6Ni9C11
_symmetry_space_group_name_H-M   'P 1'
_cell_length_a   10.68725370
_cell_length_b   10.68725370
_cell_length_c   16.20988267
_cell_angle_alpha   86.61480479
_cell_angle_beta   86.61480479
_cell_angle_gamma   61.67342564
_symmetry_Int_Tables_number   1
_chemical_formula_structural   Cu6Ni9C11
_chemical_formula_sum   'Cu36 Ni54 C66'
_cell_volume   1625.89454844
_cell_formula_units_Z   6
loop_
 _symmetry_equiv_pos_site_id
 _symmetry_equiv_pos_as_xyz
  1  'x, y, z'
loop_
 _atom_site_type_symbol
 _atom_site_label
 _atom_site_symmetry_multiplicity
 _atom_site_fract_x
 _atom_site_fract_y
 _atom_site_fract_z
 _atom_site_occupancy
  Ni  Ni0  1  0.57652200  0.02069300  0.41163300  1
  Ni  Ni1  1  0.42347800  0.97930700  0.58836700  1
  Ni  Ni2  1  0.97930700  0.42347800  0.08836700  1
  Ni  Ni3  1  0.02069300  0.57652200  0.91163300  1
  Ni  Ni4  1  0.22111200  0.21110400  0.16581600  1
  Ni  Ni5  1  0.77888800  0.78889600  0.83418400  1
  Ni  Ni6  1  0.78889600  0.77888800  0.33418400  1
  Ni  Ni7  1  0.21110400  0.22111200  0.66581600  1
  Ni  Ni8  1  0.39944100  0.60184400  0.99928300  1
  Ni  Ni9  1  0.60055900  0.39815600  0.00071700  1
  Ni  Ni10  1  0.39815600  0.60055900  0.50071700  1
  Ni  Ni11  1  0.60184400  0.39944100  0.49928300  1
  Ni  Ni12  1  0.26456100  0.95947700  0.12658000  1
  Ni  Ni13  1  0.73543900  0.04052300  0.87342000  1
  Ni  Ni14  1  0.04052300  0.73543900  0.37342000  1
  Ni  Ni15  1  0.95947700  0.26456100  0.62658000  1
  Ni  Ni16  1  0.19067300  0.00412200  0.34456900  1
  Ni  Ni17  1  0.80932700  0.99587800  0.65543100  1
  Ni  Ni18  1  0.99587800  0.80932700  0.15543100  1
  Ni  Ni19  1  0.00412200  0.19067300  0.84456900  1
  Ni  Ni20  1  0.31720300  0.05551600  0.37352000  1
  Ni  Ni21  1  0.68279700  0.94448400  0.62648000  1
  Ni  Ni22  1  0.94448400  0.68279700  0.12648000  1
  Ni  Ni23  1  0.05551600  0.31720300  0.87352000  1
  Ni  Ni24  1  0.71228100  0.01939100  0.18738700  1
  Ni  Ni25  1  0.28771900  0.98060900  0.81261300  1
  Ni  Ni26  1  0.98060900  0.28771900  0.31261300  1
  Ni  Ni27  1  0.01939100  0.71228100  0.68738700  1
  Ni  Ni28  1  0.20068900  0.84183600  0.15853800  1
  Ni  Ni29  1  0.79931100  0.15816400  0.84146200  1
  Ni  Ni30  1  0.15816400  0.79931100  0.34146200  1
  Ni  Ni31  1  0.84183600  0.20068900  0.65853800  1
  Ni  Ni32  1  0.60037800  0.20482200  0.18151000  1
  Ni  Ni33  1  0.39962200  0.79517800  0.81849000  1
  Ni  Ni34  1  0.79517800  0.39962200  0.31849000  1
  Ni  Ni35  1  0.20482200  0.60037800  0.68151000  1
  Ni  Ni36  1  0.38758400  0.14328200  0.21037900  1
  Ni  Ni37  1  0.61241600  0.85671800  0.78962100  1
  Ni  Ni38  1  0.85671800  0.61241600  0.28962100  1
  Ni  Ni39  1  0.14328200  0.38758400  0.71037900  1
  Ni  Ni40  1  0.79304800  0.88345900  0.03310600  1
  Ni  Ni41  1  0.20695200  0.11654100  0.96689400  1
  Ni  Ni42  1  0.11654100  0.20695200  0.46689400  1
  Ni  Ni43  1  0.88345900  0.79304800  0.53310600  1
  Ni  Ni44  1  0.33273900  0.78403400  0.00392200  1
  Ni  Ni45  1  0.66726100  0.21596600  0.99607800  1
  Ni  Ni46  1  0.21596600  0.66726100  0.49607800  1
  Ni  Ni47  1  0.78403400  0.33273900  0.50392200  1
  Ni  Ni48  1  0.56736100  0.43263900  0.25000000  1
  Ni  Ni49  1  0.43263900  0.56736100  0.75000000  1
  Ni  Ni50  1  0.61213000  0.99271200  0.02213600  1
  Ni  Ni51  1  0.38787000  0.00728800  0.97786400  1
  Ni  Ni52  1  0.00728800  0.38787000  0.47786400  1
  Ni  Ni53  1  0.99271200  0.61213000  0.52213600  1
  Cu  Cu54  1  0.04957700  0.04800400  0.12952300  1
  Cu  Cu55  1  0.95042300  0.95199600  0.87047700  1
  Cu  Cu56  1  0.95199600  0.95042300  0.37047700  1
  Cu  Cu57  1  0.04800400  0.04957700  0.62952300  1
  Cu  Cu58  1  0.67500300  0.78162100  0.04846200  1
  Cu  Cu59  1  0.32499700  0.21837900  0.95153800  1
  Cu  Cu60  1  0.21837900  0.32499700  0.45153800  1
  Cu  Cu61  1  0.78162100  0.67500300  0.54846200  1
  Cu  Cu62  1  0.40323800  0.86041800  0.32407600  1
  Cu  Cu63  1  0.59676200  0.13958200  0.67592400  1
  Cu  Cu64  1  0.13958200  0.59676200  0.17592400  1
  Cu  Cu65  1  0.86041800  0.40323800  0.82407600  1
  Cu  Cu66  1  0.64090100  0.71713600  0.31049900  1
  Cu  Cu67  1  0.35909900  0.28286400  0.68950100  1
  Cu  Cu68  1  0.28286400  0.35909900  0.18950100  1
  Cu  Cu69  1  0.71713600  0.64090100  0.81049900  1
  Cu  Cu70  1  0.81132400  0.13576400  0.14802800  1
  Cu  Cu71  1  0.18867600  0.86423600  0.85197200  1
  Cu  Cu72  1  0.86423600  0.18867600  0.35197200  1
  Cu  Cu73  1  0.13576400  0.81132400  0.64802800  1
  Cu  Cu74  1  0.45784600  0.23081100  0.43485400  1
  Cu  Cu75  1  0.54215400  0.76918900  0.56514600  1
  Cu  Cu76  1  0.76918900  0.54215400  0.06514600  1
  Cu  Cu77  1  0.23081100  0.45784600  0.93485400  1
  Cu  Cu78  1  0.71651300  0.09864600  0.39181100  1
  Cu  Cu79  1  0.28348700  0.90135400  0.60818900  1
  Cu  Cu80  1  0.90135400  0.28348700  0.10818900  1
  Cu  Cu81  1  0.09864600  0.71651300  0.89181100  1
  Cu  Cu82  1  0.53858300  0.67552600  0.03284300  1
  Cu  Cu83  1  0.46141700  0.32447400  0.96715700  1
  Cu  Cu84  1  0.32447400  0.46141700  0.46715700  1
  Cu  Cu85  1  0.67552600  0.53858300  0.53284300  1
  Cu  Cu86  1  0.48768300  0.63853100  0.27730100  1
  Cu  Cu87  1  0.51231700  0.36146900  0.72269900  1
  Cu  Cu88  1  0.36147000  0.51231700  0.22269900  1
  Cu  Cu89  1  0.63853100  0.48768300  0.77730100  1
  C  C90  1  0.69231900  0.89961000  0.04520200  1
  C  C91  1  0.30768100  0.10039000  0.95479800  1
  C  C92  1  0.10039000  0.30768100  0.45479800  1
  C  C93  1  0.89961000  0.69231900  0.54520200  1
  C  C94  1  0.29402100  0.98556600  0.34573900  1
  C  C95  1  0.70597900  0.01443400  0.65426100  1
  C  C96  1  0.01443400  0.70597900  0.15426100  1
  C  C97  1  0.98556600  0.29402100  0.84573900  1
  C  C98  1  0.94047300  0.01892600  0.14558900  1
  C  C99  1  0.05952700  0.98107400  0.85441100  1
  C  C100  1  0.98107400  0.05952700  0.35441100  1
  C  C101  1  0.01892600  0.94047300  0.64558900  1
  C  C102  1  0.37250100  0.76079200  0.29577700  1
  C  C103  1  0.62749900  0.23920800  0.70422300  1
  C  C104  1  0.23920800  0.62749900  0.20422300  1
  C  C105  1  0.76079200  0.37250100  0.79577700  1
  C  C106  1  0.65642400  0.79090700  0.56642500  1
  C  C107  1  0.34357600  0.20909300  0.43357500  1
  C  C108  1  0.20909300  0.34357600  0.93357500  1
  C  C109  1  0.79090700  0.65642400  0.06642500  1
  C  C110  1  0.53509400  0.84544900  0.33121300  1
  C  C111  1  0.46490600  0.15455100  0.66878700  1
  C  C112  1  0.15455100  0.46490600  0.16878700  1
  C  C113  1  0.84544900  0.53509400  0.83121300  1
  C  C114  1  0.69755100  0.11817800  0.17107000  1
  C  C115  1  0.30244900  0.88182200  0.82893000  1
  C  C116  1  0.88182200  0.30244900  0.32893000  1
  C  C117  1  0.11817800  0.69755100  0.67107000  1
  C  C118  1  0.58445500  0.11181300  0.41513800  1
  C  C119  1  0.41554500  0.88818700  0.58486200  1
  C  C120  1  0.88818700  0.41554500  0.08486200  1
  C  C121  1  0.11181300  0.58445500  0.91513800  1
  C  C122  1  0.82138600  0.96247400  0.38914400  1
  C  C123  1  0.17861400  0.03752600  0.61085600  1
  C  C124  1  0.03752600  0.17861400  0.11085600  1
  C  C125  1  0.96247400  0.82138600  0.88914400  1
  C  C126  1  0.41263200  0.68558600  0.01675300  1
  C  C127  1  0.58736800  0.31441400  0.98324700  1
  C  C128  1  0.31441400  0.58736800  0.48324700  1
  C  C129  1  0.68558600  0.41263200  0.51675300  1
  C  C130  1  0.47442700  0.52557300  0.25000000  1
  C  C131  1  0.52557300  0.47442700  0.75000000  1
  C  C132  1  0.54418000  0.79929100  0.03603100  1
  C  C133  1  0.45582000  0.20070900  0.96396900  1
  C  C134  1  0.20070900  0.45582000  0.46396900  1
  C  C135  1  0.79929100  0.54418000  0.53603100  1
  C  C136  1  0.45689600  0.35036100  0.45556800  1
  C  C137  1  0.54310400  0.64963900  0.54443200  1
  C  C138  1  0.64963900  0.54310400  0.04443200  1
  C  C139  1  0.35036100  0.45689600  0.95556800  1
  C  C140  1  0.18244100  0.93696900  0.13011500  1
  C  C141  1  0.81755900  0.06303100  0.86988500  1
  C  C142  1  0.06303100  0.81755900  0.36988500  1
  C  C143  1  0.93696900  0.18244100  0.63011500  1
  C  C144  1  0.39245600  0.37503200  0.21537300  1
  C  C145  1  0.60754400  0.62496800  0.78462700  1
  C  C146  1  0.62496800  0.60754400  0.28462700  1
  C  C147  1  0.37503200  0.39245600  0.71537300  1
  C  C148  1  0.72926800  0.21485700  0.37177300  1
  C  C149  1  0.27073200  0.78514300  0.62822700  1
  C  C150  1  0.78514300  0.27073200  0.12822700  1
  C  C151  1  0.21485700  0.72926800  0.87177300  1
  C  C152  1  0.30362900  0.22497300  0.18307600  1
  C  C153  1  0.69637100  0.77502700  0.81692400  1
  C  C154  1  0.77502700  0.69637100  0.31692400  1
  C  C155  1  0.22497300  0.30362900  0.68307600  1
