# generated using pymatgen
data_Cu7NiC28
_symmetry_space_group_name_H-M   'P 1'
_cell_length_a   10.90412937
_cell_length_b   11.16223264
_cell_length_c   17.25334452
_cell_angle_alpha   108.80160099
_cell_angle_beta   108.29550752
_cell_angle_gamma   90.14158676
_symmetry_Int_Tables_number   1
_chemical_formula_structural   Cu7NiC28
_chemical_formula_sum   'Cu28 Ni4 C112'
_cell_volume   1874.84569843
_cell_formula_units_Z   4
loop_
 _symmetry_equiv_pos_site_id
 _symmetry_equiv_pos_as_xyz
  1  'x, y, z'
loop_
 _atom_site_type_symbol
 _atom_site_label
 _atom_site_symmetry_multiplicity
 _atom_site_fract_x
 _atom_site_fract_y
 _atom_site_fract_z
 _atom_site_occupancy
  Ni  Ni0  1  0.30978100  0.56161800  0.60973200  1
  Ni  Ni1  1  0.05724900  0.29726400  0.60991700  1
  Ni  Ni2  1  0.56145300  0.30012900  0.61116600  1
  Ni  Ni3  1  0.44666900  0.20200100  0.88802900  1
  Cu  Cu4  1  0.30583200  0.06652800  0.11243800  1
  Cu  Cu5  1  0.30432000  0.05965900  0.60347000  1
  Cu  Cu6  1  0.31070400  0.56569500  0.11105300  1
  Cu  Cu7  1  0.80737800  0.06910600  0.11297000  1
  Cu  Cu8  1  0.80543800  0.06193500  0.60491600  1
  Cu  Cu9  1  0.80441100  0.56286700  0.11208800  1
  Cu  Cu10  1  0.80517500  0.56500600  0.60614100  1
  Cu  Cu11  1  0.19961700  0.43540900  0.39233700  1
  Cu  Cu12  1  0.19996800  0.43656600  0.89308900  1
  Cu  Cu13  1  0.19655500  0.93428700  0.39151600  1
  Cu  Cu14  1  0.19326000  0.93616700  0.88925400  1
  Cu  Cu15  1  0.69987300  0.43540100  0.39283100  1
  Cu  Cu16  1  0.69489700  0.43266300  0.89156500  1
  Cu  Cu17  1  0.70028100  0.93520300  0.39097300  1
  Cu  Cu18  1  0.69656800  0.93806700  0.88943300  1
  Cu  Cu19  1  0.05795800  0.29573800  0.11158000  1
  Cu  Cu20  1  0.06052300  0.79468100  0.11132400  1
  Cu  Cu21  1  0.05533200  0.79599300  0.60669200  1
  Cu  Cu22  1  0.55682400  0.29816100  0.11140200  1
  Cu  Cu23  1  0.55217600  0.79368400  0.11257800  1
  Cu  Cu24  1  0.55661300  0.79484500  0.60687200  1
  Cu  Cu25  1  0.44863400  0.20607000  0.39218900  1
  Cu  Cu26  1  0.44923400  0.70547600  0.39207600  1
  Cu  Cu27  1  0.44124700  0.70258200  0.89136800  1
  Cu  Cu28  1  0.94738500  0.20430500  0.39077800  1
  Cu  Cu29  1  0.94857800  0.20520900  0.88892400  1
  Cu  Cu30  1  0.94913100  0.70509500  0.39168100  1
  Cu  Cu31  1  0.94835400  0.70559900  0.88966200  1
  C  C32  1  0.00646100  0.00133100  0.00069900  1
  C  C33  1  0.00586700  0.50018900  0.00003300  1
  C  C34  1  0.50567900  0.00096500  0.00229300  1
  C  C35  1  0.75562200  0.75106900  0.00217100  1
  C  C36  1  0.00519500  0.99610200  0.49742000  1
  C  C37  1  0.00381500  0.49992200  0.49763900  1
  C  C38  1  0.50593000  0.99813900  0.49813200  1
  C  C39  1  0.50702000  0.50178900  0.00157500  1
  C  C40  1  0.50662500  0.50122100  0.49826800  1
  C  C41  1  0.25559500  0.25108000  0.00163200  1
  C  C42  1  0.25437700  0.24825300  0.49631000  1
  C  C43  1  0.25486000  0.75133900  0.00062100  1
  C  C44  1  0.25652300  0.74952300  0.49828400  1
  C  C45  1  0.75719800  0.24968100  0.00110900  1
  C  C46  1  0.75533800  0.24864200  0.49758700  1
  C  C47  1  0.75678600  0.74974200  0.49903700  1
  C  C48  1  0.10929400  0.09371100  0.24974800  1
  C  C49  1  0.10288500  0.09314300  0.74713900  1
  C  C50  1  0.11186400  0.59509200  0.25057700  1
  C  C51  1  0.10654600  0.59913100  0.74909800  1
  C  C52  1  0.61010700  0.09501500  0.25069600  1
  C  C53  1  0.60912000  0.09261600  0.74560400  1
  C  C54  1  0.61274200  0.59567800  0.25198100  1
  C  C55  1  0.61587500  0.60192800  0.75369300  1
  C  C56  1  0.35907500  0.40459200  0.25230200  1
  C  C57  1  0.36355500  0.40426400  0.75194200  1
  C  C58  1  0.35963400  0.90477100  0.25296900  1
  C  C59  1  0.36160200  0.90432400  0.74847300  1
  C  C60  1  0.85890400  0.40339600  0.25215100  1
  C  C61  1  0.86233500  0.40474500  0.75104900  1
  C  C62  1  0.85760200  0.90422200  0.24984300  1
  C  C63  1  0.86080600  0.90418400  0.74868300  1
  C  C64  1  0.12335900  0.11718300  0.48603800  1
  C  C65  1  0.12248000  0.11965200  0.98500600  1
  C  C66  1  0.12128500  0.62040300  0.48531500  1
  C  C67  1  0.12264900  0.62049200  0.98599500  1
  C  C68  1  0.62182100  0.11700700  0.48387100  1
  C  C69  1  0.62801300  0.11681600  0.98931600  1
  C  C70  1  0.62282000  0.61967300  0.48457100  1
  C  C71  1  0.62459000  0.62156700  0.98634400  1
  C  C72  1  0.14033400  0.38032200  0.01721300  1
  C  C73  1  0.13035000  0.37724400  0.50482000  1
  C  C74  1  0.13858100  0.88307000  0.01535400  1
  C  C75  1  0.13675300  0.87993400  0.51300900  1
  C  C76  1  0.64091800  0.37602900  0.01409100  1
  C  C77  1  0.63608500  0.38073700  0.50795900  1
  C  C78  1  0.63927700  0.88082800  0.01751100  1
  C  C79  1  0.63644900  0.87837000  0.51167700  1
  C  C80  1  0.37292300  0.11423300  0.48663100  1
  C  C81  1  0.37096200  0.11638900  0.98973600  1
  C  C82  1  0.37370400  0.61653600  0.48362500  1
  C  C83  1  0.37021200  0.62362600  0.98923800  1
  C  C84  1  0.87235100  0.11393300  0.48455000  1
  C  C85  1  0.87481600  0.11693000  0.98682000  1
  C  C86  1  0.87256800  0.61728000  0.48469700  1
  C  C87  1  0.87388400  0.61468700  0.98419600  1
  C  C88  1  0.38555000  0.38391200  0.01434400  1
  C  C89  1  0.38462300  0.38001000  0.50654700  1
  C  C90  1  0.38798400  0.88344100  0.01424500  1
  C  C91  1  0.38769700  0.88236800  0.51209500  1
  C  C92  1  0.88696600  0.38311500  0.01284200  1
  C  C93  1  0.88262900  0.38494200  0.51021300  1
  C  C94  1  0.89003300  0.88657600  0.01724300  1
  C  C95  1  0.88772000  0.88219800  0.51382700  1
  C  C96  1  0.08142900  0.09604000  0.12803900  1
  C  C97  1  0.07617000  0.08344700  0.63093800  1
  C  C98  1  0.07844600  0.59403700  0.12740100  1
  C  C99  1  0.07348500  0.58904000  0.63135800  1
  C  C100  1  0.57842400  0.09503400  0.12801300  1
  C  C101  1  0.58062500  0.08377600  0.62961200  1
  C  C102  1  0.57976400  0.59351400  0.12954000  1
  C  C103  1  0.57839900  0.59193200  0.62921000  1
  C  C104  1  0.44629400  0.40899600  0.36689300  1
  C  C105  1  0.44879200  0.41399300  0.87077300  1
  C  C106  1  0.44586500  0.90733700  0.36790000  1
  C  C107  1  0.45361200  0.90724600  0.87316600  1
  C  C108  1  0.94403300  0.40914000  0.36708400  1
  C  C109  1  0.95774900  0.40508100  0.87394200  1
  C  C110  1  0.94975600  0.90312600  0.37046000  1
  C  C111  1  0.95230400  0.90538500  0.87253100  1
  C  C112  1  0.33436100  0.29016400  0.14028300  1
  C  C113  1  0.32196700  0.29353500  0.63175400  1
  C  C114  1  0.33112700  0.79229500  0.13959900  1
  C  C115  1  0.32798600  0.78906000  0.62669700  1
  C  C116  1  0.83603100  0.29184700  0.13927700  1
  C  C117  1  0.82147300  0.28424000  0.62707500  1
  C  C118  1  0.83376200  0.77954700  0.12744200  1
  C  C119  1  0.82875900  0.78354500  0.62715400  1
  C  C120  1  0.19917400  0.21213200  0.36938100  1
  C  C121  1  0.18738700  0.20846700  0.85997300  1
  C  C122  1  0.20035100  0.71592500  0.37109300  1
  C  C123  1  0.19274700  0.71385400  0.86188000  1
  C  C124  1  0.70003700  0.21490200  0.37078600  1
  C  C125  1  0.69305300  0.20507400  0.85999100  1
  C  C126  1  0.69963700  0.71623200  0.37187700  1
  C  C127  1  0.70783000  0.72434300  0.87495300  1
  C  C128  1  0.41920100  0.07131100  0.25052300  1
  C  C129  1  0.42504900  0.07574400  0.74177900  1
  C  C130  1  0.42161900  0.57017500  0.25005500  1
  C  C131  1  0.43154000  0.57323500  0.75730300  1
  C  C132  1  0.91989700  0.07891600  0.24988300  1
  C  C133  1  0.92115600  0.08238000  0.74818000  1
  C  C134  1  0.92117200  0.56867200  0.25004700  1
  C  C135  1  0.92663900  0.58124500  0.74943500  1
  C  C136  1  0.17628100  0.41897100  0.25068400  1
  C  C137  1  0.18092800  0.43852900  0.75776800  1
  C  C138  1  0.17533500  0.91830800  0.25052200  1
  C  C139  1  0.17173400  0.93019000  0.75075300  1
  C  C140  1  0.67533600  0.41917600  0.25050500  1
  C  C141  1  0.67951100  0.43205400  0.75945000  1
  C  C142  1  0.66791500  0.91909500  0.24946900  1
  C  C143  1  0.67121700  0.92739700  0.74983200  1
