# generated using pymatgen
data_Cu2NiC10
_symmetry_space_group_name_H-M   'P 1'
_cell_length_a   6.17777900
_cell_length_b   8.37769200
_cell_length_c   13.53325100
_cell_angle_alpha   90.00000000
_cell_angle_beta   90.00000000
_cell_angle_gamma   90.00000000
_symmetry_Int_Tables_number   1
_chemical_formula_structural   Cu2NiC10
_chemical_formula_sum   'Cu8 Ni4 C40'
_cell_volume   700.42057415
_cell_formula_units_Z   4
loop_
 _symmetry_equiv_pos_site_id
 _symmetry_equiv_pos_as_xyz
  1  'x, y, z'
loop_
 _atom_site_type_symbol
 _atom_site_label
 _atom_site_symmetry_multiplicity
 _atom_site_fract_x
 _atom_site_fract_y
 _atom_site_fract_z
 _atom_site_occupancy
  C  C0  1  0.75000000  0.86941100  0.75090500  1
  C  C1  1  0.75000000  0.63058900  0.25090500  1
  C  C2  1  0.25000000  0.13058900  0.24909500  1
  C  C3  1  0.25000000  0.36941100  0.74909500  1
  C  C4  1  0.00000000  0.50000000  0.00000000  1
  C  C5  1  0.50000000  0.00000000  0.50000000  1
  C  C6  1  0.50000000  0.50000000  0.00000000  1
  C  C7  1  0.00000000  0.00000000  0.50000000  1
  C  C8  1  0.75000000  0.21369600  0.88774800  1
  C  C9  1  0.75000000  0.28630400  0.38774800  1
  C  C10  1  0.25000000  0.78630400  0.11225200  1
  C  C11  1  0.25000000  0.71369600  0.61225200  1
  Ni  Ni12  1  0.75000000  0.52808600  0.84458300  1
  Ni  Ni13  1  0.75000000  0.97191400  0.34458300  1
  Ni  Ni14  1  0.25000000  0.47191400  0.15541700  1
  Ni  Ni15  1  0.25000000  0.02808600  0.65541700  1
  Cu  Cu16  1  0.25000000  0.11992800  0.97286000  1
  Cu  Cu17  1  0.25000000  0.38007200  0.47286000  1
  Cu  Cu18  1  0.75000000  0.88007200  0.02714000  1
  Cu  Cu19  1  0.75000000  0.61992800  0.52714000  1
  Cu  Cu20  1  0.75000000  0.22598900  0.67269800  1
  Cu  Cu21  1  0.75000000  0.27401100  0.17269800  1
  Cu  Cu22  1  0.25000000  0.77401100  0.32730200  1
  Cu  Cu23  1  0.25000000  0.72598900  0.82730200  1
  C  C24  1  0.25000000  0.03078000  0.08717500  1
  C  C25  1  0.25000000  0.46922000  0.58717500  1
  C  C26  1  0.75000000  0.96922000  0.91282500  1
  C  C27  1  0.75000000  0.53078000  0.41282500  1
  C  C28  1  0.03097800  0.24939500  0.98122300  1
  C  C29  1  0.46902200  0.25060500  0.48122300  1
  C  C30  1  0.53097800  0.75060500  0.01877700  1
  C  C31  1  0.96902200  0.74939500  0.51877700  1
  C  C32  1  0.96902200  0.75060500  0.01877700  1
  C  C33  1  0.53097800  0.74939500  0.51877700  1
  C  C34  1  0.46902200  0.24939500  0.98122300  1
  C  C35  1  0.03097800  0.25060500  0.48122300  1
  C  C36  1  0.95616200  0.19847900  0.75727000  1
  C  C37  1  0.54383800  0.30152100  0.25727000  1
  C  C38  1  0.45616200  0.80152100  0.24273000  1
  C  C39  1  0.04383800  0.69847900  0.74273000  1
  C  C40  1  0.04383800  0.80152100  0.24273000  1
  C  C41  1  0.45616200  0.69847900  0.74273000  1
  C  C42  1  0.54383800  0.19847900  0.75727000  1
  C  C43  1  0.95616200  0.30152100  0.25727000  1
  C  C44  1  0.75000000  0.04268400  0.60974700  1
  C  C45  1  0.75000000  0.45731600  0.10974700  1
  C  C46  1  0.25000000  0.95731600  0.39025300  1
  C  C47  1  0.25000000  0.54268400  0.89025300  1
  C  C48  1  0.75000000  0.46268700  0.90408900  1
  C  C49  1  0.75000000  0.03731300  0.40408900  1
  C  C50  1  0.25000000  0.53731300  0.09591100  1
  C  C51  1  0.25000000  0.96268700  0.59591100  1
