# generated using pymatgen
data_Cu5(NiC)2
_symmetry_space_group_name_H-M   'P 1'
_cell_length_a   9.66493134
_cell_length_b   9.66493134
_cell_length_c   11.26598300
_cell_angle_alpha   90.00000000
_cell_angle_beta   90.00000000
_cell_angle_gamma   91.23436491
_symmetry_Int_Tables_number   1
_chemical_formula_structural   Cu5(NiC)2
_chemical_formula_sum   'Cu20 Ni8 C8'
_cell_volume   1052.12137739
_cell_formula_units_Z   4
loop_
 _symmetry_equiv_pos_site_id
 _symmetry_equiv_pos_as_xyz
  1  'x, y, z'
loop_
 _atom_site_type_symbol
 _atom_site_label
 _atom_site_symmetry_multiplicity
 _atom_site_fract_x
 _atom_site_fract_y
 _atom_site_fract_z
 _atom_site_occupancy
  C  C0  1  0.92453400  0.42405900  0.75000000  1
  C  C1  1  0.07546600  0.57594100  0.25000000  1
  C  C2  1  0.57594100  0.07546600  0.75000000  1
  C  C3  1  0.42405900  0.92453400  0.25000000  1
  C  C4  1  0.14502000  0.14502000  0.50000000  1
  C  C5  1  0.85498000  0.85498000  0.00000000  1
  C  C6  1  0.85498000  0.85498000  0.50000000  1
  C  C7  1  0.14502000  0.14502000  0.00000000  1
  Ni  Ni8  1  0.59362100  0.68645700  0.75000000  1
  Ni  Ni9  1  0.40637900  0.31354300  0.25000000  1
  Ni  Ni10  1  0.31354300  0.40637900  0.75000000  1
  Ni  Ni11  1  0.68645700  0.59362100  0.25000000  1
  Ni  Ni12  1  0.25524300  0.74475700  0.91993300  1
  Ni  Ni13  1  0.74475700  0.25524300  0.41993300  1
  Ni  Ni14  1  0.25524300  0.74475700  0.58006700  1
  Ni  Ni15  1  0.74475700  0.25524300  0.08006700  1
  Cu  Cu16  1  0.73232900  0.83025100  0.25000000  1
  Cu  Cu17  1  0.26767100  0.16974900  0.75000000  1
  Cu  Cu18  1  0.16974900  0.26767100  0.25000000  1
  Cu  Cu19  1  0.83025100  0.73232900  0.75000000  1
  Cu  Cu20  1  0.15687200  0.84312800  0.08738600  1
  Cu  Cu21  1  0.84312800  0.15687200  0.58738600  1
  Cu  Cu22  1  0.15687200  0.84312800  0.41261400  1
  Cu  Cu23  1  0.84312800  0.15687200  0.91261400  1
  Cu  Cu24  1  0.15019700  0.84980300  0.75000000  1
  Cu  Cu25  1  0.84980300  0.15019700  0.25000000  1
  Cu  Cu26  1  0.49956400  0.20207300  0.07603100  1
  Cu  Cu27  1  0.50043600  0.79792700  0.57603100  1
  Cu  Cu28  1  0.79792700  0.50043600  0.42396900  1
  Cu  Cu29  1  0.20207300  0.49956400  0.92396900  1
  Cu  Cu30  1  0.50043600  0.79792700  0.92396900  1
  Cu  Cu31  1  0.49956400  0.20207300  0.42396900  1
  Cu  Cu32  1  0.20207300  0.49956400  0.57603100  1
  Cu  Cu33  1  0.79792700  0.50043600  0.07603100  1
  Cu  Cu34  1  0.55813000  0.44187000  0.75000000  1
  Cu  Cu35  1  0.44187000  0.55813000  0.25000000  1
