# generated using pymatgen
data_CuNi2C5
_symmetry_space_group_name_H-M   'P 1'
_cell_length_a   5.68943000
_cell_length_b   5.68943000
_cell_length_c   13.69739100
_cell_angle_alpha   90.00000000
_cell_angle_beta   90.00000000
_cell_angle_gamma   90.00000000
_symmetry_Int_Tables_number   1
_chemical_formula_structural   CuNi2C5
_chemical_formula_sum   'Cu4 Ni8 C20'
_cell_volume   443.37925571
_cell_formula_units_Z   4
loop_
 _symmetry_equiv_pos_site_id
 _symmetry_equiv_pos_as_xyz
  1  'x, y, z'
loop_
 _atom_site_type_symbol
 _atom_site_label
 _atom_site_symmetry_multiplicity
 _atom_site_fract_x
 _atom_site_fract_y
 _atom_site_fract_z
 _atom_site_occupancy
  Ni  Ni0  1  0.50000000  0.00000000  0.75002100  1
  Ni  Ni1  1  0.00000000  0.50000000  0.24997900  1
  Ni  Ni2  1  0.00000000  0.00000000  0.00000000  1
  Ni  Ni3  1  0.50000000  0.50000000  0.50000000  1
  Ni  Ni4  1  0.00000000  0.00000000  0.32793300  1
  Ni  Ni5  1  0.00000000  0.00000000  0.67206700  1
  Ni  Ni6  1  0.50000000  0.50000000  0.82793700  1
  Ni  Ni7  1  0.50000000  0.50000000  0.17206300  1
  Cu  Cu8  1  0.50000000  0.00000000  0.08676200  1
  Cu  Cu9  1  0.00000000  0.50000000  0.91323800  1
  Cu  Cu10  1  0.00000000  0.50000000  0.58680700  1
  Cu  Cu11  1  0.50000000  0.00000000  0.41319300  1
  C  C12  1  0.67531100  0.17532400  0.25001700  1
  C  C13  1  0.82467600  0.67531100  0.74998300  1
  C  C14  1  0.32468900  0.82467600  0.25001700  1
  C  C15  1  0.17532400  0.32468900  0.74998300  1
  C  C16  1  0.15900900  0.19661400  0.15170300  1
  C  C17  1  0.80338600  0.15900900  0.84829700  1
  C  C18  1  0.84099100  0.80338600  0.15170300  1
  C  C19  1  0.19661400  0.84099100  0.84829700  1
  C  C20  1  0.34110900  0.69662600  0.65177000  1
  C  C21  1  0.69662600  0.65889100  0.34823000  1
  C  C22  1  0.65889100  0.30337400  0.65177000  1
  C  C23  1  0.30337400  0.34110900  0.34823000  1
  C  C24  1  0.34373900  0.23078500  0.94823300  1
  C  C25  1  0.76921500  0.34373900  0.05176700  1
  C  C26  1  0.65626100  0.76921500  0.94823300  1
  C  C27  1  0.23078500  0.65626100  0.05176700  1
  C  C28  1  0.15608500  0.73098900  0.44820800  1
  C  C29  1  0.73098900  0.84391500  0.55179200  1
  C  C30  1  0.84391500  0.26901100  0.44820800  1
  C  C31  1  0.26901100  0.15608500  0.55179200  1
