# generated using pymatgen
data_Cu(NiC)2
_symmetry_space_group_name_H-M   'P 1'
_cell_length_a   8.86681000
_cell_length_b   8.87617378
_cell_length_c   8.87817098
_cell_angle_alpha   109.65738107
_cell_angle_beta   109.36006578
_cell_angle_gamma   109.33705866
_symmetry_Int_Tables_number   1
_chemical_formula_structural   Cu(NiC)2
_chemical_formula_sum   'Cu8 Ni16 C16'
_cell_volume   538.28007234
_cell_formula_units_Z   8
loop_
 _symmetry_equiv_pos_site_id
 _symmetry_equiv_pos_as_xyz
  1  'x, y, z'
loop_
 _atom_site_type_symbol
 _atom_site_label
 _atom_site_symmetry_multiplicity
 _atom_site_fract_x
 _atom_site_fract_y
 _atom_site_fract_z
 _atom_site_occupancy
  C  C0  1  0.71398400  0.95809800  0.24945200  1
  C  C1  1  0.49996800  0.50712500  0.48985100  1
  C  C2  1  0.75606600  0.79047100  0.96799700  1
  C  C3  1  0.24172200  0.70377700  0.53620900  1
  C  C4  1  0.97244400  0.75061300  0.28071900  1
  C  C5  1  0.46364700  0.74787600  0.78099900  1
  C  C6  1  0.00066700  0.49959100  0.00203600  1
  C  C7  1  0.20635900  0.45851300  0.25474300  1
  C  C8  1  0.79059300  0.53258200  0.75753300  1
  C  C9  1  0.50182500  0.00857300  0.98826300  1
  C  C10  1  0.00922500  0.00475100  0.50241800  1
  C  C11  1  0.53360900  0.25713700  0.21232600  1
  C  C12  1  0.02887800  0.24620800  0.71292600  1
  C  C13  1  0.25780800  0.21957200  0.03634700  1
  C  C14  1  0.74660900  0.28577700  0.46670200  1
  C  C15  1  0.28781900  0.03940500  0.74899900  1
  Ni  Ni16  1  0.51066900  0.73989300  0.53507500  1
  Ni  Ni17  1  0.24042100  0.46832600  0.98385700  1
  Ni  Ni18  1  0.04433500  0.77305000  0.48633300  1
  Ni  Ni19  1  0.76943000  0.04370900  0.96999900  1
  Ni  Ni20  1  0.99127400  0.45673100  0.77373000  1
  Ni  Ni21  1  0.53546900  0.27243200  0.95054200  1
  Ni  Ni22  1  0.27622500  0.51417100  0.45051900  1
  Ni  Ni23  1  0.03519000  0.98539500  0.73825800  1
  Ni  Ni24  1  0.00569200  0.54145100  0.22998900  1
  Ni  Ni25  1  0.22603600  0.95805900  0.03407100  1
  Ni  Ni26  1  0.75967100  0.53238500  0.01289600  1
  Ni  Ni27  1  0.95220300  0.22403300  0.51285900  1
  Ni  Ni28  1  0.54355600  0.02888400  0.72988400  1
  Ni  Ni29  1  0.73978300  0.72701100  0.23014600  1
  Ni  Ni30  1  0.26955400  0.23380300  0.27289500  1
  Ni  Ni31  1  0.49110200  0.26312000  0.46610800  1
  Cu  Cu32  1  0.72479900  0.76151400  0.73063000  1
  Cu  Cu33  1  0.26234200  0.27262500  0.77084800  1
  Cu  Cu34  1  0.45843200  0.96956900  0.27329700  1
  Cu  Cu35  1  0.46809000  0.72651200  0.04490500  1
  Cu  Cu36  1  0.96135500  0.01512200  0.26238000  1
  Cu  Cu37  1  0.72390500  0.48466200  0.55033500  1
  Cu  Cu38  1  0.22446500  0.77163500  0.76562700  1
  Cu  Cu39  1  0.77478400  0.22583900  0.23729700  1
