# generated using pymatgen
data_CuNiC3
_symmetry_space_group_name_H-M   'P 1'
_cell_length_a   8.94090800
_cell_length_b   5.26336700
_cell_length_c   18.62369252
_cell_angle_alpha   89.42909378
_cell_angle_beta   90.00000000
_cell_angle_gamma   90.00000000
_symmetry_Int_Tables_number   1
_chemical_formula_structural   CuNiC3
_chemical_formula_sum   'Cu16 Ni16 C48'
_cell_volume   876.37405587
_cell_formula_units_Z   16
loop_
 _symmetry_equiv_pos_site_id
 _symmetry_equiv_pos_as_xyz
  1  'x, y, z'
loop_
 _atom_site_type_symbol
 _atom_site_label
 _atom_site_symmetry_multiplicity
 _atom_site_fract_x
 _atom_site_fract_y
 _atom_site_fract_z
 _atom_site_occupancy
  Ni  Ni0  1  0.39879300  0.75000000  0.00000000  1
  Ni  Ni1  1  0.60120700  0.25000000  0.00000000  1
  Ni  Ni2  1  0.24533000  0.25000000  0.00000000  1
  Ni  Ni3  1  0.75467000  0.75000000  0.00000000  1
  Ni  Ni4  1  0.90140500  0.81926300  0.25114200  1
  Ni  Ni5  1  0.90140500  0.68073700  0.74885800  1
  Ni  Ni6  1  0.09859500  0.18073700  0.74885800  1
  Ni  Ni7  1  0.09859500  0.31926300  0.25114200  1
  Ni  Ni8  1  0.25995700  0.82000800  0.24943200  1
  Ni  Ni9  1  0.25995700  0.67999200  0.75056800  1
  Ni  Ni10  1  0.74004300  0.17999200  0.75056800  1
  Ni  Ni11  1  0.74004300  0.32000800  0.24943200  1
  Ni  Ni12  1  0.59859500  0.25000000  0.50000000  1
  Ni  Ni13  1  0.40140500  0.75000000  0.50000000  1
  Ni  Ni14  1  0.24145600  0.25000000  0.50000000  1
  Ni  Ni15  1  0.75854400  0.75000000  0.50000000  1
  Cu  Cu16  1  0.91222500  0.02975700  0.89622300  1
  Cu  Cu17  1  0.91222500  0.47024300  0.10377700  1
  Cu  Cu18  1  0.08777500  0.97024300  0.10377700  1
  Cu  Cu19  1  0.08777500  0.52975700  0.89622300  1
  Cu  Cu20  1  0.41179200  0.09033700  0.85081500  1
  Cu  Cu21  1  0.41179200  0.40966300  0.14918500  1
  Cu  Cu22  1  0.58820800  0.90966300  0.14918500  1
  Cu  Cu23  1  0.58820800  0.59033700  0.85081500  1
  Cu  Cu24  1  0.91043300  0.15367400  0.39884700  1
  Cu  Cu25  1  0.91043300  0.34632600  0.60115300  1
  Cu  Cu26  1  0.08956700  0.84632600  0.60115300  1
  Cu  Cu27  1  0.08956700  0.65367400  0.39884700  1
  Cu  Cu28  1  0.58870900  0.60555700  0.35255000  1
  Cu  Cu29  1  0.58870900  0.89444300  0.64745000  1
  Cu  Cu30  1  0.41129100  0.39444300  0.64745000  1
  Cu  Cu31  1  0.41129100  0.10555700  0.35255000  1
  C  C32  1  0.91174700  0.02317000  0.80834000  1
  C  C33  1  0.91174700  0.47683000  0.19166000  1
  C  C34  1  0.08825300  0.97683000  0.19166000  1
  C  C35  1  0.08825300  0.52317000  0.80834000  1
  C  C36  1  0.75880400  0.06821400  0.93918500  1
  C  C37  1  0.75880400  0.43178600  0.06081500  1
  C  C38  1  0.24119600  0.93178600  0.06081500  1
  C  C39  1  0.24119600  0.56821400  0.93918500  1
  C  C40  1  0.04016500  0.23612400  0.92393300  1
  C  C41  1  0.04016500  0.26387600  0.07606700  1
  C  C42  1  0.95983500  0.76387600  0.07606700  1
  C  C43  1  0.95983500  0.73612400  0.92393300  1
  C  C44  1  0.40978900  0.08134900  0.93890100  1
  C  C45  1  0.40978900  0.41865100  0.06109900  1
  C  C46  1  0.59021100  0.91865100  0.06109900  1
  C  C47  1  0.59021100  0.58134900  0.93890100  1
  C  C48  1  0.26308900  0.99781200  0.80926600  1
  C  C49  1  0.26308900  0.50218800  0.19073400  1
  C  C50  1  0.73691100  0.00218800  0.19073400  1
  C  C51  1  0.73691100  0.49781200  0.80926600  1
  C  C52  1  0.54725900  0.88871000  0.82408500  1
  C  C53  1  0.54725900  0.61129000  0.17591500  1
  C  C54  1  0.45274100  0.11129000  0.17591500  1
  C  C55  1  0.45274100  0.38871000  0.82408500  1
  C  C56  1  0.90766700  0.15035800  0.31096200  1
  C  C57  1  0.90766700  0.34964200  0.68903800  1
  C  C58  1  0.09233300  0.84964200  0.68903800  1
  C  C59  1  0.09233300  0.65035800  0.31096200  1
  C  C60  1  0.75896700  0.06804500  0.43974200  1
  C  C61  1  0.75896700  0.43195500  0.56025800  1
  C  C62  1  0.24103300  0.93195500  0.56025800  1
  C  C63  1  0.24103300  0.56804500  0.43974200  1
  C  C64  1  0.04170500  0.94456800  0.42624500  1
  C  C65  1  0.04170500  0.55543200  0.57375500  1
  C  C66  1  0.95829500  0.05543200  0.57375500  1
  C  C67  1  0.95829500  0.44456800  0.42624500  1
  C  C68  1  0.58775400  0.59366700  0.44031500  1
  C  C69  1  0.58775400  0.90633300  0.55968500  1
  C  C70  1  0.41224600  0.40633300  0.55968500  1
  C  C71  1  0.41224600  0.09366700  0.44031500  1
  C  C72  1  0.74491800  0.63839000  0.31165700  1
  C  C73  1  0.74491800  0.86161000  0.68834300  1
  C  C74  1  0.25508200  0.36161000  0.68834300  1
  C  C75  1  0.25508200  0.13839000  0.31165700  1
  C  C76  1  0.53722200  0.31665600  0.32315500  1
  C  C77  1  0.53722200  0.18334400  0.67684500  1
  C  C78  1  0.46277800  0.68334400  0.67684500  1
  C  C79  1  0.46277800  0.81665600  0.32315500  1
