# generated using pymatgen
data_Cu2Ni4C23
_symmetry_space_group_name_H-M   'P 1'
_cell_length_a   25.05427571
_cell_length_b   25.05427571
_cell_length_c   5.52540334
_cell_angle_alpha   89.88220017
_cell_angle_beta   89.88220017
_cell_angle_gamma   167.25693656
_symmetry_Int_Tables_number   1
_chemical_formula_structural   Cu2Ni4C23
_chemical_formula_sum   'Cu4 Ni8 C46'
_cell_volume   764.92349960
_cell_formula_units_Z   2
loop_
 _symmetry_equiv_pos_site_id
 _symmetry_equiv_pos_as_xyz
  1  'x, y, z'
loop_
 _atom_site_type_symbol
 _atom_site_label
 _atom_site_symmetry_multiplicity
 _atom_site_fract_x
 _atom_site_fract_y
 _atom_site_fract_z
 _atom_site_occupancy
  C  C0  1  0.94621400  0.61128000  0.48917800  1
  C  C1  1  0.09786900  0.43097200  0.48998600  1
  C  C2  1  0.43097200  0.09786900  0.98998600  1
  C  C3  1  0.61128000  0.94621400  0.98917800  1
  C  C4  1  0.83874600  0.67870200  0.49983400  1
  C  C5  1  0.19380900  0.35428300  0.48851200  1
  C  C6  1  0.35428300  0.19380900  0.98851200  1
  C  C7  1  0.67870200  0.83874600  0.99983400  1
  C  C8  1  0.01782000  0.51864300  0.49764600  1
  C  C9  1  0.51864300  0.01782000  0.99764600  1
  Ni  Ni10  1  0.34580400  0.10934000  0.47605900  1
  Ni  Ni11  1  0.10934000  0.34580400  0.97605900  1
  Ni  Ni12  1  0.51555900  0.92856200  0.48063000  1
  Ni  Ni13  1  0.92856200  0.51555900  0.98063000  1
  Ni  Ni14  1  0.71031500  0.76094800  0.46966300  1
  Ni  Ni15  1  0.26286300  0.21240600  0.52518700  1
  Ni  Ni16  1  0.21240600  0.26286300  0.02518700  1
  Ni  Ni17  1  0.76094800  0.71031500  0.96966300  1
  Cu  Cu18  1  0.63049100  0.87635200  0.49437600  1
  Cu  Cu19  1  0.87635200  0.63049100  0.99437600  1
  Cu  Cu20  1  0.46255000  0.04532700  0.48967700  1
  Cu  Cu21  1  0.04532700  0.46255000  0.98967700  1
  C  C22  1  0.61811500  0.43647500  0.74980800  1
  C  C23  1  0.94402400  0.12357200  0.25152700  1
  C  C24  1  0.12357200  0.94402400  0.75152700  1
  C  C25  1  0.43647500  0.61811500  0.24980800  1
  C  C26  1  0.80624900  0.29940900  0.76212100  1
  C  C27  1  0.79990200  0.30842700  0.25504600  1
  C  C28  1  0.30842700  0.79990200  0.75504600  1
  C  C29  1  0.29940900  0.80624900  0.26212100  1
  C  C30  1  0.00115000  0.00322900  0.75521500  1
  C  C31  1  0.50189600  0.50036000  0.24480300  1
  C  C32  1  0.50036000  0.50189600  0.74480300  1
  C  C33  1  0.00322900  0.00115000  0.25521500  1
  C  C34  1  0.75887800  0.42333100  0.79613700  1
  C  C35  1  0.92686500  0.25790300  0.21207600  1
  C  C36  1  0.25790300  0.92686500  0.71207600  1
  C  C37  1  0.42333100  0.75887800  0.29613700  1
  C  C38  1  0.83842700  0.18991400  0.71691900  1
  C  C39  1  0.70283000  0.35701500  0.27912700  1
  C  C40  1  0.35701500  0.70283000  0.77912700  1
  C  C41  1  0.18991400  0.83842700  0.21691900  1
  C  C42  1  0.01354900  0.59380300  0.56920100  1
  C  C43  1  0.11026300  0.53033300  0.46359900  1
  C  C44  1  0.53033300  0.11026300  0.96359900  1
  C  C45  1  0.59380300  0.01354900  0.06920100  1
  C  C46  1  0.81931000  0.72950900  0.54902800  1
  C  C47  1  0.23926100  0.32928300  0.44992500  1
  C  C48  1  0.32928300  0.23926100  0.94992500  1
  C  C49  1  0.72950900  0.81931000  0.04902800  1
  C  C50  1  0.95844800  0.12923600  0.76664500  1
  C  C51  1  0.61635500  0.44590300  0.25148200  1
  C  C52  1  0.44590300  0.61635500  0.75148200  1
  C  C53  1  0.12923600  0.95844800  0.26664500  1
  C  C54  1  0.95271300  0.69277100  0.46674200  1
  C  C55  1  0.15126600  0.41116900  0.55984900  1
  C  C56  1  0.41116900  0.15126600  0.05984900  1
  C  C57  1  0.69277100  0.95271300  0.96674200  1
