# generated using pymatgen
data_CuNiC61
_symmetry_space_group_name_H-M   'P 1'
_cell_length_a   8.55543900
_cell_length_b   8.55543900
_cell_length_c   8.52506900
_cell_angle_alpha   90.00000000
_cell_angle_beta   90.00000000
_cell_angle_gamma   90.00000000
_symmetry_Int_Tables_number   1
_chemical_formula_structural   CuNiC61
_chemical_formula_sum   'Cu1 Ni1 C61'
_cell_volume   623.99699901
_cell_formula_units_Z   1
loop_
 _symmetry_equiv_pos_site_id
 _symmetry_equiv_pos_as_xyz
  1  'x, y, z'
loop_
 _atom_site_type_symbol
 _atom_site_label
 _atom_site_symmetry_multiplicity
 _atom_site_fract_x
 _atom_site_fract_y
 _atom_site_fract_z
 _atom_site_occupancy
  Ni  Ni0  1  0.50000000  0.50000000  0.99890900  1
  Cu  Cu1  1  0.00000000  0.00000000  0.97732700  1
  C  C2  1  0.50000000  0.00000000  0.99640500  1
  C  C3  1  0.00000000  0.50000000  0.99640500  1
  C  C4  1  0.00000000  0.00000000  0.52084800  1
  C  C5  1  0.50000000  0.00000000  0.50278100  1
  C  C6  1  0.00000000  0.50000000  0.50278100  1
  C  C7  1  0.50000000  0.50000000  0.50078000  1
  C  C8  1  0.24816100  0.24816100  0.00030200  1
  C  C9  1  0.75183900  0.24816100  0.00030200  1
  C  C10  1  0.24816100  0.75183900  0.00030200  1
  C  C11  1  0.75183900  0.75183900  0.00030200  1
  C  C12  1  0.24976800  0.24976800  0.49998700  1
  C  C13  1  0.75023200  0.24976800  0.49998700  1
  C  C14  1  0.24976800  0.75023200  0.49998700  1
  C  C15  1  0.75023200  0.75023200  0.49998700  1
  C  C16  1  0.27034200  0.00000000  0.24583200  1
  C  C17  1  0.72965800  0.00000000  0.24583200  1
  C  C18  1  0.25379600  0.50000000  0.24734300  1
  C  C19  1  0.74620400  0.50000000  0.24734300  1
  C  C20  1  0.24859900  0.00000000  0.75693800  1
  C  C21  1  0.75140100  0.00000000  0.75693800  1
  C  C22  1  0.25218200  0.50000000  0.75263600  1
  C  C23  1  0.74781800  0.50000000  0.75263600  1
  C  C24  1  0.00000000  0.27034200  0.24583200  1
  C  C25  1  0.50000000  0.25379600  0.24734300  1
  C  C26  1  0.00000000  0.72965800  0.24583200  1
  C  C27  1  0.50000000  0.74620400  0.24734300  1
  C  C28  1  0.00000000  0.24859900  0.75693800  1
  C  C29  1  0.50000000  0.25218200  0.75263600  1
  C  C30  1  0.00000000  0.75140100  0.75693800  1
  C  C31  1  0.50000000  0.74781800  0.75263600  1
  C  C32  1  0.50000000  0.00000000  0.25475600  1
  C  C33  1  0.00000000  0.50000000  0.25475600  1
  C  C34  1  0.50000000  0.50000000  0.26303300  1
  C  C35  1  0.00000000  0.00000000  0.74994100  1
  C  C36  1  0.50000000  0.00000000  0.74622900  1
  C  C37  1  0.00000000  0.50000000  0.74622900  1
  C  C38  1  0.50000000  0.50000000  0.73647300  1
  C  C39  1  0.24454400  0.24454400  0.25050500  1
  C  C40  1  0.75545600  0.24454400  0.25050500  1
  C  C41  1  0.24454400  0.75545600  0.25050500  1
  C  C42  1  0.75545600  0.75545600  0.25050500  1
  C  C43  1  0.24847100  0.24847100  0.74929500  1
  C  C44  1  0.75152900  0.24847100  0.74929500  1
  C  C45  1  0.24847100  0.75152900  0.74929500  1
  C  C46  1  0.75152900  0.75152900  0.74929500  1
  C  C47  1  0.24968300  0.00000000  0.00539100  1
  C  C48  1  0.75031700  0.00000000  0.00539100  1
  C  C49  1  0.23673900  0.50000000  0.00166100  1
  C  C50  1  0.76326100  0.50000000  0.00166100  1
  C  C51  1  0.24271000  0.00000000  0.49240600  1
  C  C52  1  0.75729000  0.00000000  0.49240600  1
  C  C53  1  0.24643200  0.50000000  0.49829100  1
  C  C54  1  0.75356800  0.50000000  0.49829100  1
  C  C55  1  0.00000000  0.24968300  0.00539100  1
  C  C56  1  0.50000000  0.23673900  0.00166100  1
  C  C57  1  0.00000000  0.75031700  0.00539100  1
  C  C58  1  0.50000000  0.76326100  0.00166100  1
  C  C59  1  0.00000000  0.24271000  0.49240600  1
  C  C60  1  0.50000000  0.24643200  0.49829100  1
  C  C61  1  0.00000000  0.75729000  0.49240600  1
  C  C62  1  0.50000000  0.75356800  0.49829100  1
