# generated using pymatgen
data_Cu4Ni4C
_symmetry_space_group_name_H-M   'P 1'
_cell_length_a   12.49342707
_cell_length_b   12.49342707
_cell_length_c   12.49342707
_cell_angle_alpha   157.55649835
_cell_angle_beta   116.49177289
_cell_angle_gamma   68.26429176
_symmetry_Int_Tables_number   1
_chemical_formula_structural   Cu4Ni4C
_chemical_formula_sum   'Cu16 Ni16 C4'
_cell_volume   661.25997351
_cell_formula_units_Z   4
loop_
 _symmetry_equiv_pos_site_id
 _symmetry_equiv_pos_as_xyz
  1  'x, y, z'
loop_
 _atom_site_type_symbol
 _atom_site_label
 _atom_site_symmetry_multiplicity
 _atom_site_fract_x
 _atom_site_fract_y
 _atom_site_fract_z
 _atom_site_occupancy
  C  C0  1  0.77669600  0.93569600  0.88234700  1
  C  C1  1  0.22330400  0.10565100  0.15900000  1
  C  C2  1  0.05334900  0.43569600  0.65900000  1
  C  C3  1  0.94665100  0.60565100  0.38234700  1
  Ni  Ni4  1  0.68815900  0.24379000  0.31603900  1
  Ni  Ni5  1  0.31184100  0.62788100  0.55563200  1
  Ni  Ni6  1  0.92775100  0.74379000  0.05563200  1
  Ni  Ni7  1  0.07224900  0.12788100  0.81603900  1
  Ni  Ni8  1  0.61510700  0.50860900  0.28453800  1
  Ni  Ni9  1  0.38489300  0.66943100  0.89350200  1
  Ni  Ni10  1  0.22407100  0.00860900  0.39350200  1
  Ni  Ni11  1  0.77592900  0.16943100  0.78453800  1
  Ni  Ni12  1  0.66751700  0.38323700  0.53162600  1
  Ni  Ni13  1  0.33248300  0.86410900  0.71571900  1
  Ni  Ni14  1  0.85161100  0.88323700  0.21571900  1
  Ni  Ni15  1  0.14838900  0.36410900  0.03162600  1
  Ni  Ni16  1  0.54437700  0.33322800  0.01829200  1
  Ni  Ni17  1  0.45562300  0.47391500  0.78885100  1
  Ni  Ni18  1  0.31493600  0.83322800  0.28885100  1
  Ni  Ni19  1  0.68506400  0.97391500  0.51829200  1
  Cu  Cu20  1  0.65914900  0.03043200  0.04751200  1
  Cu  Cu21  1  0.34085100  0.38836300  0.37128300  1
  Cu  Cu22  1  0.98292000  0.53043200  0.87128300  1
  Cu  Cu23  1  0.01708000  0.88836300  0.54751200  1
  Cu  Cu24  1  0.77198800  0.46697000  0.54331100  1
  Cu  Cu25  1  0.22801200  0.77132300  0.69498200  1
  Cu  Cu26  1  0.92365900  0.96697000  0.19498200  1
  Cu  Cu27  1  0.07634100  0.27132300  0.04331100  1
  Cu  Cu28  1  0.70604300  0.35914700  0.16552500  1
  Cu  Cu29  1  0.29395700  0.45948200  0.65310400  1
  Cu  Cu30  1  0.19362200  0.85914700  0.15310400  1
  Cu  Cu31  1  0.80637800  0.95948200  0.66552500  1
  Cu  Cu32  1  0.61296300  0.71600900  0.53789200  1
  Cu  Cu33  1  0.38703700  0.92492900  0.10304600  1
  Cu  Cu34  1  0.17811800  0.21600900  0.60304600  1
  Cu  Cu35  1  0.82188200  0.42492900  0.03789200  1
