# generated using pymatgen
data_CuNiC14
_symmetry_space_group_name_H-M   'P 1'
_cell_length_a   6.76743547
_cell_length_b   6.67528776
_cell_length_c   10.91100990
_cell_angle_alpha   90.00000000
_cell_angle_beta   90.00000000
_cell_angle_gamma   119.55059394
_symmetry_Int_Tables_number   1
_chemical_formula_structural   CuNiC14
_chemical_formula_sum   'Cu1 Ni1 C14'
_cell_volume   428.78407339
_cell_formula_units_Z   1
loop_
 _symmetry_equiv_pos_site_id
 _symmetry_equiv_pos_as_xyz
  1  'x, y, z'
loop_
 _atom_site_type_symbol
 _atom_site_label
 _atom_site_symmetry_multiplicity
 _atom_site_fract_x
 _atom_site_fract_y
 _atom_site_fract_z
 _atom_site_occupancy
  Ni  Ni0  1  0.16670329  0.33335114  0.12500000  1
  Cu  Cu1  1  0.17271186  0.83635543  0.12500000  1
  C  C2  1  0.16311104  0.33155502  0.62500000  1
  C  C3  1  0.16267442  0.83133671  0.62500000  1
  C  C4  1  0.66479324  0.33532767  0.12500000  1
  C  C5  1  0.66955766  0.33398164  0.62500000  1
  C  C6  1  0.66479324  0.82946457  0.12500000  1
  C  C7  1  0.66955766  0.83557502  0.62500000  1
  C  C8  1  0.34600320  0.16874778  0.39951210  1
  C  C9  1  0.34600320  0.16874778  0.85048790  1
  C  C10  1  0.34600320  0.67725642  0.39951210  1
  C  C11  1  0.34600320  0.67725642  0.85048790  1
  C  C12  1  0.81709590  0.15854845  0.38739128  1
  C  C13  1  0.81709590  0.15854845  0.86260872  1
  C  C14  1  0.82394649  0.66197375  0.38188918  1
  C  C15  1  0.82394649  0.66197375  0.86811082  1
