# generated using pymatgen
data_Cu2Ni2C9
_symmetry_space_group_name_H-M   'P 1'
_cell_length_a   8.13816702
_cell_length_b   6.30248365
_cell_length_c   6.19360775
_cell_angle_alpha   81.26781474
_cell_angle_beta   49.94780974
_cell_angle_gamma   48.78437552
_symmetry_Int_Tables_number   1
_chemical_formula_structural   Cu2Ni2C9
_chemical_formula_sum   'Cu2 Ni2 C9'
_cell_volume   161.19372479
_cell_formula_units_Z   1
loop_
 _symmetry_equiv_pos_site_id
 _symmetry_equiv_pos_as_xyz
  1  'x, y, z'
loop_
 _atom_site_type_symbol
 _atom_site_label
 _atom_site_symmetry_multiplicity
 _atom_site_fract_x
 _atom_site_fract_y
 _atom_site_fract_z
 _atom_site_occupancy
  C  C0  1  0.00000000  0.00000000  0.00000000  1
  Ni  Ni1  1  0.00000000  0.00000000  0.50000000  1
  Ni  Ni2  1  0.50000000  0.50000000  0.00000000  1
  Cu  Cu3  1  0.00000000  0.50000000  0.00000000  1
  Cu  Cu4  1  0.50000000  0.00000000  0.50000000  1
  C  C5  1  0.72214000  0.50548700  0.49451300  1
  C  C6  1  0.27786000  0.49451300  0.50548700  1
  C  C7  1  0.50548700  0.72214000  0.27786000  1
  C  C8  1  0.49451300  0.27786000  0.72214000  1
  C  C9  1  0.65402600  0.99367000  0.00633000  1
  C  C10  1  0.34597400  0.00633000  0.99367000  1
  C  C11  1  0.99367000  0.65402600  0.34597400  1
  C  C12  1  0.00633000  0.34597400  0.65402600  1
