# generated using pymatgen
data_Cu4NiC6
_symmetry_space_group_name_H-M   'P 1'
_cell_length_a   7.64696400
_cell_length_b   10.02609900
_cell_length_c   10.59837300
_cell_angle_alpha   90.00000000
_cell_angle_beta   90.00000000
_cell_angle_gamma   90.00000000
_symmetry_Int_Tables_number   1
_chemical_formula_structural   Cu4NiC6
_chemical_formula_sum   'Cu16 Ni4 C24'
_cell_volume   812.56897118
_cell_formula_units_Z   4
loop_
 _symmetry_equiv_pos_site_id
 _symmetry_equiv_pos_as_xyz
  1  'x, y, z'
loop_
 _atom_site_type_symbol
 _atom_site_label
 _atom_site_symmetry_multiplicity
 _atom_site_fract_x
 _atom_site_fract_y
 _atom_site_fract_z
 _atom_site_occupancy
  C  C0  1  0.75000000  0.44877300  0.41144600  1
  C  C1  1  0.75000000  0.94877300  0.08855400  1
  C  C2  1  0.25000000  0.55122700  0.58855400  1
  C  C3  1  0.25000000  0.05122700  0.91144600  1
  Ni  Ni4  1  0.25000000  0.28399300  0.42497800  1
  Ni  Ni5  1  0.25000000  0.78399300  0.07502200  1
  Ni  Ni6  1  0.75000000  0.71600700  0.57502200  1
  Ni  Ni7  1  0.75000000  0.21600700  0.92497800  1
  Cu  Cu8  1  0.94860200  0.02076100  0.22309800  1
  Cu  Cu9  1  0.55139800  0.52076100  0.27690200  1
  Cu  Cu10  1  0.44860200  0.97923900  0.77690200  1
  Cu  Cu11  1  0.05139800  0.47923900  0.72309800  1
  Cu  Cu12  1  0.05139800  0.97923900  0.77690200  1
  Cu  Cu13  1  0.44860200  0.47923900  0.72309800  1
  Cu  Cu14  1  0.55139800  0.02076100  0.22309800  1
  Cu  Cu15  1  0.94860200  0.52076100  0.27690200  1
  Cu  Cu16  1  0.47134100  0.49809800  0.19181300  1
  Cu  Cu17  1  0.02865900  0.99809800  0.30818700  1
  Cu  Cu18  1  0.97134100  0.50190200  0.80818700  1
  Cu  Cu19  1  0.52865900  0.00190200  0.69181300  1
  Cu  Cu20  1  0.52865900  0.50190200  0.80818700  1
  Cu  Cu21  1  0.97134100  0.00190200  0.69181300  1
  Cu  Cu22  1  0.02865900  0.49809800  0.19181300  1
  Cu  Cu23  1  0.47134100  0.99809800  0.30818700  1
  C  C24  1  0.40882500  0.22518100  0.48064600  1
  C  C25  1  0.09117500  0.72518100  0.01935400  1
  C  C26  1  0.90882500  0.77481900  0.51935400  1
  C  C27  1  0.59117500  0.27481900  0.98064600  1
  C  C28  1  0.59117500  0.77481900  0.51935400  1
  C  C29  1  0.90882500  0.27481900  0.98064600  1
  C  C30  1  0.09117500  0.22518100  0.48064600  1
  C  C31  1  0.40882500  0.72518100  0.01935400  1
  C  C32  1  0.25000000  0.43509100  0.45308000  1
  C  C33  1  0.25000000  0.93509100  0.04692000  1
  C  C34  1  0.75000000  0.56490900  0.54692000  1
  C  C35  1  0.75000000  0.06490900  0.95308000  1
  C  C36  1  0.25000000  0.27191100  0.28694200  1
  C  C37  1  0.25000000  0.77191100  0.21305800  1
  C  C38  1  0.75000000  0.72808900  0.71305800  1
  C  C39  1  0.75000000  0.22808900  0.78694200  1
  C  C40  1  0.75000000  0.28613600  0.35380800  1
  C  C41  1  0.75000000  0.78613600  0.14619200  1
  C  C42  1  0.25000000  0.71386400  0.64619200  1
  C  C43  1  0.25000000  0.21386400  0.85380800  1
