# generated using pymatgen
data_Cu4NiC6
_symmetry_space_group_name_H-M   'P 1'
_cell_length_a   5.26734341
_cell_length_b   5.26734341
_cell_length_c   15.41064700
_cell_angle_alpha   90.00000000
_cell_angle_beta   90.00000000
_cell_angle_gamma   146.91570754
_symmetry_Int_Tables_number   1
_chemical_formula_structural   Cu4NiC6
_chemical_formula_sum   'Cu8 Ni2 C12'
_cell_volume   233.39695297
_cell_formula_units_Z   2
loop_
 _symmetry_equiv_pos_site_id
 _symmetry_equiv_pos_as_xyz
  1  'x, y, z'
loop_
 _atom_site_type_symbol
 _atom_site_label
 _atom_site_symmetry_multiplicity
 _atom_site_fract_x
 _atom_site_fract_y
 _atom_site_fract_z
 _atom_site_occupancy
  Ni  Ni0  1  0.33854900  0.66145100  0.75000000  1
  Ni  Ni1  1  0.66145100  0.33854900  0.25000000  1
  Cu  Cu2  1  0.13633000  0.86367000  0.04578200  1
  Cu  Cu3  1  0.59552700  0.40447300  0.63528400  1
  Cu  Cu4  1  0.86367000  0.13633000  0.95421800  1
  Cu  Cu5  1  0.40447300  0.59552700  0.36471600  1
  Cu  Cu6  1  0.13633000  0.86367000  0.45421800  1
  Cu  Cu7  1  0.86367000  0.13633000  0.54578200  1
  Cu  Cu8  1  0.40447300  0.59552700  0.13528400  1
  Cu  Cu9  1  0.59552700  0.40447300  0.86471600  1
  C  C10  1  0.50000000  0.50000000  0.50000000  1
  C  C11  1  0.50000000  0.50000000  0.00000000  1
  C  C12  1  0.96017900  0.03982100  0.83999500  1
  C  C13  1  0.03982100  0.96017900  0.16000500  1
  C  C14  1  0.03982100  0.96017900  0.33999500  1
  C  C15  1  0.96017900  0.03982100  0.66000500  1
  C  C16  1  0.21511200  0.78488800  0.92038200  1
  C  C17  1  0.78488800  0.21511200  0.07961800  1
  C  C18  1  0.78488800  0.21511200  0.42038200  1
  C  C19  1  0.21511200  0.78488800  0.57961800  1
  C  C20  1  0.69923800  0.30076200  0.75000000  1
  C  C21  1  0.30076200  0.69923800  0.25000000  1
