# generated using pymatgen
data_Cu3Ni6C13
_symmetry_space_group_name_H-M   'P 1'
_cell_length_a   8.45310450
_cell_length_b   8.45310450
_cell_length_c   8.45310503
_cell_angle_alpha   60.58577288
_cell_angle_beta   60.58577288
_cell_angle_gamma   60.58577974
_symmetry_Int_Tables_number   1
_chemical_formula_structural   Cu3Ni6C13
_chemical_formula_sum   'Cu6 Ni12 C26'
_cell_volume   432.75512431
_cell_formula_units_Z   2
loop_
 _symmetry_equiv_pos_site_id
 _symmetry_equiv_pos_as_xyz
  1  'x, y, z'
loop_
 _atom_site_type_symbol
 _atom_site_label
 _atom_site_symmetry_multiplicity
 _atom_site_fract_x
 _atom_site_fract_y
 _atom_site_fract_z
 _atom_site_occupancy
  C  C0  1  0.53435700  0.53435700  0.53435700  1
  C  C1  1  0.03435700  0.03435700  0.03435700  1
  Ni  Ni2  1  0.63484100  0.41149400  0.15654100  1
  Ni  Ni3  1  0.41149400  0.15654100  0.63484100  1
  Ni  Ni4  1  0.15654100  0.63484100  0.41149400  1
  Ni  Ni5  1  0.13484100  0.65654100  0.91149400  1
  Ni  Ni6  1  0.65654100  0.91149400  0.13484100  1
  Ni  Ni7  1  0.91149400  0.13484100  0.65654100  1
  Ni  Ni8  1  0.44727400  0.74600200  0.16151100  1
  Ni  Ni9  1  0.74600200  0.16151100  0.44727400  1
  Ni  Ni10  1  0.16151100  0.44727400  0.74600200  1
  Ni  Ni11  1  0.94727400  0.66151100  0.24600200  1
  Ni  Ni12  1  0.66151100  0.24600200  0.94727400  1
  Ni  Ni13  1  0.24600200  0.94727400  0.66151100  1
  Cu  Cu14  1  0.53266300  0.88419500  0.53209800  1
  Cu  Cu15  1  0.88419500  0.53209800  0.53266300  1
  Cu  Cu16  1  0.53209800  0.53266300  0.88419500  1
  Cu  Cu17  1  0.03266300  0.03209800  0.38419500  1
  Cu  Cu18  1  0.03209800  0.38419500  0.03266300  1
  Cu  Cu19  1  0.38419500  0.03266300  0.03209800  1
  C  C20  1  0.19730300  0.59234400  0.76229800  1
  C  C21  1  0.59234400  0.76229800  0.19730300  1
  C  C22  1  0.76229800  0.19730300  0.59234400  1
  C  C23  1  0.69730300  0.26229800  0.09234400  1
  C  C24  1  0.26229800  0.09234400  0.69730300  1
  C  C25  1  0.09234400  0.69730300  0.26229800  1
  C  C26  1  0.43276800  0.84104000  0.55171800  1
  C  C27  1  0.84104000  0.55171800  0.43276800  1
  C  C28  1  0.55171800  0.43276800  0.84104000  1
  C  C29  1  0.93276800  0.05171800  0.34104000  1
  C  C30  1  0.05171800  0.34104000  0.93276800  1
  C  C31  1  0.34104000  0.93276800  0.05171800  1
  C  C32  1  0.31862200  0.67421700  0.36361000  1
  C  C33  1  0.67421700  0.36361000  0.31862200  1
  C  C34  1  0.36361000  0.31862200  0.67421700  1
  C  C35  1  0.81862200  0.86361000  0.17421700  1
  C  C36  1  0.86361000  0.17421700  0.81862200  1
  C  C37  1  0.17421700  0.81862200  0.86361000  1
  C  C38  1  0.53701600  0.59742700  0.06955700  1
  C  C39  1  0.59742700  0.06955700  0.53701600  1
  C  C40  1  0.06955700  0.53701600  0.59742700  1
  C  C41  1  0.03701600  0.56955700  0.09742700  1
  C  C42  1  0.56955700  0.09742700  0.03701600  1
  C  C43  1  0.09742700  0.03701600  0.56955700  1
