# generated using pymatgen
data_Cu16Ni5C3
_symmetry_space_group_name_H-M   'P 1'
_cell_length_a   8.06823659
_cell_length_b   15.19879182
_cell_length_c   21.40686603
_cell_angle_alpha   90.22637788
_cell_angle_beta   90.00000000
_cell_angle_gamma   90.00000000
_symmetry_Int_Tables_number   1
_chemical_formula_structural   Cu16Ni5C3
_chemical_formula_sum   'Cu128 Ni40 C24'
_cell_volume   2625.04886751
_cell_formula_units_Z   8
loop_
 _symmetry_equiv_pos_site_id
 _symmetry_equiv_pos_as_xyz
  1  'x, y, z'
loop_
 _atom_site_type_symbol
 _atom_site_label
 _atom_site_symmetry_multiplicity
 _atom_site_fract_x
 _atom_site_fract_y
 _atom_site_fract_z
 _atom_site_occupancy
  C  C0  1  0.33007977  0.65872414  0.12723886  1
  C  C1  1  0.33007977  0.84127586  0.87276114  1
  C  C2  1  0.66992023  0.34127586  0.87276114  1
  C  C3  1  0.66992023  0.15872414  0.12723886  1
  C  C4  1  0.18655586  0.53939494  0.36979175  1
  C  C5  1  0.18655586  0.96060506  0.63020825  1
  C  C6  1  0.81344414  0.46060506  0.63020825  1
  C  C7  1  0.81344414  0.03939494  0.36979175  1
  C  C8  1  0.32563042  0.88176178  0.39215290  1
  C  C9  1  0.32563042  0.61823822  0.60784710  1
  C  C10  1  0.67436958  0.11823822  0.60784710  1
  C  C11  1  0.67436958  0.38176178  0.39215290  1
  C  C12  1  0.23409310  0.96615424  0.11881518  1
  C  C13  1  0.23409310  0.53384576  0.88118482  1
  C  C14  1  0.76590690  0.03384576  0.88118482  1
  C  C15  1  0.76590690  0.46615424  0.11881518  1
  C  C16  1  0.82317322  0.75000000  0.00000000  1
  C  C17  1  0.17682678  0.25000000  0.00000000  1
  C  C18  1  0.85107373  0.75000000  0.50000000  1
  C  C19  1  0.14892627  0.25000000  0.50000000  1
  C  C20  1  0.83000929  0.75428620  0.24902625  1
  C  C21  1  0.83000929  0.74571380  0.75097375  1
  C  C22  1  0.16999071  0.24571380  0.75097375  1
  C  C23  1  0.16999071  0.25428620  0.24902625  1
  Ni  Ni24  1  0.51004540  0.81468115  0.18069200  1
  Ni  Ni25  1  0.51004540  0.68531885  0.81930800  1
  Ni  Ni26  1  0.48995460  0.18531885  0.81930800  1
  Ni  Ni27  1  0.48995460  0.31468115  0.18069200  1
  Ni  Ni28  1  0.15527380  0.70913699  0.42285312  1
  Ni  Ni29  1  0.15527380  0.79086301  0.57714688  1
  Ni  Ni30  1  0.84472620  0.29086301  0.57714688  1
  Ni  Ni31  1  0.84472620  0.20913699  0.42285312  1
  Ni  Ni32  1  0.52026886  0.87125081  0.00430384  1
  Ni  Ni33  1  0.52026886  0.62874919  0.99569616  1
  Ni  Ni34  1  0.47973114  0.12874919  0.99569616  1
  Ni  Ni35  1  0.47973114  0.37125081  0.00430384  1
  Ni  Ni36  1  0.01638562  0.60918047  0.07061758  1
  Ni  Ni37  1  0.01638562  0.89081953  0.92938242  1
  Ni  Ni38  1  0.98361438  0.39081953  0.92938242  1
  Ni  Ni39  1  0.98361438  0.10918047  0.07061758  1
  Ni  Ni40  1  0.70529129  0.56588557  0.24695865  1
  Ni  Ni41  1  0.70529129  0.93411443  0.75304135  1
  Ni  Ni42  1  0.29470871  0.43411443  0.75304135  1
  Ni  Ni43  1  0.29470871  0.06588557  0.24695865  1
  Ni  Ni44  1  0.14133274  0.64289938  0.24933429  1
  Ni  Ni45  1  0.14133274  0.85710062  0.75066571  1
  Ni  Ni46  1  0.85866726  0.35710062  0.75066571  1
  Ni  Ni47  1  0.85866726  0.14289938  0.24933429  1
  Ni  Ni48  1  0.01668910  0.60167810  0.67955319  1
  Ni  Ni49  1  0.01668910  0.89832190  0.32044681  1
  Ni  Ni50  1  0.98331090  0.39832190  0.32044681  1
  Ni  Ni51  1  0.98331090  0.10167810  0.67955319  1
  Ni  Ni52  1  0.64930232  0.78294242  0.37868837  1
  Ni  Ni53  1  0.64930232  0.71705758  0.62131163  1
  Ni  Ni54  1  0.35069768  0.21705758  0.62131163  1
  Ni  Ni55  1  0.35069768  0.28294242  0.37868837  1
  Ni  Ni56  1  0.74265571  0.94527722  0.50390724  1
  Ni  Ni57  1  0.74265571  0.55472278  0.49609276  1
  Ni  Ni58  1  0.25734429  0.05472278  0.49609276  1
  Ni  Ni59  1  0.25734429  0.44527722  0.50390724  1
  Ni  Ni60  1  0.95052810  0.83647034  0.12459491  1
  Ni  Ni61  1  0.95052810  0.66352966  0.87540509  1
  Ni  Ni62  1  0.04947190  0.16352966  0.87540509  1
  Ni  Ni63  1  0.04947190  0.33647034  0.12459491  1
  Cu  Cu64  1  0.50316975  0.00696132  0.36907226  1
  Cu  Cu65  1  0.50316975  0.49303868  0.63092774  1
  Cu  Cu66  1  0.49683025  0.99303868  0.63092774  1
  Cu  Cu67  1  0.49683025  0.50696132  0.36907226  1
  Cu  Cu68  1  0.52228893  0.01166866  0.12882514  1
  Cu  Cu69  1  0.52228893  0.48833134  0.87117486  1
  Cu  Cu70  1  0.47771107  0.98833134  0.87117486  1
  Cu  Cu71  1  0.47771107  0.51166866  0.12882514  1
  Cu  Cu72  1  0.61003829  0.87467692  0.19795686  1
  Cu  Cu73  1  0.61003829  0.62532308  0.80204314  1
  Cu  Cu74  1  0.38996171  0.12532308  0.80204314  1
  Cu  Cu75  1  0.38996171  0.37467692  0.19795686  1
  Cu  Cu76  1  0.54947628  0.73493780  0.19506685  1
  Cu  Cu77  1  0.54947628  0.76506220  0.80493315  1
  Cu  Cu78  1  0.45052372  0.26506220  0.80493315  1
  Cu  Cu79  1  0.45052372  0.23493780  0.19506685  1
  Cu  Cu80  1  0.38063938  0.82880724  0.15094170  1
  Cu  Cu81  1  0.38063938  0.67119276  0.84905830  1
  Cu  Cu82  1  0.61936062  0.17119276  0.84905830  1
  Cu  Cu83  1  0.61936062  0.32880724  0.15094170  1
  Cu  Cu84  1  0.04897938  0.65015012  0.43697744  1
  Cu  Cu85  1  0.04897938  0.84984988  0.56302256  1
  Cu  Cu86  1  0.95102062  0.34984988  0.56302256  1
  Cu  Cu87  1  0.95102062  0.15015012  0.43697744  1
  Cu  Cu88  1  0.28260152  0.69139332  0.39305130  1
  Cu  Cu89  1  0.28260152  0.80860668  0.60694870  1
  Cu  Cu90  1  0.71739848  0.30860668  0.60694870  1
  Cu  Cu91  1  0.71739848  0.19139332  0.39305130  1
  Cu  Cu92  1  0.12286048  0.78821173  0.44088330  1
  Cu  Cu93  1  0.12286048  0.71178827  0.55911670  1
  Cu  Cu94  1  0.87713952  0.21178827  0.55911670  1
  Cu  Cu95  1  0.87713952  0.28821173  0.44088330  1
  Cu  Cu96  1  0.54868377  0.82313451  0.95543086  1
  Cu  Cu97  1  0.54868377  0.67686549  0.04456914  1
  Cu  Cu98  1  0.45131623  0.17686549  0.04456914  1
  Cu  Cu99  1  0.45131623  0.32313451  0.95543086  1
  Cu  Cu100  1  0.63023189  0.86834921  0.04722544  1
  Cu  Cu101  1  0.63023189  0.63165079  0.95277456  1
  Cu  Cu102  1  0.36976811  0.13165079  0.95277456  1
  Cu  Cu103  1  0.36976811  0.36834921  0.04722544  1
  Cu  Cu104  1  0.39356288  0.91654484  0.00854445  1
  Cu  Cu105  1  0.39356288  0.58345516  0.99145555  1
  Cu  Cu106  1  0.60643712  0.08345516  0.99145555  1
  Cu  Cu107  1  0.60643712  0.41654484  0.00854445  1
  Cu  Cu108  1  0.86563005  0.59747485  0.05328016  1
  Cu  Cu109  1  0.86563005  0.90252515  0.94671984  1
  Cu  Cu110  1  0.13436995  0.40252515  0.94671984  1
  Cu  Cu111  1  0.13436995  0.09747485  0.05328016  1
  Cu  Cu112  1  0.09068484  0.55415933  0.10265899  1
  Cu  Cu113  1  0.09068484  0.94584067  0.89734101  1
  Cu  Cu114  1  0.90931516  0.44584067  0.89734101  1
  Cu  Cu115  1  0.90931516  0.05415933  0.10265899  1
  Cu  Cu116  1  0.08555129  0.68150188  0.05404393  1
  Cu  Cu117  1  0.08555129  0.81849812  0.94595607  1
  Cu  Cu118  1  0.91444871  0.31849812  0.94595607  1
  Cu  Cu119  1  0.91444871  0.18150188  0.05404393  1
  Cu  Cu120  1  0.78534864  0.59968339  0.20053469  1
  Cu  Cu121  1  0.78534864  0.90031661  0.79946531  1
  Cu  Cu122  1  0.21465136  0.40031661  0.79946531  1
  Cu  Cu123  1  0.21465136  0.09968339  0.20053469  1
  Cu  Cu124  1  0.67593009  0.61702692  0.29315366  1
  Cu  Cu125  1  0.67593009  0.88297308  0.70684634  1
  Cu  Cu126  1  0.32406991  0.38297308  0.70684634  1
  Cu  Cu127  1  0.32406991  0.11702692  0.29315366  1
  Cu  Cu128  1  0.33900693  0.98799305  0.24582457  1
  Cu  Cu129  1  0.33900693  0.51200695  0.75417543  1
  Cu  Cu130  1  0.66099307  0.01200695  0.75417543  1
  Cu  Cu131  1  0.66099307  0.48799305  0.24582457  1
  Cu  Cu132  1  0.03635468  0.64070175  0.29450362  1
  Cu  Cu133  1  0.03635468  0.85929825  0.70549638  1
  Cu  Cu134  1  0.96364532  0.35929825  0.70549638  1
  Cu  Cu135  1  0.96364532  0.14070175  0.29450362  1
  Cu  Cu136  1  0.26743019  0.59685797  0.24910929  1
  Cu  Cu137  1  0.26743019  0.90314203  0.75089071  1
  Cu  Cu138  1  0.73256981  0.40314203  0.75089071  1
  Cu  Cu139  1  0.73256981  0.09685797  0.24910929  1
  Cu  Cu140  1  0.10708929  0.69553522  0.20432143  1
  Cu  Cu141  1  0.10708929  0.80446478  0.79567857  1
  Cu  Cu142  1  0.89291071  0.30446478  0.79567857  1
  Cu  Cu143  1  0.89291071  0.19553522  0.20432143  1
  Cu  Cu144  1  0.86495468  0.59315269  0.69680051  1
  Cu  Cu145  1  0.86495468  0.90684731  0.30319949  1
  Cu  Cu146  1  0.13504532  0.40684731  0.30319949  1
  Cu  Cu147  1  0.13504532  0.09315269  0.69680051  1
  Cu  Cu148  1  0.08436184  0.54370337  0.64690960  1
  Cu  Cu149  1  0.08436184  0.95629663  0.35309040  1
  Cu  Cu150  1  0.91563816  0.45629663  0.35309040  1
  Cu  Cu151  1  0.91563816  0.04370337  0.64690960  1
  Cu  Cu152  1  0.09282407  0.67108946  0.69614806  1
  Cu  Cu153  1  0.09282407  0.82891054  0.30385194  1
  Cu  Cu154  1  0.90717593  0.32891054  0.30385194  1
  Cu  Cu155  1  0.90717593  0.17108946  0.69614806  1
  Cu  Cu156  1  0.79811255  0.75338321  0.37601678  1
  Cu  Cu157  1  0.79811255  0.74661679  0.62398322  1
  Cu  Cu158  1  0.20188745  0.24661679  0.62398322  1
  Cu  Cu159  1  0.20188745  0.25338321  0.37601678  1
  Cu  Cu160  1  0.58391215  0.79449147  0.43171823  1
  Cu  Cu161  1  0.58391215  0.70550853  0.56828177  1
  Cu  Cu162  1  0.41608785  0.20550853  0.56828177  1
  Cu  Cu163  1  0.41608785  0.29449147  0.43171823  1
  Cu  Cu164  1  0.57471747  0.80101739  0.32889386  1
  Cu  Cu165  1  0.57471747  0.69898261  0.67110614  1
  Cu  Cu166  1  0.42528253  0.19898261  0.67110614  1
  Cu  Cu167  1  0.42528253  0.30101739  0.32889386  1
  Cu  Cu168  1  0.69731849  0.89118800  0.54579836  1
  Cu  Cu169  1  0.69731849  0.60881200  0.45420164  1
  Cu  Cu170  1  0.30268151  0.10881200  0.45420164  1
  Cu  Cu171  1  0.30268151  0.39118800  0.54579836  1
  Cu  Cu172  1  0.83386667  0.91439240  0.45940529  1
  Cu  Cu173  1  0.83386667  0.58560760  0.54059471  1
  Cu  Cu174  1  0.16613333  0.08560760  0.54059471  1
  Cu  Cu175  1  0.16613333  0.41439240  0.45940529  1
  Cu  Cu176  1  0.29857084  0.52416552  0.50476933  1
  Cu  Cu177  1  0.29857084  0.97583448  0.49523067  1
  Cu  Cu178  1  0.70142916  0.47583448  0.49523067  1
  Cu  Cu179  1  0.70142916  0.02416552  0.50476933  1
  Cu  Cu180  1  0.00489455  0.86248633  0.07292516  1
  Cu  Cu181  1  0.00489455  0.63751367  0.92707484  1
  Cu  Cu182  1  0.99510545  0.13751367  0.92707484  1
  Cu  Cu183  1  0.99510545  0.36248633  0.07292516  1
  Cu  Cu184  1  0.99476759  0.87027510  0.17561567  1
  Cu  Cu185  1  0.99476759  0.62972490  0.82438433  1
  Cu  Cu186  1  0.00523241  0.12972490  0.82438433  1
  Cu  Cu187  1  0.00523241  0.37027510  0.17561567  1
  Cu  Cu188  1  0.84713495  0.77183990  0.12551182  1
  Cu  Cu189  1  0.84713495  0.72816010  0.87448818  1
  Cu  Cu190  1  0.15286505  0.22816010  0.87448818  1
  Cu  Cu191  1  0.15286505  0.27183990  0.12551182  1
