# generated using pymatgen
data_Cu10Ni2C3
_symmetry_space_group_name_H-M   'P 1'
_cell_length_a   16.55696300
_cell_length_b   7.23618300
_cell_length_c   8.92216389
_cell_angle_alpha   76.63932678
_cell_angle_beta   90.00000000
_cell_angle_gamma   90.00000000
_symmetry_Int_Tables_number   1
_chemical_formula_structural   Cu10Ni2C3
_chemical_formula_sum   'Cu40 Ni8 C12'
_cell_volume   1040.02580888
_cell_formula_units_Z   4
loop_
 _symmetry_equiv_pos_site_id
 _symmetry_equiv_pos_as_xyz
  1  'x, y, z'
loop_
 _atom_site_type_symbol
 _atom_site_label
 _atom_site_symmetry_multiplicity
 _atom_site_fract_x
 _atom_site_fract_y
 _atom_site_fract_z
 _atom_site_occupancy
  C  C0  1  0.15075700  0.89270700  0.28177400  1
  C  C1  1  0.65075700  0.60729300  0.71822600  1
  C  C2  1  0.84924300  0.10729300  0.71822600  1
  C  C3  1  0.34924300  0.39270700  0.28177400  1
  C  C4  1  0.39729600  0.62199700  0.68646700  1
  C  C5  1  0.89729600  0.87800300  0.31353300  1
  C  C6  1  0.60270400  0.37800300  0.31353300  1
  C  C7  1  0.10270400  0.12199700  0.68646700  1
  C  C8  1  0.97545700  0.56379200  0.83012700  1
  C  C9  1  0.47545700  0.93620800  0.16987300  1
  C  C10  1  0.02454300  0.43620800  0.16987300  1
  C  C11  1  0.52454300  0.06379200  0.83012700  1
  Ni  Ni12  1  0.04936800  0.64487000  0.61881700  1
  Ni  Ni13  1  0.54936800  0.85513000  0.38118300  1
  Ni  Ni14  1  0.95063200  0.35513000  0.38118300  1
  Ni  Ni15  1  0.45063200  0.14487000  0.61881700  1
  Ni  Ni16  1  0.85507200  0.59994500  0.71837900  1
  Ni  Ni17  1  0.35507200  0.90005500  0.28162100  1
  Ni  Ni18  1  0.14492800  0.40005500  0.28162100  1
  Ni  Ni19  1  0.64492800  0.09994500  0.71837900  1
  Cu  Cu20  1  0.25467600  0.82001200  0.85344400  1
  Cu  Cu21  1  0.75467600  0.67998800  0.14655600  1
  Cu  Cu22  1  0.74532400  0.17998800  0.14655600  1
  Cu  Cu23  1  0.24532400  0.32001200  0.85344400  1
  Cu  Cu24  1  0.19828500  0.88254100  0.93331600  1
  Cu  Cu25  1  0.69828500  0.61745900  0.06668400  1
  Cu  Cu26  1  0.80171500  0.11745900  0.06668400  1
  Cu  Cu27  1  0.30171500  0.38254100  0.93331600  1
  Cu  Cu28  1  0.07031600  0.51480800  0.96233500  1
  Cu  Cu29  1  0.57031600  0.98519200  0.03766500  1
  Cu  Cu30  1  0.92968400  0.48519200  0.03766500  1
  Cu  Cu31  1  0.42968400  0.01480800  0.96233500  1
  Cu  Cu32  1  0.09169000  0.52293900  0.57953800  1
  Cu  Cu33  1  0.59169000  0.97706100  0.42046200  1
  Cu  Cu34  1  0.90831000  0.47706100  0.42046200  1
  Cu  Cu35  1  0.40831000  0.02293900  0.57953800  1
  Cu  Cu36  1  0.05182000  0.81485700  0.54406100  1
  Cu  Cu37  1  0.55182000  0.68514300  0.45593900  1
  Cu  Cu38  1  0.94818000  0.18514300  0.45593900  1
  Cu  Cu39  1  0.44818000  0.31485700  0.54406100  1
  Cu  Cu40  1  0.97210500  0.34245000  0.77859900  1
  Cu  Cu41  1  0.47210500  0.15755000  0.22140100  1
  Cu  Cu42  1  0.02789500  0.65755000  0.22140100  1
  Cu  Cu43  1  0.52789500  0.84245000  0.77859900  1
  Cu  Cu44  1  0.96713300  0.81144800  0.80812400  1
  Cu  Cu45  1  0.46713300  0.68855200  0.19187600  1
  Cu  Cu46  1  0.03286700  0.18855200  0.19187600  1
  Cu  Cu47  1  0.53286700  0.31144800  0.80812400  1
  Cu  Cu48  1  0.80692500  0.46456400  0.75272600  1
  Cu  Cu49  1  0.30692500  0.03543600  0.24727400  1
  Cu  Cu50  1  0.19307500  0.53543600  0.24727400  1
  Cu  Cu51  1  0.69307500  0.96456400  0.75272600  1
  Cu  Cu52  1  0.83287800  0.75315000  0.63118600  1
  Cu  Cu53  1  0.33287800  0.74685000  0.36881400  1
  Cu  Cu54  1  0.16712200  0.24685000  0.36881400  1
  Cu  Cu55  1  0.66712200  0.25315000  0.63118600  1
  Cu  Cu56  1  0.24479100  0.86238600  0.70197800  1
  Cu  Cu57  1  0.74479100  0.63761400  0.29802200  1
  Cu  Cu58  1  0.75520900  0.13761400  0.29802200  1
  Cu  Cu59  1  0.25520900  0.36238600  0.70197800  1
