# generated using pymatgen
data_CuNiC4
_symmetry_space_group_name_H-M   'P 1'
_cell_length_a   7.77986600
_cell_length_b   6.50519090
_cell_length_c   17.66748232
_cell_angle_alpha   92.57592953
_cell_angle_beta   90.00000000
_cell_angle_gamma   90.00000000
_symmetry_Int_Tables_number   1
_chemical_formula_structural   CuNiC4
_chemical_formula_sum   'Cu4 Ni4 C16'
_cell_volume   893.23918894
_cell_formula_units_Z   4
loop_
 _symmetry_equiv_pos_site_id
 _symmetry_equiv_pos_as_xyz
  1  'x, y, z'
loop_
 _atom_site_type_symbol
 _atom_site_label
 _atom_site_symmetry_multiplicity
 _atom_site_fract_x
 _atom_site_fract_y
 _atom_site_fract_z
 _atom_site_occupancy
  C  C0  1  0.38007800  0.89903100  0.67686400  1
  C  C1  1  0.11992200  0.39903100  0.17686400  1
  C  C2  1  0.61992200  0.10096900  0.32313600  1
  C  C3  1  0.88007800  0.60096900  0.82313600  1
  Ni  Ni4  1  0.24736400  0.42055400  0.55548300  1
  Ni  Ni5  1  0.25263600  0.92055400  0.05548300  1
  Ni  Ni6  1  0.75263600  0.57944600  0.44451700  1
  Ni  Ni7  1  0.74736400  0.07944600  0.94451700  1
  C  C8  1  0.27171600  0.12434400  0.80974900  1
  C  C9  1  0.22828400  0.62434400  0.30974900  1
  C  C10  1  0.72828400  0.87565600  0.19025100  1
  C  C11  1  0.77171600  0.37565600  0.69025100  1
  C  C12  1  0.25765300  0.81558900  0.53564500  1
  C  C13  1  0.24234700  0.31558900  0.03564500  1
  C  C14  1  0.74234700  0.18441100  0.46435500  1
  C  C15  1  0.75765300  0.68441100  0.96435500  1
  C  C16  1  0.26781500  0.61514800  0.81075400  1
  C  C17  1  0.23218500  0.11514800  0.31075400  1
  C  C18  1  0.73218500  0.38485200  0.18924600  1
  C  C19  1  0.76781500  0.88485200  0.68924600  1
  Cu  Cu20  1  0.24870800  0.23829000  0.55518700  1
  Cu  Cu21  1  0.25129200  0.73829000  0.05518700  1
  Cu  Cu22  1  0.75129200  0.76171000  0.44481300  1
  Cu  Cu23  1  0.74870800  0.26171000  0.94481300  1
