# generated using pymatgen
data_Cu4NiC6
_symmetry_space_group_name_H-M   'P 1'
_cell_length_a   3.99489500
_cell_length_b   9.11432008
_cell_length_c   15.22989069
_cell_angle_alpha   93.38787669
_cell_angle_beta   90.00000000
_cell_angle_gamma   90.00000000
_symmetry_Int_Tables_number   1
_chemical_formula_structural   Cu4NiC6
_chemical_formula_sum   'Cu8 Ni2 C12'
_cell_volume   553.56264374
_cell_formula_units_Z   2
loop_
 _symmetry_equiv_pos_site_id
 _symmetry_equiv_pos_as_xyz
  1  'x, y, z'
loop_
 _atom_site_type_symbol
 _atom_site_label
 _atom_site_symmetry_multiplicity
 _atom_site_fract_x
 _atom_site_fract_y
 _atom_site_fract_z
 _atom_site_occupancy
  Ni  Ni0  1  0.75000000  0.60720300  0.65652000  1
  Ni  Ni1  1  0.25000000  0.39279700  0.34348000  1
  Cu  Cu2  1  0.75000000  0.23652100  0.79376500  1
  Cu  Cu3  1  0.25000000  0.76347900  0.20623500  1
  Cu  Cu4  1  0.75000000  0.86865700  0.43705800  1
  Cu  Cu5  1  0.25000000  0.13134300  0.56294200  1
  Cu  Cu6  1  0.75000000  0.34120500  0.05329400  1
  Cu  Cu7  1  0.25000000  0.65879500  0.94670600  1
  Cu  Cu8  1  0.75000000  0.95314600  0.85451400  1
  Cu  Cu9  1  0.25000000  0.04685400  0.14548600  1
  C  C10  1  0.75000000  0.46769700  0.89987900  1
  C  C11  1  0.25000000  0.53230300  0.10012100  1
  C  C12  1  0.75000000  0.83158400  0.00059000  1
  C  C13  1  0.25000000  0.16841600  0.99941000  1
  C  C14  1  0.75000000  0.96660700  0.60021400  1
  C  C15  1  0.25000000  0.03339300  0.39978600  1
  C  C16  1  0.75000000  0.20678100  0.20186200  1
  C  C17  1  0.25000000  0.79321900  0.79813800  1
  C  C18  1  0.75000000  0.68828500  0.30093100  1
  C  C19  1  0.25000000  0.31171500  0.69906900  1
  C  C20  1  0.75000000  0.32656500  0.50387300  1
  C  C21  1  0.25000000  0.67343500  0.49612700  1
