# generated using pymatgen
data_CuNi4C3
_symmetry_space_group_name_H-M   'P 1'
_cell_length_a   7.37009000
_cell_length_b   7.37009000
_cell_length_c   9.98176777
_cell_angle_alpha   64.99955979
_cell_angle_beta   64.99955979
_cell_angle_gamma   53.23749704
_symmetry_Int_Tables_number   1
_chemical_formula_structural   CuNi4C3
_chemical_formula_sum   'Cu4 Ni16 C12'
_cell_volume   382.76320004
_cell_formula_units_Z   4
loop_
 _symmetry_equiv_pos_site_id
 _symmetry_equiv_pos_as_xyz
  1  'x, y, z'
loop_
 _atom_site_type_symbol
 _atom_site_label
 _atom_site_symmetry_multiplicity
 _atom_site_fract_x
 _atom_site_fract_y
 _atom_site_fract_z
 _atom_site_occupancy
  C  C0  1  0.26101800  0.05501700  0.64149300  1
  C  C1  1  0.05501700  0.26101800  0.14149300  1
  C  C2  1  0.73898200  0.94498300  0.35850700  1
  C  C3  1  0.94498300  0.73898200  0.85850700  1
  C  C4  1  0.66079100  0.21748800  0.00657200  1
  C  C5  1  0.78251200  0.33920900  0.49342800  1
  C  C6  1  0.33920900  0.78251200  0.99342800  1
  C  C7  1  0.21748800  0.66079100  0.50657200  1
  C  C8  1  0.23422100  0.41942300  0.30628400  1
  C  C9  1  0.58057700  0.76577900  0.19371600  1
  C  C10  1  0.76577900  0.58057700  0.69371600  1
  C  C11  1  0.41942300  0.23422100  0.80628400  1
  Ni  Ni12  1  0.35619700  0.07011200  0.80216900  1
  Ni  Ni13  1  0.64380300  0.92988800  0.19783100  1
  Ni  Ni14  1  0.92988800  0.64380300  0.69783100  1
  Ni  Ni15  1  0.07011200  0.35619700  0.30216900  1
  Ni  Ni16  1  0.08814000  0.64681200  0.36397300  1
  Ni  Ni17  1  0.35318800  0.91186000  0.13602700  1
  Ni  Ni18  1  0.91186000  0.35318800  0.63602700  1
  Ni  Ni19  1  0.64681200  0.08814000  0.86397300  1
  Ni  Ni20  1  0.38468600  0.45837100  0.14417900  1
  Ni  Ni21  1  0.39058100  0.22215300  0.41890900  1
  Ni  Ni22  1  0.61531400  0.54162900  0.85582100  1
  Ni  Ni23  1  0.45837100  0.38468600  0.64417900  1
  Ni  Ni24  1  0.22215300  0.39058100  0.91890900  1
  Ni  Ni25  1  0.60941900  0.77784700  0.58109100  1
  Ni  Ni26  1  0.77784700  0.60941900  0.08109100  1
  Ni  Ni27  1  0.54162900  0.61531400  0.35582100  1
  Cu  Cu28  1  0.12664400  0.90797500  0.60550500  1
  Cu  Cu29  1  0.09202500  0.87335600  0.89449500  1
  Cu  Cu30  1  0.87335600  0.09202500  0.39449500  1
  Cu  Cu31  1  0.90797500  0.12664400  0.10550500  1
