# generated using pymatgen
data_CuNiC10
_symmetry_space_group_name_H-M   'P 1'
_cell_length_a   7.03586100
_cell_length_b   8.97176800
_cell_length_c   12.73930800
_cell_angle_alpha   90.00000000
_cell_angle_beta   90.00000000
_cell_angle_gamma   90.00000000
_symmetry_Int_Tables_number   1
_chemical_formula_structural   CuNiC10
_chemical_formula_sum   'Cu4 Ni4 C40'
_cell_volume   804.15751228
_cell_formula_units_Z   4
loop_
 _symmetry_equiv_pos_site_id
 _symmetry_equiv_pos_as_xyz
  1  'x, y, z'
loop_
 _atom_site_type_symbol
 _atom_site_label
 _atom_site_symmetry_multiplicity
 _atom_site_fract_x
 _atom_site_fract_y
 _atom_site_fract_z
 _atom_site_occupancy
  C  C0  1  0.72163900  0.29710500  0.92003700  1
  C  C1  1  0.22163900  0.70289500  0.07996300  1
  C  C2  1  0.22163900  0.20289500  0.42003700  1
  C  C3  1  0.72163900  0.79710500  0.57996300  1
  Ni  Ni4  1  0.78722300  0.28672800  0.58240000  1
  Ni  Ni5  1  0.28722300  0.71327200  0.41760000  1
  Ni  Ni6  1  0.28722300  0.21327200  0.08240000  1
  Ni  Ni7  1  0.78722300  0.78672800  0.91760000  1
  Cu  Cu8  1  0.21770000  0.34589400  0.75269300  1
  Cu  Cu9  1  0.71770000  0.65410600  0.24730700  1
  Cu  Cu10  1  0.71770000  0.15410600  0.25269300  1
  Cu  Cu11  1  0.21770000  0.84589400  0.74730700  1
  C  C12  1  0.71081600  0.10222000  0.51356900  1
  C  C13  1  0.21081600  0.89778000  0.48643100  1
  C  C14  1  0.21081600  0.39778000  0.01356900  1
  C  C15  1  0.71081600  0.60222000  0.98643100  1
  C  C16  1  0.80573800  0.48059600  0.65484000  1
  C  C17  1  0.30573800  0.51940400  0.34516000  1
  C  C18  1  0.30573800  0.01940400  0.15484000  1
  C  C19  1  0.80573800  0.98059600  0.84516000  1
  C  C20  1  0.63668800  0.22509800  0.70285500  1
  C  C21  1  0.13668800  0.77490200  0.29714500  1
  C  C22  1  0.13668800  0.27490200  0.20285500  1
  C  C23  1  0.63668800  0.72509800  0.79714500  1
  C  C24  1  0.89238700  0.38560500  0.46086200  1
  C  C25  1  0.39238700  0.61439500  0.53913800  1
  C  C26  1  0.39238700  0.11439500  0.96086200  1
  C  C27  1  0.89238700  0.88560500  0.03913800  1
  C  C28  1  0.51640600  0.31823900  0.54817400  1
  C  C29  1  0.01640600  0.68176100  0.45182600  1
  C  C30  1  0.01640600  0.18176100  0.04817400  1
  C  C31  1  0.51640600  0.81823900  0.95182600  1
  C  C32  1  0.03880400  0.22685300  0.61872400  1
  C  C33  1  0.53880400  0.77314700  0.38127600  1
  C  C34  1  0.53880400  0.27314700  0.11872400  1
  C  C35  1  0.03880400  0.72685300  0.88127600  1
  C  C36  1  0.20345400  0.16012400  0.81512700  1
  C  C37  1  0.70345400  0.83987600  0.18487300  1
  C  C38  1  0.70345400  0.33987600  0.31512700  1
  C  C39  1  0.20345400  0.66012400  0.68487300  1
  C  C40  1  0.35897300  0.43450500  0.86060000  1
  C  C41  1  0.85897300  0.56549500  0.13940000  1
  C  C42  1  0.85897300  0.06549500  0.36060000  1
  C  C43  1  0.35897300  0.93450500  0.63940000  1
  C  C44  1  0.98407300  0.42370500  0.79164500  1
  C  C45  1  0.48407300  0.57629500  0.20835500  1
  C  C46  1  0.48407300  0.07629500  0.29164500  1
  C  C47  1  0.98407300  0.92370500  0.70835500  1
