# generated using pymatgen
data_CuNiC9
_symmetry_space_group_name_H-M   'P 1'
_cell_length_a   7.18200800
_cell_length_b   7.18200800
_cell_length_c   7.18200800
_cell_angle_alpha   120.27189476
_cell_angle_beta   119.83747350
_cell_angle_gamma   89.90572278
_symmetry_Int_Tables_number   1
_chemical_formula_structural   CuNiC9
_chemical_formula_sum   'Cu2 Ni2 C18'
_cell_volume   261.73095282
_cell_formula_units_Z   2
loop_
 _symmetry_equiv_pos_site_id
 _symmetry_equiv_pos_as_xyz
  1  'x, y, z'
loop_
 _atom_site_type_symbol
 _atom_site_label
 _atom_site_symmetry_multiplicity
 _atom_site_fract_x
 _atom_site_fract_y
 _atom_site_fract_z
 _atom_site_occupancy
  C  C0  1  0.00000000  0.50000000  0.00000000  1
  C  C1  1  0.00000000  0.00000000  0.50000000  1
  C  C2  1  0.00000000  0.50000000  0.50000000  1
  C  C3  1  0.50000000  0.50000000  0.00000000  1
  Ni  Ni4  1  0.50000000  0.00000000  0.00000000  1
  Ni  Ni5  1  0.50000000  0.50000000  0.50000000  1
  Cu  Cu6  1  0.50000000  0.00000000  0.50000000  1
  Cu  Cu7  1  0.00000000  0.00000000  0.00000000  1
  C  C8  1  0.83970600  0.08970600  0.75000000  1
  C  C9  1  0.41820100  0.66820100  0.75000000  1
  C  C10  1  0.83242800  0.66270900  0.74745700  1
  C  C11  1  0.41525200  0.08497100  0.75254300  1
  C  C12  1  0.83242800  0.08497100  0.16971900  1
  C  C13  1  0.41525200  0.66270900  0.33028100  1
  C  C14  1  0.16029400  0.91029400  0.25000000  1
  C  C15  1  0.58179900  0.33179900  0.25000000  1
  C  C16  1  0.16757200  0.33729100  0.25254300  1
  C  C17  1  0.58474800  0.91502900  0.24745700  1
  C  C18  1  0.16757200  0.91502900  0.83028100  1
  C  C19  1  0.58474800  0.33729100  0.66971900  1
  C  C20  1  0.87432900  0.62432900  0.25000000  1
  C  C21  1  0.12567100  0.37567100  0.75000000  1
