# generated using pymatgen
data_CuNi4C11
_symmetry_space_group_name_H-M   'P 1'
_cell_length_a   7.63857100
_cell_length_b   7.63857100
_cell_length_c   15.05240700
_cell_angle_alpha   90.00000000
_cell_angle_beta   90.00000000
_cell_angle_gamma   90.00000000
_symmetry_Int_Tables_number   1
_chemical_formula_structural   CuNi4C11
_chemical_formula_sum   'Cu4 Ni16 C44'
_cell_volume   878.27433525
_cell_formula_units_Z   4
loop_
 _symmetry_equiv_pos_site_id
 _symmetry_equiv_pos_as_xyz
  1  'x, y, z'
loop_
 _atom_site_type_symbol
 _atom_site_label
 _atom_site_symmetry_multiplicity
 _atom_site_fract_x
 _atom_site_fract_y
 _atom_site_fract_z
 _atom_site_occupancy
  C  C0  1  0.50000000  0.50000000  0.50000000  1
  C  C1  1  0.00000000  0.00000000  0.50000000  1
  C  C2  1  0.00000000  0.00000000  0.00000000  1
  C  C3  1  0.50000000  0.50000000  0.00000000  1
  Ni  Ni4  1  0.13533900  0.23801300  0.64852600  1
  Ni  Ni5  1  0.86466100  0.76198700  0.64852600  1
  Ni  Ni6  1  0.23801300  0.13533900  0.85147400  1
  Ni  Ni7  1  0.73801300  0.36466100  0.64852600  1
  Ni  Ni8  1  0.26198700  0.63533900  0.64852600  1
  Ni  Ni9  1  0.36466100  0.73801300  0.85147400  1
  Ni  Ni10  1  0.63533900  0.26198700  0.85147400  1
  Ni  Ni11  1  0.76198700  0.86466100  0.85147400  1
  Ni  Ni12  1  0.36466100  0.26198700  0.35147400  1
  Ni  Ni13  1  0.63533900  0.73801300  0.35147400  1
  Ni  Ni14  1  0.26198700  0.36466100  0.14852600  1
  Ni  Ni15  1  0.76198700  0.13533900  0.35147400  1
  Ni  Ni16  1  0.23801300  0.86466100  0.35147400  1
  Ni  Ni17  1  0.13533900  0.76198700  0.14852600  1
  Ni  Ni18  1  0.86466100  0.23801300  0.14852600  1
  Ni  Ni19  1  0.73801300  0.63533900  0.14852600  1
  Cu  Cu20  1  0.50000000  0.00000000  0.59910700  1
  Cu  Cu21  1  0.00000000  0.50000000  0.90089300  1
  Cu  Cu22  1  0.00000000  0.50000000  0.40089300  1
  Cu  Cu23  1  0.50000000  0.00000000  0.09910700  1
  C  C24  1  0.20045800  0.09420300  0.57601300  1
  C  C25  1  0.79954200  0.90579700  0.57601300  1
  C  C26  1  0.09420300  0.20045800  0.92398700  1
  C  C27  1  0.59420300  0.29954200  0.57601300  1
  C  C28  1  0.40579700  0.70045800  0.57601300  1
  C  C29  1  0.29954200  0.59420300  0.92398700  1
  C  C30  1  0.70045800  0.40579700  0.92398700  1
  C  C31  1  0.90579700  0.79954200  0.92398700  1
  C  C32  1  0.29954200  0.40579700  0.42398700  1
  C  C33  1  0.70045800  0.59420300  0.42398700  1
  C  C34  1  0.40579700  0.29954200  0.07601300  1
  C  C35  1  0.90579700  0.20045800  0.42398700  1
  C  C36  1  0.09420300  0.79954200  0.42398700  1
  C  C37  1  0.20045800  0.90579700  0.07601300  1
  C  C38  1  0.79954200  0.09420300  0.07601300  1
  C  C39  1  0.26668400  0.07432400  0.36496300  1
  C  C40  1  0.59420300  0.70045800  0.07601300  1
  C  C41  1  0.76668400  0.57432400  0.63503700  1
  C  C42  1  0.42567600  0.23331600  0.86496300  1
  C  C43  1  0.92567600  0.26668400  0.63503700  1
  C  C44  1  0.07432400  0.73331600  0.63503700  1
  C  C45  1  0.26668400  0.92567600  0.86496300  1
  C  C46  1  0.73331600  0.07432400  0.86496300  1
  C  C47  1  0.57432400  0.76668400  0.86496300  1
  C  C48  1  0.67399900  0.67399900  0.25000000  1
  C  C49  1  0.82600100  0.17399900  0.25000000  1
  C  C50  1  0.17399900  0.82600100  0.25000000  1
  C  C51  1  0.32600100  0.32600100  0.25000000  1
  C  C52  1  0.82600100  0.82600100  0.75000000  1
  C  C53  1  0.67399900  0.32600100  0.75000000  1
  C  C54  1  0.32600100  0.67399900  0.75000000  1
  C  C55  1  0.17399900  0.17399900  0.75000000  1
  C  C56  1  0.92567600  0.73331600  0.13503700  1
  C  C57  1  0.76668400  0.42567600  0.13503700  1
  C  C58  1  0.23331600  0.57432400  0.13503700  1
  C  C59  1  0.42567600  0.76668400  0.36496300  1
  C  C60  1  0.57432400  0.23331600  0.36496300  1
  C  C61  1  0.07432400  0.26668400  0.13503700  1
  C  C62  1  0.73331600  0.92567600  0.36496300  1
  C  C63  1  0.23331600  0.42567600  0.63503700  1
