# generated using pymatgen
data_Cu10NiC6
_symmetry_space_group_name_H-M   'P 1'
_cell_length_a   16.44255800
_cell_length_b   5.00460400
_cell_length_c   13.09846959
_cell_angle_alpha   70.13557084
_cell_angle_beta   90.00000000
_cell_angle_gamma   90.00000000
_symmetry_Int_Tables_number   1
_chemical_formula_structural   Cu10NiC6
_chemical_formula_sum   'Cu40 Ni4 C24'
_cell_volume   1013.72023838
_cell_formula_units_Z   4
loop_
 _symmetry_equiv_pos_site_id
 _symmetry_equiv_pos_as_xyz
  1  'x, y, z'
loop_
 _atom_site_type_symbol
 _atom_site_label
 _atom_site_symmetry_multiplicity
 _atom_site_fract_x
 _atom_site_fract_y
 _atom_site_fract_z
 _atom_site_occupancy
  C  C0  1  0.76287500  0.79175600  0.22013100  1
  C  C1  1  0.26287500  0.20824400  0.27986900  1
  C  C2  1  0.23712500  0.20824400  0.77986900  1
  C  C3  1  0.73712500  0.79175600  0.72013100  1
  C  C4  1  0.94821300  0.64510300  0.39683600  1
  C  C5  1  0.44821300  0.35489700  0.10316400  1
  C  C6  1  0.05178700  0.35489700  0.60316400  1
  C  C7  1  0.55178700  0.64510300  0.89683600  1
  C  C8  1  0.06436100  0.13880500  0.40611500  1
  C  C9  1  0.56436100  0.86119500  0.09388500  1
  C  C10  1  0.93563900  0.86119500  0.59388500  1
  C  C11  1  0.43563900  0.13880500  0.90611500  1
  C  C12  1  0.75293600  0.56363400  0.49766700  1
  C  C13  1  0.25293600  0.43636600  0.00233300  1
  C  C14  1  0.24706400  0.43636600  0.50233300  1
  C  C15  1  0.74706400  0.56363400  0.99766700  1
  C  C16  1  0.91529200  0.37003200  0.19817000  1
  C  C17  1  0.41529200  0.62996800  0.30183000  1
  C  C18  1  0.08470800  0.62996800  0.80183000  1
  C  C19  1  0.58470800  0.37003200  0.69817000  1
  C  C20  1  0.12007800  0.83241000  0.21479200  1
  C  C21  1  0.62007800  0.16759000  0.28520800  1
  C  C22  1  0.87992200  0.16759000  0.78520800  1
  C  C23  1  0.37992200  0.83241000  0.71479200  1
  Ni  Ni24  1  0.91271800  0.42603300  0.94717300  1
  Ni  Ni25  1  0.41271800  0.57396700  0.55282700  1
  Ni  Ni26  1  0.08728200  0.57396700  0.05282700  1
  Ni  Ni27  1  0.58728200  0.42603300  0.44717300  1
  Cu  Cu28  1  0.70008400  0.76441400  0.57742500  1
  Cu  Cu29  1  0.20008400  0.23558600  0.92257500  1
  Cu  Cu30  1  0.29991600  0.23558600  0.42257500  1
  Cu  Cu31  1  0.79991600  0.76441400  0.07742500  1
  Cu  Cu32  1  0.86274200  0.73204200  0.49474600  1
  Cu  Cu33  1  0.36274200  0.26795800  0.00525400  1
  Cu  Cu34  1  0.13725800  0.26795800  0.50525400  1
  Cu  Cu35  1  0.63725800  0.73204200  0.99474600  1
  Cu  Cu36  1  0.73277300  0.84848600  0.35936800  1
  Cu  Cu37  1  0.23277300  0.15151400  0.14063200  1
  Cu  Cu38  1  0.26722700  0.15151400  0.64063200  1
  Cu  Cu39  1  0.76722700  0.84848600  0.85936800  1
  Cu  Cu40  1  0.86557400  0.53681400  0.30021800  1
  Cu  Cu41  1  0.36557400  0.46318600  0.19978200  1
  Cu  Cu42  1  0.13442600  0.46318600  0.69978200  1
  Cu  Cu43  1  0.63442600  0.53681400  0.80021800  1
  Cu  Cu44  1  0.83050600  0.14151200  0.18057200  1
  Cu  Cu45  1  0.33050600  0.85848800  0.31942800  1
  Cu  Cu46  1  0.16949400  0.85848800  0.81942800  1
  Cu  Cu47  1  0.66949400  0.14151200  0.68057200  1
  Cu  Cu48  1  0.97350200  0.05731100  0.30457000  1
  Cu  Cu49  1  0.47350200  0.94268900  0.19543000  1
  Cu  Cu50  1  0.02649800  0.94268900  0.69543000  1
  Cu  Cu51  1  0.52649800  0.05731100  0.80457000  1
  Cu  Cu52  1  0.97359500  0.24932500  0.49789300  1
  Cu  Cu53  1  0.47359500  0.75067500  0.00210700  1
  Cu  Cu54  1  0.02640500  0.75067500  0.50210700  1
  Cu  Cu55  1  0.52640500  0.24932500  0.99789300  1
  Cu  Cu56  1  0.04037000  0.54930500  0.30776100  1
  Cu  Cu57  1  0.54037000  0.45069500  0.19223900  1
  Cu  Cu58  1  0.95963000  0.45069500  0.69223900  1
  Cu  Cu59  1  0.45963000  0.54930500  0.80776100  1
  Cu  Cu60  1  0.20213400  0.56197600  0.25535500  1
  Cu  Cu61  1  0.70213400  0.43802400  0.24464500  1
  Cu  Cu62  1  0.79786600  0.43802400  0.74464500  1
  Cu  Cu63  1  0.29786600  0.56197600  0.75535500  1
  Cu  Cu64  1  0.15154000  0.98659300  0.33180600  1
  Cu  Cu65  1  0.65154000  0.01340700  0.16819400  1
  Cu  Cu66  1  0.84846000  0.01340700  0.66819400  1
  Cu  Cu67  1  0.34846000  0.98659300  0.83180600  1
