# generated using pymatgen
data_Cu5NiC2
_symmetry_space_group_name_H-M   'P 1'
_cell_length_a   4.04407300
_cell_length_b   7.94617600
_cell_length_c   11.36764600
_cell_angle_alpha   90.00000000
_cell_angle_beta   90.00000000
_cell_angle_gamma   90.00000000
_symmetry_Int_Tables_number   1
_chemical_formula_structural   Cu5NiC2
_chemical_formula_sum   'Cu10 Ni2 C4'
_cell_volume   365.29834722
_cell_formula_units_Z   2
loop_
 _symmetry_equiv_pos_site_id
 _symmetry_equiv_pos_as_xyz
  1  'x, y, z'
loop_
 _atom_site_type_symbol
 _atom_site_label
 _atom_site_symmetry_multiplicity
 _atom_site_fract_x
 _atom_site_fract_y
 _atom_site_fract_z
 _atom_site_occupancy
  C  C0  1  0.50000000  0.57408200  0.16869100  1
  C  C1  1  0.50000000  0.42591800  0.83130900  1
  C  C2  1  0.50000000  0.07408200  0.33130900  1
  C  C3  1  0.50000000  0.92591800  0.66869100  1
  Ni  Ni4  1  0.00000000  0.50000000  0.50000000  1
  Ni  Ni5  1  0.00000000  0.00000000  0.00000000  1
  Cu  Cu6  1  0.50000000  0.68988200  0.43074100  1
  Cu  Cu7  1  0.50000000  0.31011800  0.56925900  1
  Cu  Cu8  1  0.50000000  0.18988200  0.06925900  1
  Cu  Cu9  1  0.50000000  0.81011800  0.93074100  1
  Cu  Cu10  1  0.00000000  0.85581200  0.20326200  1
  Cu  Cu11  1  0.00000000  0.14418800  0.79673800  1
  Cu  Cu12  1  0.00000000  0.50000000  0.00000000  1
  Cu  Cu13  1  0.00000000  0.00000000  0.50000000  1
  Cu  Cu14  1  0.00000000  0.64418800  0.70326200  1
  Cu  Cu15  1  0.00000000  0.35581200  0.29673800  1
