# generated using pymatgen
data_CuNiC8
_symmetry_space_group_name_H-M   'P 1'
_cell_length_a   5.92834013
_cell_length_b   6.00442145
_cell_length_c   8.42530352
_cell_angle_alpha   90.14522455
_cell_angle_beta   89.88303272
_cell_angle_gamma   89.81555184
_symmetry_Int_Tables_number   1
_chemical_formula_structural   CuNiC8
_chemical_formula_sum   'Cu2 Ni2 C16'
_cell_volume   299.90608525
_cell_formula_units_Z   2
loop_
 _symmetry_equiv_pos_site_id
 _symmetry_equiv_pos_as_xyz
  1  'x, y, z'
loop_
 _atom_site_type_symbol
 _atom_site_label
 _atom_site_symmetry_multiplicity
 _atom_site_fract_x
 _atom_site_fract_y
 _atom_site_fract_z
 _atom_site_occupancy
  C  C0  1  0.99501261  0.03446389  0.25044286  1
  C  C1  1  0.00498739  0.96553611  0.74955714  1
  C  C2  1  0.51178803  0.54633603  0.25005704  1
  C  C3  1  0.48821197  0.45366397  0.74994296  1
  Ni  Ni4  1  0.50000000  -0.00000000  -0.00000000  1
  Ni  Ni5  1  0.00000000  0.50000000  0.50000000  1
  Cu  Cu6  1  0.00000000  0.50000000  -0.00000000  1
  Cu  Cu7  1  0.50000000  -0.00000000  0.50000000  1
  C  C8  1  0.21275325  0.21874168  0.95828548  1
  C  C9  1  0.30521196  0.70373421  0.55399900  1
  C  C10  1  0.78724675  0.78125832  0.04171452  1
  C  C11  1  0.69478804  0.29626579  0.44600100  1
  C  C12  1  0.29512278  0.69842459  0.94337182  1
  C  C13  1  0.21534231  0.21418953  0.53747608  1
  C  C14  1  0.70487722  0.30157541  0.05662818  1
  C  C15  1  0.78465769  0.78581047  0.46252392  1
  C  C16  1  0.43335922  0.94134306  0.25206079  1
  C  C17  1  0.10818314  0.49572468  0.24657127  1
  C  C18  1  0.56664078  0.05865694  0.74793921  1
  C  C19  1  0.89181686  0.50427532  0.75342873  1
