# generated using pymatgen
data_CuNi3C17
_symmetry_space_group_name_H-M   'P 1'
_cell_length_a   7.84203700
_cell_length_b   5.31838700
_cell_length_c   16.93264411
_cell_angle_alpha   89.55656571
_cell_angle_beta   90.00000000
_cell_angle_gamma   90.00000000
_symmetry_Int_Tables_number   1
_chemical_formula_structural   CuNi3C17
_chemical_formula_sum   'Cu2 Ni6 C34'
_cell_volume   706.18842848
_cell_formula_units_Z   2
loop_
 _symmetry_equiv_pos_site_id
 _symmetry_equiv_pos_as_xyz
  1  'x, y, z'
loop_
 _atom_site_type_symbol
 _atom_site_label
 _atom_site_symmetry_multiplicity
 _atom_site_fract_x
 _atom_site_fract_y
 _atom_site_fract_z
 _atom_site_occupancy
  C  C0  1  0.34914200  0.20358200  0.41482000  1
  C  C1  1  0.84914200  0.79641800  0.58518000  1
  C  C2  1  0.14021100  0.19572400  0.08011300  1
  C  C3  1  0.64021100  0.80427600  0.91988700  1
  Ni  Ni4  1  0.23863400  0.70287100  0.50244300  1
  Ni  Ni5  1  0.73863400  0.29712900  0.49755700  1
  Ni  Ni6  1  0.74117200  0.30847900  0.01415400  1
  Ni  Ni7  1  0.24117200  0.69152100  0.98584600  1
  Ni  Ni8  1  0.25085700  0.45655700  0.24645500  1
  Ni  Ni9  1  0.75085700  0.54344300  0.75354500  1
  Cu  Cu10  1  0.74342900  0.88024600  0.25865000  1
  Cu  Cu11  1  0.24342900  0.11975400  0.74135000  1
  C  C12  1  0.74325900  0.77893900  0.18537800  1
  C  C13  1  0.24325900  0.22106100  0.81462200  1
  C  C14  1  0.82240200  0.10266800  0.27155500  1
  C  C15  1  0.32240200  0.89733200  0.72844500  1
  C  C16  1  0.66375700  0.76061500  0.31920100  1
  C  C17  1  0.16375700  0.23938500  0.68079900  1
  C  C18  1  0.27385500  0.85236000  0.42540400  1
  C  C19  1  0.77385500  0.14764000  0.57459600  1
  C  C20  1  0.36138100  0.30835600  0.30529300  1
  C  C21  1  0.86138100  0.69164400  0.69470700  1
  C  C22  1  0.58611600  0.19486200  0.45166200  1
  C  C23  1  0.08611600  0.80513800  0.54833800  1
  C  C24  1  0.21940500  0.42078600  0.48442900  1
  C  C25  1  0.71940500  0.57921400  0.51557100  1
  C  C26  1  0.89474700  0.20666300  0.05950700  1
  C  C27  1  0.39474700  0.79333700  0.94049300  1
  C  C28  1  0.19898300  0.84227900  0.06138700  1
  C  C29  1  0.69898300  0.15772100  0.93861300  1
  C  C30  1  0.26447600  0.41122100  0.00721200  1
  C  C31  1  0.76447600  0.58877900  0.99278800  1
  C  C32  1  0.16250100  0.27128900  0.19092600  1
  C  C33  1  0.66250100  0.72871100  0.80907400  1
  C  C34  1  0.39475600  0.75108600  0.55680700  1
  C  C35  1  0.89475600  0.24891400  0.44319300  1
  C  C36  1  0.58331700  0.27041900  0.06820000  1
  C  C37  1  0.08331700  0.72958100  0.93180000  1
  C  C38  1  0.11979500  0.63245300  0.28685200  1
  C  C39  1  0.61979500  0.36754700  0.71314800  1
  C  C40  1  0.35610400  0.66119600  0.20258600  1
  C  C41  1  0.85610400  0.33880400  0.79741400  1
