# generated using pymatgen
data_Cu5Ni2C25
_symmetry_space_group_name_H-M   'P 1'
_cell_length_a   5.87068000
_cell_length_b   5.90973223
_cell_length_c   10.11692106
_cell_angle_alpha   106.97387595
_cell_angle_beta   89.56002046
_cell_angle_gamma   119.77694212
_symmetry_Int_Tables_number   1
_chemical_formula_structural   Cu5Ni2C25
_chemical_formula_sum   'Cu5 Ni2 C25'
_cell_volume   287.36962110
_cell_formula_units_Z   1
loop_
 _symmetry_equiv_pos_site_id
 _symmetry_equiv_pos_as_xyz
  1  'x, y, z'
loop_
 _atom_site_type_symbol
 _atom_site_label
 _atom_site_symmetry_multiplicity
 _atom_site_fract_x
 _atom_site_fract_y
 _atom_site_fract_z
 _atom_site_occupancy
  C  C0  1  0.74359100  0.24587200  0.24554100  1
  C  C1  1  0.00000000  0.50000000  0.00000000  1
  C  C2  1  0.25640900  0.75412800  0.75445900  1
  C  C3  1  0.24789000  0.24750500  0.24787100  1
  C  C4  1  0.50000000  0.50000000  0.00000000  1
  C  C5  1  0.75211000  0.75249500  0.75212900  1
  C  C6  1  0.00000000  0.00000000  0.50000000  1
  C  C7  1  0.50000000  0.00000000  0.50000000  1
  C  C8  1  0.50000000  0.00000000  0.00000000  1
  Ni  Ni9  1  0.24700200  0.74486200  0.24547500  1
  Ni  Ni10  1  0.75299800  0.25513800  0.75452500  1
  Cu  Cu11  1  0.00000000  0.50000000  0.50000000  1
  Cu  Cu12  1  0.74448500  0.75487200  0.24087900  1
  Cu  Cu13  1  0.00000000  0.00000000  0.00000000  1
  Cu  Cu14  1  0.25551500  0.24512800  0.75912100  1
  Cu  Cu15  1  0.50000000  0.50000000  0.50000000  1
  C  C16  1  0.13481300  0.39592600  0.37274100  1
  C  C17  1  0.37091900  0.62890200  0.13510000  1
  C  C18  1  0.65677100  0.91382700  0.87184700  1
  C  C19  1  0.62766400  0.39707800  0.37919500  1
  C  C20  1  0.89288400  0.62222800  0.13519100  1
  C  C21  1  0.12317300  0.91146500  0.87457800  1
  C  C22  1  0.40131600  0.13756300  0.63577100  1
  C  C23  1  0.87969700  0.15463900  0.62618100  1
  C  C24  1  0.34322900  0.08617300  0.12815300  1
  C  C25  1  0.62908100  0.37109800  0.86490000  1
  C  C26  1  0.86518700  0.60407400  0.62725900  1
  C  C27  1  0.87682700  0.08853500  0.12542200  1
  C  C28  1  0.10711600  0.37777200  0.86480900  1
  C  C29  1  0.37233600  0.60292200  0.62080500  1
  C  C30  1  0.59868400  0.86243700  0.36422900  1
  C  C31  1  0.12030300  0.84536100  0.37381900  1
