# generated using pymatgen
data_Cu5Ni4C21
_symmetry_space_group_name_H-M   'P 1'
_cell_length_a   8.64851770
_cell_length_b   8.64851770
_cell_length_c   10.40095933
_cell_angle_alpha   85.89018909
_cell_angle_beta   85.89018909
_cell_angle_gamma   61.87809442
_symmetry_Int_Tables_number   1
_chemical_formula_structural   Cu5Ni4C21
_chemical_formula_sum   'Cu10 Ni8 C42'
_cell_volume   683.71909532
_cell_formula_units_Z   2
loop_
 _symmetry_equiv_pos_site_id
 _symmetry_equiv_pos_as_xyz
  1  'x, y, z'
loop_
 _atom_site_type_symbol
 _atom_site_label
 _atom_site_symmetry_multiplicity
 _atom_site_fract_x
 _atom_site_fract_y
 _atom_site_fract_z
 _atom_site_occupancy
  Ni  Ni0  1  0.94205500  0.65570800  0.42384300  1
  Ni  Ni1  1  0.32379900  0.63622700  0.54354300  1
  Ni  Ni2  1  0.34429200  0.05794500  0.07615700  1
  Ni  Ni3  1  0.36377300  0.67620100  0.95645700  1
  Ni  Ni4  1  0.63622700  0.32379900  0.04354300  1
  Ni  Ni5  1  0.65570800  0.94205500  0.92384300  1
  Ni  Ni6  1  0.05794500  0.34429200  0.57615700  1
  Ni  Ni7  1  0.67620100  0.36377300  0.45645700  1
  Cu  Cu8  1  0.00809000  0.69440400  0.76801300  1
  Cu  Cu9  1  0.69440400  0.00809000  0.26801300  1
  Cu  Cu10  1  0.47483300  0.85687600  0.44998800  1
  Cu  Cu11  1  0.85687600  0.47483300  0.94998800  1
  Cu  Cu12  1  0.14312400  0.52516700  0.05001200  1
  Cu  Cu13  1  0.82280900  0.17719100  0.75000000  1
  Cu  Cu14  1  0.17719100  0.82280900  0.25000000  1
  Cu  Cu15  1  0.52516700  0.14312400  0.55001200  1
  Cu  Cu16  1  0.99191000  0.30559600  0.23198700  1
  Cu  Cu17  1  0.30559600  0.99191000  0.73198700  1
  C  C18  1  0.34146500  0.33472400  0.79835600  1
  C  C19  1  0.00000000  0.00000000  0.50000000  1
  C  C20  1  0.00000000  0.00000000  0.00000000  1
  C  C21  1  0.33472400  0.34146500  0.29835600  1
  C  C22  1  0.65853500  0.66527600  0.20164400  1
  C  C23  1  0.66527600  0.65853500  0.70164400  1
  C  C24  1  0.40293000  0.10271800  0.88795300  1
  C  C25  1  0.08706900  0.75939000  0.93825200  1
  C  C26  1  0.24154300  0.56689600  0.20628500  1
  C  C27  1  0.07507500  0.06785600  0.33590200  1
  C  C28  1  0.24061000  0.91293100  0.56174800  1
  C  C29  1  0.93214400  0.92492500  0.16409800  1
  C  C30  1  0.42154200  0.40433100  0.44627500  1
  C  C31  1  0.76282500  0.09582800  0.93211400  1
  C  C32  1  0.23717500  0.90417200  0.06788600  1
  C  C33  1  0.72336500  0.77064900  0.34005200  1
  C  C34  1  0.25275600  0.55661400  0.70297300  1
  C  C35  1  0.27663500  0.22935100  0.65994800  1
  C  C36  1  0.91293100  0.24061000  0.06174800  1
  C  C37  1  0.10335200  0.44258900  0.88074900  1
  C  C38  1  0.44338600  0.74724400  0.79702700  1
  C  C39  1  0.57845800  0.59566900  0.55372500  1
  C  C40  1  0.74724400  0.44338600  0.29702700  1
  C  C41  1  0.55741100  0.89664800  0.61925100  1
  C  C42  1  0.43310400  0.75845700  0.29371500  1
  C  C43  1  0.55661400  0.25275600  0.20297300  1
  C  C44  1  0.10271800  0.40293000  0.38795300  1
  C  C45  1  0.89664800  0.55741100  0.11925100  1
  C  C46  1  0.90417200  0.23717500  0.56788600  1
  C  C47  1  0.40433100  0.42154200  0.94627500  1
  C  C48  1  0.75845700  0.43310400  0.79371500  1
  C  C49  1  0.06785600  0.07507500  0.83590200  1
  C  C50  1  0.77064900  0.72336500  0.84005200  1
  C  C51  1  0.59566900  0.57845800  0.05372500  1
  C  C52  1  0.75939000  0.08706900  0.43825200  1
  C  C53  1  0.44258900  0.10335200  0.38074900  1
  C  C54  1  0.59707000  0.89728200  0.11204700  1
  C  C55  1  0.92492500  0.93214400  0.66409800  1
  C  C56  1  0.09582800  0.76282500  0.43211400  1
  C  C57  1  0.22935100  0.27663500  0.15994800  1
  C  C58  1  0.56689600  0.24154300  0.70628500  1
  C  C59  1  0.89728200  0.59707000  0.61204700  1
