# generated using pymatgen
data_CuNiC8
_symmetry_space_group_name_H-M   'P 1'
_cell_length_a   5.50359438
_cell_length_b   5.67621100
_cell_length_c   7.86924397
_cell_angle_alpha   89.99963618
_cell_angle_beta   90.26001752
_cell_angle_gamma   90.00028776
_symmetry_Int_Tables_number   1
_chemical_formula_structural   CuNiC8
_chemical_formula_sum   'Cu2 Ni2 C16'
_cell_volume   245.82921092
_cell_formula_units_Z   2
loop_
 _symmetry_equiv_pos_site_id
 _symmetry_equiv_pos_as_xyz
  1  'x, y, z'
loop_
 _atom_site_type_symbol
 _atom_site_label
 _atom_site_symmetry_multiplicity
 _atom_site_fract_x
 _atom_site_fract_y
 _atom_site_fract_z
 _atom_site_occupancy
  C  C0  1  0.98751100  0.05232600  0.25220700  1
  C  C1  1  0.51249100  0.55233400  0.24781800  1
  C  C2  1  0.01248900  0.94767400  0.74779200  1
  C  C3  1  0.48750800  0.44766800  0.75218100  1
  Ni  Ni4  1  0.00000000  0.49999900  0.50000000  1
  Ni  Ni5  1  0.50000200  0.99999900  0.00000100  1
  Cu  Cu6  1  0.50000000  0.99999900  0.50000000  1
  Cu  Cu7  1  0.00000000  0.50000000  0.99999900  1
  C  C8  1  0.68698500  0.28432200  0.44588800  1
  C  C9  1  0.81301700  0.78432200  0.05411300  1
  C  C10  1  0.31301400  0.71567900  0.55411100  1
  C  C11  1  0.18698400  0.21567700  0.94588700  1
  C  C12  1  0.21234300  0.19166900  0.54704500  1
  C  C13  1  0.28765500  0.69166700  0.95295500  1
  C  C14  1  0.78765800  0.80833100  0.45295500  1
  C  C15  1  0.71234400  0.30833300  0.04704500  1
  C  C16  1  0.09737500  0.46644000  0.23840200  1
  C  C17  1  0.40261800  0.96644200  0.26159800  1
  C  C18  1  0.59738200  0.03355900  0.73840100  1
  C  C19  1  0.90262600  0.53355900  0.76159700  1
