# generated using pymatgen
data_CuNi9C8
_symmetry_space_group_name_H-M   'P 1'
_cell_length_a   7.22991658
_cell_length_b   9.86746490
_cell_length_c   14.16036770
_cell_angle_alpha   90.00000000
_cell_angle_beta   90.00000000
_cell_angle_gamma   90.00000000
_symmetry_Int_Tables_number   1
_chemical_formula_structural   CuNi9C8
_chemical_formula_sum   'Cu4 Ni36 C32'
_cell_volume   1010.21405692
_cell_formula_units_Z   4
loop_
 _symmetry_equiv_pos_site_id
 _symmetry_equiv_pos_as_xyz
  1  'x, y, z'
loop_
 _atom_site_type_symbol
 _atom_site_label
 _atom_site_symmetry_multiplicity
 _atom_site_fract_x
 _atom_site_fract_y
 _atom_site_fract_z
 _atom_site_occupancy
  C  C0  1  0.28689403  0.98041222  0.75000000  1
  C  C1  1  0.78689403  0.51958778  0.75000000  1
  C  C2  1  0.71310597  0.01958778  0.25000000  1
  C  C3  1  0.21310597  0.48041222  0.25000000  1
  C  C4  1  0.52885854  0.25292052  0.61198846  1
  C  C5  1  0.02885854  0.24707948  0.88801154  1
  C  C6  1  0.47114146  0.74707948  0.11198846  1
  C  C7  1  0.97114146  0.75292052  0.38801154  1
  C  C8  1  0.47114146  0.74707948  0.38801154  1
  C  C9  1  0.97114146  0.75292052  0.11198846  1
  C  C10  1  0.52885854  0.25292052  0.88801154  1
  C  C11  1  0.02885854  0.24707948  0.61198846  1
  C  C12  1  0.25098311  0.62648278  0.61981711  1
  C  C13  1  0.75098311  0.87351722  0.88018289  1
  C  C14  1  0.74901689  0.37351722  0.11981711  1
  C  C15  1  0.24901689  0.12648278  0.38018289  1
  C  C16  1  0.74901689  0.37351722  0.38018289  1
  C  C17  1  0.24901689  0.12648278  0.11981711  1
  C  C18  1  0.25098311  0.62648278  0.88018289  1
  C  C19  1  0.75098311  0.87351722  0.61981711  1
  C  C20  1  0.28218771  0.38849852  0.75000000  1
  C  C21  1  0.78218771  0.11150148  0.75000000  1
  C  C22  1  0.71781229  0.61150148  0.25000000  1
  C  C23  1  0.21781229  0.88849852  0.25000000  1
  C  C24  1  0.19960331  0.43892158  0.46129760  1
  C  C25  1  0.69960331  0.06107842  0.03870240  1
  C  C26  1  0.80039669  0.56107842  0.96129760  1
  C  C27  1  0.30039669  0.93892158  0.53870240  1
  C  C28  1  0.80039669  0.56107842  0.53870240  1
  C  C29  1  0.30039669  0.93892158  0.96129760  1
  C  C30  1  0.19960331  0.43892158  0.03870240  1
  C  C31  1  0.69960331  0.06107842  0.46129760  1
  Ni  Ni32  1  0.11389267  0.45564571  0.75000000  1
  Ni  Ni33  1  0.61389267  0.04435429  0.75000000  1
  Ni  Ni34  1  0.88610733  0.54435429  0.25000000  1
  Ni  Ni35  1  0.38610733  0.95564571  0.25000000  1
  Ni  Ni36  1  0.28409655  0.24672646  0.75000000  1
  Ni  Ni37  1  0.78409655  0.25327354  0.75000000  1
  Ni  Ni38  1  0.71590345  0.75327354  0.25000000  1
  Ni  Ni39  1  0.21590345  0.74672646  0.25000000  1
  Ni  Ni40  1  0.44532930  0.46202026  0.75000000  1
  Ni  Ni41  1  0.94532930  0.03797974  0.75000000  1
  Ni  Ni42  1  0.55467070  0.53797974  0.25000000  1
  Ni  Ni43  1  0.05467070  0.96202026  0.25000000  1
  Ni  Ni44  1  0.28261140  0.39649669  0.54473062  1
  Ni  Ni45  1  0.78261140  0.10350331  0.95526938  1
  Ni  Ni46  1  0.71738860  0.60350331  0.04473062  1
  Ni  Ni47  1  0.21738860  0.89649669  0.45526938  1
  Ni  Ni48  1  0.71738860  0.60350331  0.45526938  1
  Ni  Ni49  1  0.21738860  0.89649669  0.04473062  1
  Ni  Ni50  1  0.28261140  0.39649669  0.95526938  1
  Ni  Ni51  1  0.78261140  0.10350331  0.54473062  1
  Ni  Ni52  1  0.09064364  0.34847046  0.40973883  1
  Ni  Ni53  1  0.59064364  0.15152954  0.09026117  1
  Ni  Ni54  1  0.90935636  0.65152954  0.90973883  1
  Ni  Ni55  1  0.40935636  0.84847046  0.59026117  1
  Ni  Ni56  1  0.90935636  0.65152954  0.59026117  1
  Ni  Ni57  1  0.40935636  0.84847046  0.90973883  1
  Ni  Ni58  1  0.09064364  0.34847046  0.09026117  1
  Ni  Ni59  1  0.59064364  0.15152954  0.40973883  1
  Ni  Ni60  1  0.22170939  0.57262808  0.43127716  1
  Ni  Ni61  1  0.72170939  0.92737192  0.06872284  1
  Ni  Ni62  1  0.77829061  0.42737192  0.93127716  1
  Ni  Ni63  1  0.27829061  0.07262808  0.56872284  1
  Ni  Ni64  1  0.77829061  0.42737192  0.56872284  1
  Ni  Ni65  1  0.27829061  0.07262808  0.93127716  1
  Ni  Ni66  1  0.22170939  0.57262808  0.06872284  1
  Ni  Ni67  1  0.72170939  0.92737192  0.43127716  1
  Cu  Cu68  1  0.12398643  0.76475875  0.75000000  1
  Cu  Cu69  1  0.62398643  0.73524125  0.75000000  1
  Cu  Cu70  1  0.87601357  0.23524125  0.25000000  1
  Cu  Cu71  1  0.37601357  0.26475875  0.25000000  1
