# generated using pymatgen
data_CuNi3C8
_symmetry_space_group_name_H-M   'P 1'
_cell_length_a   7.10638600
_cell_length_b   7.03745300
_cell_length_c   11.49424735
_cell_angle_alpha   89.03615100
_cell_angle_beta   90.00000000
_cell_angle_gamma   90.00000000
_symmetry_Int_Tables_number   1
_chemical_formula_structural   CuNi3C8
_chemical_formula_sum   'Cu4 Ni12 C32'
_cell_volume   574.75583084
_cell_formula_units_Z   4
loop_
 _symmetry_equiv_pos_site_id
 _symmetry_equiv_pos_as_xyz
  1  'x, y, z'
loop_
 _atom_site_type_symbol
 _atom_site_label
 _atom_site_symmetry_multiplicity
 _atom_site_fract_x
 _atom_site_fract_y
 _atom_site_fract_z
 _atom_site_occupancy
  C  C0  1  0.76678800  0.74118100  0.49461300  1
  C  C1  1  0.23321200  0.74118100  0.99461300  1
  C  C2  1  0.85069400  0.36355900  0.20230200  1
  C  C3  1  0.14930600  0.36355900  0.70230200  1
  C  C4  1  0.24702500  0.05712800  0.37787100  1
  C  C5  1  0.75297500  0.05712800  0.87787100  1
  Ni  Ni6  1  0.50103500  0.70873200  0.23332000  1
  Ni  Ni7  1  0.49896500  0.70873200  0.73332000  1
  Ni  Ni8  1  0.25702100  0.54973700  0.36564800  1
  Ni  Ni9  1  0.74297900  0.54973700  0.86564800  1
  Ni  Ni10  1  0.35242300  0.38322100  0.17553900  1
  Ni  Ni11  1  0.64757700  0.38322100  0.67553900  1
  Ni  Ni12  1  0.81036900  0.86739200  0.17542600  1
  Ni  Ni13  1  0.18963100  0.86739200  0.67542600  1
  Ni  Ni14  1  0.50290300  0.05026200  0.13470600  1
  Ni  Ni15  1  0.49709700  0.05026200  0.63470600  1
  Ni  Ni16  1  0.74271900  0.19442500  0.49445500  1
  Ni  Ni17  1  0.25728100  0.19442500  0.99445500  1
  Cu  Cu18  1  0.05881800  0.73226900  0.29110900  1
  Cu  Cu19  1  0.94118200  0.73226900  0.79110900  1
  Cu  Cu20  1  0.61275400  0.47816200  0.01737400  1
  Cu  Cu21  1  0.38724600  0.47816200  0.51737400  1
  C  C22  1  0.58093300  0.07924100  0.51480300  1
  C  C23  1  0.41906700  0.07924100  0.01480300  1
  C  C24  1  0.47730600  0.22060400  0.20388100  1
  C  C25  1  0.52269400  0.22060400  0.70388100  1
  C  C26  1  0.41381400  0.88622600  0.19064100  1
  C  C27  1  0.58618600  0.88622600  0.69064100  1
  C  C28  1  0.43223800  0.65835200  0.35003800  1
  C  C29  1  0.56776200  0.65835200  0.85003800  1
  C  C30  1  0.71038200  0.73319300  0.24287200  1
  C  C31  1  0.28961800  0.73319300  0.74287200  1
  C  C32  1  0.77200800  0.34477000  0.57105400  1
  C  C33  1  0.22799200  0.34477000  0.07105400  1
  C  C34  1  0.53372800  0.55331400  0.64887800  1
  C  C35  1  0.46627200  0.55331400  0.14887800  1
  C  C36  1  0.21955600  0.41472000  0.27119000  1
  C  C37  1  0.78044400  0.41472000  0.77119000  1
  C  C38  1  0.71027600  0.01440100  0.11744100  1
  C  C39  1  0.28972400  0.01440100  0.61744100  1
  C  C40  1  0.08809100  0.67975500  0.37159800  1
  C  C41  1  0.91190900  0.67975500  0.87159800  1
  C  C42  1  0.72929200  0.44010900  0.97803700  1
  C  C43  1  0.27070800  0.44010900  0.47803700  1
  C  C44  1  0.86142900  0.15493100  0.40674900  1
  C  C45  1  0.13857100  0.15493100  0.90674900  1
  C  C46  1  0.99867100  0.85504700  0.16724400  1
  C  C47  1  0.00132900  0.85504700  0.66724400  1
