# generated using pymatgen
data_Cu61(NiC3)16
_symmetry_space_group_name_H-M   'P 1'
_cell_length_a   16.23034600
_cell_length_b   12.48874200
_cell_length_c   13.08833877
_cell_angle_alpha   89.84359180
_cell_angle_beta   90.00000000
_cell_angle_gamma   90.00000000
_symmetry_Int_Tables_number   1
_chemical_formula_structural   Cu61(NiC3)16
_chemical_formula_sum   'Cu61 Ni16 C48'
_cell_volume   2652.95193209
_cell_formula_units_Z   1
loop_
 _symmetry_equiv_pos_site_id
 _symmetry_equiv_pos_as_xyz
  1  'x, y, z'
loop_
 _atom_site_type_symbol
 _atom_site_label
 _atom_site_symmetry_multiplicity
 _atom_site_fract_x
 _atom_site_fract_y
 _atom_site_fract_z
 _atom_site_occupancy
  C  C0  1  0.10729700  0.19450800  0.66758500  1
  C  C1  1  0.10543500  0.69263200  0.66832800  1
  C  C2  1  0.60722900  0.19528900  0.66816200  1
  C  C3  1  0.60599800  0.69295900  0.66544200  1
  C  C4  1  0.64136200  0.30550000  0.33279900  1
  C  C5  1  0.65224500  0.79255100  0.32990200  1
  C  C6  1  0.14042500  0.30619700  0.33165400  1
  C  C7  1  0.15162000  0.79245000  0.32994700  1
  C  C8  1  0.64085200  0.44454500  0.83310600  1
  C  C9  1  0.64120900  0.94321700  0.83176000  1
  C  C10  1  0.15284300  0.45878900  0.82835700  1
  C  C11  1  0.14045000  0.94345900  0.83179500  1
  C  C12  1  0.10774700  0.05462700  0.16749700  1
  C  C13  1  0.10545400  0.55758100  0.16871000  1
  C  C14  1  0.60878000  0.05674500  0.16655000  1
  C  C15  1  0.60895800  0.55431400  0.16951200  1
  C  C16  1  0.85957500  0.30619700  0.33165400  1
  C  C17  1  0.84838000  0.79245000  0.32994700  1
  C  C18  1  0.35863800  0.30550000  0.33279900  1
  C  C19  1  0.34775500  0.79255100  0.32990200  1
  C  C20  1  0.89270300  0.19450800  0.66758500  1
  C  C21  1  0.89456500  0.69263200  0.66832800  1
  C  C22  1  0.39277100  0.19528900  0.66816200  1
  C  C23  1  0.39400200  0.69295900  0.66544200  1
  C  C24  1  0.89225300  0.05462700  0.16749700  1
  C  C25  1  0.89454600  0.55758100  0.16871000  1
  C  C26  1  0.39122000  0.05674500  0.16655000  1
  C  C27  1  0.39104200  0.55431400  0.16951200  1
  C  C28  1  0.84715700  0.45878900  0.82835700  1
  C  C29  1  0.85955000  0.94345900  0.83179500  1
  C  C30  1  0.35914800  0.44454500  0.83310600  1
  C  C31  1  0.35879100  0.94321700  0.83176000  1
  C  C32  1  0.13804200  0.23276300  0.00705700  1
  C  C33  1  0.12311400  0.74361100  0.00012400  1
  C  C34  1  0.62454700  0.25163300  0.99871000  1
  C  C35  1  0.62585900  0.74787400  0.00137500  1
  C  C36  1  0.13856000  0.01828400  0.50740600  1
  C  C37  1  0.12276400  0.50542300  0.49968400  1
  C  C38  1  0.63844100  0.01848000  0.50768100  1
  C  C39  1  0.62356600  0.50450300  0.49924000  1
  C  C40  1  0.86195800  0.23276300  0.00705700  1
  C  C41  1  0.87688600  0.74361100  0.00012400  1
  C  C42  1  0.37545300  0.25163300  0.99871000  1
  C  C43  1  0.37414100  0.74787400  0.00137500  1
  C  C44  1  0.86144000  0.01828400  0.50740600  1
  C  C45  1  0.87723600  0.50542300  0.49968400  1
  C  C46  1  0.36155900  0.01848000  0.50768100  1
  C  C47  1  0.37643400  0.50450300  0.49924000  1
  Ni  Ni48  1  0.00000000  0.07820000  0.91049000  1
  Ni  Ni49  1  0.00000000  0.56284500  0.91104600  1
  Ni  Ni50  1  0.50000000  0.07603400  0.91036700  1
  Ni  Ni51  1  0.50000000  0.57687400  0.91048500  1
  Ni  Ni52  1  0.75154400  0.42415700  0.08884900  1
  Ni  Ni53  1  0.75073700  0.92348800  0.09033100  1
  Ni  Ni54  1  0.24845600  0.42415700  0.08884900  1
  Ni  Ni55  1  0.24926300  0.92348800  0.09033100  1
  Ni  Ni56  1  0.75054200  0.32653500  0.58876500  1
  Ni  Ni57  1  0.75000900  0.82472800  0.58926400  1
  Ni  Ni58  1  0.24945800  0.32653500  0.58876500  1
  Ni  Ni59  1  0.24999100  0.82472800  0.58926400  1
  Ni  Ni60  1  0.00000000  0.17126900  0.41033500  1
  Ni  Ni61  1  0.00000000  0.68751000  0.41080500  1
  Ni  Ni62  1  0.50000000  0.17134300  0.41035700  1
  Ni  Ni63  1  0.50000000  0.68739000  0.41083900  1
  Cu  Cu64  1  0.00000000  0.91544800  0.89979700  1
  Cu  Cu65  1  0.50000000  0.41342600  0.89942600  1
  Cu  Cu66  1  0.50000000  0.91326100  0.89989400  1
  Cu  Cu67  1  0.75060700  0.08726300  0.10167300  1
  Cu  Cu68  1  0.75051800  0.58659000  0.09956400  1
  Cu  Cu69  1  0.24939300  0.08726300  0.10167300  1
  Cu  Cu70  1  0.24948200  0.58659000  0.09956400  1
  Cu  Cu71  1  0.75028300  0.16161000  0.60163000  1
  Cu  Cu72  1  0.74973600  0.66262600  0.60115100  1
  Cu  Cu73  1  0.24971700  0.16161000  0.60163000  1
  Cu  Cu74  1  0.25026400  0.66262600  0.60115100  1
  Cu  Cu75  1  0.00000000  0.33397500  0.39927100  1
  Cu  Cu76  1  0.50000000  0.33412200  0.39873800  1
  Cu  Cu77  1  0.00000000  0.13895400  0.05950000  1
  Cu  Cu78  1  0.00000000  0.63696700  0.05949000  1
  Cu  Cu79  1  0.50000000  0.13697000  0.05939200  1
  Cu  Cu80  1  0.50000000  0.63585600  0.05991300  1
  Cu  Cu81  1  0.75126900  0.36328700  0.93908600  1
  Cu  Cu82  1  0.75017700  0.86364900  0.94182200  1
  Cu  Cu83  1  0.24873100  0.36328700  0.93908600  1
  Cu  Cu84  1  0.24982300  0.86364900  0.94182200  1
  Cu  Cu85  1  0.75070500  0.38620800  0.44032400  1
  Cu  Cu86  1  0.74989300  0.88651500  0.43917800  1
  Cu  Cu87  1  0.24929500  0.38620800  0.44032400  1
  Cu  Cu88  1  0.25010700  0.88651500  0.43917800  1
  Cu  Cu89  1  0.00000000  0.11016100  0.55957200  1
  Cu  Cu90  1  0.00000000  0.61312400  0.55943700  1
  Cu  Cu91  1  0.50000000  0.11069400  0.55974900  1
  Cu  Cu92  1  0.50000000  0.61202900  0.55927000  1
  Cu  Cu93  1  0.10664700  0.13706800  0.84619200  1
  Cu  Cu94  1  0.10542900  0.63613000  0.84518200  1
  Cu  Cu95  1  0.60681600  0.13456800  0.84630400  1
  Cu  Cu96  1  0.60679300  0.63516500  0.84625100  1
  Cu  Cu97  1  0.64528200  0.36349700  0.15270800  1
  Cu  Cu98  1  0.64376300  0.86568800  0.15541600  1
  Cu  Cu99  1  0.14125900  0.36476100  0.15065400  1
  Cu  Cu100  1  0.14299100  0.86408900  0.15478600  1
  Cu  Cu101  1  0.64408400  0.38393400  0.65343500  1
  Cu  Cu102  1  0.64288200  0.88511600  0.65087400  1
  Cu  Cu103  1  0.14284900  0.38393100  0.65390300  1
  Cu  Cu104  1  0.14319500  0.88552200  0.65064600  1
  Cu  Cu105  1  0.10659600  0.11244100  0.34607500  1
  Cu  Cu106  1  0.10554600  0.61463400  0.34534800  1
  Cu  Cu107  1  0.60654800  0.11228000  0.34623300  1
  Cu  Cu108  1  0.60545500  0.61481900  0.34493600  1
  Cu  Cu109  1  0.85874100  0.36476100  0.15065400  1
  Cu  Cu110  1  0.85700900  0.86408900  0.15478600  1
  Cu  Cu111  1  0.35471800  0.36349700  0.15270800  1
  Cu  Cu112  1  0.35623700  0.86568800  0.15541600  1
  Cu  Cu113  1  0.89335300  0.13706800  0.84619200  1
  Cu  Cu114  1  0.89457100  0.63613000  0.84518200  1
  Cu  Cu115  1  0.39318400  0.13456800  0.84630400  1
  Cu  Cu116  1  0.39320700  0.63516500  0.84625100  1
  Cu  Cu117  1  0.89340400  0.11244100  0.34607500  1
  Cu  Cu118  1  0.89445400  0.61463400  0.34534800  1
  Cu  Cu119  1  0.39345200  0.11228000  0.34623300  1
  Cu  Cu120  1  0.39454500  0.61481900  0.34493600  1
  Cu  Cu121  1  0.85715100  0.38393100  0.65390300  1
  Cu  Cu122  1  0.85680500  0.88552200  0.65064600  1
  Cu  Cu123  1  0.35591600  0.38393400  0.65343500  1
  Cu  Cu124  1  0.35711800  0.88511600  0.65087400  1
