# generated using pymatgen
data_Cu2Ni4C
_symmetry_space_group_name_H-M   'P 1'
_cell_length_a   8.20971903
_cell_length_b   8.20971903
_cell_length_c   8.20971903
_cell_angle_alpha   60.00000000
_cell_angle_beta   60.00000000
_cell_angle_gamma   60.00000000
_symmetry_Int_Tables_number   1
_chemical_formula_structural   Cu2Ni4C
_chemical_formula_sum   'Cu8 Ni16 C4'
_cell_volume   391.26399486
_cell_formula_units_Z   4
loop_
 _symmetry_equiv_pos_site_id
 _symmetry_equiv_pos_as_xyz
  1  'x, y, z'
loop_
 _atom_site_type_symbol
 _atom_site_label
 _atom_site_symmetry_multiplicity
 _atom_site_fract_x
 _atom_site_fract_y
 _atom_site_fract_z
 _atom_site_occupancy
  Ni  Ni0  1  0.06969000  0.06969000  0.43031000  1
  Ni  Ni1  1  0.43031000  0.06969000  0.43031000  1
  Ni  Ni2  1  0.06969000  0.43031000  0.43031000  1
  Ni  Ni3  1  0.43031000  0.43031000  0.06969000  1
  Ni  Ni4  1  0.06969000  0.43031000  0.06969000  1
  Ni  Ni5  1  0.43031000  0.06969000  0.06969000  1
  Ni  Ni6  1  0.18070600  0.18070600  0.81929400  1
  Ni  Ni7  1  0.81929400  0.18070600  0.81929400  1
  Ni  Ni8  1  0.18070600  0.81929400  0.81929400  1
  Ni  Ni9  1  0.81929400  0.81929400  0.18070600  1
  Ni  Ni10  1  0.18070600  0.81929400  0.18070600  1
  Ni  Ni11  1  0.81929400  0.18070600  0.18070600  1
  Ni  Ni12  1  0.83476600  0.83476600  0.49570100  1
  Ni  Ni13  1  0.83476600  0.49570100  0.83476600  1
  Ni  Ni14  1  0.49570100  0.83476600  0.83476600  1
  Ni  Ni15  1  0.83476600  0.83476600  0.83476600  1
  Cu  Cu16  1  0.62360700  0.62360700  0.12917800  1
  Cu  Cu17  1  0.62360700  0.12917800  0.62360700  1
  Cu  Cu18  1  0.12917800  0.62360700  0.62360700  1
  Cu  Cu19  1  0.62360700  0.62360700  0.62360700  1
  Cu  Cu20  1  0.41596200  0.41596200  0.75211300  1
  Cu  Cu21  1  0.41596200  0.75211300  0.41596200  1
  Cu  Cu22  1  0.75211300  0.41596200  0.41596200  1
  Cu  Cu23  1  0.41596200  0.41596200  0.41596200  1
  C  C24  1  0.12548700  0.12548700  0.62353900  1
  C  C25  1  0.12548700  0.62353900  0.12548700  1
  C  C26  1  0.62353900  0.12548700  0.12548700  1
  C  C27  1  0.12548700  0.12548700  0.12548700  1
