# generated using pymatgen
data_Cu8NiC24
_symmetry_space_group_name_H-M   'P 1'
_cell_length_a   8.02347000
_cell_length_b   11.75795521
_cell_length_c   10.69503729
_cell_angle_alpha   90.75985535
_cell_angle_beta   90.00000000
_cell_angle_gamma   90.00000000
_symmetry_Int_Tables_number   1
_chemical_formula_structural   Cu8NiC24
_chemical_formula_sum   'Cu16 Ni2 C48'
_cell_volume   1008.87682220
_cell_formula_units_Z   2
loop_
 _symmetry_equiv_pos_site_id
 _symmetry_equiv_pos_as_xyz
  1  'x, y, z'
loop_
 _atom_site_type_symbol
 _atom_site_label
 _atom_site_symmetry_multiplicity
 _atom_site_fract_x
 _atom_site_fract_y
 _atom_site_fract_z
 _atom_site_occupancy
  Ni  Ni0  1  0.00000000  0.00000000  0.00000000  1
  Ni  Ni1  1  0.50000000  0.00000000  0.50000000  1
  Cu  Cu2  1  0.53955800  0.64241400  0.91504000  1
  Cu  Cu3  1  0.46044200  0.35758600  0.08496000  1
  Cu  Cu4  1  0.03955800  0.35758600  0.58496000  1
  Cu  Cu5  1  0.96044200  0.64241400  0.41504000  1
  Cu  Cu6  1  0.97095100  0.66235000  0.97485000  1
  Cu  Cu7  1  0.02904900  0.33765000  0.02515000  1
  Cu  Cu8  1  0.47095100  0.33765000  0.52515000  1
  Cu  Cu9  1  0.52904900  0.66235000  0.47485000  1
  Cu  Cu10  1  0.72412900  0.35648700  0.79894800  1
  Cu  Cu11  1  0.27587100  0.64351300  0.20105200  1
  Cu  Cu12  1  0.22412900  0.64351300  0.70105200  1
  Cu  Cu13  1  0.77587100  0.35648700  0.29894800  1
  Cu  Cu14  1  0.83916800  0.64748100  0.68760500  1
  Cu  Cu15  1  0.16083200  0.35251900  0.31239500  1
  Cu  Cu16  1  0.33916800  0.35251900  0.81239500  1
  Cu  Cu17  1  0.66083200  0.64748100  0.18760500  1
  C  C18  1  0.28712100  0.99117000  0.49062600  1
  C  C19  1  0.71287900  0.00883000  0.50937400  1
  C  C20  1  0.78712100  0.00883000  0.00937400  1
  C  C21  1  0.21287900  0.99117000  0.99062600  1
  C  C22  1  0.53873200  0.38769200  0.91738600  1
  C  C23  1  0.46126800  0.61230800  0.08261400  1
  C  C24  1  0.03873200  0.61230800  0.58261400  1
  C  C25  1  0.96126800  0.38769200  0.41738600  1
  C  C26  1  0.51987400  0.37682200  0.68812700  1
  C  C27  1  0.48012600  0.62317800  0.31187300  1
  C  C28  1  0.01987400  0.62317800  0.81187300  1
  C  C29  1  0.98012600  0.37682200  0.18812700  1
  C  C30  1  0.87992800  0.39627500  0.92391300  1
  C  C31  1  0.12007200  0.60372500  0.07608700  1
  C  C32  1  0.37992800  0.60372500  0.57608700  1
  C  C33  1  0.62007200  0.39627500  0.42391300  1
  C  C34  1  0.24017900  0.77867700  0.70551200  1
  C  C35  1  0.75982100  0.22132300  0.29448800  1
  C  C36  1  0.74017900  0.22132300  0.79448800  1
  C  C37  1  0.25982100  0.77867700  0.20551200  1
  C  C38  1  0.52205100  0.99423100  0.65935400  1
  C  C39  1  0.47794900  0.00576900  0.34064600  1
  C  C40  1  0.02205100  0.00576900  0.84064600  1
  C  C41  1  0.97794900  0.99423100  0.15935400  1
  C  C42  1  0.74101200  0.62305200  0.52485300  1
  C  C43  1  0.25898800  0.37694800  0.47514700  1
  C  C44  1  0.24101200  0.37694800  0.97514700  1
  C  C45  1  0.75898800  0.62305200  0.02485300  1
  C  C46  1  0.85386000  0.40590900  0.66759300  1
  C  C47  1  0.14614000  0.59409100  0.33240700  1
  C  C48  1  0.35386000  0.59409100  0.83240700  1
  C  C49  1  0.64614000  0.40590900  0.16759300  1
  C  C50  1  0.81862400  0.78216600  0.70331500  1
  C  C51  1  0.18137600  0.21783400  0.29668500  1
  C  C52  1  0.31862400  0.21783400  0.79668500  1
  C  C53  1  0.68137600  0.78216600  0.20331500  1
  C  C54  1  0.53866000  0.77742500  0.90161400  1
  C  C55  1  0.46134000  0.22257500  0.09838600  1
  C  C56  1  0.03866000  0.22257500  0.59838600  1
  C  C57  1  0.96134000  0.77742500  0.40161400  1
  C  C58  1  0.98344200  0.79930200  0.98728600  1
  C  C59  1  0.01655800  0.20069800  0.01271400  1
  C  C60  1  0.48344200  0.20069800  0.51271400  1
  C  C61  1  0.51655800  0.79930200  0.48728600  1
  C  C62  1  0.68559200  0.58703400  0.79004500  1
  C  C63  1  0.31440800  0.41296600  0.20995500  1
  C  C64  1  0.18559200  0.41296600  0.70995500  1
  C  C65  1  0.81440800  0.58703400  0.29004500  1
