# generated using pymatgen
data_Cu3Ni17
_symmetry_space_group_name_H-M   'P 1'
_cell_length_a   9.82072981
_cell_length_b   9.82072981
_cell_length_c   9.82072981
_cell_angle_alpha   109.47122063
_cell_angle_beta   109.47122063
_cell_angle_gamma   109.47122063
_symmetry_Int_Tables_number   1
_chemical_formula_structural   Cu3Ni17
_chemical_formula_sum   'Cu12 Ni68'
_cell_volume   729.13743779
_cell_formula_units_Z   4
loop_
 _symmetry_equiv_pos_site_id
 _symmetry_equiv_pos_as_xyz
  1  'x, y, z'
loop_
 _atom_site_type_symbol
 _atom_site_label
 _atom_site_symmetry_multiplicity
 _atom_site_fract_x
 _atom_site_fract_y
 _atom_site_fract_z
 _atom_site_occupancy
  Ni  Ni0  1  0.59679600  0.00000000  0.59679600  1
  Ni  Ni1  1  0.40320400  0.00000000  0.40320400  1
  Ni  Ni2  1  0.00000000  0.59679600  0.59679600  1
  Ni  Ni3  1  0.00000000  0.40320400  0.40320400  1
  Ni  Ni4  1  0.59679600  0.59679600  0.00000000  1
  Ni  Ni5  1  0.40320400  0.40320400  0.00000000  1
  Ni  Ni6  1  0.30412900  0.50000000  0.80412900  1
  Ni  Ni7  1  0.69587100  0.50000000  0.19587100  1
  Ni  Ni8  1  0.50000000  0.80412900  0.30412900  1
  Ni  Ni9  1  0.50000000  0.19587100  0.69587100  1
  Ni  Ni10  1  0.80412900  0.30412900  0.50000000  1
  Ni  Ni11  1  0.19587100  0.69587100  0.50000000  1
  Ni  Ni12  1  0.00000000  0.00000000  0.67192200  1
  Ni  Ni13  1  0.67192200  0.00000000  0.00000000  1
  Ni  Ni14  1  0.00000000  0.67192200  0.00000000  1
  Ni  Ni15  1  0.32807800  0.32807800  0.32807800  1
  Ni  Ni16  1  0.00000000  0.00000000  0.32807800  1
  Ni  Ni17  1  0.32807800  0.00000000  0.00000000  1
  Ni  Ni18  1  0.00000000  0.32807800  0.00000000  1
  Ni  Ni19  1  0.67192200  0.67192200  0.67192200  1
  Ni  Ni20  1  0.09316400  0.86067300  0.76750900  1
  Ni  Ni21  1  0.90683600  0.13932700  0.23249100  1
  Ni  Ni22  1  0.90683600  0.67434500  0.76750900  1
  Ni  Ni23  1  0.09316400  0.32565500  0.23249100  1
  Ni  Ni24  1  0.86067300  0.76750900  0.09316400  1
  Ni  Ni25  1  0.13932700  0.23249100  0.90683600  1
  Ni  Ni26  1  0.67434500  0.76750900  0.90683600  1
  Ni  Ni27  1  0.32565500  0.23249100  0.09316400  1
  Ni  Ni28  1  0.76750900  0.09316400  0.86067300  1
  Ni  Ni29  1  0.23249100  0.90683600  0.13932700  1
  Ni  Ni30  1  0.76750900  0.90683600  0.67434500  1
  Ni  Ni31  1  0.23249100  0.09316400  0.32565500  1
  Ni  Ni32  1  0.34962600  0.94512600  0.59549900  1
  Ni  Ni33  1  0.65037400  0.05487400  0.40450100  1
  Ni  Ni34  1  0.65037400  0.24587300  0.59549900  1
  Ni  Ni35  1  0.34962600  0.75412700  0.40450100  1
  Ni  Ni36  1  0.94512600  0.59549900  0.34962600  1
  Ni  Ni37  1  0.05487400  0.40450100  0.65037400  1
  Ni  Ni38  1  0.24587300  0.59549900  0.65037400  1
  Ni  Ni39  1  0.75412700  0.40450100  0.34962600  1
  Ni  Ni40  1  0.59549900  0.34962600  0.94512600  1
  Ni  Ni41  1  0.40450100  0.65037400  0.05487400  1
  Ni  Ni42  1  0.59549900  0.65037400  0.24587300  1
  Ni  Ni43  1  0.40450100  0.34962600  0.75412700  1
  Ni  Ni44  1  0.14012700  0.22706400  0.68497600  1
  Ni  Ni45  1  0.45791200  0.77293600  0.91306400  1
  Ni  Ni46  1  0.85987300  0.54484800  0.08693600  1
  Ni  Ni47  1  0.54208800  0.45515200  0.31502400  1
  Ni  Ni48  1  0.22706400  0.68497600  0.14012700  1
  Ni  Ni49  1  0.77293600  0.91306400  0.45791200  1
  Ni  Ni50  1  0.54484800  0.08693600  0.85987300  1
  Ni  Ni51  1  0.45515200  0.31502400  0.54208800  1
  Ni  Ni52  1  0.68497600  0.14012700  0.22706400  1
  Ni  Ni53  1  0.91306400  0.45791200  0.77293600  1
  Ni  Ni54  1  0.08693600  0.85987300  0.54484800  1
  Ni  Ni55  1  0.31502400  0.54208800  0.45515200  1
  Ni  Ni56  1  0.85987300  0.77293600  0.31502400  1
  Ni  Ni57  1  0.54208800  0.22706400  0.08693600  1
  Ni  Ni58  1  0.14012700  0.45515200  0.91306400  1
  Ni  Ni59  1  0.45791200  0.54484800  0.68497600  1
  Ni  Ni60  1  0.77293600  0.31502400  0.85987300  1
  Ni  Ni61  1  0.22706400  0.08693600  0.54208800  1
  Ni  Ni62  1  0.45515200  0.91306400  0.14012700  1
  Ni  Ni63  1  0.54484800  0.68497600  0.45791200  1
  Ni  Ni64  1  0.31502400  0.85987300  0.77293600  1
  Ni  Ni65  1  0.08693600  0.54208800  0.22706400  1
  Ni  Ni66  1  0.91306400  0.14012700  0.45515200  1
  Ni  Ni67  1  0.68497600  0.45791200  0.54484800  1
  Cu  Cu68  1  0.30092300  0.11278100  0.81185800  1
  Cu  Cu69  1  0.69907700  0.88721900  0.18814200  1
  Cu  Cu70  1  0.69907700  0.51093400  0.81185800  1
  Cu  Cu71  1  0.30092300  0.48906600  0.18814200  1
  Cu  Cu72  1  0.11278100  0.81185800  0.30092300  1
  Cu  Cu73  1  0.88721900  0.18814200  0.69907700  1
  Cu  Cu74  1  0.51093400  0.81185800  0.69907700  1
  Cu  Cu75  1  0.48906600  0.18814200  0.30092300  1
  Cu  Cu76  1  0.81185800  0.30092300  0.11278100  1
  Cu  Cu77  1  0.18814200  0.69907700  0.88721900  1
  Cu  Cu78  1  0.81185800  0.69907700  0.51093400  1
  Cu  Cu79  1  0.18814200  0.30092300  0.48906600  1
