# generated using pymatgen
data_CuNiC2
_symmetry_space_group_name_H-M   'P 1'
_cell_length_a   5.14022800
_cell_length_b   10.67971800
_cell_length_c   13.23254500
_cell_angle_alpha   90.00000000
_cell_angle_beta   90.00000000
_cell_angle_gamma   90.00000000
_symmetry_Int_Tables_number   1
_chemical_formula_structural   CuNiC2
_chemical_formula_sum   'Cu16 Ni16 C32'
_cell_volume   726.41624490
_cell_formula_units_Z   16
loop_
 _symmetry_equiv_pos_site_id
 _symmetry_equiv_pos_as_xyz
  1  'x, y, z'
loop_
 _atom_site_type_symbol
 _atom_site_label
 _atom_site_symmetry_multiplicity
 _atom_site_fract_x
 _atom_site_fract_y
 _atom_site_fract_z
 _atom_site_occupancy
  Ni  Ni0  1  0.63748400  0.03572400  0.18511400  1
  Ni  Ni1  1  0.13748400  0.46427600  0.81488600  1
  Ni  Ni2  1  0.36251600  0.53572400  0.31488600  1
  Ni  Ni3  1  0.86251600  0.96427600  0.68511400  1
  Ni  Ni4  1  0.36251600  0.96427600  0.81488600  1
  Ni  Ni5  1  0.86251600  0.53572400  0.18511400  1
  Ni  Ni6  1  0.63748400  0.46427600  0.68511400  1
  Ni  Ni7  1  0.13748400  0.03572400  0.31488600  1
  Ni  Ni8  1  0.81509700  0.28896400  0.06286500  1
  Ni  Ni9  1  0.31509700  0.21103600  0.93713500  1
  Ni  Ni10  1  0.18490300  0.78896400  0.43713500  1
  Ni  Ni11  1  0.68490300  0.71103600  0.56286500  1
  Ni  Ni12  1  0.18490300  0.71103600  0.93713500  1
  Ni  Ni13  1  0.68490300  0.78896400  0.06286500  1
  Ni  Ni14  1  0.81509700  0.21103600  0.56286500  1
  Ni  Ni15  1  0.31509700  0.28896400  0.43713500  1
  Cu  Cu16  1  0.67197100  0.95837400  0.44142200  1
  Cu  Cu17  1  0.17197100  0.54162600  0.55857800  1
  Cu  Cu18  1  0.32802900  0.45837400  0.05857800  1
  Cu  Cu19  1  0.82802900  0.04162600  0.94142200  1
  Cu  Cu20  1  0.32802900  0.04162600  0.55857800  1
  Cu  Cu21  1  0.82802900  0.45837400  0.44142200  1
  Cu  Cu22  1  0.67197100  0.54162600  0.94142200  1
  Cu  Cu23  1  0.17197100  0.95837400  0.05857800  1
  Cu  Cu24  1  0.80875700  0.28742800  0.30108900  1
  Cu  Cu25  1  0.30875700  0.21257200  0.69891100  1
  Cu  Cu26  1  0.19124300  0.78742800  0.19891100  1
  Cu  Cu27  1  0.69124300  0.71257200  0.80108900  1
  Cu  Cu28  1  0.19124300  0.71257200  0.69891100  1
  Cu  Cu29  1  0.69124300  0.78742800  0.30108900  1
  Cu  Cu30  1  0.80875700  0.21257200  0.80108900  1
  Cu  Cu31  1  0.30875700  0.28742800  0.19891100  1
  C  C32  1  0.71063800  0.47590200  0.30678200  1
  C  C33  1  0.21063800  0.02409800  0.69321800  1
  C  C34  1  0.28936200  0.97590200  0.19321800  1
  C  C35  1  0.78936200  0.52409800  0.80678200  1
  C  C36  1  0.28936200  0.52409800  0.69321800  1
  C  C37  1  0.78936200  0.97590200  0.30678200  1
  C  C38  1  0.71063800  0.02409800  0.80678200  1
  C  C39  1  0.21063800  0.47590200  0.19321800  1
  C  C40  1  0.68698900  0.29237600  0.44567500  1
  C  C41  1  0.18698900  0.20762400  0.55432500  1
  C  C42  1  0.31301100  0.79237600  0.05432500  1
  C  C43  1  0.81301100  0.70762400  0.94567500  1
  C  C44  1  0.31301100  0.70762400  0.55432500  1
  C  C45  1  0.81301100  0.79237600  0.44567500  1
  C  C46  1  0.68698900  0.20762400  0.94567500  1
  C  C47  1  0.18698900  0.29237600  0.05432500  1
  C  C48  1  0.70100000  0.45798900  0.07062200  1
  C  C49  1  0.20100000  0.04201100  0.92937800  1
  C  C50  1  0.29900000  0.95798900  0.42937800  1
  C  C51  1  0.79900000  0.54201100  0.57062200  1
  C  C52  1  0.29900000  0.54201100  0.92937800  1
  C  C53  1  0.79900000  0.95798900  0.07062200  1
  C  C54  1  0.70100000  0.04201100  0.57062200  1
  C  C55  1  0.20100000  0.45798900  0.42937800  1
  C  C56  1  0.66468800  0.21148300  0.17825700  1
  C  C57  1  0.16468800  0.28851700  0.82174300  1
  C  C58  1  0.33531200  0.71148300  0.32174300  1
  C  C59  1  0.83531200  0.78851700  0.67825700  1
  C  C60  1  0.33531200  0.78851700  0.82174300  1
  C  C61  1  0.83531200  0.71148300  0.17825700  1
  C  C62  1  0.66468800  0.28851700  0.67825700  1
  C  C63  1  0.16468800  0.21148300  0.32174300  1
