# generated using pymatgen
data_Cu5(Ni5C17)2
_symmetry_space_group_name_H-M   'P 1'
_cell_length_a   14.98798444
_cell_length_b   16.31116313
_cell_length_c   17.76568686
_cell_angle_alpha   90.00000000
_cell_angle_beta   90.00000000
_cell_angle_gamma   90.00000000
_symmetry_Int_Tables_number   1
_chemical_formula_structural   Cu5(Ni5C17)2
_chemical_formula_sum   'Cu40 Ni80 C272'
_cell_volume   4343.20339019
_cell_formula_units_Z   8
loop_
 _symmetry_equiv_pos_site_id
 _symmetry_equiv_pos_as_xyz
  1  'x, y, z'
loop_
 _atom_site_type_symbol
 _atom_site_label
 _atom_site_symmetry_multiplicity
 _atom_site_fract_x
 _atom_site_fract_y
 _atom_site_fract_z
 _atom_site_occupancy
  C  C0  1  0.88462119  0.74130163  0.91669534  1
  C  C1  1  0.38462119  0.75869837  0.08330466  1
  C  C2  1  0.11537881  0.24130163  0.58330466  1
  C  C3  1  0.61537881  0.25869837  0.41669534  1
  C  C4  1  0.11537881  0.25869837  0.08330466  1
  C  C5  1  0.61537881  0.24130163  0.91669534  1
  C  C6  1  0.88462119  0.75869837  0.41669534  1
  C  C7  1  0.38462119  0.74130163  0.58330466  1
  C  C8  1  0.94649776  0.64954763  0.07731909  1
  C  C9  1  0.44649776  0.85045237  0.92268091  1
  C  C10  1  0.05350224  0.14954763  0.42268091  1
  C  C11  1  0.55350224  0.35045237  0.57731909  1
  C  C12  1  0.05350224  0.35045237  0.92268091  1
  C  C13  1  0.55350224  0.14954763  0.07731909  1
  C  C14  1  0.94649776  0.85045237  0.57731909  1
  C  C15  1  0.44649776  0.64954763  0.42268091  1
  C  C16  1  0.97577910  0.57409322  0.00886256  1
  C  C17  1  0.47577910  0.92590678  0.99113744  1
  C  C18  1  0.02422090  0.07409322  0.49113744  1
  C  C19  1  0.52422090  0.42590678  0.50886256  1
  C  C20  1  0.02422090  0.42590678  0.99113744  1
  C  C21  1  0.52422090  0.07409322  0.00886256  1
  C  C22  1  0.97577910  0.92590678  0.50886256  1
  C  C23  1  0.47577910  0.57409322  0.49113744  1
  C  C24  1  0.90065962  0.54848424  0.08369810  1
  C  C25  1  0.40065962  0.95151576  0.91630190  1
  C  C26  1  0.09934038  0.04848424  0.41630190  1
  C  C27  1  0.59934038  0.45151576  0.58369810  1
  C  C28  1  0.09934038  0.45151576  0.91630190  1
  C  C29  1  0.59934038  0.04848424  0.08369810  1
  C  C30  1  0.90065962  0.95151576  0.58369810  1
  C  C31  1  0.40065962  0.54848424  0.41630190  1
  C  C32  1  0.75293259  0.57022376  0.92110838  1
  C  C33  1  0.25293259  0.92977624  0.07889162  1
  C  C34  1  0.24706741  0.07022376  0.57889162  1
  C  C35  1  0.74706741  0.42977624  0.42110838  1
  C  C36  1  0.24706741  0.42977624  0.07889162  1
  C  C37  1  0.74706741  0.07022376  0.92110838  1
  C  C38  1  0.75293259  0.92977624  0.42110838  1
  C  C39  1  0.25293259  0.57022376  0.57889162  1
  C  C40  1  0.79017588  0.50344016  0.99422140  1
  C  C41  1  0.29017588  0.99655984  0.00577860  1
  C  C42  1  0.20982412  0.00344016  0.50577860  1
  C  C43  1  0.70982412  0.49655984  0.49422140  1
  C  C44  1  0.20982412  0.49655984  0.00577860  1
  C  C45  1  0.70982412  0.00344016  0.99422140  1
  C  C46  1  0.79017588  0.99655984  0.49422140  1
  C  C47  1  0.29017588  0.50344016  0.50577860  1
  C  C48  1  0.86281728  0.52762127  0.91734496  1
  C  C49  1  0.36281728  0.97237873  0.08265504  1
  C  C50  1  0.13718272  0.02762127  0.58265504  1
  C  C51  1  0.63718272  0.47237873  0.41734496  1
  C  C52  1  0.13718272  0.47237873  0.08265504  1
  C  C53  1  0.63718272  0.02762127  0.91734496  1
  C  C54  1  0.86281728  0.97237873  0.41734496  1
  C  C55  1  0.36281728  0.52762127  0.58265504  1
  C  C56  1  0.89105901  0.94921261  0.91638560  1
  C  C57  1  0.39105901  0.55078739  0.08361440  1
  C  C58  1  0.10894099  0.44921261  0.58361440  1
  C  C59  1  0.60894099  0.05078739  0.41638560  1
  C  C60  1  0.10894099  0.05078739  0.08361440  1
  C  C61  1  0.60894099  0.44921261  0.91638560  1
  C  C62  1  0.89105901  0.55078739  0.41638560  1
  C  C63  1  0.39105901  0.94921261  0.58361440  1
  C  C64  1  0.82566790  0.93209471  0.83323271  1
  C  C65  1  0.32566790  0.56790529  0.16676729  1
  C  C66  1  0.17433210  0.43209471  0.66676729  1
  C  C67  1  0.67433210  0.06790529  0.33323271  1
  C  C68  1  0.17433210  0.06790529  0.16676729  1
  C  C69  1  0.67433210  0.43209471  0.83323271  1
  C  C70  1  0.82566790  0.56790529  0.33323271  1
  C  C71  1  0.32566790  0.93209471  0.66676729  1
  C  C72  1  0.92797537  0.98680852  0.82674284  1
  C  C73  1  0.42797537  0.51319148  0.17325716  1
  C  C74  1  0.07202463  0.48680852  0.67325716  1
  C  C75  1  0.57202463  0.01319148  0.32674284  1
  C  C76  1  0.07202463  0.01319148  0.17325716  1
  C  C77  1  0.57202463  0.48680852  0.82674284  1
  C  C78  1  0.92797537  0.51319148  0.32674284  1
  C  C79  1  0.42797537  0.98680852  0.67325716  1
  C  C80  1  0.98283408  0.78487420  0.75080761  1
  C  C81  1  0.48283408  0.71512580  0.24919239  1
  C  C82  1  0.01716592  0.28487420  0.74919239  1
  C  C83  1  0.51716592  0.21512580  0.25080761  1
  C  C84  1  0.01716592  0.21512580  0.24919239  1
  C  C85  1  0.51716592  0.28487420  0.75080761  1
  C  C86  1  0.98283408  0.71512580  0.25080761  1
  C  C87  1  0.48283408  0.78487420  0.74919239  1
  C  C88  1  0.98037240  0.89239862  0.73171112  1
  C  C89  1  0.48037240  0.60760138  0.26828888  1
  C  C90  1  0.01962760  0.39239862  0.76828888  1
  C  C91  1  0.51962760  0.10760138  0.23171112  1
  C  C92  1  0.01962760  0.10760138  0.26828888  1
  C  C93  1  0.51962760  0.39239862  0.73171112  1
  C  C94  1  0.98037240  0.60760138  0.23171112  1
  C  C95  1  0.48037240  0.89239862  0.76828888  1
  C  C96  1  0.87814035  0.83695694  0.73740953  1
  C  C97  1  0.37814035  0.66304306  0.26259047  1
  C  C98  1  0.12185965  0.33695694  0.76259047  1
  C  C99  1  0.62185965  0.16304306  0.23740953  1
  C  C100  1  0.12185965  0.16304306  0.26259047  1
  C  C101  1  0.62185965  0.33695694  0.73740953  1
  C  C102  1  0.87814035  0.66304306  0.23740953  1
  C  C103  1  0.37814035  0.83695694  0.76259047  1
  C  C104  1  0.79238960  0.66117834  0.78799125  1
  C  C105  1  0.29238960  0.83882166  0.21200875  1
  C  C106  1  0.20761040  0.16117834  0.71200875  1
  C  C107  1  0.70761040  0.33882166  0.28799125  1
  C  C108  1  0.20761040  0.33882166  0.21200875  1
  C  C109  1  0.70761040  0.16117834  0.78799125  1
  C  C110  1  0.79238960  0.83882166  0.28799125  1
  C  C111  1  0.29238960  0.66117834  0.71200875  1
  C  C112  1  0.72330407  0.74305646  0.75527694  1
  C  C113  1  0.22330407  0.75694354  0.24472306  1
  C  C114  1  0.27669593  0.24305646  0.74472306  1
  C  C115  1  0.77669593  0.25694354  0.25527694  1
  C  C116  1  0.27669593  0.25694354  0.24472306  1
  C  C117  1  0.77669593  0.24305646  0.75527694  1
  C  C118  1  0.72330407  0.75694354  0.25527694  1
  C  C119  1  0.22330407  0.74305646  0.74472306  1
  C  C120  1  0.67776490  0.66497138  0.81458425  1
  C  C121  1  0.17776490  0.83502862  0.18541575  1
  C  C122  1  0.32223510  0.16497138  0.68541575  1
  C  C123  1  0.82223510  0.33502862  0.31458425  1
  C  C124  1  0.32223510  0.33502862  0.18541575  1
  C  C125  1  0.82223510  0.16497138  0.81458425  1
  C  C126  1  0.67776490  0.83502862  0.31458425  1
  C  C127  1  0.17776490  0.66497138  0.68541575  1
  C  C128  1  0.69876746  0.84206684  0.93891047  1
  C  C129  1  0.19876746  0.65793316  0.06108953  1
  C  C130  1  0.30123254  0.34206684  0.56108953  1
  C  C131  1  0.80123254  0.15793316  0.43891047  1
  C  C132  1  0.30123254  0.15793316  0.06108953  1
  C  C133  1  0.80123254  0.34206684  0.93891047  1
  C  C134  1  0.69876746  0.65793316  0.43891047  1
  C  C135  1  0.19876746  0.84206684  0.56108953  1
  C  C136  1  0.62414223  0.76776018  0.89982271  1
  C  C137  1  0.12414223  0.73223982  0.10017729  1
  C  C138  1  0.37585777  0.26776018  0.60017729  1
  C  C139  1  0.87585777  0.23223982  0.39982271  1
  C  C140  1  0.37585777  0.23223982  0.10017729  1
  C  C141  1  0.87585777  0.26776018  0.89982271  1
  C  C142  1  0.62414223  0.73223982  0.39982271  1
  C  C143  1  0.12414223  0.76776018  0.60017729  1
  C  C144  1  0.67000435  0.84557150  0.84096964  1
  C  C145  1  0.17000435  0.65442850  0.15903036  1
  C  C146  1  0.32999565  0.34557150  0.65903036  1
  C  C147  1  0.82999565  0.15442850  0.34096964  1
  C  C148  1  0.32999565  0.15442850  0.15903036  1
  C  C149  1  0.82999565  0.34557150  0.84096964  1
  C  C150  1  0.67000435  0.65442850  0.34096964  1
  C  C151  1  0.17000435  0.84557150  0.65903036  1
  C  C152  1  0.07305263  0.72814367  0.94161369  1
  C  C153  1  0.57305263  0.77185633  0.05838631  1
  C  C154  1  0.92694737  0.22814367  0.55838631  1
  C  C155  1  0.42694737  0.27185633  0.44161369  1
  C  C156  1  0.92694737  0.27185633  0.05838631  1
  C  C157  1  0.42694737  0.22814367  0.94161369  1
  C  C158  1  0.07305263  0.77185633  0.44161369  1
  C  C159  1  0.57305263  0.72814367  0.55838631  1
  C  C160  1  0.11569496  0.71074372  0.84943942  1
  C  C161  1  0.61569496  0.78925628  0.15056058  1
  C  C162  1  0.88430504  0.21074372  0.65056058  1
  C  C163  1  0.38430504  0.28925628  0.34943942  1
  C  C164  1  0.88430504  0.28925628  0.15056058  1
  C  C165  1  0.38430504  0.21074372  0.84943942  1
  C  C166  1  0.11569496  0.78925628  0.34943942  1
  C  C167  1  0.61569496  0.71074372  0.65056058  1
  C  C168  1  0.10327310  0.62702892  0.91332127  1
  C  C169  1  0.60327310  0.87297108  0.08667873  1
  C  C170  1  0.89672690  0.12702892  0.58667873  1
  C  C171  1  0.39672690  0.37297108  0.41332127  1
  C  C172  1  0.89672690  0.37297108  0.08667873  1
  C  C173  1  0.39672690  0.12702892  0.91332127  1
  C  C174  1  0.10327310  0.87297108  0.41332127  1
  C  C175  1  0.60327310  0.62702892  0.58667873  1
  C  C176  1  0.91767905  0.59753948  0.78258497  1
  C  C177  1  0.41767905  0.90246052  0.21741503  1
  C  C178  1  0.08232095  0.09753948  0.71741503  1
  C  C179  1  0.58232095  0.40246052  0.28258497  1
  C  C180  1  0.08232095  0.40246052  0.21741503  1
  C  C181  1  0.58232095  0.09753948  0.78258497  1
  C  C182  1  0.91767905  0.90246052  0.28258497  1
  C  C183  1  0.41767905  0.59753948  0.71741503  1
  C  C184  1  0.01537622  0.55393333  0.82357095  1
  C  C185  1  0.51537622  0.94606667  0.17642905  1
  C  C186  1  0.98462378  0.05393333  0.67642905  1
  C  C187  1  0.48462378  0.44606667  0.32357095  1
  C  C188  1  0.98462378  0.44606667  0.17642905  1
  C  C189  1  0.48462378  0.05393333  0.82357095  1
  C  C190  1  0.01537622  0.94606667  0.32357095  1
  C  C191  1  0.51537622  0.55393333  0.67642905  1
  C  C192  1  0.02578500  0.63505908  0.75764744  1
  C  C193  1  0.52578500  0.86494092  0.24235256  1
  C  C194  1  0.97421500  0.13505908  0.74235256  1
  C  C195  1  0.47421500  0.36494092  0.25764744  1
  C  C196  1  0.97421500  0.36494092  0.24235256  1
  C  C197  1  0.47421500  0.13505908  0.75764744  1
  C  C198  1  0.02578500  0.86494092  0.25764744  1
  C  C199  1  0.52578500  0.63505908  0.74235256  1
  C  C200  1  0.77761375  0.78023132  0.04700878  1
  C  C201  1  0.27761375  0.71976868  0.95299122  1
  C  C202  1  0.22238625  0.28023132  0.45299122  1
  C  C203  1  0.72238625  0.21976868  0.54700878  1
  C  C204  1  0.22238625  0.21976868  0.95299122  1
  C  C205  1  0.72238625  0.28023132  0.04700878  1
  C  C206  1  0.77761375  0.71976868  0.54700878  1
  C  C207  1  0.27761375  0.78023132  0.45299122  1
  C  C208  1  0.81280184  0.88182391  0.07108124  1
  C  C209  1  0.31280184  0.61817609  0.92891876  1
  C  C210  1  0.18719816  0.38182391  0.42891876  1
  C  C211  1  0.68719816  0.11817609  0.57108124  1
  C  C212  1  0.18719816  0.11817609  0.92891876  1
  C  C213  1  0.68719816  0.38182391  0.07108124  1
  C  C214  1  0.81280184  0.61817609  0.57108124  1
  C  C215  1  0.31280184  0.88182391  0.42891876  1
  C  C216  1  0.85610106  0.79577068  0.12048431  1
  C  C217  1  0.35610106  0.70422932  0.87951569  1
  C  C218  1  0.14389894  0.29577068  0.37951569  1
  C  C219  1  0.64389894  0.20422932  0.62048431  1
  C  C220  1  0.14389894  0.20422932  0.87951569  1
  C  C221  1  0.64389894  0.29577068  0.12048431  1
  C  C222  1  0.85610106  0.70422932  0.62048431  1
  C  C223  1  0.35610106  0.79577068  0.37951569  1
  C  C224  1  0.04090737  0.85948446  0.99886075  1
  C  C225  1  0.54090737  0.64051554  0.00113925  1
  C  C226  1  0.95909263  0.35948446  0.50113925  1
  C  C227  1  0.45909263  0.14051554  0.49886075  1
  C  C228  1  0.95909263  0.14051554  0.00113925  1
  C  C229  1  0.45909263  0.35948446  0.99886075  1
  C  C230  1  0.04090737  0.64051554  0.49886075  1
  C  C231  1  0.54090737  0.85948446  0.50113925  1
  C  C232  1  0.00564334  0.84116631  0.09387235  1
  C  C233  1  0.50564334  0.65883369  0.90612765  1
  C  C234  1  0.99435666  0.34116631  0.40612765  1
  C  C235  1  0.49435666  0.15883369  0.59387235  1
  C  C236  1  0.99435666  0.15883369  0.90612765  1
  C  C237  1  0.49435666  0.34116631  0.09387235  1
  C  C238  1  0.00564334  0.65883369  0.59387235  1
  C  C239  1  0.50564334  0.84116631  0.40612765  1
  C  C240  1  0.96217177  0.92598802  0.04355893  1
  C  C241  1  0.46217177  0.57401198  0.95644107  1
  C  C242  1  0.03782823  0.42598802  0.45644107  1
  C  C243  1  0.53782823  0.07401198  0.54355893  1
  C  C244  1  0.03782823  0.07401198  0.95644107  1
  C  C245  1  0.53782823  0.42598802  0.04355893  1
  C  C246  1  0.96217177  0.57401198  0.54355893  1
  C  C247  1  0.46217177  0.92598802  0.45644107  1
  C  C248  1  0.79510380  0.63825687  0.03480321  1
  C  C249  1  0.29510380  0.86174313  0.96519679  1
  C  C250  1  0.20489620  0.13825687  0.46519679  1
  C  C251  1  0.70489620  0.36174313  0.53480321  1
  C  C252  1  0.20489620  0.36174313  0.96519679  1
  C  C253  1  0.70489620  0.13825687  0.03480321  1
  C  C254  1  0.79510380  0.86174313  0.53480321  1
  C  C255  1  0.29510380  0.63825687  0.46519679  1
  C  C256  1  0.00724399  0.86829192  0.85881935  1
  C  C257  1  0.50724399  0.63170808  0.14118065  1
  C  C258  1  0.99275601  0.36829192  0.64118065  1
  C  C259  1  0.49275601  0.13170808  0.35881935  1
  C  C260  1  0.99275601  0.13170808  0.14118065  1
  C  C261  1  0.49275601  0.36829192  0.85881935  1
  C  C262  1  0.00724399  0.63170808  0.35881935  1
  C  C263  1  0.50724399  0.86829192  0.64118065  1
  Ni  Ni264  1  0.92155146  0.59723022  0.04461219  1
  Ni  Ni265  1  0.42155146  0.90276978  0.95538781  1
  Ni  Ni266  1  0.07844854  0.09723022  0.45538781  1
  Ni  Ni267  1  0.57844854  0.40276978  0.54461219  1
  Ni  Ni268  1  0.07844854  0.40276978  0.95538781  1
  Ni  Ni269  1  0.57844854  0.09723022  0.04461219  1
  Ni  Ni270  1  0.92155146  0.90276978  0.54461219  1
  Ni  Ni271  1  0.42155146  0.59723022  0.45538781  1
  Ni  Ni272  1  0.81096967  0.55192253  0.95493825  1
  Ni  Ni273  1  0.31096967  0.94807747  0.04506175  1
  Ni  Ni274  1  0.18903033  0.05192253  0.54506175  1
  Ni  Ni275  1  0.68903033  0.44807747  0.45493825  1
  Ni  Ni276  1  0.18903033  0.44807747  0.04506175  1
  Ni  Ni277  1  0.68903033  0.05192253  0.95493825  1
  Ni  Ni278  1  0.81096967  0.94807747  0.45493825  1
  Ni  Ni279  1  0.31096967  0.55192253  0.54506175  1
  Ni  Ni280  1  0.89378990  0.93613254  0.85579155  1
  Ni  Ni281  1  0.39378990  0.56386746  0.14420845  1
  Ni  Ni282  1  0.10621010  0.43613254  0.64420845  1
  Ni  Ni283  1  0.60621010  0.06386746  0.35579155  1
  Ni  Ni284  1  0.10621010  0.06386746  0.14420845  1
  Ni  Ni285  1  0.60621010  0.43613254  0.85579155  1
  Ni  Ni286  1  0.89378990  0.56386746  0.35579155  1
  Ni  Ni287  1  0.39378990  0.93613254  0.64420845  1
  Ni  Ni288  1  0.94585640  0.84193402  0.76079005  1
  Ni  Ni289  1  0.44585640  0.65806598  0.23920995  1
  Ni  Ni290  1  0.05414360  0.34193402  0.73920995  1
  Ni  Ni291  1  0.55414360  0.15806598  0.26079005  1
  Ni  Ni292  1  0.05414360  0.15806598  0.23920995  1
  Ni  Ni293  1  0.55414360  0.34193402  0.76079005  1
  Ni  Ni294  1  0.94585640  0.65806598  0.26079005  1
  Ni  Ni295  1  0.44585640  0.84193402  0.73920995  1
  Ni  Ni296  1  0.73777041  0.70287727  0.80393940  1
  Ni  Ni297  1  0.23777041  0.79712273  0.19606060  1
  Ni  Ni298  1  0.26222959  0.20287727  0.69606060  1
  Ni  Ni299  1  0.76222959  0.29712273  0.30393940  1
  Ni  Ni300  1  0.26222959  0.29712273  0.19606060  1
  Ni  Ni301  1  0.76222959  0.20287727  0.80393940  1
  Ni  Ni302  1  0.73777041  0.79712273  0.30393940  1
  Ni  Ni303  1  0.23777041  0.70287727  0.69606060  1
  Ni  Ni304  1  0.68489889  0.80446048  0.88886532  1
  Ni  Ni305  1  0.18489889  0.69553952  0.11113468  1
  Ni  Ni306  1  0.31510111  0.30446048  0.61113468  1
  Ni  Ni307  1  0.81510111  0.19553952  0.38886532  1
  Ni  Ni308  1  0.31510111  0.19553952  0.11113468  1
  Ni  Ni309  1  0.81510111  0.30446048  0.88886532  1
  Ni  Ni310  1  0.68489889  0.69553952  0.38886532  1
  Ni  Ni311  1  0.18489889  0.80446048  0.61113468  1
  Ni  Ni312  1  0.07231438  0.68492800  0.89385705  1
  Ni  Ni313  1  0.57231438  0.81507200  0.10614295  1
  Ni  Ni314  1  0.92768562  0.18492800  0.60614295  1
  Ni  Ni315  1  0.42768562  0.31507200  0.39385705  1
  Ni  Ni316  1  0.92768562  0.31507200  0.10614295  1
  Ni  Ni317  1  0.42768562  0.18492800  0.89385705  1
  Ni  Ni318  1  0.07231438  0.81507200  0.39385705  1
  Ni  Ni319  1  0.57231438  0.68492800  0.60614295  1
  Ni  Ni320  1  0.98446528  0.61203354  0.80478372  1
  Ni  Ni321  1  0.48446528  0.88796646  0.19521628  1
  Ni  Ni322  1  0.01553472  0.11203354  0.69521628  1
  Ni  Ni323  1  0.51553472  0.38796646  0.30478372  1
  Ni  Ni324  1  0.01553472  0.38796646  0.19521628  1
  Ni  Ni325  1  0.51553472  0.11203354  0.80478372  1
  Ni  Ni326  1  0.98446528  0.88796646  0.30478372  1
  Ni  Ni327  1  0.48446528  0.61203354  0.69521628  1
  Ni  Ni328  1  0.83542284  0.81772861  0.06412706  1
  Ni  Ni329  1  0.33542284  0.68227139  0.93587294  1
  Ni  Ni330  1  0.16457716  0.31772861  0.43587294  1
  Ni  Ni331  1  0.66457716  0.18227139  0.56412706  1
  Ni  Ni332  1  0.16457716  0.18227139  0.93587294  1
  Ni  Ni333  1  0.66457716  0.31772861  0.06412706  1
  Ni  Ni334  1  0.83542284  0.68227139  0.56412706  1
  Ni  Ni335  1  0.33542284  0.81772861  0.43587294  1
  Ni  Ni336  1  0.98336835  0.86140552  0.03739514  1
  Ni  Ni337  1  0.48336835  0.63859448  0.96260486  1
  Ni  Ni338  1  0.01663165  0.36140552  0.46260486  1
  Ni  Ni339  1  0.51663165  0.13859448  0.53739514  1
  Ni  Ni340  1  0.01663165  0.13859448  0.96260486  1
  Ni  Ni341  1  0.51663165  0.36140552  0.03739514  1
  Ni  Ni342  1  0.98336835  0.63859448  0.53739514  1
  Ni  Ni343  1  0.48336835  0.86140552  0.46260486  1
  C  C344  1  0.18394342  0.92400860  0.84430146  1
  C  C345  1  0.68394342  0.57599140  0.15569854  1
  C  C346  1  0.81605658  0.42400860  0.65569854  1
  C  C347  1  0.31605658  0.07599140  0.34430146  1
  C  C348  1  0.81605658  0.07599140  0.15569854  1
  C  C349  1  0.31605658  0.42400860  0.84430146  1
  C  C350  1  0.18394342  0.57599140  0.34430146  1
  C  C351  1  0.68394342  0.92400860  0.65569854  1
  Cu  Cu352  1  0.84561273  0.62347531  0.99710643  1
  Cu  Cu353  1  0.34561273  0.87652469  0.00289357  1
  Cu  Cu354  1  0.15438727  0.12347531  0.50289357  1
  Cu  Cu355  1  0.65438727  0.37652469  0.49710643  1
  Cu  Cu356  1  0.15438727  0.37652469  0.00289357  1
  Cu  Cu357  1  0.65438727  0.12347531  0.99710643  1
  Cu  Cu358  1  0.84561273  0.87652469  0.49710643  1
  Cu  Cu359  1  0.34561273  0.62347531  0.50289357  1
  Cu  Cu360  1  0.94143992  0.85791253  0.84277283  1
  Cu  Cu361  1  0.44143992  0.64208747  0.15722717  1
  Cu  Cu362  1  0.05856008  0.35791253  0.65722717  1
  Cu  Cu363  1  0.55856008  0.14208747  0.34277283  1
  Cu  Cu364  1  0.05856008  0.14208747  0.15722717  1
  Cu  Cu365  1  0.55856008  0.35791253  0.84277283  1
  Cu  Cu366  1  0.94143992  0.64208747  0.34277283  1
  Cu  Cu367  1  0.44143992  0.85791253  0.65722717  1
  Cu  Cu368  1  0.75964422  0.75130870  0.87027286  1
  Cu  Cu369  1  0.25964422  0.74869130  0.12972714  1
  Cu  Cu370  1  0.24035578  0.25130870  0.62972714  1
  Cu  Cu371  1  0.74035578  0.24869130  0.37027286  1
  Cu  Cu372  1  0.24035578  0.24869130  0.12972714  1
  Cu  Cu373  1  0.74035578  0.25130870  0.87027286  1
  Cu  Cu374  1  0.75964422  0.74869130  0.37027286  1
  Cu  Cu375  1  0.25964422  0.75130870  0.62972714  1
  Cu  Cu376  1  0.98216545  0.67048779  0.86635110  1
  Cu  Cu377  1  0.48216545  0.82951221  0.13364890  1
  Cu  Cu378  1  0.01783455  0.17048779  0.63364890  1
  Cu  Cu379  1  0.51783455  0.32951221  0.36635110  1
  Cu  Cu380  1  0.01783455  0.32951221  0.13364890  1
  Cu  Cu381  1  0.51783455  0.17048779  0.86635110  1
  Cu  Cu382  1  0.98216545  0.82951221  0.36635110  1
  Cu  Cu383  1  0.48216545  0.67048779  0.63364890  1
  Cu  Cu384  1  0.90945478  0.81138288  0.01113537  1
  Cu  Cu385  1  0.40945478  0.68861712  0.98886463  1
  Cu  Cu386  1  0.09054522  0.31138288  0.48886463  1
  Cu  Cu387  1  0.59054522  0.18861712  0.51113537  1
  Cu  Cu388  1  0.09054522  0.18861712  0.98886463  1
  Cu  Cu389  1  0.59054522  0.31138288  0.01113537  1
  Cu  Cu390  1  0.90945478  0.68861712  0.51113537  1
  Cu  Cu391  1  0.40945478  0.81138288  0.48886463  1
