# generated using pymatgen
data_Cu4Ni2C9
_symmetry_space_group_name_H-M   'P 1'
_cell_length_a   10.03657100
_cell_length_b   12.18197600
_cell_length_c   12.67946400
_cell_angle_alpha   90.00000000
_cell_angle_beta   90.00000000
_cell_angle_gamma   90.00000000
_symmetry_Int_Tables_number   1
_chemical_formula_structural   Cu4Ni2C9
_chemical_formula_sum   'Cu32 Ni16 C72'
_cell_volume   1550.25805194
_cell_formula_units_Z   8
loop_
 _symmetry_equiv_pos_site_id
 _symmetry_equiv_pos_as_xyz
  1  'x, y, z'
loop_
 _atom_site_type_symbol
 _atom_site_label
 _atom_site_symmetry_multiplicity
 _atom_site_fract_x
 _atom_site_fract_y
 _atom_site_fract_z
 _atom_site_occupancy
  C  C0  1  0.75633700  0.11862500  0.35921400  1
  C  C1  1  0.25633700  0.38137500  0.64078600  1
  C  C2  1  0.24366300  0.61862500  0.14078600  1
  C  C3  1  0.74366300  0.88137500  0.85921400  1
  C  C4  1  0.24366300  0.88137500  0.64078600  1
  C  C5  1  0.74366300  0.61862500  0.35921400  1
  C  C6  1  0.75633700  0.38137500  0.85921400  1
  C  C7  1  0.25633700  0.11862500  0.14078600  1
  Ni  Ni8  1  0.79908800  0.62096900  0.05924300  1
  Ni  Ni9  1  0.29908800  0.87903100  0.94075700  1
  Ni  Ni10  1  0.20091200  0.12096900  0.44075700  1
  Ni  Ni11  1  0.70091200  0.37903100  0.55924300  1
  Ni  Ni12  1  0.20091200  0.37903100  0.94075700  1
  Ni  Ni13  1  0.70091200  0.12096900  0.05924300  1
  Ni  Ni14  1  0.79908800  0.87903100  0.55924300  1
  Ni  Ni15  1  0.29908800  0.62096900  0.44075700  1
  Ni  Ni16  1  0.51243000  0.13034000  0.73560800  1
  Ni  Ni17  1  0.01243000  0.36966000  0.26439200  1
  Ni  Ni18  1  0.48757000  0.63034000  0.76439200  1
  Ni  Ni19  1  0.98757000  0.86966000  0.23560800  1
  Ni  Ni20  1  0.48757000  0.86966000  0.26439200  1
  Ni  Ni21  1  0.98757000  0.63034000  0.73560800  1
  Ni  Ni22  1  0.51243000  0.36966000  0.23560800  1
  Ni  Ni23  1  0.01243000  0.13034000  0.76439200  1
  Cu  Cu24  1  0.68586000  0.62743400  0.05564900  1
  Cu  Cu25  1  0.18586000  0.87256600  0.94435100  1
  Cu  Cu26  1  0.31414000  0.12743400  0.44435100  1
  Cu  Cu27  1  0.81414000  0.37256600  0.55564900  1
  Cu  Cu28  1  0.31414000  0.37256600  0.94435100  1
  Cu  Cu29  1  0.81414000  0.12743400  0.05564900  1
  Cu  Cu30  1  0.68586000  0.87256600  0.55564900  1
  Cu  Cu31  1  0.18586000  0.62743400  0.44435100  1
  Cu  Cu32  1  0.91240000  0.61513300  0.06268400  1
  Cu  Cu33  1  0.41240000  0.88486700  0.93731600  1
  Cu  Cu34  1  0.08760000  0.11513300  0.43731600  1
  Cu  Cu35  1  0.58760000  0.38486700  0.56268400  1
  Cu  Cu36  1  0.08760000  0.38486700  0.93731600  1
  Cu  Cu37  1  0.58760000  0.11513300  0.06268400  1
  Cu  Cu38  1  0.91240000  0.88486700  0.56268400  1
  Cu  Cu39  1  0.41240000  0.61513300  0.43731600  1
  Cu  Cu40  1  0.57244900  0.10104300  0.66468400  1
  Cu  Cu41  1  0.07244900  0.39895700  0.33531600  1
  Cu  Cu42  1  0.42755100  0.60104300  0.83531600  1
  Cu  Cu43  1  0.92755100  0.89895700  0.16468400  1
  Cu  Cu44  1  0.42755100  0.89895700  0.33531600  1
  Cu  Cu45  1  0.92755100  0.60104300  0.66468400  1
  Cu  Cu46  1  0.57244900  0.39895700  0.16468400  1
  Cu  Cu47  1  0.07244900  0.10104300  0.83531600  1
  Cu  Cu48  1  0.45093900  0.15816800  0.80627700  1
  Cu  Cu49  1  0.95093900  0.34183200  0.19372300  1
  Cu  Cu50  1  0.54906100  0.65816800  0.69372300  1
  Cu  Cu51  1  0.04906100  0.84183200  0.30627700  1
  Cu  Cu52  1  0.54906100  0.84183200  0.19372300  1
  Cu  Cu53  1  0.04906100  0.65816800  0.80627700  1
  Cu  Cu54  1  0.45093900  0.34183200  0.30627700  1
  Cu  Cu55  1  0.95093900  0.15816800  0.69372300  1
  C  C56  1  0.63217400  0.22183200  0.42559100  1
  C  C57  1  0.13217400  0.27816800  0.57440900  1
  C  C58  1  0.36782600  0.72183200  0.07440900  1
  C  C59  1  0.86782600  0.77816800  0.92559100  1
  C  C60  1  0.36782600  0.77816800  0.57440900  1
  C  C61  1  0.86782600  0.72183200  0.42559100  1
  C  C62  1  0.63217400  0.27816800  0.92559100  1
  C  C63  1  0.13217400  0.22183200  0.07440900  1
  C  C64  1  0.61360100  0.02877500  0.41713500  1
  C  C65  1  0.11360100  0.47122500  0.58286500  1
  C  C66  1  0.38639900  0.52877500  0.08286500  1
  C  C67  1  0.88639900  0.97122500  0.91713500  1
  C  C68  1  0.38639900  0.97122500  0.58286500  1
  C  C69  1  0.88639900  0.52877500  0.41713500  1
  C  C70  1  0.61360100  0.47122500  0.91713500  1
  C  C71  1  0.11360100  0.02877500  0.08286500  1
  C  C72  1  0.70002900  0.22228200  0.24640000  1
  C  C73  1  0.20002900  0.27771800  0.75360000  1
  C  C74  1  0.29997100  0.72228200  0.25360000  1
  C  C75  1  0.79997100  0.77771800  0.74640000  1
  C  C76  1  0.29997100  0.77771800  0.75360000  1
  C  C77  1  0.79997100  0.72228200  0.24640000  1
  C  C78  1  0.70002900  0.27771800  0.74640000  1
  C  C79  1  0.20002900  0.22228200  0.25360000  1
  C  C80  1  0.68927200  0.02716200  0.24131400  1
  C  C81  1  0.18927200  0.47283800  0.75868600  1
  C  C82  1  0.31072800  0.52716200  0.25868600  1
  C  C83  1  0.81072800  0.97283800  0.74131400  1
  C  C84  1  0.31072800  0.97283800  0.75868600  1
  C  C85  1  0.81072800  0.52716200  0.24131400  1
  C  C86  1  0.68927200  0.47283800  0.74131400  1
  C  C87  1  0.18927200  0.02716200  0.25868600  1
  C  C88  1  0.84555700  0.97454200  0.37983800  1
  C  C89  1  0.34555700  0.52545800  0.62016200  1
  C  C90  1  0.15444300  0.47454200  0.12016200  1
  C  C91  1  0.65444300  0.02545800  0.87983800  1
  C  C92  1  0.15444300  0.02545800  0.62016200  1
  C  C93  1  0.65444300  0.47454200  0.37983800  1
  C  C94  1  0.84555700  0.52545800  0.87983800  1
  C  C95  1  0.34555700  0.97454200  0.12016200  1
  C  C96  1  0.90560500  0.11397600  0.26006900  1
  C  C97  1  0.40560500  0.38602400  0.73993100  1
  C  C98  1  0.09439500  0.61397600  0.23993100  1
  C  C99  1  0.59439500  0.88602400  0.76006900  1
  C  C100  1  0.09439500  0.88602400  0.73993100  1
  C  C101  1  0.59439500  0.61397600  0.26006900  1
  C  C102  1  0.90560500  0.38602400  0.76006900  1
  C  C103  1  0.40560500  0.11397600  0.23993100  1
  C  C104  1  0.80414700  0.10906900  0.50937600  1
  C  C105  1  0.30414700  0.39093100  0.49062400  1
  C  C106  1  0.19585300  0.60906900  0.99062400  1
  C  C107  1  0.69585300  0.89093100  0.00937600  1
  C  C108  1  0.19585300  0.89093100  0.49062400  1
  C  C109  1  0.69585300  0.60906900  0.50937600  1
  C  C110  1  0.80414700  0.39093100  0.00937600  1
  C  C111  1  0.30414700  0.10906900  0.99062400  1
  C  C112  1  0.86824100  0.24868900  0.38867700  1
  C  C113  1  0.36824100  0.25131100  0.61132300  1
  C  C114  1  0.13175900  0.74868900  0.11132300  1
  C  C115  1  0.63175900  0.75131100  0.88867700  1
  C  C116  1  0.13175900  0.75131100  0.61132300  1
  C  C117  1  0.63175900  0.74868900  0.38867700  1
  C  C118  1  0.86824100  0.25131100  0.88867700  1
  C  C119  1  0.36824100  0.24868900  0.11132300  1
