# generated using pymatgen
data_CuNiC3
_symmetry_space_group_name_H-M   'P 1'
_cell_length_a   7.36643196
_cell_length_b   7.36643196
_cell_length_c   7.36643196
_cell_angle_alpha   148.19640828
_cell_angle_beta   148.19640828
_cell_angle_gamma   45.59551101
_symmetry_Int_Tables_number   1
_chemical_formula_structural   CuNiC3
_chemical_formula_sum   'Cu1 Ni1 C3'
_cell_volume   110.65538382
_cell_formula_units_Z   1
loop_
 _symmetry_equiv_pos_site_id
 _symmetry_equiv_pos_as_xyz
  1  'x, y, z'
loop_
 _atom_site_type_symbol
 _atom_site_label
 _atom_site_symmetry_multiplicity
 _atom_site_fract_x
 _atom_site_fract_y
 _atom_site_fract_z
 _atom_site_occupancy
  C  C0  1  0.66583000  0.66583000  0.00000000  1
  Ni  Ni1  1  0.32535100  0.32535100  0.00000000  1
  Cu  Cu2  1  0.00989500  0.00989500  0.00000000  1
  C  C3  1  0.74946200  0.24946200  0.50000000  1
  C  C4  1  0.24946200  0.74946200  0.50000000  1
