# generated using pymatgen
data_CuNiC4
_symmetry_space_group_name_H-M   'P 1'
_cell_length_a   5.96190460
_cell_length_b   5.96190460
_cell_length_c   13.48834400
_cell_angle_alpha   90.00000000
_cell_angle_beta   90.00000000
_cell_angle_gamma   121.15782090
_symmetry_Int_Tables_number   1
_chemical_formula_structural   CuNiC4
_chemical_formula_sum   'Cu6 Ni6 C24'
_cell_volume   410.27328763
_cell_formula_units_Z   6
loop_
 _symmetry_equiv_pos_site_id
 _symmetry_equiv_pos_as_xyz
  1  'x, y, z'
loop_
 _atom_site_type_symbol
 _atom_site_label
 _atom_site_symmetry_multiplicity
 _atom_site_fract_x
 _atom_site_fract_y
 _atom_site_fract_z
 _atom_site_occupancy
  C  C0  1  0.66615900  0.33384100  0.25079800  1
  C  C1  1  0.33384100  0.66615900  0.75079800  1
  Ni  Ni2  1  0.00116100  0.50123900  0.49939500  1
  Ni  Ni3  1  0.49911500  0.50088500  0.49894800  1
  Ni  Ni4  1  0.49876100  0.99883900  0.49939500  1
  Ni  Ni5  1  0.99883900  0.49876100  0.99939500  1
  Ni  Ni6  1  0.50088500  0.49911500  0.99894800  1
  Ni  Ni7  1  0.50123900  0.00116100  0.99939500  1
  Cu  Cu8  1  0.00229000  0.99771000  0.35554900  1
  Cu  Cu9  1  0.99703100  0.00296900  0.64295400  1
  Cu  Cu10  1  0.99771000  0.00229000  0.85554900  1
  Cu  Cu11  1  0.00296900  0.99703100  0.14295400  1
  Cu  Cu12  1  0.67059400  0.32940600  0.74035200  1
  Cu  Cu13  1  0.32940600  0.67059400  0.24035200  1
  C  C14  1  0.30108100  0.15299600  0.74850700  1
  C  C15  1  0.85362700  0.14637300  0.74938000  1
  C  C16  1  0.84700400  0.69891900  0.74850700  1
  C  C17  1  0.69891900  0.84700400  0.24850700  1
  C  C18  1  0.14637300  0.85362700  0.24938000  1
  C  C19  1  0.15299600  0.30108100  0.24850700  1
  C  C20  1  0.35226300  0.17163600  0.42392600  1
  C  C21  1  0.82373900  0.17626100  0.42200700  1
  C  C22  1  0.82836400  0.64773700  0.42392600  1
  C  C23  1  0.64655500  0.82860800  0.57495400  1
  C  C24  1  0.17658800  0.82341200  0.57740700  1
  C  C25  1  0.17139300  0.35344500  0.57495400  1
  C  C26  1  0.64773700  0.82836400  0.92392600  1
  C  C27  1  0.17626100  0.82373900  0.92200700  1
  C  C28  1  0.17163600  0.35226300  0.92392600  1
  C  C29  1  0.35344500  0.17139300  0.07495400  1
  C  C30  1  0.82341200  0.17658800  0.07740700  1
  C  C31  1  0.82860700  0.64655500  0.07495400  1
  C  C32  1  0.68315900  0.31684100  0.91816300  1
  C  C33  1  0.31887600  0.68112400  0.08238000  1
  C  C34  1  0.31684100  0.68315900  0.41816300  1
  C  C35  1  0.68112400  0.31887600  0.58238000  1
