# generated using pymatgen
data_Cu8NiC27
_symmetry_space_group_name_H-M   'P 1'
_cell_length_a   8.62338837
_cell_length_b   8.62338837
_cell_length_c   13.71451121
_cell_angle_alpha   77.94961358
_cell_angle_beta   77.94961358
_cell_angle_gamma   63.14243879
_symmetry_Int_Tables_number   1
_chemical_formula_structural   Cu8NiC27
_chemical_formula_sum   'Cu16 Ni2 C54'
_cell_volume   882.10267671
_cell_formula_units_Z   2
loop_
 _symmetry_equiv_pos_site_id
 _symmetry_equiv_pos_as_xyz
  1  'x, y, z'
loop_
 _atom_site_type_symbol
 _atom_site_label
 _atom_site_symmetry_multiplicity
 _atom_site_fract_x
 _atom_site_fract_y
 _atom_site_fract_z
 _atom_site_occupancy
  C  C0  1  0.93166100  0.06833900  0.25000000  1
  C  C1  1  0.06833900  0.93166100  0.75000000  1
  Ni  Ni2  1  0.21552500  0.78447500  0.25000000  1
  Ni  Ni3  1  0.78447500  0.21552500  0.75000000  1
  C  C4  1  0.51003400  0.32486900  0.38617300  1
  C  C5  1  0.67513100  0.48996600  0.11382700  1
  C  C6  1  0.48996600  0.67513100  0.61382700  1
  C  C7  1  0.32486900  0.51003400  0.88617300  1
  C  C8  1  0.31241200  0.08373700  0.27715200  1
  C  C9  1  0.91626300  0.68758800  0.22284800  1
  C  C10  1  0.68758800  0.91626300  0.72284800  1
  C  C11  1  0.08373700  0.31241200  0.77715200  1
  C  C12  1  0.73583700  0.42795200  0.37353700  1
  C  C13  1  0.57204800  0.26416300  0.12646300  1
  C  C14  1  0.26416300  0.57204800  0.62646300  1
  C  C15  1  0.42795200  0.73583700  0.87353700  1
  C  C16  1  0.24144100  0.19973000  0.15934400  1
  C  C17  1  0.80027000  0.75855900  0.34065600  1
  C  C18  1  0.75855900  0.80027000  0.84065600  1
  C  C19  1  0.19973000  0.24144100  0.65934400  1
  C  C20  1  0.24461600  0.31808200  0.25261100  1
  C  C21  1  0.68191800  0.75538400  0.24738900  1
  C  C22  1  0.75538400  0.68191800  0.74738900  1
  C  C23  1  0.31808200  0.24461600  0.75261100  1
  C  C24  1  0.78203200  0.30431900  0.49546000  1
  C  C25  1  0.69568100  0.21796800  0.00454000  1
  C  C26  1  0.21796800  0.69568100  0.50454000  1
  C  C27  1  0.30431900  0.78203200  0.99546000  1
  C  C28  1  0.04036600  0.35223500  0.39742100  1
  C  C29  1  0.64776500  0.95963400  0.10257900  1
  C  C30  1  0.95963400  0.64776500  0.60257900  1
  C  C31  1  0.35223500  0.04036600  0.89742100  1
  C  C32  1  0.08593200  0.12400700  0.42459900  1
  C  C33  1  0.87599300  0.91406800  0.07540100  1
  C  C34  1  0.91406800  0.87599300  0.57540100  1
  C  C35  1  0.12400700  0.08593200  0.92459900  1
  C  C36  1  0.57353900  0.19647100  0.50451500  1
  C  C37  1  0.80352900  0.42646100  0.99548500  1
  C  C38  1  0.42646100  0.80352900  0.49548500  1
  C  C39  1  0.19647100  0.57353900  0.00451500  1
  C  C40  1  0.57924400  0.09160200  0.40286000  1
  C  C41  1  0.90839800  0.42075600  0.09714000  1
  C  C42  1  0.42075600  0.90839800  0.59714000  1
  C  C43  1  0.09160200  0.57924400  0.90286000  1
  C  C44  1  0.27259400  0.62753100  0.20660100  1
  C  C45  1  0.37246900  0.72740600  0.29339900  1
  C  C46  1  0.72740600  0.37246900  0.79339900  1
  C  C47  1  0.62753100  0.27259400  0.70660100  1
  Cu  Cu48  1  0.22115400  0.20851000  0.23990100  1
  Cu  Cu49  1  0.79149000  0.77884600  0.26009900  1
  Cu  Cu50  1  0.77884600  0.79149000  0.76009900  1
  Cu  Cu51  1  0.20851000  0.22115400  0.73990100  1
  Cu  Cu52  1  0.81472500  0.29895900  0.41345500  1
  Cu  Cu53  1  0.70104100  0.18527500  0.08654500  1
  Cu  Cu54  1  0.18527500  0.70104100  0.58654500  1
  Cu  Cu55  1  0.29895900  0.81472500  0.91345500  1
  Cu  Cu56  1  0.00717000  0.25052000  0.38241500  1
  Cu  Cu57  1  0.74948000  0.99283000  0.11758500  1
  Cu  Cu58  1  0.99283000  0.74948000  0.61758500  1
  Cu  Cu59  1  0.25052000  0.00717000  0.88241500  1
  Cu  Cu60  1  0.59996300  0.19709700  0.42223700  1
  Cu  Cu61  1  0.80290300  0.40003700  0.07776300  1
  Cu  Cu62  1  0.40003700  0.80290300  0.57776300  1
  Cu  Cu63  1  0.19709700  0.59996300  0.92223700  1
  C  C64  1  0.04347000  0.23782300  0.27671500  1
  C  C65  1  0.76217700  0.95653000  0.22328500  1
  C  C66  1  0.95653000  0.76217700  0.72328500  1
  C  C67  1  0.23782300  0.04347000  0.77671500  1
  C  C68  1  0.77835800  0.16649000  0.38748100  1
  C  C69  1  0.83351000  0.22164200  0.11251900  1
  C  C70  1  0.22164200  0.83351000  0.61251900  1
  C  C71  1  0.16649000  0.77835800  0.88748100  1
