# generated using pymatgen
data_Cu20Ni7C6
_symmetry_space_group_name_H-M   'P 1'
_cell_length_a   12.85713101
_cell_length_b   12.85713101
_cell_length_c   23.50235175
_cell_angle_alpha   89.90063299
_cell_angle_beta   89.90063299
_cell_angle_gamma   29.26514995
_symmetry_Int_Tables_number   1
_chemical_formula_structural   Cu20Ni7C6
_chemical_formula_sum   'Cu40 Ni14 C12'
_cell_volume   1899.22358251
_cell_formula_units_Z   2
loop_
 _symmetry_equiv_pos_site_id
 _symmetry_equiv_pos_as_xyz
  1  'x, y, z'
loop_
 _atom_site_type_symbol
 _atom_site_label
 _atom_site_symmetry_multiplicity
 _atom_site_fract_x
 _atom_site_fract_y
 _atom_site_fract_z
 _atom_site_occupancy
  C  C0  1  0.08039700  0.44688200  0.60091500  1
  C  C1  1  0.55311800  0.91960300  0.89908500  1
  C  C2  1  0.91960300  0.55311800  0.39908500  1
  C  C3  1  0.44688200  0.08039700  0.10091500  1
  C  C4  1  0.45641600  0.85516000  0.70086600  1
  C  C5  1  0.14484000  0.54358400  0.79913400  1
  C  C6  1  0.54358400  0.14484000  0.29913400  1
  C  C7  1  0.85516000  0.45641600  0.20086600  1
  C  C8  1  0.78078700  0.29386700  0.42442700  1
  C  C9  1  0.70613300  0.21921300  0.07557300  1
  C  C10  1  0.21921300  0.70613300  0.57557300  1
  C  C11  1  0.29386700  0.78078700  0.92442700  1
  Ni  Ni12  1  0.37366200  0.97331800  0.49966100  1
  Ni  Ni13  1  0.02668200  0.62633800  0.00033900  1
  Ni  Ni14  1  0.62633800  0.02668200  0.50033900  1
  Ni  Ni15  1  0.97331800  0.37366200  0.99966100  1
  Ni  Ni16  1  0.84844000  0.15156000  0.75000000  1
  Ni  Ni17  1  0.15156000  0.84844000  0.25000000  1
  Ni  Ni18  1  0.62266200  0.09227000  0.67546000  1
  Ni  Ni19  1  0.90773000  0.37733800  0.82454000  1
  Ni  Ni20  1  0.37733800  0.90773000  0.32454000  1
  Ni  Ni21  1  0.09227000  0.62266200  0.17546000  1
  Ni  Ni22  1  0.98529600  0.19030600  0.59828700  1
  Ni  Ni23  1  0.80969400  0.01470400  0.90171300  1
  Ni  Ni24  1  0.01470400  0.80969400  0.40171300  1
  Ni  Ni25  1  0.19030600  0.98529600  0.09828700  1
  Cu  Cu26  1  0.56653000  0.91218600  0.56914700  1
  Cu  Cu27  1  0.08781400  0.43347000  0.93085300  1
  Cu  Cu28  1  0.43347000  0.08781400  0.43085300  1
  Cu  Cu29  1  0.91218600  0.56653000  0.06914700  1
  Cu  Cu30  1  0.99198100  0.32641600  0.50524900  1
  Cu  Cu31  1  0.67358400  0.00801900  0.99475100  1
  Cu  Cu32  1  0.00801900  0.67358400  0.49475100  1
  Cu  Cu33  1  0.32641600  0.99198100  0.00524900  1
  Cu  Cu34  1  0.38101000  0.17759900  0.71277100  1
  Cu  Cu35  1  0.82240100  0.61899000  0.78722900  1
  Cu  Cu36  1  0.61899000  0.82240100  0.28722900  1
  Cu  Cu37  1  0.17759900  0.38101000  0.21277100  1
  Cu  Cu38  1  0.76467000  0.25395600  0.55655800  1
  Cu  Cu39  1  0.74604400  0.23533000  0.94344200  1
  Cu  Cu40  1  0.23533000  0.74604400  0.44344200  1
  Cu  Cu41  1  0.25395600  0.76467000  0.05655800  1
  Cu  Cu42  1  0.36496100  0.83018800  0.57156300  1
  Cu  Cu43  1  0.16981200  0.63503900  0.92843700  1
  Cu  Cu44  1  0.63503900  0.16981200  0.42843700  1
  Cu  Cu45  1  0.83018800  0.36496100  0.07156300  1
  Cu  Cu46  1  0.99181400  0.73860100  0.66973300  1
  Cu  Cu47  1  0.26139900  0.00818600  0.83026700  1
  Cu  Cu48  1  0.00818600  0.26139900  0.33026700  1
  Cu  Cu49  1  0.73860100  0.99181400  0.16973300  1
  Cu  Cu50  1  0.94491900  0.36333800  0.66589100  1
  Cu  Cu51  1  0.63666200  0.05508100  0.83410900  1
  Cu  Cu52  1  0.05508100  0.63666200  0.33410900  1
  Cu  Cu53  1  0.36333800  0.94491900  0.16589100  1
  Cu  Cu54  1  0.47801400  0.26228100  0.57848200  1
  Cu  Cu55  1  0.73771900  0.52198600  0.92151800  1
  Cu  Cu56  1  0.52198600  0.73771900  0.42151800  1
  Cu  Cu57  1  0.26228100  0.47801400  0.07848200  1
  Cu  Cu58  1  0.64663800  0.47845900  0.78658500  1
  Cu  Cu59  1  0.52154100  0.35336200  0.71341500  1
  Cu  Cu60  1  0.35336200  0.52154100  0.21341500  1
  Cu  Cu61  1  0.47845900  0.64663800  0.28658500  1
  Cu  Cu62  1  0.12527800  0.94365800  0.68151600  1
  Cu  Cu63  1  0.05634200  0.87472200  0.81848400  1
  Cu  Cu64  1  0.87472200  0.05634200  0.31848400  1
  Cu  Cu65  1  0.94365800  0.12527800  0.18151600  1
