# generated using pymatgen
data_CuNi4C3
_symmetry_space_group_name_H-M   'P 1'
_cell_length_a   7.42134800
_cell_length_b   8.30432300
_cell_length_c   12.77009900
_cell_angle_alpha   90.00000000
_cell_angle_beta   90.00000000
_cell_angle_gamma   90.00000000
_symmetry_Int_Tables_number   1
_chemical_formula_structural   CuNi4C3
_chemical_formula_sum   'Cu8 Ni32 C24'
_cell_volume   787.01189053
_cell_formula_units_Z   8
loop_
 _symmetry_equiv_pos_site_id
 _symmetry_equiv_pos_as_xyz
  1  'x, y, z'
loop_
 _atom_site_type_symbol
 _atom_site_label
 _atom_site_symmetry_multiplicity
 _atom_site_fract_x
 _atom_site_fract_y
 _atom_site_fract_z
 _atom_site_occupancy
  C  C0  1  0.24768000  0.61363900  0.47563400  1
  C  C1  1  0.75232000  0.11363900  0.02436600  1
  C  C2  1  0.25232000  0.38636100  0.97563400  1
  C  C3  1  0.74768000  0.88636100  0.52436600  1
  C  C4  1  0.75232000  0.38636100  0.52436600  1
  C  C5  1  0.24768000  0.88636100  0.97563400  1
  C  C6  1  0.74768000  0.61363900  0.02436600  1
  C  C7  1  0.25232000  0.11363900  0.47563400  1
  C  C8  1  0.34477900  0.65930900  0.17215500  1
  C  C9  1  0.65522100  0.15930900  0.32784500  1
  C  C10  1  0.15522100  0.34069100  0.67215500  1
  C  C11  1  0.84477900  0.84069100  0.82784500  1
  C  C12  1  0.65522100  0.34069100  0.82784500  1
  C  C13  1  0.34477900  0.84069100  0.67215500  1
  C  C14  1  0.84477900  0.65930900  0.32784500  1
  C  C15  1  0.15522100  0.15930900  0.17215500  1
  C  C16  1  0.26141600  0.90974900  0.27124600  1
  C  C17  1  0.73858400  0.40974900  0.22875400  1
  C  C18  1  0.23858400  0.09025100  0.77124600  1
  C  C19  1  0.76141600  0.59025100  0.72875400  1
  C  C20  1  0.73858400  0.09025100  0.72875400  1
  C  C21  1  0.26141600  0.59025100  0.77124600  1
  C  C22  1  0.76141600  0.90974900  0.22875400  1
  C  C23  1  0.23858400  0.40974900  0.27124600  1
  Ni  Ni24  1  0.42606500  0.60265400  0.08583100  1
  Ni  Ni25  1  0.57393500  0.10265400  0.41416900  1
  Ni  Ni26  1  0.07393500  0.39734600  0.58583100  1
  Ni  Ni27  1  0.92606500  0.89734600  0.91416900  1
  Ni  Ni28  1  0.57393500  0.39734600  0.91416900  1
  Ni  Ni29  1  0.42606500  0.89734600  0.58583100  1
  Ni  Ni30  1  0.92606500  0.60265400  0.41416900  1
  Ni  Ni31  1  0.07393500  0.10265400  0.08583100  1
  Ni  Ni32  1  0.30868000  0.82627000  0.17964500  1
  Ni  Ni33  1  0.69132000  0.32627000  0.32035500  1
  Ni  Ni34  1  0.19132000  0.17373000  0.67964500  1
  Ni  Ni35  1  0.80868000  0.67373000  0.82035500  1
  Ni  Ni36  1  0.69132000  0.17373000  0.82035500  1
  Ni  Ni37  1  0.30868000  0.67373000  0.67964500  1
  Ni  Ni38  1  0.80868000  0.82627000  0.32035500  1
  Ni  Ni39  1  0.19132000  0.32627000  0.17964500  1
  Ni  Ni40  1  0.29240700  0.56970600  0.25881000  1
  Ni  Ni41  1  0.70759300  0.06970600  0.24119000  1
  Ni  Ni42  1  0.20759300  0.43029400  0.75881000  1
  Ni  Ni43  1  0.79240700  0.93029400  0.74119000  1
  Ni  Ni44  1  0.70759300  0.43029400  0.74119000  1
  Ni  Ni45  1  0.29240700  0.93029400  0.75881000  1
  Ni  Ni46  1  0.79240700  0.56970600  0.24119000  1
  Ni  Ni47  1  0.20759300  0.06970600  0.25881000  1
  Ni  Ni48  1  0.27282900  0.85717800  0.36972400  1
  Ni  Ni49  1  0.72717100  0.35717800  0.13027600  1
  Ni  Ni50  1  0.22717100  0.14282200  0.86972400  1
  Ni  Ni51  1  0.77282900  0.64282200  0.63027600  1
  Ni  Ni52  1  0.72717100  0.14282200  0.63027600  1
  Ni  Ni53  1  0.27282900  0.64282200  0.86972400  1
  Ni  Ni54  1  0.77282900  0.85717800  0.13027600  1
  Ni  Ni55  1  0.22717100  0.35717800  0.36972400  1
  Cu  Cu56  1  0.06707700  0.63436400  0.04829100  1
  Cu  Cu57  1  0.93292300  0.13436400  0.45170900  1
  Cu  Cu58  1  0.43292300  0.36563600  0.54829100  1
  Cu  Cu59  1  0.56707700  0.86563600  0.95170900  1
  Cu  Cu60  1  0.93292300  0.36563600  0.95170900  1
  Cu  Cu61  1  0.06707700  0.86563600  0.54829100  1
  Cu  Cu62  1  0.56707700  0.63436400  0.45170900  1
  Cu  Cu63  1  0.43292300  0.13436400  0.04829100  1
