# generated using pymatgen
data_Cu2NiC11
_symmetry_space_group_name_H-M   'P 1'
_cell_length_a   2.99040495
_cell_length_b   2.99040495
_cell_length_c   33.97170365
_cell_angle_alpha   87.00892890
_cell_angle_beta   87.00892890
_cell_angle_gamma   57.45720591
_symmetry_Int_Tables_number   1
_chemical_formula_structural   Cu2NiC11
_chemical_formula_sum   'Cu4 Ni2 C22'
_cell_volume   255.64038112
_cell_formula_units_Z   2
loop_
 _symmetry_equiv_pos_site_id
 _symmetry_equiv_pos_as_xyz
  1  'x, y, z'
loop_
 _atom_site_type_symbol
 _atom_site_label
 _atom_site_symmetry_multiplicity
 _atom_site_fract_x
 _atom_site_fract_y
 _atom_site_fract_z
 _atom_site_occupancy
  C  C0  1  0.79217700  0.79217700  0.56772800  1
  C  C1  1  0.20782300  0.20782300  0.43227200  1
  C  C2  1  0.64355300  0.64355300  0.28486300  1
  C  C3  1  0.07257100  0.07257100  0.14234500  1
  C  C4  1  0.50000000  0.50000000  0.00000000  1
  C  C5  1  0.92742900  0.92742900  0.85765500  1
  C  C6  1  0.35644700  0.35644700  0.71513700  1
  C  C7  1  0.50000000  0.50000000  0.50000000  1
  Ni  Ni8  1  0.07297400  0.07297400  0.64275700  1
  Ni  Ni9  1  0.92702600  0.92702600  0.35724300  1
  Cu  Cu10  1  0.35706600  0.35706600  0.21396400  1
  Cu  Cu11  1  0.78549400  0.78549400  0.07132600  1
  Cu  Cu12  1  0.21450600  0.21450600  0.92867400  1
  Cu  Cu13  1  0.64293400  0.64293400  0.78603600  1
  C  C14  1  0.44110400  0.44110400  0.61104900  1
  C  C15  1  0.85968400  0.85968400  0.46420200  1
  C  C16  1  0.30076000  0.30076000  0.32341900  1
  C  C17  1  0.71305200  0.71305200  0.18102700  1
  C  C18  1  0.15718800  0.15718800  0.03932500  1
  C  C19  1  0.58544800  0.58544800  0.89677500  1
  C  C20  1  0.99875500  0.99875500  0.75300200  1
  C  C21  1  0.14031600  0.14031600  0.53579800  1
  C  C22  1  0.55889600  0.55889600  0.38895100  1
  C  C23  1  0.00124500  0.00124500  0.24699800  1
  C  C24  1  0.41455200  0.41455200  0.10322500  1
  C  C25  1  0.84281200  0.84281200  0.96067500  1
  C  C26  1  0.28694800  0.28694800  0.81897300  1
  C  C27  1  0.69924000  0.69924000  0.67658100  1
