# generated using pymatgen
data_CuNiC8
_symmetry_space_group_name_H-M   'P 1'
_cell_length_a   5.58795675
_cell_length_b   5.64612123
_cell_length_c   7.88006233
_cell_angle_alpha   90.00000000
_cell_angle_beta   90.22881345
_cell_angle_gamma   90.00000000
_symmetry_Int_Tables_number   1
_chemical_formula_structural   CuNiC8
_chemical_formula_sum   'Cu2 Ni2 C16'
_cell_volume   248.61620006
_cell_formula_units_Z   2
loop_
 _symmetry_equiv_pos_site_id
 _symmetry_equiv_pos_as_xyz
  1  'x, y, z'
loop_
 _atom_site_type_symbol
 _atom_site_label
 _atom_site_symmetry_multiplicity
 _atom_site_fract_x
 _atom_site_fract_y
 _atom_site_fract_z
 _atom_site_occupancy
  C  C0  1  0.49628768  0.46966809  0.24977635  1
  C  C1  1  0.99628768  0.03033191  0.74977635  1
  C  C2  1  0.01455147  0.95167183  0.25067401  1
  C  C3  1  0.51455147  0.54832817  0.75067401  1
  Ni  Ni4  1  0.50073988  0.00488404  0.00034725  1
  Ni  Ni5  1  0.00073988  0.49511596  0.50034725  1
  Cu  Cu6  1  0.49977482  0.00200769  0.49948448  1
  Cu  Cu7  1  -0.00022518  0.49799231  0.99948448  1
  C  C8  1  0.77472019  0.77588863  0.53877350  1
  C  C9  1  0.70797408  0.29265521  0.95591405  1
  C  C10  1  0.20492809  0.20960356  0.04442693  1
  C  C11  1  0.27708998  0.72531819  0.46057638  1
  C  C12  1  0.20797408  0.20734479  0.45591405  1
  C  C13  1  0.27472019  0.72411137  0.03877350  1
  C  C14  1  0.77708998  0.77468181  0.96057638  1
  C  C15  1  0.70492809  0.29039644  0.54442693  1
  C  C16  1  0.58915959  0.01201123  0.24987990  1
  C  C17  1  0.93477423  0.52352778  0.25014716  1
  C  C18  1  0.43477423  0.97647222  0.75014716  1
  C  C19  1  0.08915959  0.48798877  0.74987990  1
