# generated using pymatgen
data_Cu2NiC4
_symmetry_space_group_name_H-M   'P 1'
_cell_length_a   6.29749926
_cell_length_b   6.29749926
_cell_length_c   6.29749926
_cell_angle_alpha   118.61135636
_cell_angle_beta   118.61135636
_cell_angle_gamma   92.42251462
_symmetry_Int_Tables_number   1
_chemical_formula_structural   Cu2NiC4
_chemical_formula_sum   'Cu4 Ni2 C8'
_cell_volume   180.13198356
_cell_formula_units_Z   2
loop_
 _symmetry_equiv_pos_site_id
 _symmetry_equiv_pos_as_xyz
  1  'x, y, z'
loop_
 _atom_site_type_symbol
 _atom_site_label
 _atom_site_symmetry_multiplicity
 _atom_site_fract_x
 _atom_site_fract_y
 _atom_site_fract_z
 _atom_site_occupancy
  Ni  Ni0  1  0.00000000  0.00000000  0.00000000  1
  Ni  Ni1  1  0.75000000  0.25000000  0.50000000  1
  Cu  Cu2  1  0.37500000  0.62500000  0.25000000  1
  Cu  Cu3  1  0.37500000  0.12500000  0.75000000  1
  Cu  Cu4  1  0.87500000  0.62500000  0.25000000  1
  Cu  Cu5  1  0.37500000  0.62500000  0.75000000  1
  C  C6  1  0.67127700  0.86847200  0.32317400  1
  C  C7  1  0.13152800  0.45470200  0.80280400  1
  C  C8  1  0.65189700  0.32872300  0.19719600  1
  C  C9  1  0.20470200  0.90189700  0.82317400  1
  C  C10  1  0.09810300  0.92127700  0.30280400  1
  C  C11  1  0.61847200  0.79529800  0.69719600  1
  C  C12  1  0.54529800  0.34810300  0.67682600  1
  C  C13  1  0.07872300  0.38152800  0.17682600  1
