# generated using pymatgen
data_CuNiC18
_symmetry_space_group_name_H-M   'P 1'
_cell_length_a   9.00372380
_cell_length_b   8.46299780
_cell_length_c   14.79780427
_cell_angle_alpha   90.02370937
_cell_angle_beta   74.25929149
_cell_angle_gamma   62.21910581
_symmetry_Int_Tables_number   1
_chemical_formula_structural   CuNiC18
_chemical_formula_sum   'Cu4 Ni4 C72'
_cell_volume   949.47759489
_cell_formula_units_Z   4
loop_
 _symmetry_equiv_pos_site_id
 _symmetry_equiv_pos_as_xyz
  1  'x, y, z'
loop_
 _atom_site_type_symbol
 _atom_site_label
 _atom_site_symmetry_multiplicity
 _atom_site_fract_x
 _atom_site_fract_y
 _atom_site_fract_z
 _atom_site_occupancy
  C  C0  1  0.15179800  0.24940500  0.33129600  1
  C  C1  1  0.14755600  0.80081000  0.13555700  1
  C  C2  1  0.14940800  0.29575500  0.63444100  1
  C  C3  1  0.14376900  0.73074600  0.46138000  1
  C  C4  1  0.14886900  0.23007800  0.96066900  1
  C  C5  1  0.14825600  0.75129200  0.83109800  1
  C  C6  1  0.85131200  0.25045000  0.16540300  1
  C  C7  1  0.85204800  0.77221500  0.03960700  1
  C  C8  1  0.85324700  0.27448400  0.54174000  1
  C  C9  1  0.85806000  0.69436900  0.36628200  1
  C  C10  1  0.85390100  0.19719500  0.86529300  1
  C  C11  1  0.85512500  0.74497100  0.66392400  1
  Ni  Ni12  1  0.04660000  0.97726100  0.32645200  1
  Ni  Ni13  1  0.55759100  0.22293300  0.07445900  1
  Ni  Ni14  1  0.95348900  0.52540500  0.17513000  1
  Ni  Ni15  1  0.95099200  0.02363700  0.67467500  1
  Cu  Cu16  1  0.04846600  0.47466900  0.82448700  1
  Cu  Cu17  1  0.44596800  0.27433900  0.42487300  1
  Cu  Cu18  1  0.55921100  0.71876800  0.57441000  1
  Cu  Cu19  1  0.44192600  0.78230100  0.92570900  1
  C  C20  1  0.25387500  0.08621700  0.12179100  1
  C  C21  1  0.25225400  0.02304100  0.48090400  1
  C  C22  1  0.24969500  0.52199900  0.27592800  1
  C  C23  1  0.25097200  0.01804800  0.77276600  1
  C  C24  1  0.25225900  0.57820800  0.62215800  1
  C  C25  1  0.25058700  0.52676200  0.97869200  1
  C  C26  1  0.74556100  0.47931300  0.01651500  1
  C  C27  1  0.75107800  0.41023300  0.37622000  1
  C  C28  1  0.74869400  0.98239400  0.22998800  1
  C  C29  1  0.74753000  0.48480800  0.73198200  1
  C  C30  1  0.74808500  0.97783200  0.51856200  1
  C  C31  1  0.75192300  0.91083900  0.87405400  1
  C  C32  1  0.09912700  0.25229400  0.09952100  1
  C  C33  1  0.20257700  0.06799100  0.22755900  1
  C  C34  1  0.09512800  0.63207000  0.07177700  1
  C  C35  1  0.09768100  0.12828000  0.57433400  1
  C  C36  1  0.09406400  0.48277600  0.28161400  1
  C  C37  1  0.42571600  0.09736700  0.09209800  1
  C  C38  1  0.28081400  0.17279300  0.42896700  1
  C  C39  1  0.19428500  0.72149800  0.25836800  1
  C  C40  1  0.19662800  0.21660000  0.75530300  1
  C  C41  1  0.27934800  0.49441800  0.37579100  1
  C  C42  1  0.41576200  0.39738800  0.19713200  1
  C  C43  1  0.09722300  0.74409800  0.60064600  1
  C  C44  1  0.28201500  0.91901900  0.05920800  1
  C  C45  1  0.28261700  0.41027500  0.55979500  1
  C  C46  1  0.57637800  0.12476200  0.30602000  1
  C  C47  1  0.19743400  0.56102900  0.72954800  1
  C  C48  1  0.20106000  0.92262300  0.41835600  1
  C  C49  1  0.19223100  0.43363400  0.91512300  1
  C  C50  1  0.72529800  0.00229200  0.13004700  1
  C  C51  1  0.57479500  0.60799000  0.99442500  1
  C  C52  1  0.57808100  0.10585300  0.49399800  1
  C  C53  1  0.09450800  0.98037300  0.77958300  1
  C  C54  1  0.72404800  0.32323900  0.06482400  1
  C  C55  1  0.58022800  0.39607300  0.40880500  1
  C  C56  1  0.42043600  0.59321300  0.59712100  1
  C  C57  1  0.27881600  0.67963800  0.92786300  1
  C  C58  1  0.90316100  0.02429400  0.22665100  1
  C  C59  1  0.42023900  0.88901900  0.50228300  1
  C  C60  1  0.41857400  0.38796300  0.99563400  1
  C  C61  1  0.27928600  0.99599300  0.87308600  1
  C  C62  1  0.79293600  0.57996800  0.07907300  1
  C  C63  1  0.79282700  0.08525000  0.57920500  1
  C  C64  1  0.79593600  0.42899400  0.27135500  1
  C  C65  1  0.41658600  0.88825000  0.69487000  1
  C  C66  1  0.72882500  0.56931200  0.44074800  1
  C  C67  1  0.73415200  0.06900200  0.93478900  1
  C  C68  1  0.90874800  0.23745100  0.39592600  1
  C  C69  1  0.57735700  0.62786700  0.80579800  1
  C  C70  1  0.72858100  0.50951100  0.63088500  1
  C  C71  1  0.79413000  0.79326200  0.25429100  1
  C  C72  1  0.79292600  0.29397600  0.75261100  1
  C  C73  1  0.72217400  0.82834000  0.56980500  1
  C  C74  1  0.57885000  0.89620000  0.90891000  1
  C  C75  1  0.90470000  0.52262300  0.73087200  1
  C  C76  1  0.90351500  0.87379900  0.42488800  1
  C  C77  1  0.90201200  0.38112100  0.92080200  1
  C  C78  1  0.79456800  0.92437300  0.76854700  1
  C  C79  1  0.90351800  0.73506600  0.89469500  1
