# generated using pymatgen
data_CuNiC2
_symmetry_space_group_name_H-M   'P 1'
_cell_length_a   5.11199200
_cell_length_b   10.59897500
_cell_length_c   12.80555400
_cell_angle_alpha   90.00000000
_cell_angle_beta   90.00000000
_cell_angle_gamma   90.00000000
_symmetry_Int_Tables_number   1
_chemical_formula_structural   CuNiC2
_chemical_formula_sum   'Cu16 Ni16 C32'
_cell_volume   693.82893136
_cell_formula_units_Z   16
loop_
 _symmetry_equiv_pos_site_id
 _symmetry_equiv_pos_as_xyz
  1  'x, y, z'
loop_
 _atom_site_type_symbol
 _atom_site_label
 _atom_site_symmetry_multiplicity
 _atom_site_fract_x
 _atom_site_fract_y
 _atom_site_fract_z
 _atom_site_occupancy
  Ni  Ni0  1  0.62171900  0.04130600  0.18420300  1
  Ni  Ni1  1  0.12171900  0.45869400  0.81579700  1
  Ni  Ni2  1  0.37828100  0.54130600  0.31579700  1
  Ni  Ni3  1  0.87828100  0.95869400  0.68420300  1
  Ni  Ni4  1  0.37828100  0.95869400  0.81579700  1
  Ni  Ni5  1  0.87828100  0.54130600  0.18420300  1
  Ni  Ni6  1  0.62171900  0.45869400  0.68420300  1
  Ni  Ni7  1  0.12171900  0.04130600  0.31579700  1
  Ni  Ni8  1  0.80502500  0.29340500  0.06405200  1
  Ni  Ni9  1  0.30502500  0.20659500  0.93594800  1
  Ni  Ni10  1  0.19497500  0.79340500  0.43594800  1
  Ni  Ni11  1  0.69497500  0.70659500  0.56405200  1
  Ni  Ni12  1  0.19497500  0.70659500  0.93594800  1
  Ni  Ni13  1  0.69497500  0.79340500  0.06405200  1
  Ni  Ni14  1  0.80502500  0.20659500  0.56405200  1
  Ni  Ni15  1  0.30502500  0.29340500  0.43594800  1
  Cu  Cu16  1  0.65453200  0.95252500  0.44020500  1
  Cu  Cu17  1  0.15453200  0.54747500  0.55979500  1
  Cu  Cu18  1  0.34546800  0.45252500  0.05979500  1
  Cu  Cu19  1  0.84546800  0.04747500  0.94020500  1
  Cu  Cu20  1  0.34546800  0.04747500  0.55979500  1
  Cu  Cu21  1  0.84546800  0.45252500  0.44020500  1
  Cu  Cu22  1  0.65453200  0.54747500  0.94020500  1
  Cu  Cu23  1  0.15453200  0.95252500  0.05979500  1
  Cu  Cu24  1  0.78986100  0.29413100  0.30458400  1
  Cu  Cu25  1  0.28986100  0.20586900  0.69541600  1
  Cu  Cu26  1  0.21013900  0.79413100  0.19541600  1
  Cu  Cu27  1  0.71013900  0.70586900  0.80458400  1
  Cu  Cu28  1  0.21013900  0.70586900  0.69541600  1
  Cu  Cu29  1  0.71013900  0.79413100  0.30458400  1
  Cu  Cu30  1  0.78986100  0.20586900  0.80458400  1
  Cu  Cu31  1  0.28986100  0.29413100  0.19541600  1
  C  C32  1  0.72016200  0.47533600  0.30564100  1
  C  C33  1  0.22016200  0.02466400  0.69435900  1
  C  C34  1  0.27983800  0.97533600  0.19435900  1
  C  C35  1  0.77983800  0.52466400  0.80564100  1
  C  C36  1  0.27983800  0.52466400  0.69435900  1
  C  C37  1  0.77983800  0.97533600  0.30564100  1
  C  C38  1  0.72016200  0.02466400  0.80564100  1
  C  C39  1  0.22016200  0.47533600  0.19435900  1
  C  C40  1  0.67543500  0.29118400  0.44560600  1
  C  C41  1  0.17543500  0.20881600  0.55439400  1
  C  C42  1  0.32456500  0.79118400  0.05439400  1
  C  C43  1  0.82456500  0.70881600  0.94560600  1
  C  C44  1  0.32456500  0.70881600  0.55439400  1
  C  C45  1  0.82456500  0.79118400  0.44560600  1
  C  C46  1  0.67543500  0.20881600  0.94560600  1
  C  C47  1  0.17543500  0.29118400  0.05439400  1
  C  C48  1  0.70971400  0.46767000  0.06765500  1
  C  C49  1  0.20971400  0.03233000  0.93234500  1
  C  C50  1  0.29028600  0.96767000  0.43234500  1
  C  C51  1  0.79028600  0.53233000  0.56765500  1
  C  C52  1  0.29028600  0.53233000  0.93234500  1
  C  C53  1  0.79028600  0.96767000  0.06765500  1
  C  C54  1  0.70971400  0.03233000  0.56765500  1
  C  C55  1  0.20971400  0.46767000  0.43234500  1
  C  C56  1  0.64314900  0.21769700  0.18179300  1
  C  C57  1  0.14314900  0.28230300  0.81820700  1
  C  C58  1  0.35685100  0.71769700  0.31820700  1
  C  C59  1  0.85685100  0.78230300  0.68179300  1
  C  C60  1  0.35685100  0.78230300  0.81820700  1
  C  C61  1  0.85685100  0.71769700  0.18179300  1
  C  C62  1  0.64314900  0.28230300  0.68179300  1
  C  C63  1  0.14314900  0.21769700  0.31820700  1
