# generated using pymatgen
data_Cu2NiC2
_symmetry_space_group_name_H-M   'P 1'
_cell_length_a   6.91251200
_cell_length_b   7.27153600
_cell_length_c   12.64913600
_cell_angle_alpha   90.00000000
_cell_angle_beta   90.00000000
_cell_angle_gamma   90.00000000
_symmetry_Int_Tables_number   1
_chemical_formula_structural   Cu2NiC2
_chemical_formula_sum   'Cu16 Ni8 C16'
_cell_volume   635.80350661
_cell_formula_units_Z   8
loop_
 _symmetry_equiv_pos_site_id
 _symmetry_equiv_pos_as_xyz
  1  'x, y, z'
loop_
 _atom_site_type_symbol
 _atom_site_label
 _atom_site_symmetry_multiplicity
 _atom_site_fract_x
 _atom_site_fract_y
 _atom_site_fract_z
 _atom_site_occupancy
  Ni  Ni0  1  0.30976700  0.21011900  0.11034000  1
  Ni  Ni1  1  0.19023300  0.78988100  0.61034000  1
  Ni  Ni2  1  0.69023300  0.71011900  0.38966000  1
  Ni  Ni3  1  0.80976700  0.28988100  0.88966000  1
  Ni  Ni4  1  0.26810700  0.29688300  0.19993300  1
  Ni  Ni5  1  0.23189300  0.70311700  0.69993300  1
  Ni  Ni6  1  0.73189300  0.79688300  0.30006700  1
  Ni  Ni7  1  0.76810700  0.20311700  0.80006700  1
  Cu  Cu8  1  0.33064700  0.00850000  0.11026900  1
  Cu  Cu9  1  0.16935300  0.99150000  0.61026900  1
  Cu  Cu10  1  0.66935300  0.50850000  0.38973100  1
  Cu  Cu11  1  0.83064700  0.49150000  0.88973100  1
  Cu  Cu12  1  0.34535200  0.31628400  0.01332500  1
  Cu  Cu13  1  0.15464800  0.68371600  0.51332500  1
  Cu  Cu14  1  0.65464800  0.81628400  0.48667500  1
  Cu  Cu15  1  0.84535200  0.18371600  0.98667500  1
  Cu  Cu16  1  0.22247400  0.29989700  0.30724400  1
  Cu  Cu17  1  0.27752600  0.70010300  0.80724400  1
  Cu  Cu18  1  0.77752600  0.79989700  0.19275600  1
  Cu  Cu19  1  0.72247400  0.20010300  0.69275600  1
  Cu  Cu20  1  0.24091200  0.45504900  0.25997300  1
  Cu  Cu21  1  0.25908800  0.54495100  0.75997300  1
  Cu  Cu22  1  0.75908800  0.95504900  0.24002700  1
  Cu  Cu23  1  0.74091200  0.04495100  0.74002700  1
  C  C24  1  0.43752900  0.93792200  0.04362300  1
  C  C25  1  0.06247100  0.06207800  0.54362300  1
  C  C26  1  0.56247100  0.43792200  0.45637700  1
  C  C27  1  0.93752900  0.56207800  0.95637700  1
  C  C28  1  0.24637600  0.92662100  0.18300500  1
  C  C29  1  0.25362400  0.07337900  0.68300500  1
  C  C30  1  0.75362400  0.42662100  0.31699500  1
  C  C31  1  0.74637600  0.57337900  0.81699500  1
  C  C32  1  0.39001200  0.47951500  0.02552100  1
  C  C33  1  0.10998800  0.52048500  0.52552100  1
  C  C34  1  0.60998800  0.97951500  0.47447900  1
  C  C35  1  0.89001200  0.02048500  0.97447900  1
  C  C36  1  0.32322500  0.23698700  0.92743900  1
  C  C37  1  0.17677500  0.76301300  0.42743900  1
  C  C38  1  0.67677500  0.73698700  0.57256100  1
  C  C39  1  0.82322500  0.26301300  0.07256100  1
