# generated using pymatgen
data_CuNi6C13
_symmetry_space_group_name_H-M   'P 1'
_cell_length_a   8.16113600
_cell_length_b   10.76252700
_cell_length_c   10.96989500
_cell_angle_alpha   90.00000000
_cell_angle_beta   90.00000000
_cell_angle_gamma   90.00000000
_symmetry_Int_Tables_number   1
_chemical_formula_structural   CuNi6C13
_chemical_formula_sum   'Cu4 Ni24 C52'
_cell_volume   963.53465604
_cell_formula_units_Z   4
loop_
 _symmetry_equiv_pos_site_id
 _symmetry_equiv_pos_as_xyz
  1  'x, y, z'
loop_
 _atom_site_type_symbol
 _atom_site_label
 _atom_site_symmetry_multiplicity
 _atom_site_fract_x
 _atom_site_fract_y
 _atom_site_fract_z
 _atom_site_occupancy
  C  C0  1  0.37004200  0.37065800  0.34731600  1
  C  C1  1  0.62995800  0.87065800  0.65268400  1
  C  C2  1  0.87004200  0.87065800  0.15268400  1
  C  C3  1  0.12995800  0.37065800  0.84731600  1
  C  C4  1  0.46912000  0.48694700  0.04816000  1
  C  C5  1  0.53088000  0.98694700  0.95184000  1
  C  C6  1  0.96912000  0.98694700  0.45184000  1
  C  C7  1  0.03088000  0.48694700  0.54816000  1
  C  C8  1  0.24141600  0.65742200  0.19465800  1
  C  C9  1  0.75858400  0.15742200  0.80534200  1
  C  C10  1  0.74141600  0.15742200  0.30534200  1
  C  C11  1  0.25858400  0.65742200  0.69465800  1
  Ni  Ni12  1  0.31709600  0.25118400  0.60517400  1
  Ni  Ni13  1  0.68290400  0.75118400  0.39482600  1
  Ni  Ni14  1  0.81709600  0.75118400  0.89482600  1
  Ni  Ni15  1  0.18290400  0.25118400  0.10517400  1
  Ni  Ni16  1  0.45578100  0.16978100  0.54419800  1
  Ni  Ni17  1  0.54421900  0.66978100  0.45580200  1
  Ni  Ni18  1  0.95578100  0.66978100  0.95580200  1
  Ni  Ni19  1  0.04421900  0.16978100  0.04419800  1
  Ni  Ni20  1  0.36475900  0.81547400  0.28915100  1
  Ni  Ni21  1  0.63524100  0.31547400  0.71084900  1
  Ni  Ni22  1  0.86475900  0.31547400  0.21084900  1
  Ni  Ni23  1  0.13524100  0.81547400  0.78915100  1
  Ni  Ni24  1  0.63107100  0.53516000  0.89371400  1
  Ni  Ni25  1  0.36892900  0.03516000  0.10628600  1
  Ni  Ni26  1  0.13107100  0.03516000  0.60628600  1
  Ni  Ni27  1  0.86892900  0.53516000  0.39371400  1
  Ni  Ni28  1  0.47783900  0.70754200  0.07325100  1
  Ni  Ni29  1  0.52216100  0.20754200  0.92674900  1
  Ni  Ni30  1  0.97783900  0.20754200  0.42674900  1
  Ni  Ni31  1  0.02216100  0.70754200  0.57325100  1
  Ni  Ni32  1  0.30897400  0.66304200  0.98058500  1
  Ni  Ni33  1  0.69102600  0.16304200  0.01941500  1
  Ni  Ni34  1  0.80897400  0.16304200  0.51941500  1
  Ni  Ni35  1  0.19102600  0.66304200  0.48058500  1
  Cu  Cu36  1  0.37755500  0.63994600  0.06381100  1
  Cu  Cu37  1  0.62244500  0.13994600  0.93618900  1
  Cu  Cu38  1  0.87755500  0.13994600  0.43618900  1
  Cu  Cu39  1  0.12244500  0.63994600  0.56381100  1
  C  C40  1  0.47522700  0.49044000  0.43321500  1
  C  C41  1  0.52477300  0.99044000  0.56678500  1
  C  C42  1  0.97522700  0.99044000  0.06678500  1
  C  C43  1  0.02477300  0.49044000  0.93321500  1
  C  C44  1  0.25797000  0.25770300  0.25632100  1
  C  C45  1  0.74203000  0.75770300  0.74367900  1
  C  C46  1  0.75797000  0.75770300  0.24367900  1
  C  C47  1  0.24203000  0.25770300  0.75632100  1
  C  C48  1  0.37458400  0.23461800  0.52755600  1
  C  C49  1  0.62541600  0.73461800  0.47244400  1
  C  C50  1  0.87458400  0.73461800  0.97244400  1
  C  C51  1  0.12541600  0.23461800  0.02755600  1
  C  C52  1  0.14204400  0.40239200  0.47335200  1
  C  C53  1  0.85795600  0.90239200  0.52664800  1
  C  C54  1  0.64204400  0.90239200  0.02664800  1
  C  C55  1  0.35795600  0.40239200  0.97335200  1
  C  C56  1  0.20012000  0.52862400  0.24689000  1
  C  C57  1  0.79988000  0.02862400  0.75311000  1
  C  C58  1  0.70012000  0.02862400  0.25311000  1
  C  C59  1  0.29988000  0.52862400  0.74689000  1
  C  C60  1  0.51584900  0.43750500  0.17366800  1
  C  C61  1  0.48415100  0.93750500  0.82633200  1
  C  C62  1  0.01584900  0.93750500  0.32633200  1
  C  C63  1  0.98415100  0.43750500  0.67366800  1
  C  C64  1  0.59649100  0.23708500  0.34257800  1
  C  C65  1  0.40350900  0.73708500  0.65742200  1
  C  C66  1  0.09649100  0.73708500  0.15742200  1
  C  C67  1  0.90350900  0.23708500  0.84257800  1
  C  C68  1  0.34415700  0.72437500  0.29899600  1
  C  C69  1  0.65584300  0.22437500  0.70100400  1
  C  C70  1  0.84415700  0.22437500  0.20100400  1
  C  C71  1  0.15584300  0.72437500  0.79899600  1
  C  C72  1  0.63927600  0.50493800  0.97894500  1
  C  C73  1  0.36072400  0.00493800  0.02105500  1
  C  C74  1  0.13927600  0.00493800  0.52105500  1
  C  C75  1  0.86072400  0.50493800  0.47894500  1
  C  C76  1  0.89232000  0.47319300  0.24162500  1
  C  C77  1  0.10768000  0.97319300  0.75837500  1
  C  C78  1  0.39232000  0.97319300  0.25837500  1
  C  C79  1  0.60768000  0.47319300  0.74162500  1
