# generated using pymatgen
data_Cu2Ni5C4
_symmetry_space_group_name_H-M   'P 1'
_cell_length_a   6.07828246
_cell_length_b   10.45194478
_cell_length_c   16.85443000
_cell_angle_alpha   90.00000000
_cell_angle_beta   90.00000000
_cell_angle_gamma   108.79925862
_symmetry_Int_Tables_number   1
_chemical_formula_structural   Cu2Ni5C4
_chemical_formula_sum   'Cu8 Ni20 C16'
_cell_volume   1013.63842948
_cell_formula_units_Z   4
loop_
 _symmetry_equiv_pos_site_id
 _symmetry_equiv_pos_as_xyz
  1  'x, y, z'
loop_
 _atom_site_type_symbol
 _atom_site_label
 _atom_site_symmetry_multiplicity
 _atom_site_fract_x
 _atom_site_fract_y
 _atom_site_fract_z
 _atom_site_occupancy
  Ni  Ni0  1  0.81796300  0.28228600  0.59078800  1
  Ni  Ni1  1  0.18203700  0.21771400  0.09078800  1
  Ni  Ni2  1  0.18203700  0.71771400  0.40921200  1
  Ni  Ni3  1  0.81796300  0.78228600  0.90921200  1
  Ni  Ni4  1  0.81592600  0.30938000  0.69755600  1
  Ni  Ni5  1  0.18407400  0.19062000  0.19755600  1
  Ni  Ni6  1  0.18407400  0.69062000  0.30244400  1
  Ni  Ni7  1  0.81592600  0.80938000  0.80244400  1
  Ni  Ni8  1  0.96338900  0.24385800  0.65280600  1
  Ni  Ni9  1  0.03661100  0.25614200  0.15280600  1
  Ni  Ni10  1  0.03661100  0.75614200  0.34719400  1
  Ni  Ni11  1  0.96338900  0.74385800  0.84719400  1
  Ni  Ni12  1  0.08307200  0.39083200  0.63969700  1
  Ni  Ni13  1  0.91692800  0.10916800  0.13969700  1
  Ni  Ni14  1  0.91692800  0.60916800  0.36030300  1
  Ni  Ni15  1  0.08307200  0.89083200  0.86030300  1
  Ni  Ni16  1  0.71003400  0.22805900  0.92605700  1
  Ni  Ni17  1  0.28996600  0.27194100  0.42605700  1
  Ni  Ni18  1  0.28996600  0.77194100  0.07394300  1
  Ni  Ni19  1  0.71003400  0.72805900  0.57394300  1
  Cu  Cu20  1  0.80547000  0.39132400  0.93849900  1
  Cu  Cu21  1  0.19453000  0.10867600  0.43849900  1
  Cu  Cu22  1  0.19453000  0.60867600  0.06150100  1
  Cu  Cu23  1  0.80547000  0.89132400  0.56150100  1
  Cu  Cu24  1  0.32384100  0.40763200  0.88151800  1
  Cu  Cu25  1  0.67615900  0.09236800  0.38151800  1
  Cu  Cu26  1  0.67615900  0.59236800  0.11848200  1
  Cu  Cu27  1  0.32384100  0.90763200  0.61848200  1
  C  C28  1  0.85555000  0.41227000  0.63351400  1
  C  C29  1  0.14445000  0.08773000  0.13351400  1
  C  C30  1  0.14445000  0.58773000  0.36648600  1
  C  C31  1  0.85555000  0.91227000  0.86648600  1
  C  C32  1  0.63293700  0.10984700  0.91450400  1
  C  C33  1  0.36706300  0.39015300  0.41450400  1
  C  C34  1  0.36706300  0.89015300  0.08549600  1
  C  C35  1  0.63293700  0.60984700  0.58549600  1
  C  C36  1  0.24669600  0.28092100  0.83866800  1
  C  C37  1  0.75330400  0.21907900  0.33866800  1
  C  C38  1  0.75330400  0.71907900  0.16133200  1
  C  C39  1  0.24669600  0.78092100  0.66133200  1
  C  C40  1  0.37623500  0.53429900  0.83875600  1
  C  C41  1  0.62376500  0.96570100  0.33875600  1
  C  C42  1  0.62376500  0.46570100  0.16124400  1
  C  C43  1  0.37623500  0.03429900  0.66124400  1
