# generated using pymatgen
data_CuNiC8
_symmetry_space_group_name_H-M   'P 1'
_cell_length_a   5.27990658
_cell_length_b   5.59981800
_cell_length_c   7.57945299
_cell_angle_alpha   90.00028672
_cell_angle_beta   89.59375380
_cell_angle_gamma   89.99991616
_symmetry_Int_Tables_number   1
_chemical_formula_structural   CuNiC8
_chemical_formula_sum   'Cu2 Ni2 C16'
_cell_volume   224.09238418
_cell_formula_units_Z   2
loop_
 _symmetry_equiv_pos_site_id
 _symmetry_equiv_pos_as_xyz
  1  'x, y, z'
loop_
 _atom_site_type_symbol
 _atom_site_label
 _atom_site_symmetry_multiplicity
 _atom_site_fract_x
 _atom_site_fract_y
 _atom_site_fract_z
 _atom_site_occupancy
  C  C0  1  0.48090000  0.42928200  0.74871400  1
  C  C1  1  0.01909900  0.92928300  0.75128700  1
  C  C2  1  0.51910000  0.57071800  0.25128600  1
  C  C3  1  0.98090100  0.07071700  0.24871300  1
  Ni  Ni4  1  0.50000000  0.00000000  0.00000000  1
  Ni  Ni5  1  0.00000000  0.50000000  0.50000000  1
  Cu  Cu6  1  0.50000000  0.00000000  0.50000000  1
  Cu  Cu7  1  0.00000000  0.50000000  0.00000000  1
  C  C8  1  0.20201900  0.18805500  0.94745500  1
  C  C9  1  0.29798100  0.68805400  0.55254500  1
  C  C10  1  0.79798100  0.81194500  0.05254500  1
  C  C11  1  0.70201900  0.31194600  0.44745500  1
  C  C12  1  0.18353800  0.20725900  0.55752200  1
  C  C13  1  0.31646100  0.70725800  0.94247800  1
  C  C14  1  0.81646100  0.79274100  0.44247800  1
  C  C15  1  0.68353900  0.29274200  0.05752200  1
  C  C16  1  0.10807200  0.46276500  0.25762000  1
  C  C17  1  0.39192800  0.96276500  0.24238100  1
  C  C18  1  0.89192800  0.53723500  0.74238000  1
  C  C19  1  0.60807200  0.03723500  0.75761900  1
