# generated using pymatgen
data_Cu3(NiC3)2
_symmetry_space_group_name_H-M   'P 1'
_cell_length_a   5.21088100
_cell_length_b   5.25848600
_cell_length_c   8.35018100
_cell_angle_alpha   90.00000000
_cell_angle_beta   90.00000000
_cell_angle_gamma   90.00000000
_symmetry_Int_Tables_number   1
_chemical_formula_structural   Cu3(NiC3)2
_chemical_formula_sum   'Cu6 Ni4 C12'
_cell_volume   228.80618861
_cell_formula_units_Z   2
loop_
 _symmetry_equiv_pos_site_id
 _symmetry_equiv_pos_as_xyz
  1  'x, y, z'
loop_
 _atom_site_type_symbol
 _atom_site_label
 _atom_site_symmetry_multiplicity
 _atom_site_fract_x
 _atom_site_fract_y
 _atom_site_fract_z
 _atom_site_occupancy
  Ni  Ni0  1  0.15379100  0.75802200  0.50000000  1
  Ni  Ni1  1  0.84620900  0.24197800  0.50000000  1
  Ni  Ni2  1  0.34620900  0.25802200  0.00000000  1
  Ni  Ni3  1  0.65379100  0.74197800  0.00000000  1
  Cu  Cu4  1  0.50000000  0.00000000  0.83284000  1
  Cu  Cu5  1  0.00000000  0.50000000  0.66716000  1
  Cu  Cu6  1  0.50000000  0.00000000  0.16716000  1
  Cu  Cu7  1  0.50000000  0.50000000  0.50000000  1
  Cu  Cu8  1  0.00000000  0.00000000  0.00000000  1
  Cu  Cu9  1  0.00000000  0.50000000  0.33284000  1
  C  C10  1  0.98881500  0.26694700  0.34817900  1
  C  C11  1  0.48881500  0.23305300  0.84817900  1
  C  C12  1  0.51118500  0.76694700  0.84817900  1
  C  C13  1  0.51118500  0.76694700  0.15182100  1
  C  C14  1  0.57595300  0.28038400  0.50000000  1
  C  C15  1  0.48881500  0.23305300  0.15182100  1
  C  C16  1  0.01118500  0.73305300  0.65182100  1
  C  C17  1  0.92404700  0.78038400  0.00000000  1
  C  C18  1  0.07595300  0.21961600  0.00000000  1
  C  C19  1  0.42404700  0.71961600  0.50000000  1
  C  C20  1  0.98881500  0.26694700  0.65182100  1
  C  C21  1  0.01118500  0.73305300  0.34817900  1
