# generated using pymatgen
data_Cu4NiC32
_symmetry_space_group_name_H-M   'P 1'
_cell_length_a   5.34813602
_cell_length_b   7.70109684
_cell_length_c   11.39760018
_cell_angle_alpha   90.06803003
_cell_angle_beta   92.30839924
_cell_angle_gamma   90.24264296
_symmetry_Int_Tables_number   1
_chemical_formula_structural   Cu4NiC32
_chemical_formula_sum   'Cu4 Ni1 C32'
_cell_volume   469.04183393
_cell_formula_units_Z   1
loop_
 _symmetry_equiv_pos_site_id
 _symmetry_equiv_pos_as_xyz
  1  'x, y, z'
loop_
 _atom_site_type_symbol
 _atom_site_label
 _atom_site_symmetry_multiplicity
 _atom_site_fract_x
 _atom_site_fract_y
 _atom_site_fract_z
 _atom_site_occupancy
  C  C0  1  0.55579836  0.25096648  0.97652297  1
  C  C1  1  0.95044652  0.24621460  0.55552615  1
  C  C2  1  0.46723220  0.75016718  0.95998268  1
  C  C3  1  0.03425078  0.74813208  0.45879382  1
  Ni  Ni4  1  0.66702733  0.27172704  0.23314281  1
  Cu  Cu5  1  0.52734331  0.99391082  0.36817076  1
  Cu  Cu6  1  0.45079533  0.50428882  0.64842540  1
  Cu  Cu7  1  0.05741915  0.51264753  0.14205996  1
  Cu  Cu8  1  0.97153458  0.99528594  0.85218914  1
  C  C9  1  0.97214657  0.50014726  0.85796793  1
  C  C10  1  0.04442804  0.99813301  0.14010345  1
  C  C11  1  0.45496972  0.99052969  0.64186374  1
  C  C12  1  0.51893493  0.50444164  0.38068255  1
  C  C13  1  0.88728809  0.24908114  0.86292664  1
  C  C14  1  0.63990187  0.24862578  0.39765131  1
  C  C15  1  0.15662194  0.75282436  0.12715216  1
  C  C16  1  0.34472311  0.74899410  0.62014046  1
  C  C17  1  0.37980255  0.07222619  0.21661194  1
  C  C18  1  0.12378200  0.44716376  0.71162888  1
  C  C19  1  0.62125688  0.55167879  0.79678712  1
  C  C20  1  0.85797686  0.96191775  0.28393498  1
  C  C21  1  0.62213075  0.94665508  0.79151005  1
  C  C22  1  0.86012570  0.53132404  0.28086731  1
  C  C23  1  0.37607433  0.43561602  0.21786075  1
  C  C24  1  0.12873027  0.04865694  0.70741608  1
  C  C25  1  0.92519424  0.25161208  0.12512669  1
  C  C26  1  0.54095456  0.25135509  0.64593673  1
  C  C27  1  0.06578886  0.74845360  0.85256474  1
  C  C28  1  0.43902533  0.74842355  0.36142952  1
  C  C29  1  0.77778370  0.53746328  0.01792826  1
  C  C30  1  0.72809908  0.95736594  0.52578111  1
  C  C31  1  0.24517000  0.03174594  0.97348306  1
  C  C32  1  0.24587593  0.46388241  0.48206362  1
  C  C33  1  0.24134259  0.46923551  0.97890333  1
  C  C34  1  0.25113697  0.03292180  0.47636315  1
  C  C35  1  0.78142866  0.96410383  0.01473540  1
  C  C36  1  0.72495889  0.54100191  0.53005136  1
