# generated using pymatgen
data_CuNiC5
_symmetry_space_group_name_H-M   'P 1'
_cell_length_a   3.12797500
_cell_length_b   9.45306100
_cell_length_c   9.51101200
_cell_angle_alpha   90.00000000
_cell_angle_beta   90.00000000
_cell_angle_gamma   90.00000000
_symmetry_Int_Tables_number   1
_chemical_formula_structural   CuNiC5
_chemical_formula_sum   'Cu4 Ni4 C20'
_cell_volume   281.23052872
_cell_formula_units_Z   4
loop_
 _symmetry_equiv_pos_site_id
 _symmetry_equiv_pos_as_xyz
  1  'x, y, z'
loop_
 _atom_site_type_symbol
 _atom_site_label
 _atom_site_symmetry_multiplicity
 _atom_site_fract_x
 _atom_site_fract_y
 _atom_site_fract_z
 _atom_site_occupancy
  Ni  Ni0  1  0.00000000  0.60231400  0.44144600  1
  Ni  Ni1  1  0.00000000  0.10231400  0.55855400  1
  Ni  Ni2  1  0.00000000  0.62303500  0.81614600  1
  Ni  Ni3  1  0.00000000  0.12303500  0.18385400  1
  Cu  Cu4  1  0.50000000  0.39978000  0.05670400  1
  Cu  Cu5  1  0.50000000  0.89978000  0.94329600  1
  Cu  Cu6  1  0.50000000  0.38797100  0.68040000  1
  Cu  Cu7  1  0.50000000  0.88797100  0.31960000  1
  C  C8  1  0.00000000  0.67060500  0.12747400  1
  C  C9  1  0.00000000  0.17060500  0.87252600  1
  C  C10  1  0.50000000  0.33407900  0.37444700  1
  C  C11  1  0.50000000  0.83407900  0.62555300  1
  C  C12  1  0.00000000  0.52456200  0.11900600  1
  C  C13  1  0.00000000  0.02456200  0.88099400  1
  C  C14  1  0.50000000  0.47746300  0.38143900  1
  C  C15  1  0.50000000  0.97746300  0.61856100  1
  C  C16  1  0.00000000  0.50640800  0.63347800  1
  C  C17  1  0.00000000  0.00640800  0.36652200  1
  C  C18  1  0.50000000  0.47486600  0.86892100  1
  C  C19  1  0.50000000  0.97486600  0.13107900  1
  C  C20  1  0.00000000  0.74546200  0.00097200  1
  C  C21  1  0.00000000  0.24546200  0.99902800  1
  C  C22  1  0.50000000  0.25357800  0.49895000  1
  C  C23  1  0.50000000  0.75357800  0.50105000  1
  C  C24  1  0.00000000  0.73557900  0.25708500  1
  C  C25  1  0.00000000  0.23557900  0.74291500  1
  C  C26  1  0.50000000  0.26429900  0.24262400  1
  C  C27  1  0.50000000  0.76429900  0.75737600  1
