# generated using pymatgen
data_Cu16Ni3C2
_symmetry_space_group_name_H-M   'P 1'
_cell_length_a   8.87265545
_cell_length_b   8.87265545
_cell_length_c   10.58366031
_cell_angle_alpha   72.34058240
_cell_angle_beta   72.34058240
_cell_angle_gamma   63.31117528
_symmetry_Int_Tables_number   1
_chemical_formula_structural   Cu16Ni3C2
_chemical_formula_sum   'Cu32 Ni6 C4'
_cell_volume   695.54140266
_cell_formula_units_Z   2
loop_
 _symmetry_equiv_pos_site_id
 _symmetry_equiv_pos_as_xyz
  1  'x, y, z'
loop_
 _atom_site_type_symbol
 _atom_site_label
 _atom_site_symmetry_multiplicity
 _atom_site_fract_x
 _atom_site_fract_y
 _atom_site_fract_z
 _atom_site_occupancy
  C  C0  1  0.32394900  0.97449900  0.95713800  1
  C  C1  1  0.67605100  0.02550100  0.04286200  1
  C  C2  1  0.02550100  0.67605100  0.54286200  1
  C  C3  1  0.97449900  0.32394900  0.45713800  1
  Ni  Ni4  1  0.65345900  0.08741100  0.68474800  1
  Ni  Ni5  1  0.34654100  0.91258900  0.31525200  1
  Ni  Ni6  1  0.91258900  0.34654100  0.81525200  1
  Ni  Ni7  1  0.08741100  0.65345900  0.18474800  1
  Ni  Ni8  1  0.12954600  0.87045400  0.75000000  1
  Ni  Ni9  1  0.87045400  0.12954600  0.25000000  1
  Cu  Cu10  1  0.48421000  0.08083400  0.71578300  1
  Cu  Cu11  1  0.51579000  0.91916600  0.28421700  1
  Cu  Cu12  1  0.91916600  0.51579000  0.78421700  1
  Cu  Cu13  1  0.08083400  0.48421000  0.21578300  1
  Cu  Cu14  1  0.67326200  0.13651500  0.79695400  1
  Cu  Cu15  1  0.32673800  0.86348500  0.20304600  1
  Cu  Cu16  1  0.86348500  0.32673800  0.70304600  1
  Cu  Cu17  1  0.13651500  0.67326200  0.29695400  1
  Cu  Cu18  1  0.16770900  0.38297300  0.52363100  1
  Cu  Cu19  1  0.83229100  0.61702700  0.47636900  1
  Cu  Cu20  1  0.61702700  0.83229100  0.97636900  1
  Cu  Cu21  1  0.38297300  0.16770900  0.02363100  1
  Cu  Cu22  1  0.78702400  0.32694100  0.93607800  1
  Cu  Cu23  1  0.21297600  0.67305900  0.06392200  1
  Cu  Cu24  1  0.67305900  0.21297600  0.56392200  1
  Cu  Cu25  1  0.32694100  0.78702400  0.43607800  1
  Cu  Cu26  1  0.56507000  0.72482500  0.94310100  1
  Cu  Cu27  1  0.43493000  0.27517500  0.05689900  1
  Cu  Cu28  1  0.27517500  0.43493000  0.55689900  1
  Cu  Cu29  1  0.72482500  0.56507000  0.44310100  1
  Cu  Cu30  1  0.78482200  0.91571700  0.66879900  1
  Cu  Cu31  1  0.21517800  0.08428300  0.33120100  1
  Cu  Cu32  1  0.08428300  0.21517800  0.83120100  1
  Cu  Cu33  1  0.91571700  0.78482200  0.16879900  1
  Cu  Cu34  1  0.29090800  0.84931800  0.77653600  1
  Cu  Cu35  1  0.70909200  0.15068200  0.22346400  1
  Cu  Cu36  1  0.15068200  0.70909200  0.72346400  1
  Cu  Cu37  1  0.84931800  0.29090800  0.27653600  1
  Cu  Cu38  1  0.08723700  0.00517200  0.63092200  1
  Cu  Cu39  1  0.91276300  0.99482800  0.36907800  1
  Cu  Cu40  1  0.99482800  0.91276300  0.86907800  1
  Cu  Cu41  1  0.00517200  0.08723700  0.13092200  1
