# generated using pymatgen
data_Cu4Ni2C
_symmetry_space_group_name_H-M   'P 1'
_cell_length_a   15.09142586
_cell_length_b   12.47352715
_cell_length_c   12.43271931
_cell_angle_alpha   74.59129261
_cell_angle_beta   52.82760374
_cell_angle_gamma   52.58110365
_symmetry_Int_Tables_number   1
_chemical_formula_structural   Cu4Ni2C
_chemical_formula_sum   'Cu32 Ni16 C8'
_cell_volume   1461.94776073
_cell_formula_units_Z   8
loop_
 _symmetry_equiv_pos_site_id
 _symmetry_equiv_pos_as_xyz
  1  'x, y, z'
loop_
 _atom_site_type_symbol
 _atom_site_label
 _atom_site_symmetry_multiplicity
 _atom_site_fract_x
 _atom_site_fract_y
 _atom_site_fract_z
 _atom_site_occupancy
  C  C0  1  0.50000000  0.50000000  0.50000000  1
  C  C1  1  0.75000000  0.75000000  0.75000000  1
  C  C2  1  0.00000000  0.00000000  0.00000000  1
  C  C3  1  0.25000000  0.25000000  0.25000000  1
  C  C4  1  0.24788800  0.24788800  0.75211200  1
  C  C5  1  0.75211200  0.75211200  0.24788800  1
  C  C6  1  0.00211200  0.00211200  0.49788800  1
  C  C7  1  0.49788800  0.49788800  0.00211200  1
  Ni  Ni8  1  0.09483200  0.65550400  0.26407400  1
  Ni  Ni9  1  0.98559000  0.26407400  0.65550400  1
  Ni  Ni10  1  0.26407400  0.98559000  0.09483200  1
  Ni  Ni11  1  0.65550400  0.09483200  0.98559000  1
  Ni  Ni12  1  0.15516800  0.59449600  0.98592600  1
  Ni  Ni13  1  0.26441000  0.98592600  0.59449600  1
  Ni  Ni14  1  0.98592600  0.26441000  0.15516800  1
  Ni  Ni15  1  0.59449600  0.15516800  0.26441000  1
  Ni  Ni16  1  0.73797900  0.01330400  0.48934300  1
  Ni  Ni17  1  0.75937300  0.48934300  0.01330400  1
  Ni  Ni18  1  0.48934300  0.75937300  0.73797900  1
  Ni  Ni19  1  0.01330400  0.73797900  0.75937300  1
  Ni  Ni20  1  0.51202100  0.23669600  0.76065700  1
  Ni  Ni21  1  0.49062700  0.76065700  0.23669600  1
  Ni  Ni22  1  0.76065700  0.49062700  0.51202100  1
  Ni  Ni23  1  0.23669600  0.51202100  0.49062700  1
  Cu  Cu24  1  0.53979400  0.53614900  0.71073900  1
  Cu  Cu25  1  0.21331800  0.71073900  0.53614900  1
  Cu  Cu26  1  0.71073900  0.21331800  0.53979400  1
  Cu  Cu27  1  0.53614900  0.53979400  0.21331800  1
  Cu  Cu28  1  0.71020600  0.71385100  0.53926100  1
  Cu  Cu29  1  0.03668200  0.53926100  0.71385100  1
  Cu  Cu30  1  0.53926100  0.03668200  0.71020600  1
  Cu  Cu31  1  0.71385100  0.71020600  0.03668200  1
  Cu  Cu32  1  0.03878400  0.03617600  0.71078400  1
  Cu  Cu33  1  0.21425600  0.71078400  0.03617600  1
  Cu  Cu34  1  0.71078400  0.21425600  0.03878400  1
  Cu  Cu35  1  0.03617600  0.03878400  0.21425600  1
  Cu  Cu36  1  0.21121600  0.21382400  0.53921600  1
  Cu  Cu37  1  0.03574400  0.53921600  0.21382400  1
  Cu  Cu38  1  0.53921600  0.03574400  0.21121600  1
  Cu  Cu39  1  0.21382400  0.21121600  0.03574400  1
  Cu  Cu40  1  0.46293200  0.28424800  0.97352000  1
  Cu  Cu41  1  0.27930000  0.97352000  0.28424800  1
  Cu  Cu42  1  0.97352000  0.27930000  0.46293200  1
  Cu  Cu43  1  0.28424800  0.46293200  0.27930000  1
  Cu  Cu44  1  0.78706800  0.96575200  0.27648000  1
  Cu  Cu45  1  0.97070000  0.27648000  0.96575200  1
  Cu  Cu46  1  0.27648000  0.97070000  0.78706800  1
  Cu  Cu47  1  0.96575200  0.78706800  0.97070000  1
  Cu  Cu48  1  0.80936400  0.94323900  0.77284000  1
  Cu  Cu49  1  0.47455700  0.77284000  0.94323900  1
  Cu  Cu50  1  0.77284000  0.47455700  0.80936400  1
  Cu  Cu51  1  0.94323900  0.80936400  0.47455700  1
  Cu  Cu52  1  0.44063600  0.30676100  0.47716000  1
  Cu  Cu53  1  0.77544300  0.47716000  0.30676100  1
  Cu  Cu54  1  0.47716000  0.77544300  0.44063600  1
  Cu  Cu55  1  0.30676100  0.44063600  0.77544300  1
