# generated using pymatgen
data_CuNiC12
_symmetry_space_group_name_H-M   'P 1'
_cell_length_a   5.04755560
_cell_length_b   5.04755560
_cell_length_c   8.57559887
_cell_angle_alpha   78.79360218
_cell_angle_beta   101.20639782
_cell_angle_gamma   116.31708520
_symmetry_Int_Tables_number   1
_chemical_formula_structural   CuNiC12
_chemical_formula_sum   'Cu1 Ni1 C12'
_cell_volume   190.64853855
_cell_formula_units_Z   1
loop_
 _symmetry_equiv_pos_site_id
 _symmetry_equiv_pos_as_xyz
  1  'x, y, z'
loop_
 _atom_site_type_symbol
 _atom_site_label
 _atom_site_symmetry_multiplicity
 _atom_site_fract_x
 _atom_site_fract_y
 _atom_site_fract_z
 _atom_site_occupancy
  C  C0  1  0.37424000  0.62576000  0.12468300  1
  C  C1  1  0.87579000  0.12421000  0.62530000  1
  C  C2  1  0.12421000  0.87579000  0.37470000  1
  C  C3  1  0.62576000  0.37424000  0.87531700  1
  C  C4  1  0.17082500  0.39043400  0.39037900  1
  C  C5  1  0.66989300  0.88985900  0.88984800  1
  C  C6  1  0.33010700  0.11014100  0.11015200  1
  C  C7  1  0.82917500  0.60956600  0.60962100  1
  C  C8  1  0.60956600  0.82917500  0.39037900  1
  C  C9  1  0.11014100  0.33010700  0.88984800  1
  C  C10  1  0.88985900  0.66989300  0.11015200  1
  C  C11  1  0.39043400  0.17082500  0.60962100  1
  Ni  Ni12  1  0.50000000  0.50000000  0.50000000  1
  Cu  Cu13  1  0.00000000  0.00000000  0.00000000  1
