# generated using pymatgen
data_CuNiC12
_symmetry_space_group_name_H-M   'P 1'
_cell_length_a   5.48082850
_cell_length_b   12.56312100
_cell_length_c   5.49430949
_cell_angle_alpha   90.00008364
_cell_angle_beta   90.00033222
_cell_angle_gamma   89.99899191
_symmetry_Int_Tables_number   1
_chemical_formula_structural   CuNiC12
_chemical_formula_sum   'Cu2 Ni2 C24'
_cell_volume   378.31788665
_cell_formula_units_Z   2
loop_
 _symmetry_equiv_pos_site_id
 _symmetry_equiv_pos_as_xyz
  1  'x, y, z'
loop_
 _atom_site_type_symbol
 _atom_site_label
 _atom_site_symmetry_multiplicity
 _atom_site_fract_x
 _atom_site_fract_y
 _atom_site_fract_z
 _atom_site_occupancy
  C  C0  1  0.49999900  0.14461400  0.00000100  1
  C  C1  1  0.50000500  0.64461800  0.50000000  1
  C  C2  1  0.00001300  0.14209200  0.50000100  1
  C  C3  1  0.00000300  0.64209100  0.99999300  1
  C  C4  1  0.00000000  0.35583800  0.99999800  1
  C  C5  1  0.00001000  0.85584300  0.49999900  1
  C  C6  1  0.50001100  0.35886300  0.50001000  1
  C  C7  1  0.49999600  0.85886300  0.00000500  1
  Ni  Ni8  1  0.00000800  0.50167500  0.49998800  1
  Ni  Ni9  1  0.00000600  0.00167800  0.00000500  1
  Cu  Cu10  1  0.50002100  0.00187700  0.49999300  1
  Cu  Cu11  1  0.49998900  0.50186600  0.00000900  1
  C  C12  1  0.00000400  0.33980300  0.49999900  1
  C  C13  1  0.99985900  0.83982800  0.00000000  1
  C  C14  1  0.50000400  0.33900500  0.99999500  1
  C  C15  1  0.50000600  0.83900800  0.50000300  1
  C  C16  1  0.50000900  0.17036700  0.50000000  1
  C  C17  1  0.50000100  0.67036300  0.00000000  1
  C  C18  1  0.00000700  0.15640300  0.99999700  1
  C  C19  1  0.00000600  0.65640200  0.49999900  1
  C  C20  1  0.24812100  0.49736400  0.74149500  1
  C  C21  1  0.24811500  0.99736400  0.24149600  1
  C  C22  1  0.75188800  0.49736100  0.25849900  1
  C  C23  1  0.75190000  0.99736500  0.75850100  1
  C  C24  1  0.75189000  0.49736300  0.74151000  1
  C  C25  1  0.75190100  0.99736600  0.24149900  1
  C  C26  1  0.24811300  0.49736200  0.25849800  1
  C  C27  1  0.24811700  0.99736500  0.75850700  1
