# generated using pymatgen
data_Cu2Ni10C
_symmetry_space_group_name_H-M   'P 1'
_cell_length_a   4.72119200
_cell_length_b   6.48386859
_cell_length_c   6.48386859
_cell_angle_alpha   97.35195555
_cell_angle_beta   111.35049259
_cell_angle_gamma   68.64950741
_symmetry_Int_Tables_number   1
_chemical_formula_structural   Cu2Ni10C
_chemical_formula_sum   'Cu2 Ni10 C1'
_cell_volume   172.17067892
_cell_formula_units_Z   1
loop_
 _symmetry_equiv_pos_site_id
 _symmetry_equiv_pos_as_xyz
  1  'x, y, z'
loop_
 _atom_site_type_symbol
 _atom_site_label
 _atom_site_symmetry_multiplicity
 _atom_site_fract_x
 _atom_site_fract_y
 _atom_site_fract_z
 _atom_site_occupancy
  C  C0  1  0.00000000  0.00000000  0.00000000  1
  Ni  Ni1  1  0.50000000  0.00000000  0.50000000  1
  Ni  Ni2  1  0.00000000  0.00000000  0.50000000  1
  Ni  Ni3  1  0.50000000  0.50000000  0.00000000  1
  Ni  Ni4  1  0.00000000  0.50000000  0.00000000  1
  Ni  Ni5  1  0.71781800  0.78218200  0.21781800  1
  Ni  Ni6  1  0.28218200  0.21781800  0.78218200  1
  Ni  Ni7  1  0.50000000  0.77826800  0.77826800  1
  Ni  Ni8  1  0.50000000  0.22173200  0.22173200  1
  Ni  Ni9  1  0.64266700  0.35733300  0.64266700  1
  Ni  Ni10  1  0.35733300  0.64266700  0.35733300  1
  Cu  Cu11  1  0.00000000  0.35640800  0.35640800  1
  Cu  Cu12  1  0.00000000  0.64359200  0.64359200  1
