# generated using pymatgen
data_Cu3Ni3C20
_symmetry_space_group_name_H-M   'P 1'
_cell_length_a   5.23437600
_cell_length_b   8.99816600
_cell_length_c   15.51227186
_cell_angle_alpha   70.93628496
_cell_angle_beta   90.00000000
_cell_angle_gamma   90.00000000
_symmetry_Int_Tables_number   1
_chemical_formula_structural   Cu3Ni3C20
_chemical_formula_sum   'Cu6 Ni6 C40'
_cell_volume   690.55423898
_cell_formula_units_Z   2
loop_
 _symmetry_equiv_pos_site_id
 _symmetry_equiv_pos_as_xyz
  1  'x, y, z'
loop_
 _atom_site_type_symbol
 _atom_site_label
 _atom_site_symmetry_multiplicity
 _atom_site_fract_x
 _atom_site_fract_y
 _atom_site_fract_z
 _atom_site_occupancy
  Ni  Ni0  1  0.56616700  0.29881000  0.21026200  1
  Ni  Ni1  1  0.06616700  0.70119000  0.28973800  1
  Ni  Ni2  1  0.43383300  0.70119000  0.78973800  1
  Ni  Ni3  1  0.93383300  0.29881000  0.71026200  1
  Ni  Ni4  1  0.50000000  0.00000000  0.50000000  1
  Ni  Ni5  1  0.00000000  0.00000000  0.00000000  1
  Cu  Cu6  1  0.43751600  0.23598500  0.61887500  1
  Cu  Cu7  1  0.56248400  0.76401500  0.38112500  1
  Cu  Cu8  1  0.93751600  0.76401500  0.88112500  1
  Cu  Cu9  1  0.06248400  0.23598500  0.11887500  1
  Cu  Cu10  1  0.00000000  0.50000000  0.50000000  1
  Cu  Cu11  1  0.50000000  0.50000000  0.00000000  1
  C  C12  1  0.99853800  0.04846800  0.34726500  1
  C  C13  1  0.51768100  0.39058200  0.39694600  1
  C  C14  1  0.01768100  0.60941800  0.10305400  1
  C  C15  1  0.98231900  0.39058200  0.89694600  1
  C  C16  1  0.00146200  0.95153200  0.65273500  1
  C  C17  1  0.48231900  0.60941800  0.60305400  1
  C  C18  1  0.50146200  0.04846800  0.84726500  1
  C  C19  1  0.49853800  0.95153200  0.15273500  1
  C  C20  1  0.42688700  0.79720400  0.25661100  1
  C  C21  1  0.89283200  0.77057300  0.00417300  1
  C  C22  1  0.38187200  0.36870500  0.30118700  1
  C  C23  1  0.38168900  0.11319100  0.17754700  1
  C  C24  1  0.61812800  0.63129500  0.69881300  1
  C  C25  1  0.07311300  0.79720400  0.75661100  1
  C  C26  1  0.88187200  0.63129500  0.19881300  1
  C  C27  1  0.69295800  0.60313900  0.89361300  1
  C  C28  1  0.68347500  0.10035700  0.92244200  1
  C  C29  1  0.57311300  0.20279600  0.74338900  1
  C  C30  1  0.11831100  0.11319100  0.67754700  1
  C  C31  1  0.30704200  0.39686100  0.10638700  1
  C  C32  1  0.30103500  0.56200400  0.41158500  1
  C  C33  1  0.31652500  0.89964300  0.07755800  1
  C  C34  1  0.68811000  0.00159900  0.62265900  1
  C  C35  1  0.18811000  0.99840100  0.87734100  1
  C  C36  1  0.80103500  0.43799600  0.08841500  1
  C  C37  1  0.11812800  0.36870500  0.80118700  1
  C  C38  1  0.18347500  0.89964300  0.57755800  1
  C  C39  1  0.19295800  0.39686100  0.60638700  1
  C  C40  1  0.81189000  0.00159900  0.12265900  1
  C  C41  1  0.31189000  0.99840100  0.37734100  1
  C  C42  1  0.10716800  0.22942700  0.99582700  1
  C  C43  1  0.39283200  0.22942700  0.49582700  1
  C  C44  1  0.69896500  0.43799600  0.58841500  1
  C  C45  1  0.92688700  0.20279600  0.24338900  1
  C  C46  1  0.61831100  0.88680900  0.82245300  1
  C  C47  1  0.81652500  0.10035700  0.42244200  1
  C  C48  1  0.60716800  0.77057300  0.50417300  1
  C  C49  1  0.80704200  0.60313900  0.39361300  1
  C  C50  1  0.19896500  0.56200400  0.91158500  1
  C  C51  1  0.88168900  0.88680900  0.32245300  1
