# generated using pymatgen
data_Cu3NiC24
_symmetry_space_group_name_H-M   'P 1'
_cell_length_a   8.36406630
_cell_length_b   8.36406630
_cell_length_c   8.36183732
_cell_angle_alpha   89.95430572
_cell_angle_beta   89.95430572
_cell_angle_gamma   90.00050376
_symmetry_Int_Tables_number   1
_chemical_formula_structural   Cu3NiC24
_chemical_formula_sum   'Cu6 Ni2 C48'
_cell_volume   584.97374091
_cell_formula_units_Z   2
loop_
 _symmetry_equiv_pos_site_id
 _symmetry_equiv_pos_as_xyz
  1  'x, y, z'
loop_
 _atom_site_type_symbol
 _atom_site_label
 _atom_site_symmetry_multiplicity
 _atom_site_fract_x
 _atom_site_fract_y
 _atom_site_fract_z
 _atom_site_occupancy
  Ni  Ni0  1  0.99607500  0.99607500  0.00118500  1
  Ni  Ni1  1  0.75148200  0.75148200  0.74404600  1
  C  C2  1  0.50183700  0.99683700  0.50961300  1
  C  C3  1  0.99683700  0.50183700  0.50961300  1
  C  C4  1  0.50064600  0.50064600  0.00251600  1
  C  C5  1  0.24755000  0.24755000  0.74477800  1
  C  C6  1  0.75326900  0.24806900  0.24555000  1
  C  C7  1  0.24806900  0.75326900  0.24555000  1
  C  C8  1  0.12492700  0.12492700  0.37336600  1
  C  C9  1  0.87536000  0.37307000  0.87558600  1
  C  C10  1  0.37556300  0.12067500  0.12509800  1
  C  C11  1  0.12067500  0.37556300  0.12509800  1
  C  C12  1  0.62430900  0.62430900  0.37697000  1
  C  C13  1  0.62532600  0.12354800  0.87499400  1
  C  C14  1  0.12354800  0.62532600  0.87499400  1
  C  C15  1  0.37307000  0.87536000  0.87558600  1
  C  C16  1  0.37275400  0.37275400  0.37431700  1
  C  C17  1  0.87546500  0.87546500  0.37487800  1
  Cu  Cu18  1  0.37449800  0.62327500  0.62403500  1
  Cu  Cu19  1  0.62701100  0.87331600  0.12395400  1
  Cu  Cu20  1  0.87494300  0.12277300  0.62603300  1
  Cu  Cu21  1  0.87331600  0.62701100  0.12395400  1
  Cu  Cu22  1  0.12277300  0.87494300  0.62603300  1
  Cu  Cu23  1  0.62327600  0.37449800  0.62403500  1
  C  C24  1  0.60920300  0.37793000  0.37378500  1
  C  C25  1  0.38143600  0.11522100  0.88227900  1
  C  C26  1  0.88490600  0.88490600  0.60373500  1
  C  C27  1  0.12273400  0.60782600  0.11227900  1
  C  C28  1  0.87547000  0.63266700  0.37213900  1
  C  C29  1  0.14153100  0.85751400  0.87175000  1
  C  C30  1  0.36439100  0.36439100  0.13484100  1
  C  C31  1  0.62969200  0.12750400  0.64139600  1
  C  C32  1  0.11759700  0.88975300  0.37286400  1
  C  C33  1  0.11522100  0.38143600  0.88227900  1
  C  C34  1  0.60832400  0.89014600  0.87987900  1
  C  C35  1  0.89014600  0.60832400  0.87987900  1
  C  C36  1  0.88975300  0.11759700  0.37286400  1
  C  C37  1  0.37793000  0.60920300  0.37378500  1
  C  C38  1  0.37598400  0.37598400  0.60859500  1
  C  C39  1  0.37772000  0.88226300  0.11480300  1
  C  C40  1  0.88226300  0.37772000  0.11480300  1
  C  C41  1  0.60782600  0.12273400  0.11227900  1
  C  C42  1  0.61479700  0.61479700  0.60537400  1
  C  C43  1  0.12149700  0.12149700  0.60928800  1
  C  C44  1  0.36578500  0.13345900  0.36950200  1
  C  C45  1  0.36597400  0.63364700  0.87383000  1
  C  C46  1  0.85751400  0.14153100  0.87175000  1
  C  C47  1  0.63364700  0.36597400  0.87383000  1
  C  C48  1  0.63266700  0.87547000  0.37213900  1
  C  C49  1  0.13345900  0.36578500  0.36950200  1
  C  C50  1  0.86581100  0.86581100  0.14535100  1
  C  C51  1  0.87197900  0.36796400  0.64067100  1
  C  C52  1  0.36796400  0.87197900  0.64067100  1
  C  C53  1  0.12750400  0.62969200  0.64139600  1
  C  C54  1  0.13936500  0.13936500  0.13829900  1
  C  C55  1  0.62697800  0.62697800  0.13955600  1
