# generated using pymatgen
data_Cu2NiC5
_symmetry_space_group_name_H-M   'P 1'
_cell_length_a   7.29404956
_cell_length_b   7.29404956
_cell_length_c   7.67452622
_cell_angle_alpha   58.80942877
_cell_angle_beta   58.80942877
_cell_angle_gamma   47.14833797
_symmetry_Int_Tables_number   1
_chemical_formula_structural   Cu2NiC5
_chemical_formula_sum   'Cu4 Ni2 C10'
_cell_volume   246.97247746
_cell_formula_units_Z   2
loop_
 _symmetry_equiv_pos_site_id
 _symmetry_equiv_pos_as_xyz
  1  'x, y, z'
loop_
 _atom_site_type_symbol
 _atom_site_label
 _atom_site_symmetry_multiplicity
 _atom_site_fract_x
 _atom_site_fract_y
 _atom_site_fract_z
 _atom_site_occupancy
  Ni  Ni0  1  0.00000000  0.00000000  0.50000000  1
  Ni  Ni1  1  0.00000000  0.00000000  0.00000000  1
  Cu  Cu2  1  0.64914300  0.66679700  0.49652800  1
  Cu  Cu3  1  0.33320300  0.35085700  0.00347200  1
  Cu  Cu4  1  0.35085700  0.33320300  0.50347200  1
  Cu  Cu5  1  0.66679700  0.64914300  0.99652800  1
  C  C6  1  0.72204100  0.94819000  0.63221000  1
  C  C7  1  0.05181000  0.27795900  0.86779000  1
  C  C8  1  0.27795900  0.05181000  0.36779000  1
  C  C9  1  0.94819000  0.72204100  0.13221000  1
  C  C10  1  0.24061800  0.64498800  0.63054200  1
  C  C11  1  0.35501200  0.75938200  0.86945800  1
  C  C12  1  0.75938200  0.35501200  0.36945800  1
  C  C13  1  0.64498800  0.24061800  0.13054200  1
  C  C14  1  0.12716800  0.87283200  0.25000000  1
  C  C15  1  0.87283200  0.12716800  0.75000000  1
