# generated using pymatgen
data_Cu2(NiC3)3
_symmetry_space_group_name_H-M   'P 1'
_cell_length_a   11.19079900
_cell_length_b   3.47514300
_cell_length_c   12.94933700
_cell_angle_alpha   90.00000000
_cell_angle_beta   90.00000000
_cell_angle_gamma   90.00000000
_symmetry_Int_Tables_number   1
_chemical_formula_structural   Cu2(NiC3)3
_chemical_formula_sum   'Cu4 Ni6 C18'
_cell_volume   503.59488336
_cell_formula_units_Z   2
loop_
 _symmetry_equiv_pos_site_id
 _symmetry_equiv_pos_as_xyz
  1  'x, y, z'
loop_
 _atom_site_type_symbol
 _atom_site_label
 _atom_site_symmetry_multiplicity
 _atom_site_fract_x
 _atom_site_fract_y
 _atom_site_fract_z
 _atom_site_occupancy
  C  C0  1  0.05443100  0.25000000  0.11927800  1
  C  C1  1  0.44556900  0.75000000  0.61927800  1
  Ni  Ni2  1  0.94101600  0.75000000  0.88222200  1
  Ni  Ni3  1  0.55898400  0.25000000  0.38222200  1
  Ni  Ni4  1  0.07401400  0.25000000  0.59565200  1
  Ni  Ni5  1  0.90855900  0.75000000  0.40795500  1
  Ni  Ni6  1  0.42598600  0.75000000  0.09565200  1
  Ni  Ni7  1  0.59144100  0.25000000  0.90795500  1
  Cu  Cu8  1  0.24145400  0.25000000  0.33777800  1
  Cu  Cu9  1  0.76630200  0.75000000  0.67726500  1
  Cu  Cu10  1  0.25854600  0.75000000  0.83777800  1
  Cu  Cu11  1  0.73369800  0.25000000  0.17726500  1
  C  C12  1  0.02611300  0.75000000  0.71070800  1
  C  C13  1  0.96839000  0.25000000  0.28776400  1
  C  C14  1  0.47388700  0.25000000  0.21070800  1
  C  C15  1  0.53161000  0.75000000  0.78776400  1
  C  C16  1  0.08449600  0.25000000  0.92527700  1
  C  C17  1  0.90488100  0.75000000  0.06467100  1
  C  C18  1  0.41550400  0.75000000  0.42527700  1
  C  C19  1  0.59511900  0.25000000  0.56467100  1
  C  C20  1  0.10993400  0.75000000  0.47058800  1
  C  C21  1  0.87912500  0.25000000  0.52734500  1
  C  C22  1  0.39006600  0.25000000  0.97058800  1
  C  C23  1  0.62087500  0.75000000  0.02734500  1
  C  C24  1  0.21083500  0.75000000  0.14842900  1
  C  C25  1  0.79689600  0.25000000  0.84506700  1
  C  C26  1  0.28916500  0.25000000  0.64842900  1
  C  C27  1  0.70310400  0.75000000  0.34506700  1
