# generated using pymatgen
data_Cu3(NiC9)2
_symmetry_space_group_name_H-M   'P 1'
_cell_length_a   7.96989000
_cell_length_b   6.80654800
_cell_length_c   24.81718761
_cell_angle_alpha   90.00000000
_cell_angle_beta   93.24985306
_cell_angle_gamma   90.00000000
_symmetry_Int_Tables_number   1
_chemical_formula_structural   Cu3(NiC9)2
_chemical_formula_sum   'Cu12 Ni8 C72'
_cell_volume   1344.10381867
_cell_formula_units_Z   4
loop_
 _symmetry_equiv_pos_site_id
 _symmetry_equiv_pos_as_xyz
  1  'x, y, z'
loop_
 _atom_site_type_symbol
 _atom_site_label
 _atom_site_symmetry_multiplicity
 _atom_site_fract_x
 _atom_site_fract_y
 _atom_site_fract_z
 _atom_site_occupancy
  C  C0  1  0.52612400  0.79797900  0.35069800  1
  C  C1  1  0.47387600  0.29797900  0.14930200  1
  C  C2  1  0.47387600  0.20202100  0.64930200  1
  C  C3  1  0.52612400  0.70202100  0.85069800  1
  C  C4  1  0.75847800  0.78990800  0.19224600  1
  C  C5  1  0.24152200  0.28990800  0.30775400  1
  C  C6  1  0.24152200  0.21009200  0.80775400  1
  C  C7  1  0.75847800  0.71009200  0.69224600  1
  C  C8  1  0.80858100  0.76269100  0.01584800  1
  C  C9  1  0.19141900  0.26269100  0.48415200  1
  C  C10  1  0.19141900  0.23730900  0.98415200  1
  C  C11  1  0.80858100  0.73730900  0.51584800  1
  Ni  Ni12  1  0.10827600  0.61381300  0.11684300  1
  Ni  Ni13  1  0.89172400  0.11381300  0.38315700  1
  Ni  Ni14  1  0.89172400  0.38618700  0.88315700  1
  Ni  Ni15  1  0.10827600  0.88618700  0.61684300  1
  Ni  Ni16  1  0.17603300  0.95877200  0.11903300  1
  Ni  Ni17  1  0.82396700  0.45877200  0.38096700  1
  Ni  Ni18  1  0.82396700  0.04122800  0.88096700  1
  Ni  Ni19  1  0.17603300  0.54122800  0.61903300  1
  Cu  Cu20  1  0.06344100  0.75186200  0.39316100  1
  Cu  Cu21  1  0.93655900  0.25186200  0.10683900  1
  Cu  Cu22  1  0.93655900  0.24813800  0.60683900  1
  Cu  Cu23  1  0.06344100  0.74813800  0.89316100  1
  Cu  Cu24  1  0.25808400  0.74984400  0.21003900  1
  Cu  Cu25  1  0.74191600  0.24984400  0.28996100  1
  Cu  Cu26  1  0.74191600  0.25015600  0.78996100  1
  Cu  Cu27  1  0.25808400  0.75015600  0.71003900  1
  Cu  Cu28  1  0.38251400  0.73188800  0.06469000  1
  Cu  Cu29  1  0.61748600  0.23188800  0.43531000  1
  Cu  Cu30  1  0.61748600  0.26811200  0.93531000  1
  Cu  Cu31  1  0.38251400  0.76811200  0.56469000  1
  C  C32  1  0.13081600  0.76318100  0.28864100  1
  C  C33  1  0.86918400  0.26318100  0.21135900  1
  C  C34  1  0.86918400  0.23681900  0.71135900  1
  C  C35  1  0.13081600  0.73681900  0.78864100  1
  C  C36  1  0.29289800  0.75723800  0.97889100  1
  C  C37  1  0.70710200  0.25723800  0.52110900  1
  C  C38  1  0.70710200  0.24276200  0.02110900  1
  C  C39  1  0.29289800  0.74276200  0.47889100  1
  C  C40  1  0.11307500  0.80699200  0.24850000  1
  C  C41  1  0.88692500  0.30699200  0.25150000  1
  C  C42  1  0.88692500  0.19300800  0.75150000  1
  C  C43  1  0.11307500  0.69300800  0.74850000  1
  C  C44  1  0.40467700  0.72664200  0.00226300  1
  C  C45  1  0.59532300  0.22664200  0.49773700  1
  C  C46  1  0.59532300  0.27335800  0.99773700  1
  C  C47  1  0.40467700  0.77335800  0.50226300  1
  C  C48  1  0.03339900  0.98165800  0.39452500  1
  C  C49  1  0.96660100  0.48165800  0.10547500  1
  C  C50  1  0.96660100  0.01834200  0.60547500  1
  C  C51  1  0.03339900  0.51834200  0.89452500  1
  C  C52  1  0.11932700  0.16300400  0.11560500  1
  C  C53  1  0.88067300  0.66300400  0.38439500  1
  C  C54  1  0.88067300  0.83699600  0.88439500  1
  C  C55  1  0.11932700  0.33699600  0.61560500  1
  C  C56  1  0.13891300  0.68894800  0.44824700  1
  C  C57  1  0.86108700  0.18894800  0.05175300  1
  C  C58  1  0.86108700  0.31105200  0.55175300  1
  C  C59  1  0.13891300  0.81105200  0.94824700  1
  C  C60  1  0.17110200  0.70201300  0.34599400  1
  C  C61  1  0.82889800  0.20201300  0.15400600  1
  C  C62  1  0.82889800  0.29798700  0.65400600  1
  C  C63  1  0.17110200  0.79798700  0.84599400  1
  C  C64  1  0.18845500  0.57587600  0.17278000  1
  C  C65  1  0.81154500  0.07587600  0.32722000  1
  C  C66  1  0.81154500  0.42412400  0.82722000  1
  C  C67  1  0.18845500  0.92412400  0.67278000  1
  C  C68  1  0.24281300  0.57407200  0.07679200  1
  C  C69  1  0.75718700  0.07407200  0.42320800  1
  C  C70  1  0.75718700  0.42592800  0.92320800  1
  C  C71  1  0.24281300  0.92592800  0.57679200  1
  C  C72  1  0.27503800  0.93507000  0.17296800  1
  C  C73  1  0.72496200  0.43507000  0.32703200  1
  C  C74  1  0.72496200  0.06493000  0.82703200  1
  C  C75  1  0.27503800  0.56493000  0.67296800  1
  C  C76  1  0.30389400  0.93992200  0.07632400  1
  C  C77  1  0.69610600  0.43992200  0.42367600  1
  C  C78  1  0.69610600  0.06007800  0.92367600  1
  C  C79  1  0.30389400  0.56007800  0.57632400  1
  C  C80  1  0.04755400  0.81274000  0.11227300  1
  C  C81  1  0.95244600  0.31274000  0.38772700  1
  C  C82  1  0.95244600  0.18726000  0.88772700  1
  C  C83  1  0.04755400  0.68726000  0.61227300  1
  C  C84  1  0.41911200  0.69197500  0.23995800  1
  C  C85  1  0.58088800  0.19197500  0.26004200  1
  C  C86  1  0.58088800  0.30802500  0.76004200  1
  C  C87  1  0.41911200  0.80802500  0.73995800  1
  C  C88  1  0.54710000  0.69283200  0.09541600  1
  C  C89  1  0.45290000  0.19283200  0.40458400  1
  C  C90  1  0.45290000  0.30716800  0.90458400  1
  C  C91  1  0.54710000  0.80716800  0.59541600  1
