# generated using pymatgen
data_Cu4Ni2C17
_symmetry_space_group_name_H-M   'P 1'
_cell_length_a   9.40728940
_cell_length_b   9.40728940
_cell_length_c   10.65040645
_cell_angle_alpha   77.27312972
_cell_angle_beta   77.27312972
_cell_angle_gamma   116.11991068
_symmetry_Int_Tables_number   1
_chemical_formula_structural   Cu4Ni2C17
_chemical_formula_sum   'Cu8 Ni4 C34'
_cell_volume   769.40555757
_cell_formula_units_Z   2
loop_
 _symmetry_equiv_pos_site_id
 _symmetry_equiv_pos_as_xyz
  1  'x, y, z'
loop_
 _atom_site_type_symbol
 _atom_site_label
 _atom_site_symmetry_multiplicity
 _atom_site_fract_x
 _atom_site_fract_y
 _atom_site_fract_z
 _atom_site_occupancy
  C  C0  1  0.12969900  0.87030100  0.25000000  1
  C  C1  1  0.87030100  0.12969900  0.75000000  1
  Ni  Ni2  1  0.50000000  0.50000000  0.00000000  1
  Ni  Ni3  1  0.50000000  0.50000000  0.50000000  1
  Ni  Ni4  1  0.00000000  0.50000000  0.00000000  1
  Ni  Ni5  1  0.50000000  0.00000000  0.50000000  1
  Cu  Cu6  1  0.85242500  0.73901800  0.99937000  1
  Cu  Cu7  1  0.26098200  0.14757500  0.50063000  1
  Cu  Cu8  1  0.14757500  0.26098200  0.00063000  1
  Cu  Cu9  1  0.73901800  0.85242500  0.49937000  1
  Cu  Cu10  1  0.62560000  0.23552700  0.03814900  1
  Cu  Cu11  1  0.76447300  0.37440000  0.46185100  1
  Cu  Cu12  1  0.37440000  0.76447300  0.96185100  1
  Cu  Cu13  1  0.23552700  0.62560000  0.53814900  1
  C  C14  1  0.67012100  0.59267200  0.09341800  1
  C  C15  1  0.40732800  0.32987900  0.40658200  1
  C  C16  1  0.32987900  0.40732800  0.90658200  1
  C  C17  1  0.59267200  0.67012100  0.59341800  1
  C  C18  1  0.93993100  0.66960700  0.91083300  1
  C  C19  1  0.33039300  0.06006900  0.58916700  1
  C  C20  1  0.06006900  0.33039300  0.08916700  1
  C  C21  1  0.66960700  0.93993100  0.41083300  1
  C  C22  1  0.84389700  0.86335200  0.89791700  1
  C  C23  1  0.13664800  0.15610300  0.60208300  1
  C  C24  1  0.15610300  0.13664800  0.10208300  1
  C  C25  1  0.86335200  0.84389700  0.39791700  1
  C  C26  1  0.93630300  0.79368600  0.09250500  1
  C  C27  1  0.20631400  0.06369700  0.40749500  1
  C  C28  1  0.06369700  0.20631400  0.90749500  1
  C  C29  1  0.79368600  0.93630300  0.59250500  1
  C  C30  1  0.74910000  0.32588400  0.10634900  1
  C  C31  1  0.67411600  0.25090000  0.39365100  1
  C  C32  1  0.25090000  0.67411600  0.89365100  1
  C  C33  1  0.32588400  0.74910000  0.60634900  1
  C  C34  1  0.60497400  0.36647300  0.93926400  1
  C  C35  1  0.63352700  0.39502600  0.56073600  1
  C  C36  1  0.39502600  0.63352700  0.06073600  1
  C  C37  1  0.36647300  0.60497400  0.43926400  1
  C  C38  1  0.46824100  0.11303200  0.15355700  1
  C  C39  1  0.88696800  0.53175900  0.34644300  1
  C  C40  1  0.53175900  0.88696800  0.84644300  1
  C  C41  1  0.11303200  0.46824100  0.65355700  1
  C  C42  1  0.69865400  0.17156900  0.94670200  1
  C  C43  1  0.82843100  0.30134600  0.55329800  1
  C  C44  1  0.30134600  0.82843100  0.05329800  1
  C  C45  1  0.17156900  0.69865400  0.44670200  1
