# generated using pymatgen
data_Cu3Ni7C5
_symmetry_space_group_name_H-M   'P 1'
_cell_length_a   4.67999600
_cell_length_b   4.68722900
_cell_length_c   15.21368200
_cell_angle_alpha   90.00000000
_cell_angle_beta   90.00000000
_cell_angle_gamma   90.00000000
_symmetry_Int_Tables_number   1
_chemical_formula_structural   Cu3Ni7C5
_chemical_formula_sum   'Cu6 Ni14 C10'
_cell_volume   333.73056843
_cell_formula_units_Z   2
loop_
 _symmetry_equiv_pos_site_id
 _symmetry_equiv_pos_as_xyz
  1  'x, y, z'
loop_
 _atom_site_type_symbol
 _atom_site_label
 _atom_site_symmetry_multiplicity
 _atom_site_fract_x
 _atom_site_fract_y
 _atom_site_fract_z
 _atom_site_occupancy
  C  C0  1  0.78077400  0.00939100  0.80602100  1
  C  C1  1  0.76869200  0.01064800  0.00000000  1
  C  C2  1  0.78077400  0.00939100  0.19397900  1
  C  C3  1  0.75967700  0.97815300  0.39943400  1
  C  C4  1  0.75967700  0.97815300  0.60056600  1
  C  C5  1  0.24032300  0.47815300  0.89943400  1
  C  C6  1  0.21922600  0.50939100  0.30602100  1
  C  C7  1  0.24032300  0.47815300  0.10056600  1
  C  C8  1  0.23130800  0.51064800  0.50000000  1
  C  C9  1  0.21922600  0.50939100  0.69397900  1
  Ni  Ni10  1  0.95251800  0.80245000  0.90405800  1
  Ni  Ni11  1  0.95251800  0.80245000  0.09594200  1
  Ni  Ni12  1  0.93772300  0.81578100  0.29689400  1
  Ni  Ni13  1  0.93066600  0.80252600  0.50000000  1
  Ni  Ni14  1  0.93772300  0.81578100  0.70310600  1
  Ni  Ni15  1  0.06227700  0.31578100  0.79689400  1
  Ni  Ni16  1  0.06933400  0.30252600  0.00000000  1
  Ni  Ni17  1  0.06227700  0.31578100  0.20310600  1
  Ni  Ni18  1  0.04748200  0.30245000  0.40405800  1
  Ni  Ni19  1  0.04748200  0.30245000  0.59594200  1
  Ni  Ni20  1  0.43488700  0.69188300  0.40214800  1
  Ni  Ni21  1  0.43488700  0.69188300  0.59785200  1
  Ni  Ni22  1  0.56511300  0.19188300  0.90214800  1
  Ni  Ni23  1  0.56511300  0.19188300  0.09785200  1
  Cu  Cu24  1  0.45038300  0.70005400  0.79873000  1
  Cu  Cu25  1  0.45200400  0.69139700  0.00000000  1
  Cu  Cu26  1  0.45038300  0.70005400  0.20127000  1
  Cu  Cu27  1  0.54961700  0.20005400  0.29873000  1
  Cu  Cu28  1  0.54961700  0.20005400  0.70127000  1
  Cu  Cu29  1  0.54799600  0.19139700  0.50000000  1
