# generated using pymatgen
data_Cu9Ni9C5
_symmetry_space_group_name_H-M   'P 1'
_cell_length_a   20.64178300
_cell_length_b   7.75470400
_cell_length_c   8.51873034
_cell_angle_alpha   73.99548209
_cell_angle_beta   90.00000000
_cell_angle_gamma   90.00000000
_symmetry_Int_Tables_number   1
_chemical_formula_structural   Cu9Ni9C5
_chemical_formula_sum   'Cu18 Ni18 C10'
_cell_volume   1310.74774859
_cell_formula_units_Z   2
loop_
 _symmetry_equiv_pos_site_id
 _symmetry_equiv_pos_as_xyz
  1  'x, y, z'
loop_
 _atom_site_type_symbol
 _atom_site_label
 _atom_site_symmetry_multiplicity
 _atom_site_fract_x
 _atom_site_fract_y
 _atom_site_fract_z
 _atom_site_occupancy
  C  C0  1  0.34468100  0.84548300  0.20892600  1
  C  C1  1  0.84468100  0.15451700  0.79107400  1
  C  C2  1  0.65531900  0.15451700  0.79107400  1
  C  C3  1  0.15531900  0.84548300  0.20892600  1
  C  C4  1  0.58737800  0.69056600  0.37597600  1
  C  C5  1  0.08737800  0.30943400  0.62402400  1
  C  C6  1  0.41262200  0.30943400  0.62402400  1
  C  C7  1  0.91262200  0.69056600  0.37597600  1
  C  C8  1  0.25000000  0.38400800  0.88764900  1
  C  C9  1  0.75000000  0.61599200  0.11235100  1
  Ni  Ni10  1  0.25000000  0.53475500  0.33738600  1
  Ni  Ni11  1  0.75000000  0.46524500  0.66261400  1
  Ni  Ni12  1  0.25000000  0.00750700  0.40690400  1
  Ni  Ni13  1  0.75000000  0.99249300  0.59309600  1
  Ni  Ni14  1  0.42230500  0.13521200  0.13373800  1
  Ni  Ni15  1  0.92230500  0.86478800  0.86626200  1
  Ni  Ni16  1  0.57769500  0.86478800  0.86626200  1
  Ni  Ni17  1  0.07769500  0.13521200  0.13373800  1
  Ni  Ni18  1  0.41340900  0.67709500  0.59708000  1
  Ni  Ni19  1  0.91340900  0.32290500  0.40292000  1
  Ni  Ni20  1  0.58659100  0.32290500  0.40292000  1
  Ni  Ni21  1  0.08659100  0.67709500  0.59708000  1
  Ni  Ni22  1  0.41751600  0.65487300  0.05828900  1
  Ni  Ni23  1  0.91751600  0.34512700  0.94171100  1
  Ni  Ni24  1  0.58248400  0.34512700  0.94171100  1
  Ni  Ni25  1  0.08248400  0.65487300  0.05828900  1
  Ni  Ni26  1  0.25000000  0.93280900  0.95350300  1
  Ni  Ni27  1  0.75000000  0.06719100  0.04649700  1
  Cu  Cu28  1  0.57898900  0.56523800  0.28514300  1
  Cu  Cu29  1  0.07898900  0.43476200  0.71485700  1
  Cu  Cu30  1  0.42101100  0.43476200  0.71485700  1
  Cu  Cu31  1  0.92101100  0.56523800  0.28514300  1
  Cu  Cu32  1  0.59964800  0.63548400  0.53639400  1
  Cu  Cu33  1  0.09964800  0.36451600  0.46360600  1
  Cu  Cu34  1  0.40035200  0.36451600  0.46360600  1
  Cu  Cu35  1  0.90035200  0.63548400  0.53639400  1
  Cu  Cu36  1  0.58230800  0.86215600  0.28779400  1
  Cu  Cu37  1  0.08230800  0.13784400  0.71220600  1
  Cu  Cu38  1  0.41769200  0.13784400  0.71220600  1
  Cu  Cu39  1  0.91769200  0.86215600  0.28779400  1
  Cu  Cu40  1  0.25000000  0.51733900  0.71960200  1
  Cu  Cu41  1  0.75000000  0.48266100  0.28039800  1
  Cu  Cu42  1  0.25000000  0.35510300  0.72729000  1
  Cu  Cu43  1  0.75000000  0.64489700  0.27271000  1
  Cu  Cu44  1  0.25000000  0.34131500  0.03479300  1
  Cu  Cu45  1  0.75000000  0.65868500  0.96520700  1
