# generated using pymatgen
data_CuNi2C15
_symmetry_space_group_name_H-M   'P 1'
_cell_length_a   5.30810500
_cell_length_b   12.89500000
_cell_length_c   13.98467198
_cell_angle_alpha   62.57743176
_cell_angle_beta   90.00000000
_cell_angle_gamma   90.00000000
_symmetry_Int_Tables_number   1
_chemical_formula_structural   CuNi2C15
_chemical_formula_sum   'Cu4 Ni8 C60'
_cell_volume   849.66374688
_cell_formula_units_Z   4
loop_
 _symmetry_equiv_pos_site_id
 _symmetry_equiv_pos_as_xyz
  1  'x, y, z'
loop_
 _atom_site_type_symbol
 _atom_site_label
 _atom_site_symmetry_multiplicity
 _atom_site_fract_x
 _atom_site_fract_y
 _atom_site_fract_z
 _atom_site_occupancy
  Ni  Ni0  1  0.37307900  0.32947000  0.35558900  1
  Ni  Ni1  1  0.87307900  0.67053000  0.14441100  1
  Ni  Ni2  1  0.62692100  0.67053000  0.64441100  1
  Ni  Ni3  1  0.12692100  0.32947000  0.85558900  1
  Ni  Ni4  1  0.07565500  0.02492200  0.12403100  1
  Ni  Ni5  1  0.57565500  0.97507800  0.37596900  1
  Ni  Ni6  1  0.42434500  0.02492200  0.62403100  1
  Ni  Ni7  1  0.92434500  0.97507800  0.87596900  1
  Cu  Cu8  1  0.10200700  0.51718800  0.60246100  1
  Cu  Cu9  1  0.39799300  0.51718800  0.10246100  1
  Cu  Cu10  1  0.89799300  0.48281200  0.39753900  1
  Cu  Cu11  1  0.60200700  0.48281200  0.89753900  1
  C  C12  1  0.42758300  0.74737300  0.88459000  1
  C  C13  1  0.92758300  0.25262700  0.61541000  1
  C  C14  1  0.57241700  0.25262700  0.11541000  1
  C  C15  1  0.07241700  0.74737300  0.38459000  1
  C  C16  1  0.36235400  0.60694000  0.28983300  1
  C  C17  1  0.09733900  0.85236900  0.55350700  1
  C  C18  1  0.40266100  0.85236900  0.05350700  1
  C  C19  1  0.90266100  0.14763100  0.44649300  1
  C  C20  1  0.63764600  0.39306000  0.71016700  1
  C  C21  1  0.13764600  0.60694000  0.78983300  1
  C  C22  1  0.59733900  0.14763100  0.94649300  1
  C  C23  1  0.86235400  0.39306000  0.21016700  1
  C  C24  1  0.92010500  0.62392000  0.94958900  1
  C  C25  1  0.42010500  0.37608000  0.55041100  1
  C  C26  1  0.57989500  0.62392000  0.44958900  1
  C  C27  1  0.07989500  0.37608000  0.05041100  1
  C  C28  1  0.43513600  0.14318900  0.76854000  1
  C  C29  1  0.93513600  0.85681100  0.73146000  1
  C  C30  1  0.56486400  0.85681100  0.23146000  1
  C  C31  1  0.06486400  0.14318900  0.26854000  1
  C  C32  1  0.58371200  0.42669800  0.78592600  1
  C  C33  1  0.57042700  0.60892700  0.35547500  1
  C  C34  1  0.92957300  0.60892700  0.85547500  1
  C  C35  1  0.42957300  0.39107300  0.64452500  1
  C  C36  1  0.20640900  0.13426400  0.72730900  1
  C  C37  1  0.70640900  0.86573600  0.77269100  1
  C  C38  1  0.79359100  0.86573600  0.27269100  1
  C  C39  1  0.29359100  0.13426400  0.22730900  1
  C  C40  1  0.91628800  0.42669800  0.28592600  1
  C  C41  1  0.07042700  0.39107300  0.14452500  1
  C  C42  1  0.41628800  0.57330200  0.21407400  1
  C  C43  1  0.08371200  0.57330200  0.71407400  1
  C  C44  1  0.15392700  0.87591900  0.77353900  1
  C  C45  1  0.65392700  0.12408100  0.72646100  1
  C  C46  1  0.84607300  0.12408100  0.22646100  1
  C  C47  1  0.34607300  0.87591900  0.27353900  1
  C  C48  1  0.18677400  0.38783900  0.50351000  1
  C  C49  1  0.68677400  0.61216100  0.99649000  1
  C  C50  1  0.81322600  0.61216100  0.49649000  1
  C  C51  1  0.31322600  0.38783900  0.00351000  1
  C  C52  1  0.03281800  0.15729900  0.52750900  1
  C  C53  1  0.53281800  0.84270100  0.97249100  1
  C  C54  1  0.96718200  0.84270100  0.47249100  1
  C  C55  1  0.46718200  0.15729900  0.02750900  1
  C  C56  1  0.62419000  0.36197900  0.19299300  1
  C  C57  1  0.12419000  0.63802100  0.30700700  1
  C  C58  1  0.37581000  0.63802100  0.80700700  1
  C  C59  1  0.87581000  0.36197900  0.69299300  1
  C  C60  1  0.65356900  0.12675000  0.44508400  1
  C  C61  1  0.15356900  0.87325000  0.05491600  1
  C  C62  1  0.34643100  0.87325000  0.55491600  1
  C  C63  1  0.84643100  0.12675000  0.94508400  1
  C  C64  1  0.62565900  0.34952200  0.50636800  1
  C  C65  1  0.12565900  0.65047800  0.99363200  1
  C  C66  1  0.42737800  0.15808700  0.86215600  1
  C  C67  1  0.87434100  0.34952200  0.00636800  1
  C  C68  1  0.07262200  0.15808700  0.36215600  1
  C  C69  1  0.57262200  0.84191300  0.13784400  1
  C  C70  1  0.92737800  0.84191300  0.63784400  1
  C  C71  1  0.37434100  0.65047800  0.49363200  1
