# generated using pymatgen
data_CuNiC8
_symmetry_space_group_name_H-M   'P 1'
_cell_length_a   5.61026647
_cell_length_b   5.68745916
_cell_length_c   8.08721469
_cell_angle_alpha   90.00000000
_cell_angle_beta   90.00000000
_cell_angle_gamma   90.00000000
_symmetry_Int_Tables_number   1
_chemical_formula_structural   CuNiC8
_chemical_formula_sum   'Cu2 Ni2 C16'
_cell_volume   258.04815181
_cell_formula_units_Z   2
loop_
 _symmetry_equiv_pos_site_id
 _symmetry_equiv_pos_as_xyz
  1  'x, y, z'
loop_
 _atom_site_type_symbol
 _atom_site_label
 _atom_site_symmetry_multiplicity
 _atom_site_fract_x
 _atom_site_fract_y
 _atom_site_fract_z
 _atom_site_occupancy
  Ni  Ni0  1  0.50590302  0.72988818  0.50000000  1
  Ni  Ni1  1  0.00590302  0.27011182  -0.00000000  1
  Cu  Cu2  1  0.49327856  0.77810528  -0.00000000  1
  Cu  Cu3  1  0.99327856  0.22189472  0.50000000  1
  C  C4  1  0.99862904  0.75563400  0.25194939  1
  C  C5  1  0.49862904  0.24436600  0.24805061  1
  C  C6  1  0.99862904  0.75563400  0.74805061  1
  C  C7  1  0.49862904  0.24436600  0.75194939  1
  C  C8  1  0.40529303  0.25444498  0.50000000  1
  C  C9  1  0.90529303  0.74555502  0.00000000  1
  C  C10  1  0.53379200  0.22317407  -0.00000000  1
  C  C11  1  0.03379200  0.77682593  0.50000000  1
  C  C12  1  0.23539071  0.02076672  0.22964879  1
  C  C13  1  0.73539071  0.97923328  0.27035121  1
  C  C14  1  0.79684694  0.45084373  0.70340473  1
  C  C15  1  0.29684694  0.54915627  0.79659527  1
  C  C16  1  0.79684694  0.45084373  0.29659527  1
  C  C17  1  0.29684694  0.54915627  0.20340473  1
  C  C18  1  0.23539071  0.02076672  0.77035121  1
  C  C19  1  0.73539071  0.97923328  0.72964879  1
