# generated using pymatgen
data_CuNiC10
_symmetry_space_group_name_H-M   'P 1'
_cell_length_a   6.94095850
_cell_length_b   6.94095850
_cell_length_c   6.94095850
_cell_angle_alpha   134.38691918
_cell_angle_beta   134.38691918
_cell_angle_gamma   66.48429577
_symmetry_Int_Tables_number   1
_chemical_formula_structural   CuNiC10
_chemical_formula_sum   'Cu1 Ni1 C10'
_cell_volume   168.08402596
_cell_formula_units_Z   1
loop_
 _symmetry_equiv_pos_site_id
 _symmetry_equiv_pos_as_xyz
  1  'x, y, z'
loop_
 _atom_site_type_symbol
 _atom_site_label
 _atom_site_symmetry_multiplicity
 _atom_site_fract_x
 _atom_site_fract_y
 _atom_site_fract_z
 _atom_site_occupancy
  Ni  Ni0  1  0.25000000  0.75000000  0.50000000  1
  Cu  Cu1  1  0.00000000  0.00000000  0.00000000  1
  C  C2  1  0.75000000  0.25000000  0.50000000  1
  C  C3  1  0.50000000  0.50000000  0.00000000  1
  C  C4  1  0.98944300  0.09857900  0.41474700  1
  C  C5  1  0.68383200  0.57469600  0.58525300  1
  C  C6  1  0.82807700  0.73534300  0.39555000  1
  C  C7  1  0.33979300  0.43252700  0.60445000  1
  C  C8  1  0.26465700  0.66020700  0.09273400  1
  C  C9  1  0.56747300  0.17192300  0.90726600  1
  C  C10  1  0.42530400  0.01055700  0.10913600  1
  C  C11  1  0.90142100  0.31616800  0.89086400  1
