# generated using pymatgen
data_Cu4NiC2
_symmetry_space_group_name_H-M   'P 1'
_cell_length_a   12.95531599
_cell_length_b   12.95531599
_cell_length_c   12.95531599
_cell_angle_alpha   109.53865499
_cell_angle_beta   109.53865499
_cell_angle_gamma   109.33643595
_symmetry_Int_Tables_number   1
_chemical_formula_structural   Cu4NiC2
_chemical_formula_sum   'Cu32 Ni8 C16'
_cell_volume   1673.86465066
_cell_formula_units_Z   8
loop_
 _symmetry_equiv_pos_site_id
 _symmetry_equiv_pos_as_xyz
  1  'x, y, z'
loop_
 _atom_site_type_symbol
 _atom_site_label
 _atom_site_symmetry_multiplicity
 _atom_site_fract_x
 _atom_site_fract_y
 _atom_site_fract_z
 _atom_site_occupancy
  C  C0  1  0.89439200  0.39439200  0.50000000  1
  C  C1  1  0.85560800  0.85560800  0.00000000  1
  C  C2  1  0.14439200  0.14439200  0.00000000  1
  C  C3  1  0.60560800  0.10560800  0.50000000  1
  C  C4  1  0.37500000  0.64347700  0.76847700  1
  C  C5  1  0.87500000  0.60652300  0.23152300  1
  C  C6  1  0.87500000  0.89145500  0.51645500  1
  C  C7  1  0.37500000  0.35854500  0.48354500  1
  C  C8  1  0.64145500  0.12500000  0.01645500  1
  C  C9  1  0.10854500  0.62500000  0.98354500  1
  C  C10  1  0.39347700  0.62500000  0.26847700  1
  C  C11  1  0.35652300  0.12500000  0.73152300  1
  C  C12  1  0.87500000  0.24981300  0.87481300  1
  C  C13  1  0.37500000  0.00018700  0.12518700  1
  C  C14  1  0.75018700  0.62500000  0.62518700  1
  C  C15  1  0.99981300  0.12500000  0.37481300  1
  Ni  Ni16  1  0.08538600  0.38004200  0.25739600  1
  Ni  Ni17  1  0.12264600  0.82799000  0.74260400  1
  Ni  Ni18  1  0.62735400  0.86995800  0.20534400  1
  Ni  Ni19  1  0.66461400  0.42201000  0.79465600  1
  Ni  Ni20  1  0.13004200  0.33538600  0.75739600  1
  Ni  Ni21  1  0.57799000  0.37264600  0.24260400  1
  Ni  Ni22  1  0.61995800  0.87735400  0.70534400  1
  Ni  Ni23  1  0.17201000  0.91461400  0.29465600  1
  Cu  Cu24  1  0.64369200  0.70174800  0.23124000  1
  Cu  Cu25  1  0.47050700  0.41245200  0.76876000  1
  Cu  Cu26  1  0.27949300  0.54825200  0.44194400  1
  Cu  Cu27  1  0.10630800  0.83754800  0.55805600  1
  Cu  Cu28  1  0.45174800  0.89369200  0.73124000  1
  Cu  Cu29  1  0.16245200  0.72050700  0.26876000  1
  Cu  Cu30  1  0.29825200  0.52949300  0.94194400  1
  Cu  Cu31  1  0.58754800  0.35630800  0.05805600  1
  Cu  Cu32  1  0.09698300  0.38929100  0.07332700  1
  Cu  Cu33  1  0.65301700  0.22634500  0.79230800  1
  Cu  Cu34  1  0.31596300  0.02365500  0.92667300  1
  Cu  Cu35  1  0.43403700  0.86070900  0.20769200  1
  Cu  Cu36  1  0.59795200  0.19812100  0.26957300  1
  Cu  Cu37  1  0.15204800  0.92162200  0.10016900  1
  Cu  Cu38  1  0.82145200  0.05187900  0.89983100  1
  Cu  Cu39  1  0.92854800  0.32837800  0.73042700  1
  Cu  Cu40  1  0.94812100  0.84795200  0.76957300  1
  Cu  Cu41  1  0.67162200  0.40204800  0.60016900  1
  Cu  Cu42  1  0.80187900  0.07145200  0.39983100  1
  Cu  Cu43  1  0.07837800  0.17854800  0.23042700  1
  Cu  Cu44  1  0.13929100  0.34698300  0.57332700  1
  Cu  Cu45  1  0.97634500  0.90301700  0.29230800  1
  Cu  Cu46  1  0.77365500  0.56596300  0.42667300  1
  Cu  Cu47  1  0.61070900  0.68403700  0.70769200  1
  Cu  Cu48  1  0.89556300  0.37231400  0.24858900  1
  Cu  Cu49  1  0.12372400  0.64697400  0.75141100  1
  Cu  Cu50  1  0.62627600  0.87768600  0.02325000  1
  Cu  Cu51  1  0.85443700  0.60302600  0.97675000  1
  Cu  Cu52  1  0.12231400  0.14556300  0.74858900  1
  Cu  Cu53  1  0.39697400  0.37372400  0.25141100  1
  Cu  Cu54  1  0.62768600  0.87627600  0.52325000  1
  Cu  Cu55  1  0.35302600  0.10443700  0.47675000  1
