# generated using pymatgen
data_Cu2NiC17
_symmetry_space_group_name_H-M   'P 1'
_cell_length_a   5.54044700
_cell_length_b   5.54602506
_cell_length_c   5.55388201
_cell_angle_alpha   77.76500148
_cell_angle_beta   77.61327356
_cell_angle_gamma   77.87890795
_symmetry_Int_Tables_number   1
_chemical_formula_structural   Cu2NiC17
_chemical_formula_sum   'Cu2 Ni1 C17'
_cell_volume   160.46038106
_cell_formula_units_Z   1
loop_
 _symmetry_equiv_pos_site_id
 _symmetry_equiv_pos_as_xyz
  1  'x, y, z'
loop_
 _atom_site_type_symbol
 _atom_site_label
 _atom_site_symmetry_multiplicity
 _atom_site_fract_x
 _atom_site_fract_y
 _atom_site_fract_z
 _atom_site_occupancy
  C  C0  1  0.34944000  0.26766000  0.54449800  1
  C  C1  1  0.55010100  0.34624900  0.26757600  1
  C  C2  1  0.27208000  0.54584800  0.34867400  1
  C  C3  1  0.65510700  0.72974000  0.45061300  1
  C  C4  1  0.45529700  0.65055900  0.72915900  1
  C  C5  1  0.73412000  0.45192000  0.65270600  1
  C  C6  1  0.26801800  0.27214100  0.27086200  1
  C  C7  1  0.72794400  0.73163500  0.72959900  1
  C  C8  1  0.02491400  0.97036000  0.44798900  1
  C  C9  1  0.44148000  0.01429400  0.97765400  1
  C  C10  1  0.02774100  0.55450700  0.98343300  1
  Ni  Ni11  1  0.97508600  0.01586500  0.99778700  1
  Cu  Cu12  1  0.36184900  0.35951700  0.35901500  1
  Cu  Cu13  1  0.64238900  0.63921100  0.63844500  1
  C  C14  1  0.11032200  0.86723000  0.31235800  1
  C  C15  1  0.31544500  0.09923900  0.86383600  1
  C  C16  1  0.87047800  0.31985100  0.10965400  1
  C  C17  1  0.90221400  0.13276300  0.67889000  1
  C  C18  1  0.67909800  0.89234800  0.13274200  1
  C  C19  1  0.13830700  0.68561300  0.90325800  1
