# generated using pymatgen
data_Cu4Ni2C3
_symmetry_space_group_name_H-M   'P 1'
_cell_length_a   8.02003745
_cell_length_b   8.02003745
_cell_length_c   6.47499141
_cell_angle_alpha   89.59855132
_cell_angle_beta   89.59855132
_cell_angle_gamma   75.84443635
_symmetry_Int_Tables_number   1
_chemical_formula_structural   Cu4Ni2C3
_chemical_formula_sum   'Cu8 Ni4 C6'
_cell_volume   403.81577396
_cell_formula_units_Z   2
loop_
 _symmetry_equiv_pos_site_id
 _symmetry_equiv_pos_as_xyz
  1  'x, y, z'
loop_
 _atom_site_type_symbol
 _atom_site_label
 _atom_site_symmetry_multiplicity
 _atom_site_fract_x
 _atom_site_fract_y
 _atom_site_fract_z
 _atom_site_occupancy
  C  C0  1  0.75069200  0.00830200  0.97005400  1
  C  C1  1  0.99169800  0.24930800  0.52994600  1
  C  C2  1  0.24930800  0.99169800  0.02994600  1
  C  C3  1  0.00830200  0.75069200  0.47005400  1
  C  C4  1  0.59895700  0.40104300  0.25000000  1
  C  C5  1  0.40104300  0.59895700  0.75000000  1
  Ni  Ni6  1  0.57953200  0.82774500  0.41205500  1
  Ni  Ni7  1  0.17225500  0.42046800  0.08794500  1
  Ni  Ni8  1  0.42046800  0.17225500  0.58794500  1
  Ni  Ni9  1  0.82774500  0.57953200  0.91205500  1
  Cu  Cu10  1  0.71555400  0.05863900  0.47670600  1
  Cu  Cu11  1  0.94136100  0.28444600  0.02329400  1
  Cu  Cu12  1  0.28444600  0.94136100  0.52329400  1
  Cu  Cu13  1  0.05863900  0.71555400  0.97670600  1
  Cu  Cu14  1  0.56922800  0.74223400  0.06324100  1
  Cu  Cu15  1  0.25776600  0.43077200  0.43675900  1
  Cu  Cu16  1  0.43077200  0.25776600  0.93675900  1
  Cu  Cu17  1  0.74223400  0.56922800  0.56324100  1
