# generated using pymatgen
data_CuNi2C19
_symmetry_space_group_name_H-M   'P 1'
_cell_length_a   7.64705578
_cell_length_b   7.64705578
_cell_length_c   7.64705578
_cell_angle_alpha   60.00000000
_cell_angle_beta   60.00000000
_cell_angle_gamma   60.00000000
_symmetry_Int_Tables_number   1
_chemical_formula_structural   CuNi2C19
_chemical_formula_sum   'Cu1 Ni2 C19'
_cell_volume   316.20430388
_cell_formula_units_Z   1
loop_
 _symmetry_equiv_pos_site_id
 _symmetry_equiv_pos_as_xyz
  1  'x, y, z'
loop_
 _atom_site_type_symbol
 _atom_site_label
 _atom_site_symmetry_multiplicity
 _atom_site_fract_x
 _atom_site_fract_y
 _atom_site_fract_z
 _atom_site_occupancy
  Ni  Ni0  1  0.75000000  0.75000000  0.75000000  1
  Ni  Ni1  1  0.25000000  0.25000000  0.25000000  1
  Cu  Cu2  1  0.00000000  0.00000000  0.00000000  1
  C  C3  1  0.50000000  0.50000000  0.50000000  1
  C  C4  1  0.79967000  0.20033000  0.20033000  1
  C  C5  1  0.20033000  0.79967000  0.20033000  1
  C  C6  1  0.79967000  0.79967000  0.20033000  1
  C  C7  1  0.20033000  0.79967000  0.79967000  1
  C  C8  1  0.79967000  0.20033000  0.79967000  1
  C  C9  1  0.20033000  0.20033000  0.79967000  1
  C  C10  1  0.83916300  0.16083700  0.36007900  1
  C  C11  1  0.16083700  0.63992100  0.36007900  1
  C  C12  1  0.63992100  0.83916300  0.36007900  1
  C  C13  1  0.16083700  0.83916300  0.63992100  1
  C  C14  1  0.83916300  0.36007900  0.63992100  1
  C  C15  1  0.36007900  0.16083700  0.63992100  1
  C  C16  1  0.63992100  0.36007900  0.16083700  1
  C  C17  1  0.16083700  0.36007900  0.83916300  1
  C  C18  1  0.36007900  0.63992100  0.83916300  1
  C  C19  1  0.83916300  0.63992100  0.16083700  1
  C  C20  1  0.36007900  0.83916300  0.16083700  1
  C  C21  1  0.63992100  0.16083700  0.83916300  1
