# generated using pymatgen
data_Cu5Ni3C
_symmetry_space_group_name_H-M   'P 1'
_cell_length_a   5.78351179
_cell_length_b   5.78351179
_cell_length_c   7.98957900
_cell_angle_alpha   90.00000000
_cell_angle_beta   90.00000000
_cell_angle_gamma   81.63977020
_symmetry_Int_Tables_number   1
_chemical_formula_structural   Cu5Ni3C
_chemical_formula_sum   'Cu10 Ni6 C2'
_cell_volume   264.40363207
_cell_formula_units_Z   2
loop_
 _symmetry_equiv_pos_site_id
 _symmetry_equiv_pos_as_xyz
  1  'x, y, z'
loop_
 _atom_site_type_symbol
 _atom_site_label
 _atom_site_symmetry_multiplicity
 _atom_site_fract_x
 _atom_site_fract_y
 _atom_site_fract_z
 _atom_site_occupancy
  C  C0  1  0.23029000  0.23029000  0.25000000  1
  C  C1  1  0.76971000  0.76971000  0.75000000  1
  Ni  Ni2  1  0.78323600  0.78323600  0.25000000  1
  Ni  Ni3  1  0.21676400  0.21676400  0.75000000  1
  Ni  Ni4  1  0.27002700  0.72997300  0.00000000  1
  Ni  Ni5  1  0.72997300  0.27002700  0.00000000  1
  Ni  Ni6  1  0.72997300  0.27002700  0.50000000  1
  Ni  Ni7  1  0.27002700  0.72997300  0.50000000  1
  Cu  Cu8  1  0.56597300  0.14365600  0.25000000  1
  Cu  Cu9  1  0.43402700  0.85634400  0.75000000  1
  Cu  Cu10  1  0.14365600  0.56597300  0.25000000  1
  Cu  Cu11  1  0.85634400  0.43402700  0.75000000  1
  Cu  Cu12  1  0.01204900  0.01204900  0.25000000  1
  Cu  Cu13  1  0.98795100  0.98795100  0.75000000  1
  Cu  Cu14  1  0.21203000  0.21203000  0.00692000  1
  Cu  Cu15  1  0.78797000  0.78797000  0.99308000  1
  Cu  Cu16  1  0.78797000  0.78797000  0.50692000  1
  Cu  Cu17  1  0.21203000  0.21203000  0.49308000  1
