# generated using pymatgen
data_Cu2NiC5
_symmetry_space_group_name_H-M   'P 1'
_cell_length_a   7.25689000
_cell_length_b   7.97914468
_cell_length_c   8.40403632
_cell_angle_alpha   107.27315322
_cell_angle_beta   90.00000000
_cell_angle_gamma   90.00000000
_symmetry_Int_Tables_number   1
_chemical_formula_structural   Cu2NiC5
_chemical_formula_sum   'Cu8 Ni4 C20'
_cell_volume   464.67864012
_cell_formula_units_Z   4
loop_
 _symmetry_equiv_pos_site_id
 _symmetry_equiv_pos_as_xyz
  1  'x, y, z'
loop_
 _atom_site_type_symbol
 _atom_site_label
 _atom_site_symmetry_multiplicity
 _atom_site_fract_x
 _atom_site_fract_y
 _atom_site_fract_z
 _atom_site_occupancy
  C  C0  1  0.86103800  0.60075700  0.83704900  1
  C  C1  1  0.36103800  0.39924300  0.66295100  1
  C  C2  1  0.13896200  0.39924300  0.16295100  1
  C  C3  1  0.63896200  0.60075700  0.33704900  1
  Ni  Ni4  1  0.67241200  0.21915200  0.99372700  1
  Ni  Ni5  1  0.17241200  0.78084800  0.50627300  1
  Ni  Ni6  1  0.32758800  0.78084800  0.00627300  1
  Ni  Ni7  1  0.82758800  0.21915200  0.49372700  1
  Cu  Cu8  1  0.94260500  0.80629100  0.20494000  1
  Cu  Cu9  1  0.44260500  0.19370900  0.29506000  1
  Cu  Cu10  1  0.05739500  0.19370900  0.79506000  1
  Cu  Cu11  1  0.55739500  0.80629100  0.70494000  1
  Cu  Cu12  1  0.91404500  0.98624000  0.16136900  1
  Cu  Cu13  1  0.41404500  0.01376000  0.33863100  1
  Cu  Cu14  1  0.08595500  0.01376000  0.83863100  1
  Cu  Cu15  1  0.58595500  0.98624000  0.66136900  1
  C  C16  1  0.80293200  0.43526100  0.05032400  1
  C  C17  1  0.30293200  0.56473900  0.44967600  1
  C  C18  1  0.19706800  0.56473900  0.94967600  1
  C  C19  1  0.69706800  0.43526100  0.55032400  1
  C  C20  1  0.47731600  0.30611700  0.14804800  1
  C  C21  1  0.97731600  0.69388300  0.35195200  1
  C  C22  1  0.52268400  0.69388300  0.85195200  1
  C  C23  1  0.02268400  0.30611700  0.64804800  1
  C  C24  1  0.57245200  0.22149000  0.78677600  1
  C  C25  1  0.07245200  0.77851000  0.71322400  1
  C  C26  1  0.42754800  0.77851000  0.21322400  1
  C  C27  1  0.92754800  0.22149000  0.28677600  1
  C  C28  1  0.91260600  0.85604900  0.11214000  1
  C  C29  1  0.41260600  0.14395100  0.38786000  1
  C  C30  1  0.08739400  0.14395100  0.88786000  1
  C  C31  1  0.58739400  0.85604900  0.61214000  1
