# generated using pymatgen
data_Cu6NiC23
_symmetry_space_group_name_H-M   'P 1'
_cell_length_a   9.60016600
_cell_length_b   11.28048100
_cell_length_c   19.82058828
_cell_angle_alpha   57.68107194
_cell_angle_beta   90.00000000
_cell_angle_gamma   90.00000000
_symmetry_Int_Tables_number   1
_chemical_formula_structural   Cu6NiC23
_chemical_formula_sum   'Cu24 Ni4 C92'
_cell_volume   1813.94213180
_cell_formula_units_Z   4
loop_
 _symmetry_equiv_pos_site_id
 _symmetry_equiv_pos_as_xyz
  1  'x, y, z'
loop_
 _atom_site_type_symbol
 _atom_site_label
 _atom_site_symmetry_multiplicity
 _atom_site_fract_x
 _atom_site_fract_y
 _atom_site_fract_z
 _atom_site_occupancy
  C  C0  1  0.50976900  0.20178300  0.36146000  1
  C  C1  1  0.99023100  0.20178300  0.86146000  1
  C  C2  1  0.49023100  0.79821700  0.63854000  1
  C  C3  1  0.00976900  0.79821700  0.13854000  1
  C  C4  1  0.49809500  0.77826000  0.31472300  1
  C  C5  1  0.00190500  0.77826000  0.81472300  1
  C  C6  1  0.50190500  0.22174000  0.68527700  1
  C  C7  1  0.99809500  0.22174000  0.18527700  1
  Ni  Ni8  1  0.49878600  0.73041400  0.00273200  1
  Ni  Ni9  1  0.00121400  0.73041400  0.50273200  1
  Ni  Ni10  1  0.50121400  0.26958600  0.99726800  1
  Ni  Ni11  1  0.99878600  0.26958600  0.49726800  1
  Cu  Cu12  1  0.75783900  0.45487800  0.39647300  1
  Cu  Cu13  1  0.74216100  0.45487800  0.89647300  1
  Cu  Cu14  1  0.24216100  0.54512200  0.60352700  1
  Cu  Cu15  1  0.25783900  0.54512200  0.10352700  1
  Cu  Cu16  1  0.21625700  0.94627400  0.38140100  1
  Cu  Cu17  1  0.28374300  0.94627400  0.88140100  1
  Cu  Cu18  1  0.78374300  0.05372600  0.61859900  1
  Cu  Cu19  1  0.71625700  0.05372600  0.11859900  1
  Cu  Cu20  1  0.42143200  0.67047700  0.17056500  1
  Cu  Cu21  1  0.07856800  0.67047700  0.67056500  1
  Cu  Cu22  1  0.57856800  0.32952300  0.82943500  1
  Cu  Cu23  1  0.92143200  0.32952300  0.32943500  1
  Cu  Cu24  1  0.71391100  0.88041600  0.44716600  1
  Cu  Cu25  1  0.78608900  0.88041600  0.94716600  1
  Cu  Cu26  1  0.28608900  0.11958400  0.55283400  1
  Cu  Cu27  1  0.21391100  0.11958400  0.05283400  1
  Cu  Cu28  1  0.53386400  0.19376100  0.16926900  1
  Cu  Cu29  1  0.96613600  0.19376100  0.66926900  1
  Cu  Cu30  1  0.46613600  0.80623900  0.83073100  1
  Cu  Cu31  1  0.03386400  0.80623900  0.33073100  1
  Cu  Cu32  1  0.27721700  0.41235200  0.42972900  1
  Cu  Cu33  1  0.22278300  0.41235200  0.92972900  1
  Cu  Cu34  1  0.72278300  0.58764800  0.57027100  1
  Cu  Cu35  1  0.77721700  0.58764800  0.07027100  1
  C  C36  1  0.45323800  0.06776800  0.21336300  1
  C  C37  1  0.04676200  0.06776800  0.71336300  1
  C  C38  1  0.54676200  0.93223200  0.78663700  1
  C  C39  1  0.95323800  0.93223200  0.28663700  1
  C  C40  1  0.86903400  0.86374500  0.46526000  1
  C  C41  1  0.63096600  0.86374500  0.96526000  1
  C  C42  1  0.13096600  0.13625500  0.53474000  1
  C  C43  1  0.36903400  0.13625500  0.03474000  1
  C  C44  1  0.48707100  0.28448500  0.08274300  1
  C  C45  1  0.01292900  0.28448500  0.58274300  1
  C  C46  1  0.51292900  0.71551500  0.91725700  1
  C  C47  1  0.98707100  0.71551500  0.41725700  1
  C  C48  1  0.72335400  0.59649700  0.36996900  1
  C  C49  1  0.77664600  0.59649700  0.86996900  1
  C  C50  1  0.27664600  0.40350300  0.63003100  1
  C  C51  1  0.22335400  0.40350300  0.13003100  1
  C  C52  1  0.12691100  0.86975100  0.45607000  1
  C  C53  1  0.37308900  0.86975100  0.95607000  1
  C  C54  1  0.87308900  0.13024900  0.54393000  1
  C  C55  1  0.62691100  0.13024900  0.04393000  1
  C  C56  1  0.66022500  0.71771700  0.48341400  1
  C  C57  1  0.83977500  0.71771700  0.98341400  1
  C  C58  1  0.33977500  0.28228300  0.51658600  1
  C  C59  1  0.16022500  0.28228300  0.01658600  1
  C  C60  1  0.55711000  0.27878300  0.20173500  1
  C  C61  1  0.94289000  0.27878300  0.70173500  1
  C  C62  1  0.44289000  0.72121700  0.79826500  1
  C  C63  1  0.05711000  0.72121700  0.29826500  1
  C  C64  1  0.48763300  0.74501000  0.08789300  1
  C  C65  1  0.01236700  0.74501000  0.58789300  1
  C  C66  1  0.51236700  0.25499000  0.91210700  1
  C  C67  1  0.98763300  0.25499000  0.41210700  1
  C  C68  1  0.68401300  0.94702000  0.36377500  1
  C  C69  1  0.81598700  0.94702000  0.86377500  1
  C  C70  1  0.31598700  0.05298000  0.63622500  1
  C  C71  1  0.18401300  0.05298000  0.13622500  1
  C  C72  1  0.12319900  0.40915200  0.44948800  1
  C  C73  1  0.37680100  0.40915200  0.94948800  1
  C  C74  1  0.87680100  0.59084800  0.55051200  1
  C  C75  1  0.62319900  0.59084800  0.05051200  1
  C  C76  1  0.34981800  0.52961300  0.17840700  1
  C  C77  1  0.15018200  0.52961300  0.67840700  1
  C  C78  1  0.65018200  0.47038700  0.82159300  1
  C  C79  1  0.84981800  0.47038700  0.32159300  1
  C  C80  1  0.64936000  0.35417900  0.41579700  1
  C  C81  1  0.85064000  0.35417900  0.91579700  1
  C  C82  1  0.35064000  0.64582100  0.58420300  1
  C  C83  1  0.14936000  0.64582100  0.08420300  1
  C  C84  1  0.36189200  0.92809900  0.40017400  1
  C  C85  1  0.13810800  0.92809900  0.90017400  1
  C  C86  1  0.63810800  0.07190100  0.59982600  1
  C  C87  1  0.86189200  0.07190100  0.09982600  1
  C  C88  1  0.34096900  0.53418000  0.42117100  1
  C  C89  1  0.15903100  0.53418000  0.92117100  1
  C  C90  1  0.65903100  0.46582000  0.57882900  1
  C  C91  1  0.84096900  0.46582000  0.07882900  1
  C  C92  1  0.52385300  0.61190000  0.23251700  1
  C  C93  1  0.97614700  0.61190000  0.73251700  1
  C  C94  1  0.47614700  0.38810000  0.76748300  1
  C  C95  1  0.02385300  0.38810000  0.26748300  1
  C  C96  1  0.16471000  0.08533200  0.32719000  1
  C  C97  1  0.33529000  0.08533200  0.82719000  1
  C  C98  1  0.83529000  0.91466800  0.67281000  1
  C  C99  1  0.66471000  0.91466800  0.17281000  1
  C  C100  1  0.19419600  0.85118600  0.34071600  1
  C  C101  1  0.30580400  0.85118600  0.84071600  1
  C  C102  1  0.80580400  0.14881400  0.65928400  1
  C  C103  1  0.69419600  0.14881400  0.15928400  1
  C  C104  1  0.86692600  0.40074100  0.46258200  1
  C  C105  1  0.63307400  0.40074100  0.96258200  1
  C  C106  1  0.13307400  0.59925900  0.53741800  1
  C  C107  1  0.36692600  0.59925900  0.03741800  1
  C  C108  1  0.64694500  0.93392500  0.49051500  1
  C  C109  1  0.85305500  0.93392500  0.99051500  1
  C  C110  1  0.35305500  0.06607500  0.50948500  1
  C  C111  1  0.14694500  0.06607500  0.00948500  1
  C  C112  1  0.30097600  0.37609300  0.37152900  1
  C  C113  1  0.19902400  0.37609300  0.87152900  1
  C  C114  1  0.69902400  0.62390700  0.62847100  1
  C  C115  1  0.80097600  0.62390700  0.12847100  1
  C  C116  1  0.31278300  0.75526500  0.17353900  1
  C  C117  1  0.18721700  0.75526500  0.67353900  1
  C  C118  1  0.68721700  0.24473500  0.82646100  1
  C  C119  1  0.81278300  0.24473500  0.32646100  1
