# generated using pymatgen
data_Cu6Ni9C2
_symmetry_space_group_name_H-M   'P 1'
_cell_length_a   15.58432882
_cell_length_b   15.58432882
_cell_length_c   15.58432882
_cell_angle_alpha   131.63993606
_cell_angle_beta   131.63993606
_cell_angle_gamma   70.79830668
_symmetry_Int_Tables_number   1
_chemical_formula_structural   Cu6Ni9C2
_chemical_formula_sum   'Cu24 Ni36 C8'
_cell_volume   2070.54814712
_cell_formula_units_Z   4
loop_
 _symmetry_equiv_pos_site_id
 _symmetry_equiv_pos_as_xyz
  1  'x, y, z'
loop_
 _atom_site_type_symbol
 _atom_site_label
 _atom_site_symmetry_multiplicity
 _atom_site_fract_x
 _atom_site_fract_y
 _atom_site_fract_z
 _atom_site_occupancy
  C  C0  1  0.62359100  0.15484200  0.74456700  1
  C  C1  1  0.41027500  0.87902500  0.25543300  1
  C  C2  1  0.62902500  0.87359100  0.96874900  1
  C  C3  1  0.90484200  0.66027500  0.03125100  1
  C  C4  1  0.12640900  0.09515800  0.75543300  1
  C  C5  1  0.33972500  0.37097500  0.24456700  1
  C  C6  1  0.12097500  0.37640900  0.53125100  1
  C  C7  1  0.84515800  0.58972500  0.46874900  1
  Ni  Ni8  1  0.68893400  0.12999200  0.62679000  1
  Ni  Ni9  1  0.50320200  0.06214400  0.37321000  1
  Ni  Ni10  1  0.81214400  0.93893400  0.05894200  1
  Ni  Ni11  1  0.87999200  0.75320200  0.94105800  1
  Ni  Ni12  1  0.06106600  0.12000800  0.87321000  1
  Ni  Ni13  1  0.24679800  0.18785600  0.12679000  1
  Ni  Ni14  1  0.93785600  0.31106600  0.44105800  1
  Ni  Ni15  1  0.87000800  0.49679800  0.55894200  1
  Ni  Ni16  1  0.74767800  0.94281700  0.52679200  1
  Ni  Ni17  1  0.41602500  0.22088600  0.47320800  1
  Ni  Ni18  1  0.97088600  0.99767800  0.30486100  1
  Ni  Ni19  1  0.69281700  0.66602500  0.69513900  1
  Ni  Ni20  1  0.00232200  0.30718300  0.97320800  1
  Ni  Ni21  1  0.33397500  0.02911400  0.02679200  1
  Ni  Ni22  1  0.77911400  0.25232200  0.19513900  1
  Ni  Ni23  1  0.05718300  0.58397500  0.80486100  1
  Ni  Ni24  1  0.57708600  0.83215700  0.40815700  1
  Ni  Ni25  1  0.42399900  0.16892900  0.59184300  1
  Ni  Ni26  1  0.91892900  0.82708600  0.24492900  1
  Ni  Ni27  1  0.58215700  0.67399900  0.75507100  1
  Ni  Ni28  1  0.17291400  0.41784300  0.09184300  1
  Ni  Ni29  1  0.32600100  0.08107100  0.90815700  1
  Ni  Ni30  1  0.83107100  0.42291400  0.25507100  1
  Ni  Ni31  1  0.16784300  0.57600100  0.74492900  1
  Ni  Ni32  1  0.59505500  0.95443800  0.63977300  1
  Ni  Ni33  1  0.31466500  0.95528200  0.36022700  1
  Ni  Ni34  1  0.70528200  0.84505500  0.14061700  1
  Ni  Ni35  1  0.70443800  0.56466500  0.85938300  1
  Ni  Ni36  1  0.15494500  0.29556200  0.86022700  1
  Ni  Ni37  1  0.43533500  0.29471800  0.13977300  1
  Ni  Ni38  1  0.04471800  0.40494500  0.35938300  1
  Ni  Ni39  1  0.04556200  0.68533500  0.64061700  1
  Ni  Ni40  1  0.39227800  0.89227800  0.50000000  1
  Ni  Ni41  1  0.64227800  0.64227800  0.00000000  1
  Ni  Ni42  1  0.35772200  0.35772200  0.00000000  1
  Ni  Ni43  1  0.10772200  0.60772200  0.50000000  1
  Cu  Cu44  1  0.56750300  0.21090300  0.89540900  1
  Cu  Cu45  1  0.31549400  0.67209400  0.10459100  1
  Cu  Cu46  1  0.42209400  0.81750300  0.85660000  1
  Cu  Cu47  1  0.96090300  0.56549400  0.14340000  1
  Cu  Cu48  1  0.18249700  0.03909700  0.60459100  1
  Cu  Cu49  1  0.43450600  0.57790600  0.39540900  1
  Cu  Cu50  1  0.32790600  0.43249700  0.64340000  1
  Cu  Cu51  1  0.78909700  0.68450600  0.35660000  1
  Cu  Cu52  1  0.68091300  0.37316800  0.89475000  1
  Cu  Cu53  1  0.47841800  0.78616300  0.10525000  1
  Cu  Cu54  1  0.53616300  0.93091300  0.80774500  1
  Cu  Cu55  1  0.12316800  0.72841800  0.19225500  1
  Cu  Cu56  1  0.06908700  0.87683200  0.60525000  1
  Cu  Cu57  1  0.27158200  0.46383700  0.39475000  1
  Cu  Cu58  1  0.21383700  0.31908700  0.69225500  1
  Cu  Cu59  1  0.62683200  0.52158200  0.30774500  1
  Cu  Cu60  1  0.83684700  0.15897300  0.93392000  1
  Cu  Cu61  1  0.22505300  0.90292800  0.06608000  1
  Cu  Cu62  1  0.65292800  0.08684700  0.17787400  1
  Cu  Cu63  1  0.90897300  0.47505300  0.82212600  1
  Cu  Cu64  1  0.91315300  0.09102700  0.56608000  1
  Cu  Cu65  1  0.52494700  0.34707200  0.43392000  1
  Cu  Cu66  1  0.09707200  0.16315300  0.32212600  1
  Cu  Cu67  1  0.84102700  0.77494700  0.67787400  1
