# generated using pymatgen
data_Cu(NiC2)3
_symmetry_space_group_name_H-M   'P 1'
_cell_length_a   6.05617664
_cell_length_b   6.05617664
_cell_length_c   12.64023500
_cell_angle_alpha   90.00000000
_cell_angle_beta   90.00000000
_cell_angle_gamma   120.00000695
_symmetry_Int_Tables_number   1
_chemical_formula_structural   Cu(NiC2)3
_chemical_formula_sum   'Cu2 Ni6 C12'
_cell_volume   401.49747308
_cell_formula_units_Z   2
loop_
 _symmetry_equiv_pos_site_id
 _symmetry_equiv_pos_as_xyz
  1  'x, y, z'
loop_
 _atom_site_type_symbol
 _atom_site_label
 _atom_site_symmetry_multiplicity
 _atom_site_fract_x
 _atom_site_fract_y
 _atom_site_fract_z
 _atom_site_occupancy
  Ni  Ni0  1  0.00000000  0.00000000  0.50000000  1
  Ni  Ni1  1  0.00000000  0.00000000  0.00000000  1
  Ni  Ni2  1  0.33333300  0.66666700  0.00108100  1
  Ni  Ni3  1  0.66666700  0.33333300  0.99891900  1
  Ni  Ni4  1  0.66666700  0.33333300  0.50108100  1
  Ni  Ni5  1  0.33333300  0.66666700  0.49891900  1
  Cu  Cu6  1  0.33333300  0.66666700  0.25000000  1
  Cu  Cu7  1  0.66666700  0.33333300  0.75000000  1
  C  C8  1  0.33295100  0.32911600  0.36679500  1
  C  C9  1  0.67088400  0.00383500  0.36679500  1
  C  C10  1  0.99616500  0.66704900  0.36679500  1
  C  C11  1  0.32911600  0.33295100  0.63320500  1
  C  C12  1  0.00383500  0.67088400  0.63320500  1
  C  C13  1  0.66704900  0.99616500  0.63320500  1
  C  C14  1  0.66704900  0.67088400  0.86679500  1
  C  C15  1  0.32911600  0.99616500  0.86679500  1
  C  C16  1  0.00383500  0.33295100  0.86679500  1
  C  C17  1  0.67088400  0.66704900  0.13320500  1
  C  C18  1  0.99616500  0.32911600  0.13320500  1
  C  C19  1  0.33295100  0.00383500  0.13320500  1
