# generated using pymatgen
data_Cu3Ni3C2
_symmetry_space_group_name_H-M   'P 1'
_cell_length_a   15.83699100
_cell_length_b   7.99273300
_cell_length_c   13.24661755
_cell_angle_alpha   53.79768122
_cell_angle_beta   90.00000000
_cell_angle_gamma   90.00000000
_symmetry_Int_Tables_number   1
_chemical_formula_structural   Cu3Ni3C2
_chemical_formula_sum   'Cu24 Ni24 C16'
_cell_volume   1353.04513642
_cell_formula_units_Z   8
loop_
 _symmetry_equiv_pos_site_id
 _symmetry_equiv_pos_as_xyz
  1  'x, y, z'
loop_
 _atom_site_type_symbol
 _atom_site_label
 _atom_site_symmetry_multiplicity
 _atom_site_fract_x
 _atom_site_fract_y
 _atom_site_fract_z
 _atom_site_occupancy
  C  C0  1  0.22072200  0.40890200  0.61295500  1
  C  C1  1  0.72072200  0.59109800  0.88704500  1
  C  C2  1  0.77927800  0.59109800  0.38704500  1
  C  C3  1  0.27927800  0.40890200  0.11295500  1
  C  C4  1  0.21899700  0.97190600  0.59247700  1
  C  C5  1  0.71899700  0.02809400  0.90752300  1
  C  C6  1  0.78100300  0.02809400  0.40752300  1
  C  C7  1  0.28100300  0.97190600  0.09247700  1
  C  C8  1  0.45548400  0.73402100  0.61991800  1
  C  C9  1  0.95548400  0.26597900  0.88008200  1
  C  C10  1  0.54451600  0.26597900  0.38008200  1
  C  C11  1  0.04451600  0.73402100  0.11991800  1
  C  C12  1  0.43574800  0.28003900  0.63916600  1
  C  C13  1  0.93574800  0.71996100  0.86083400  1
  C  C14  1  0.56425200  0.71996100  0.36083400  1
  C  C15  1  0.06425200  0.28003900  0.13916600  1
  Ni  Ni16  1  0.24165100  0.23973000  0.71106500  1
  Ni  Ni17  1  0.74165100  0.76027000  0.78893500  1
  Ni  Ni18  1  0.75834900  0.76027000  0.28893500  1
  Ni  Ni19  1  0.25834900  0.23973000  0.21106500  1
  Ni  Ni20  1  0.22600600  0.61173400  0.49585600  1
  Ni  Ni21  1  0.72600600  0.38826600  0.00414400  1
  Ni  Ni22  1  0.77399400  0.38826600  0.50414400  1
  Ni  Ni23  1  0.27399400  0.61173400  0.99585600  1
  Ni  Ni24  1  0.15347100  0.54478300  0.54587200  1
  Ni  Ni25  1  0.65347100  0.45521700  0.95412800  1
  Ni  Ni26  1  0.84652900  0.45521700  0.45412800  1
  Ni  Ni27  1  0.34652900  0.54478300  0.04587200  1
  Ni  Ni28  1  0.01302900  0.09245000  0.62828700  1
  Ni  Ni29  1  0.51302900  0.90755000  0.87171300  1
  Ni  Ni30  1  0.98697100  0.90755000  0.37171300  1
  Ni  Ni31  1  0.48697100  0.09245000  0.12828700  1
  Ni  Ni32  1  0.20066400  0.80688700  0.69298200  1
  Ni  Ni33  1  0.70066400  0.19311300  0.80701800  1
  Ni  Ni34  1  0.79933600  0.19311300  0.30701800  1
  Ni  Ni35  1  0.29933600  0.80688700  0.19298200  1
  Ni  Ni36  1  0.23564700  0.14019200  0.49213000  1
  Ni  Ni37  1  0.73564700  0.85980800  0.00787000  1
  Ni  Ni38  1  0.76435300  0.85980800  0.50787000  1
  Ni  Ni39  1  0.26435300  0.14019200  0.99213000  1
  Cu  Cu40  1  0.37508300  0.57246100  0.73176200  1
  Cu  Cu41  1  0.87508300  0.42753900  0.76823800  1
  Cu  Cu42  1  0.62491700  0.42753900  0.26823800  1
  Cu  Cu43  1  0.12491700  0.57246100  0.23176200  1
  Cu  Cu44  1  0.41087100  0.99230000  0.52925900  1
  Cu  Cu45  1  0.91087100  0.00770000  0.97074100  1
  Cu  Cu46  1  0.58912900  0.00770000  0.47074100  1
  Cu  Cu47  1  0.08912900  0.99230000  0.02925900  1
  Cu  Cu48  1  0.43633200  0.65610300  0.50710000  1
  Cu  Cu49  1  0.93633200  0.34389700  0.99290000  1
  Cu  Cu50  1  0.56366800  0.34389700  0.49290000  1
  Cu  Cu51  1  0.06366800  0.65610300  0.00710000  1
  Cu  Cu52  1  0.52052800  0.03964000  0.88771800  1
  Cu  Cu53  1  0.02052800  0.96036000  0.61228200  1
  Cu  Cu54  1  0.47947200  0.96036000  0.11228200  1
  Cu  Cu55  1  0.97947200  0.03964000  0.38771800  1
  Cu  Cu56  1  0.31632900  0.15428800  0.75278000  1
  Cu  Cu57  1  0.81632900  0.84571200  0.74722000  1
  Cu  Cu58  1  0.68367100  0.84571200  0.24722000  1
  Cu  Cu59  1  0.18367100  0.15428800  0.25278000  1
  Cu  Cu60  1  0.47297700  0.95642300  0.76671400  1
  Cu  Cu61  1  0.97297700  0.04357700  0.73328600  1
  Cu  Cu62  1  0.52702300  0.04357700  0.23328600  1
  Cu  Cu63  1  0.02702300  0.95642300  0.26671400  1
