# generated using pymatgen
data_Cu2(NiC5)3
_symmetry_space_group_name_H-M   'P 1'
_cell_length_a   11.27487653
_cell_length_b   11.27487653
_cell_length_c   11.27487653
_cell_angle_alpha   109.47122063
_cell_angle_beta   109.47122063
_cell_angle_gamma   109.47122063
_symmetry_Int_Tables_number   1
_chemical_formula_structural   Cu2(NiC5)3
_chemical_formula_sum   'Cu8 Ni12 C60'
_cell_volume   1103.35049275
_cell_formula_units_Z   4
loop_
 _symmetry_equiv_pos_site_id
 _symmetry_equiv_pos_as_xyz
  1  'x, y, z'
loop_
 _atom_site_type_symbol
 _atom_site_label
 _atom_site_symmetry_multiplicity
 _atom_site_fract_x
 _atom_site_fract_y
 _atom_site_fract_z
 _atom_site_occupancy
  C  C0  1  0.25000000  0.87500000  0.62500000  1
  C  C1  1  0.75000000  0.62500000  0.87500000  1
  C  C2  1  0.62500000  0.87500000  0.75000000  1
  C  C3  1  0.87500000  0.62500000  0.25000000  1
  C  C4  1  0.62500000  0.25000000  0.87500000  1
  C  C5  1  0.87500000  0.75000000  0.62500000  1
  C  C6  1  0.75000000  0.12500000  0.37500000  1
  C  C7  1  0.25000000  0.37500000  0.12500000  1
  C  C8  1  0.37500000  0.12500000  0.25000000  1
  C  C9  1  0.12500000  0.37500000  0.75000000  1
  C  C10  1  0.37500000  0.75000000  0.12500000  1
  C  C11  1  0.12500000  0.25000000  0.37500000  1
  Ni  Ni12  1  0.12500000  0.75000000  0.87500000  1
  Ni  Ni13  1  0.87500000  0.25000000  0.12500000  1
  Ni  Ni14  1  0.62500000  0.37500000  0.25000000  1
  Ni  Ni15  1  0.75000000  0.87500000  0.12500000  1
  Ni  Ni16  1  0.87500000  0.12500000  0.75000000  1
  Ni  Ni17  1  0.25000000  0.62500000  0.37500000  1
  Ni  Ni18  1  0.75000000  0.37500000  0.62500000  1
  Ni  Ni19  1  0.25000000  0.12500000  0.87500000  1
  Ni  Ni20  1  0.12500000  0.87500000  0.25000000  1
  Ni  Ni21  1  0.37500000  0.62500000  0.75000000  1
  Ni  Ni22  1  0.62500000  0.75000000  0.37500000  1
  Ni  Ni23  1  0.37500000  0.25000000  0.62500000  1
  Cu  Cu24  1  0.50000000  0.50000000  0.50000000  1
  Cu  Cu25  1  0.50000000  0.00000000  0.50000000  1
  Cu  Cu26  1  0.00000000  0.50000000  0.50000000  1
  Cu  Cu27  1  0.50000000  0.50000000  0.00000000  1
  Cu  Cu28  1  0.00000000  0.00000000  0.50000000  1
  Cu  Cu29  1  0.00000000  0.50000000  0.00000000  1
  Cu  Cu30  1  0.50000000  0.00000000  0.00000000  1
  Cu  Cu31  1  0.00000000  0.00000000  0.00000000  1
  C  C32  1  0.40796600  0.80299000  0.78081200  1
  C  C33  1  0.87284700  0.39502500  0.09203400  1
  C  C34  1  0.10497500  0.97782200  0.69701000  1
  C  C35  1  0.52217800  0.62715300  0.71918800  1
  C  C36  1  0.69701000  0.09203400  0.71918800  1
  C  C37  1  0.62715300  0.71918800  0.52217800  1
  C  C38  1  0.62715300  0.40796600  0.10497500  1
  C  C39  1  0.71918800  0.52217800  0.62715300  1
  C  C40  1  0.80299000  0.52217800  0.39502500  1
  C  C41  1  0.97782200  0.78081200  0.87284700  1
  C  C42  1  0.78081200  0.87284700  0.97782200  1
  C  C43  1  0.71918800  0.69701000  0.09203400  1
  C  C44  1  0.40796600  0.10497500  0.62715300  1
  C  C45  1  0.39502500  0.80299000  0.52217800  1
  C  C46  1  0.09203400  0.71918800  0.69701000  1
  C  C47  1  0.10497500  0.62715300  0.40796600  1
  C  C48  1  0.52217800  0.39502500  0.80299000  1
  C  C49  1  0.09203400  0.87284700  0.39502500  1
  C  C50  1  0.97782200  0.69701000  0.10497500  1
  C  C51  1  0.19701000  0.47782200  0.60497500  1
  C  C52  1  0.69701000  0.10497500  0.97782200  1
  C  C53  1  0.78081200  0.40796600  0.80299000  1
  C  C54  1  0.39502500  0.09203400  0.87284700  1
  C  C55  1  0.87284700  0.97782200  0.78081200  1
  C  C56  1  0.59203400  0.19701000  0.21918800  1
  C  C57  1  0.12715300  0.60497500  0.90796600  1
  C  C58  1  0.89502500  0.02217800  0.30299000  1
  C  C59  1  0.47782200  0.37284700  0.28081200  1
  C  C60  1  0.30299000  0.90796600  0.28081200  1
  C  C61  1  0.37284700  0.28081200  0.47782200  1
  C  C62  1  0.37284700  0.59203400  0.89502500  1
  C  C63  1  0.28081200  0.47782200  0.37284700  1
  C  C64  1  0.12715300  0.02217800  0.21918800  1
  C  C65  1  0.60497500  0.90796600  0.12715300  1
  C  C66  1  0.21918800  0.59203400  0.19701000  1
  C  C67  1  0.19701000  0.21918800  0.59203400  1
  C  C68  1  0.30299000  0.89502500  0.02217800  1
  C  C69  1  0.02217800  0.30299000  0.89502500  1
  C  C70  1  0.90796600  0.12715300  0.60497500  1
  C  C71  1  0.47782200  0.60497500  0.19701000  1
  C  C72  1  0.89502500  0.37284700  0.59203400  1
  C  C73  1  0.90796600  0.28081200  0.30299000  1
  C  C74  1  0.60497500  0.19701000  0.47782200  1
  C  C75  1  0.59203400  0.89502500  0.37284700  1
  C  C76  1  0.28081200  0.30299000  0.90796600  1
  C  C77  1  0.21918800  0.12715300  0.02217800  1
  C  C78  1  0.02217800  0.21918800  0.12715300  1
  C  C79  1  0.80299000  0.78081200  0.40796600  1
