# generated using pymatgen
data_CuNi12C11
_symmetry_space_group_name_H-M   'P 1'
_cell_length_a   6.20183679
_cell_length_b   6.20183679
_cell_length_c   24.60302795
_cell_angle_alpha   81.84964606
_cell_angle_beta   81.84964606
_cell_angle_gamma   70.81196249
_symmetry_Int_Tables_number   1
_chemical_formula_structural   CuNi12C11
_chemical_formula_sum   'Cu4 Ni48 C44'
_cell_volume   880.10562911
_cell_formula_units_Z   4
loop_
 _symmetry_equiv_pos_site_id
 _symmetry_equiv_pos_as_xyz
  1  'x, y, z'
loop_
 _atom_site_type_symbol
 _atom_site_label
 _atom_site_symmetry_multiplicity
 _atom_site_fract_x
 _atom_site_fract_y
 _atom_site_fract_z
 _atom_site_occupancy
  C  C0  1  0.50000000  0.50000000  0.50000000  1
  C  C1  1  0.50000000  0.50000000  0.00000000  1
  C  C2  1  0.54599400  0.45400600  0.25000000  1
  C  C3  1  0.45400600  0.54599400  0.75000000  1
  Ni  Ni4  1  0.47055800  0.83823600  0.42138700  1
  Ni  Ni5  1  0.16176400  0.52944200  0.07861300  1
  Ni  Ni6  1  0.52944200  0.16176400  0.57861300  1
  Ni  Ni7  1  0.83823600  0.47055800  0.92138700  1
  Ni  Ni8  1  0.21303800  0.85046000  0.44488600  1
  Ni  Ni9  1  0.14954000  0.78696200  0.05511400  1
  Ni  Ni10  1  0.78696200  0.14954000  0.55511400  1
  Ni  Ni11  1  0.85046000  0.21303800  0.94488600  1
  Ni  Ni12  1  0.16560900  0.43751000  0.44750200  1
  Ni  Ni13  1  0.56249000  0.83439100  0.05249800  1
  Ni  Ni14  1  0.83439100  0.56249000  0.55249800  1
  Ni  Ni15  1  0.43751000  0.16560900  0.94750200  1
  Ni  Ni16  1  0.19887700  0.25707600  0.50214700  1
  Ni  Ni17  1  0.74292400  0.80112300  0.99785300  1
  Ni  Ni18  1  0.80112300  0.74292400  0.49785300  1
  Ni  Ni19  1  0.25707600  0.19887700  0.00214700  1
  Ni  Ni20  1  0.81466600  0.43569500  0.41147200  1
  Ni  Ni21  1  0.56430500  0.18533400  0.08852800  1
  Ni  Ni22  1  0.18533400  0.56430500  0.58852800  1
  Ni  Ni23  1  0.43569500  0.81466600  0.91147200  1
  Ni  Ni24  1  0.77180400  0.19926800  0.43323000  1
  Ni  Ni25  1  0.80073200  0.22819600  0.06677000  1
  Ni  Ni26  1  0.22819600  0.80073200  0.56677000  1
  Ni  Ni27  1  0.19926800  0.77180400  0.93323000  1
  Ni  Ni28  1  0.30297200  0.83281300  0.29926800  1
  Ni  Ni29  1  0.16718700  0.69702800  0.20073200  1
  Ni  Ni30  1  0.69702800  0.16718700  0.70073200  1
  Ni  Ni31  1  0.83281300  0.30297200  0.79926800  1
  Ni  Ni32  1  0.56252800  0.76658800  0.30964700  1
  Ni  Ni33  1  0.23341200  0.43747200  0.19035300  1
  Ni  Ni34  1  0.43747200  0.23341200  0.69035300  1
  Ni  Ni35  1  0.76658800  0.56252800  0.80964700  1
  Ni  Ni36  1  0.81553100  0.50029800  0.15720800  1
  Ni  Ni37  1  0.49970200  0.18446900  0.34279200  1
  Ni  Ni38  1  0.18446900  0.49970200  0.84279200  1
  Ni  Ni39  1  0.50029800  0.81553100  0.65720800  1
  Ni  Ni40  1  0.59387700  0.72551000  0.15682400  1
  Ni  Ni41  1  0.27449000  0.40612300  0.34317600  1
  Ni  Ni42  1  0.40612300  0.27449000  0.84317600  1
  Ni  Ni43  1  0.72551000  0.59387700  0.65682400  1
  Ni  Ni44  1  0.97605300  0.42367200  0.26342600  1
  Ni  Ni45  1  0.57632800  0.02394700  0.23657400  1
  Ni  Ni46  1  0.02394700  0.57632800  0.73657400  1
  Ni  Ni47  1  0.42367200  0.97605300  0.76342600  1
  Ni  Ni48  1  0.92400500  0.20845900  0.29993500  1
  Ni  Ni49  1  0.79154100  0.07599500  0.20006500  1
  Ni  Ni50  1  0.07599500  0.79154100  0.70006500  1
  Ni  Ni51  1  0.20845900  0.92400500  0.79993500  1
  Cu  Cu52  1  0.91817700  0.82217000  0.37679100  1
  Cu  Cu53  1  0.17783000  0.08182300  0.12320900  1
  Cu  Cu54  1  0.08182300  0.17783000  0.62320900  1
  Cu  Cu55  1  0.82217000  0.91817700  0.87679100  1
  C  C56  1  0.37037400  0.81514600  0.45534700  1
  C  C57  1  0.18485400  0.62962600  0.04465300  1
  C  C58  1  0.62962600  0.18485400  0.54465300  1
  C  C59  1  0.81514600  0.37037400  0.95534700  1
  C  C60  1  0.25728700  0.37164200  0.47889400  1
  C  C61  1  0.62835800  0.74271300  0.02110600  1
  C  C62  1  0.74271300  0.62835800  0.52110600  1
  C  C63  1  0.37164200  0.25728700  0.97889400  1
  C  C64  1  0.69620600  0.36827300  0.42981000  1
  C  C65  1  0.63172700  0.30379400  0.07019000  1
  C  C66  1  0.30379400  0.63172700  0.57019000  1
  C  C67  1  0.36827300  0.69620600  0.92981000  1
  C  C68  1  0.46318900  0.77728700  0.28068700  1
  C  C69  1  0.22271300  0.53681100  0.21931300  1
  C  C70  1  0.53681100  0.22271300  0.71931300  1
  C  C71  1  0.77728700  0.46318900  0.78068700  1
  C  C72  1  0.69384000  0.60146100  0.18070400  1
  C  C73  1  0.39853900  0.30616000  0.31929600  1
  C  C74  1  0.30616000  0.39853900  0.81929600  1
  C  C75  1  0.60146100  0.69384000  0.68070400  1
  C  C76  1  0.85299500  0.36922100  0.28434100  1
  C  C77  1  0.63077900  0.14700500  0.21565900  1
  C  C78  1  0.14700500  0.63077900  0.71565900  1
  C  C79  1  0.36922100  0.85299500  0.78434100  1
  C  C80  1  0.03198700  0.56742200  0.38341300  1
  C  C81  1  0.43257800  0.96801300  0.11658700  1
  C  C82  1  0.96801300  0.43257800  0.61658700  1
  C  C83  1  0.56742200  0.03198700  0.88341300  1
  C  C84  1  0.67347500  0.87584000  0.36602900  1
  C  C85  1  0.12416000  0.32652500  0.13397100  1
  C  C86  1  0.32652500  0.12416000  0.63397100  1
  C  C87  1  0.87584000  0.67347500  0.86602900  1
  C  C88  1  0.92537000  0.91314000  0.42960800  1
  C  C89  1  0.08686000  0.07463000  0.07039200  1
  C  C90  1  0.07463000  0.08686000  0.57039200  1
  C  C91  1  0.91314000  0.92537000  0.92960800  1
  C  C92  1  0.03948200  0.92875400  0.32969000  1
  C  C93  1  0.07124600  0.96051800  0.17031000  1
  C  C94  1  0.96051800  0.07124600  0.67031000  1
  C  C95  1  0.92875400  0.03948200  0.82969000  1
