# generated using pymatgen
data_Cu5Ni2C25
_symmetry_space_group_name_H-M   'P 1'
_cell_length_a   10.15468592
_cell_length_b   10.15468592
_cell_length_c   5.21867230
_cell_angle_alpha   82.02833945
_cell_angle_beta   82.02833945
_cell_angle_gamma   32.81307130
_symmetry_Int_Tables_number   1
_chemical_formula_structural   Cu5Ni2C25
_chemical_formula_sum   'Cu5 Ni2 C25'
_cell_volume   288.55297767
_cell_formula_units_Z   1
loop_
 _symmetry_equiv_pos_site_id
 _symmetry_equiv_pos_as_xyz
  1  'x, y, z'
loop_
 _atom_site_type_symbol
 _atom_site_label
 _atom_site_symmetry_multiplicity
 _atom_site_fract_x
 _atom_site_fract_y
 _atom_site_fract_z
 _atom_site_occupancy
  C  C0  1  0.25225500  0.25225500  0.50725200  1
  C  C1  1  0.37166000  0.86756600  0.75441800  1
  C  C2  1  0.49678500  0.49678500  0.00525300  1
  C  C3  1  0.63407200  0.12884500  0.24059900  1
  C  C4  1  0.75446600  0.75446600  0.50218800  1
  C  C5  1  0.86756600  0.37166000  0.75441800  1
  C  C6  1  0.99604400  0.99604400  0.99363100  1
  C  C7  1  0.12884500  0.63407200  0.24059900  1
  C  C8  1  0.87676200  0.87676200  0.74669500  1
  Ni  Ni9  1  0.00029600  0.50285500  0.99537900  1
  Ni  Ni10  1  0.50285500  0.00029600  0.99537900  1
  Cu  Cu11  1  0.12168100  0.12168100  0.25862300  1
  Cu  Cu12  1  0.24698000  0.74619800  0.51157400  1
  Cu  Cu13  1  0.37556100  0.37556100  0.75140900  1
  Cu  Cu14  1  0.62382900  0.62382900  0.24925200  1
  Cu  Cu15  1  0.74619800  0.24698000  0.51157400  1
  C  C16  1  0.30270700  0.30270700  0.13072000  1
  C  C17  1  0.44368300  0.93019700  0.33368900  1
  C  C18  1  0.55950100  0.55950100  0.61531300  1
  C  C19  1  0.67059000  0.20146800  0.84862700  1
  C  C20  1  0.80424300  0.80424300  0.12434700  1
  C  C21  1  0.93019700  0.44368300  0.33368900  1
  C  C22  1  0.06286500  0.06286500  0.61582400  1
  C  C23  1  0.20146800  0.67059000  0.84862700  1
  C  C24  1  0.19342400  0.19342400  0.88635800  1
  C  C25  1  0.32295800  0.81145900  0.14156000  1
  C  C26  1  0.43750500  0.43750500  0.37836200  1
  C  C27  1  0.54842400  0.07299600  0.67247000  1
  C  C28  1  0.69718800  0.69718800  0.87106500  1
  C  C29  1  0.81145900  0.32295800  0.14156000  1
  C  C30  1  0.94493800  0.94493800  0.36707600  1
  C  C31  1  0.07299600  0.54842400  0.67247000  1
