# generated using pymatgen
data_Cu(Ni3C2)4
_symmetry_space_group_name_H-M   'P 1'
_cell_length_a   9.54293103
_cell_length_b   9.54293103
_cell_length_c   7.02412100
_cell_angle_alpha   90.00000000
_cell_angle_beta   90.00000000
_cell_angle_gamma   120.00000717
_symmetry_Int_Tables_number   1
_chemical_formula_structural   Cu(Ni3C2)4
_chemical_formula_sum   'Cu2 Ni24 C16'
_cell_volume   553.96988352
_cell_formula_units_Z   2
loop_
 _symmetry_equiv_pos_site_id
 _symmetry_equiv_pos_as_xyz
  1  'x, y, z'
loop_
 _atom_site_type_symbol
 _atom_site_label
 _atom_site_symmetry_multiplicity
 _atom_site_fract_x
 _atom_site_fract_y
 _atom_site_fract_z
 _atom_site_occupancy
  C  C0  1  0.66666700  0.33333300  0.71336600  1
  C  C1  1  0.33333300  0.66666700  0.21336600  1
  C  C2  1  0.66666700  0.33333300  0.21185800  1
  C  C3  1  0.33333300  0.66666700  0.71185800  1
  C  C4  1  0.75545000  0.00124100  0.96102900  1
  C  C5  1  0.24579100  0.24455000  0.96102900  1
  C  C6  1  0.24455000  0.99875900  0.46102900  1
  C  C7  1  0.99875900  0.75420900  0.96102900  1
  C  C8  1  0.75420900  0.75545000  0.46102900  1
  C  C9  1  0.00124100  0.24579100  0.46102900  1
  C  C10  1  0.60549800  0.63344900  0.96310100  1
  C  C11  1  0.02795100  0.39450200  0.96310100  1
  C  C12  1  0.39450200  0.36655100  0.46310100  1
  C  C13  1  0.36655100  0.97204900  0.96310100  1
  C  C14  1  0.97204900  0.60549800  0.46310100  1
  C  C15  1  0.63344900  0.02795100  0.46310100  1
  Ni  Ni16  1  0.84189600  0.31831800  0.97330500  1
  Ni  Ni17  1  0.47642200  0.15810400  0.97330500  1
  Ni  Ni18  1  0.15810400  0.68168200  0.47330500  1
  Ni  Ni19  1  0.68168200  0.52357800  0.97330500  1
  Ni  Ni20  1  0.52357800  0.84189600  0.47330500  1
  Ni  Ni21  1  0.31831800  0.47642200  0.47330500  1
  Ni  Ni22  1  0.74423100  0.09139100  0.64201000  1
  Ni  Ni23  1  0.34716000  0.25576900  0.64201000  1
  Ni  Ni24  1  0.25576900  0.90860900  0.14201000  1
  Ni  Ni25  1  0.90860900  0.65284000  0.64201000  1
  Ni  Ni26  1  0.65284000  0.74423100  0.14201000  1
  Ni  Ni27  1  0.09139100  0.34716000  0.14201000  1
  Ni  Ni28  1  0.41717500  0.53089000  0.95198900  1
  Ni  Ni29  1  0.11371500  0.58282500  0.95198900  1
  Ni  Ni30  1  0.58282500  0.46911000  0.45198900  1
  Ni  Ni31  1  0.46911000  0.88628500  0.95198900  1
  Ni  Ni32  1  0.88628500  0.41717500  0.45198900  1
  Ni  Ni33  1  0.53089000  0.11371500  0.45198900  1
  Ni  Ni34  1  0.66490300  0.74537900  0.78612600  1
  Ni  Ni35  1  0.08047600  0.33509700  0.78612600  1
  Ni  Ni36  1  0.33509700  0.25462100  0.28612600  1
  Ni  Ni37  1  0.25462100  0.91952400  0.78612600  1
  Ni  Ni38  1  0.91952400  0.66490300  0.28612600  1
  Ni  Ni39  1  0.74537900  0.08047600  0.28612600  1
  Cu  Cu40  1  0.00000000  0.00000000  0.96709800  1
  Cu  Cu41  1  0.00000000  0.00000000  0.46709800  1
