# generated using pymatgen
data_Cu16Ni2C5
_symmetry_space_group_name_H-M   'P 1'
_cell_length_a   10.07156355
_cell_length_b   10.07156355
_cell_length_c   5.33777476
_cell_angle_alpha   86.02448177
_cell_angle_beta   86.02448177
_cell_angle_gamma   35.52532539
_symmetry_Int_Tables_number   1
_chemical_formula_structural   Cu16Ni2C5
_chemical_formula_sum   'Cu16 Ni2 C5'
_cell_volume   313.77847070
_cell_formula_units_Z   1
loop_
 _symmetry_equiv_pos_site_id
 _symmetry_equiv_pos_as_xyz
  1  'x, y, z'
loop_
 _atom_site_type_symbol
 _atom_site_label
 _atom_site_symmetry_multiplicity
 _atom_site_fract_x
 _atom_site_fract_y
 _atom_site_fract_z
 _atom_site_occupancy
  C  C0  1  0.50000000  0.50000000  0.00000000  1
  C  C1  1  0.75695000  0.24305000  0.50000000  1
  C  C2  1  0.24305000  0.75695000  0.50000000  1
  C  C3  1  0.09372300  0.09372300  0.98309500  1
  C  C4  1  0.90627700  0.90627700  0.01690500  1
  Ni  Ni5  1  0.72201800  0.72201800  0.49918400  1
  Ni  Ni6  1  0.27798200  0.27798200  0.50081600  1
  Cu  Cu7  1  0.80362700  0.30496700  0.82169100  1
  Cu  Cu8  1  0.30496700  0.80362700  0.82169100  1
  Cu  Cu9  1  0.19637300  0.69503300  0.17830900  1
  Cu  Cu10  1  0.69503300  0.19637300  0.17830900  1
  Cu  Cu11  1  0.94420900  0.94420900  0.66595200  1
  Cu  Cu12  1  0.05579100  0.05579100  0.33404800  1
  Cu  Cu13  1  0.45169000  0.45169000  0.67736400  1
  Cu  Cu14  1  0.54831000  0.54831000  0.32263600  1
  Cu  Cu15  1  0.78767200  0.78767200  0.50080300  1
  Cu  Cu16  1  0.21232800  0.21232800  0.49919700  1
  Cu  Cu17  1  0.68410300  0.68410300  0.70018800  1
  Cu  Cu18  1  0.31589700  0.31589700  0.29981200  1
  Cu  Cu19  1  0.30584300  0.30584300  0.70745300  1
  Cu  Cu20  1  0.69415700  0.69415700  0.29254700  1
  Cu  Cu21  1  0.80861700  0.80861700  0.99533200  1
  Cu  Cu22  1  0.19138300  0.19138300  0.00466800  1
