# generated using pymatgen
data_Cu6Ni9C4
_symmetry_space_group_name_H-M   'P 1'
_cell_length_a   13.17568100
_cell_length_b   13.17568100
_cell_length_c   13.17568100
_cell_angle_alpha   90.00000000
_cell_angle_beta   90.00000000
_cell_angle_gamma   90.00000000
_symmetry_Int_Tables_number   1
_chemical_formula_structural   Cu6Ni9C4
_chemical_formula_sum   'Cu48 Ni72 C32'
_cell_volume   2287.27937792
_cell_formula_units_Z   8
loop_
 _symmetry_equiv_pos_site_id
 _symmetry_equiv_pos_as_xyz
  1  'x, y, z'
loop_
 _atom_site_type_symbol
 _atom_site_label
 _atom_site_symmetry_multiplicity
 _atom_site_fract_x
 _atom_site_fract_y
 _atom_site_fract_z
 _atom_site_occupancy
  C  C0  1  0.50000000  0.00000000  0.00000000  1
  C  C1  1  0.50000000  0.50000000  0.50000000  1
  C  C2  1  0.00000000  0.00000000  0.50000000  1
  C  C3  1  0.00000000  0.50000000  0.00000000  1
  C  C4  1  0.00000000  0.00000000  0.00000000  1
  C  C5  1  0.00000000  0.50000000  0.50000000  1
  C  C6  1  0.50000000  0.00000000  0.50000000  1
  C  C7  1  0.50000000  0.50000000  0.00000000  1
  C  C8  1  0.73837800  0.04100500  0.21424300  1
  C  C9  1  0.26162200  0.54100500  0.28575700  1
  C  C10  1  0.76162200  0.95899500  0.71424300  1
  C  C11  1  0.23837800  0.45899500  0.78575700  1
  C  C12  1  0.21424300  0.73837800  0.04100500  1
  C  C13  1  0.28575700  0.26162200  0.54100500  1
  C  C14  1  0.71424300  0.76162200  0.95899500  1
  C  C15  1  0.78575700  0.23837800  0.45899500  1
  C  C16  1  0.04100500  0.21424300  0.73837800  1
  C  C17  1  0.54100500  0.28575700  0.26162200  1
  C  C18  1  0.95899500  0.71424300  0.76162200  1
  C  C19  1  0.45899500  0.78575700  0.23837800  1
  C  C20  1  0.26162200  0.95899500  0.78575700  1
  C  C21  1  0.73837800  0.45899500  0.71424300  1
  C  C22  1  0.23837800  0.04100500  0.28575700  1
  C  C23  1  0.76162200  0.54100500  0.21424300  1
  C  C24  1  0.78575700  0.26162200  0.95899500  1
  C  C25  1  0.71424300  0.73837800  0.45899500  1
  C  C26  1  0.28575700  0.23837800  0.04100500  1
  C  C27  1  0.21424300  0.76162200  0.54100500  1
  C  C28  1  0.95899500  0.78575700  0.26162200  1
  C  C29  1  0.45899500  0.71424300  0.73837800  1
  C  C30  1  0.04100500  0.28575700  0.23837800  1
  C  C31  1  0.54100500  0.21424300  0.76162200  1
  Ni  Ni32  1  0.75851200  0.03679300  0.11186800  1
  Ni  Ni33  1  0.24148800  0.53679300  0.38813200  1
  Ni  Ni34  1  0.74148800  0.96320700  0.61186800  1
  Ni  Ni35  1  0.25851200  0.46320700  0.88813200  1
  Ni  Ni36  1  0.11186800  0.75851200  0.03679300  1
  Ni  Ni37  1  0.38813200  0.24148800  0.53679300  1
  Ni  Ni38  1  0.61186800  0.74148800  0.96320700  1
  Ni  Ni39  1  0.88813200  0.25851200  0.46320700  1
  Ni  Ni40  1  0.03679300  0.11186800  0.75851200  1
  Ni  Ni41  1  0.53679300  0.38813200  0.24148800  1
  Ni  Ni42  1  0.96320700  0.61186800  0.74148800  1
  Ni  Ni43  1  0.46320700  0.88813200  0.25851200  1
  Ni  Ni44  1  0.24148800  0.96320700  0.88813200  1
  Ni  Ni45  1  0.75851200  0.46320700  0.61186800  1
  Ni  Ni46  1  0.25851200  0.03679300  0.38813200  1
  Ni  Ni47  1  0.74148800  0.53679300  0.11186800  1
  Ni  Ni48  1  0.88813200  0.24148800  0.96320700  1
  Ni  Ni49  1  0.61186800  0.75851200  0.46320700  1
  Ni  Ni50  1  0.38813200  0.25851200  0.03679300  1
  Ni  Ni51  1  0.11186800  0.74148800  0.53679300  1
  Ni  Ni52  1  0.96320700  0.88813200  0.24148800  1
  Ni  Ni53  1  0.46320700  0.61186800  0.75851200  1
  Ni  Ni54  1  0.03679300  0.38813200  0.25851200  1
  Ni  Ni55  1  0.53679300  0.11186800  0.74148800  1
  Ni  Ni56  1  0.82086100  0.06757900  0.26729400  1
  Ni  Ni57  1  0.17913900  0.56757900  0.23270600  1
  Ni  Ni58  1  0.67913900  0.93242100  0.76729400  1
  Ni  Ni59  1  0.32086100  0.43242100  0.73270600  1
  Ni  Ni60  1  0.26729400  0.82086100  0.06757900  1
  Ni  Ni61  1  0.23270600  0.17913900  0.56757900  1
  Ni  Ni62  1  0.76729400  0.67913900  0.93242100  1
  Ni  Ni63  1  0.73270600  0.32086100  0.43242100  1
  Ni  Ni64  1  0.06757900  0.26729400  0.82086100  1
  Ni  Ni65  1  0.56757900  0.23270600  0.17913900  1
  Ni  Ni66  1  0.93242100  0.76729400  0.67913900  1
  Ni  Ni67  1  0.43242100  0.73270600  0.32086100  1
  Ni  Ni68  1  0.17913900  0.93242100  0.73270600  1
  Ni  Ni69  1  0.82086100  0.43242100  0.76729400  1
  Ni  Ni70  1  0.32086100  0.06757900  0.23270600  1
  Ni  Ni71  1  0.67913900  0.56757900  0.26729400  1
  Ni  Ni72  1  0.73270600  0.17913900  0.93242100  1
  Ni  Ni73  1  0.76729400  0.82086100  0.43242100  1
  Ni  Ni74  1  0.23270600  0.32086100  0.06757900  1
  Ni  Ni75  1  0.26729400  0.67913900  0.56757900  1
  Ni  Ni76  1  0.93242100  0.73270600  0.17913900  1
  Ni  Ni77  1  0.43242100  0.76729400  0.82086100  1
  Ni  Ni78  1  0.06757900  0.23270600  0.32086100  1
  Ni  Ni79  1  0.56757900  0.26729400  0.67913900  1
  Ni  Ni80  1  0.64479800  0.02186800  0.25243700  1
  Ni  Ni81  1  0.35520200  0.52186800  0.24756300  1
  Ni  Ni82  1  0.85520200  0.97813200  0.75243700  1
  Ni  Ni83  1  0.14479800  0.47813200  0.74756300  1
  Ni  Ni84  1  0.25243700  0.64479800  0.02186800  1
  Ni  Ni85  1  0.24756300  0.35520200  0.52186800  1
  Ni  Ni86  1  0.75243700  0.85520200  0.97813200  1
  Ni  Ni87  1  0.74756300  0.14479800  0.47813200  1
  Ni  Ni88  1  0.02186800  0.25243700  0.64479800  1
  Ni  Ni89  1  0.52186800  0.24756300  0.35520200  1
  Ni  Ni90  1  0.97813200  0.75243700  0.85520200  1
  Ni  Ni91  1  0.47813200  0.74756300  0.14479800  1
  Ni  Ni92  1  0.35520200  0.97813200  0.74756300  1
  Ni  Ni93  1  0.64479800  0.47813200  0.75243700  1
  Ni  Ni94  1  0.14479800  0.02186800  0.24756300  1
  Ni  Ni95  1  0.85520200  0.52186800  0.25243700  1
  Ni  Ni96  1  0.74756300  0.35520200  0.97813200  1
  Ni  Ni97  1  0.75243700  0.64479800  0.47813200  1
  Ni  Ni98  1  0.24756300  0.14479800  0.02186800  1
  Ni  Ni99  1  0.25243700  0.85520200  0.52186800  1
  Ni  Ni100  1  0.97813200  0.74756300  0.35520200  1
  Ni  Ni101  1  0.47813200  0.75243700  0.64479800  1
  Ni  Ni102  1  0.02186800  0.24756300  0.14479800  1
  Ni  Ni103  1  0.52186800  0.25243700  0.85520200  1
  Cu  Cu104  1  0.87589300  0.05922600  0.92448300  1
  Cu  Cu105  1  0.12410700  0.55922600  0.57551700  1
  Cu  Cu106  1  0.62410700  0.94077400  0.42448300  1
  Cu  Cu107  1  0.37589300  0.44077400  0.07551700  1
  Cu  Cu108  1  0.92448300  0.87589300  0.05922600  1
  Cu  Cu109  1  0.57551700  0.12410700  0.55922600  1
  Cu  Cu110  1  0.42448300  0.62410700  0.94077400  1
  Cu  Cu111  1  0.07551700  0.37589300  0.44077400  1
  Cu  Cu112  1  0.05922600  0.92448300  0.87589300  1
  Cu  Cu113  1  0.55922600  0.57551700  0.12410700  1
  Cu  Cu114  1  0.94077400  0.42448300  0.62410700  1
  Cu  Cu115  1  0.44077400  0.07551700  0.37589300  1
  Cu  Cu116  1  0.12410700  0.94077400  0.07551700  1
  Cu  Cu117  1  0.87589300  0.44077400  0.42448300  1
  Cu  Cu118  1  0.37589300  0.05922600  0.57551700  1
  Cu  Cu119  1  0.62410700  0.55922600  0.92448300  1
  Cu  Cu120  1  0.07551700  0.12410700  0.94077400  1
  Cu  Cu121  1  0.42448300  0.87589300  0.44077400  1
  Cu  Cu122  1  0.57551700  0.37589300  0.05922600  1
  Cu  Cu123  1  0.92448300  0.62410700  0.55922600  1
  Cu  Cu124  1  0.94077400  0.07551700  0.12410700  1
  Cu  Cu125  1  0.44077400  0.42448300  0.87589300  1
  Cu  Cu126  1  0.05922600  0.57551700  0.37589300  1
  Cu  Cu127  1  0.55922600  0.92448300  0.62410700  1
  Cu  Cu128  1  0.47022400  0.94143500  0.14139900  1
  Cu  Cu129  1  0.52977600  0.44143500  0.35860100  1
  Cu  Cu130  1  0.02977600  0.05856500  0.64139900  1
  Cu  Cu131  1  0.97022400  0.55856500  0.85860100  1
  Cu  Cu132  1  0.14139900  0.47022400  0.94143500  1
  Cu  Cu133  1  0.35860100  0.52977600  0.44143500  1
  Cu  Cu134  1  0.64139900  0.02977600  0.05856500  1
  Cu  Cu135  1  0.85860100  0.97022400  0.55856500  1
  Cu  Cu136  1  0.94143500  0.14139900  0.47022400  1
  Cu  Cu137  1  0.44143500  0.35860100  0.52977600  1
  Cu  Cu138  1  0.05856500  0.64139900  0.02977600  1
  Cu  Cu139  1  0.55856500  0.85860100  0.97022400  1
  Cu  Cu140  1  0.52977600  0.05856500  0.85860100  1
  Cu  Cu141  1  0.47022400  0.55856500  0.64139900  1
  Cu  Cu142  1  0.97022400  0.94143500  0.35860100  1
  Cu  Cu143  1  0.02977600  0.44143500  0.14139900  1
  Cu  Cu144  1  0.85860100  0.52977600  0.05856500  1
  Cu  Cu145  1  0.64139900  0.47022400  0.55856500  1
  Cu  Cu146  1  0.35860100  0.97022400  0.94143500  1
  Cu  Cu147  1  0.14139900  0.02977600  0.44143500  1
  Cu  Cu148  1  0.05856500  0.85860100  0.52977600  1
  Cu  Cu149  1  0.55856500  0.64139900  0.47022400  1
  Cu  Cu150  1  0.94143500  0.35860100  0.97022400  1
  Cu  Cu151  1  0.44143500  0.14139900  0.02977600  1
