# generated using pymatgen
data_CuNiC11
_symmetry_space_group_name_H-M   'P 1'
_cell_length_a   5.56195600
_cell_length_b   7.00550116
_cell_length_c   9.48439345
_cell_angle_alpha   111.26062563
_cell_angle_beta   101.13368833
_cell_angle_gamma   98.01004876
_symmetry_Int_Tables_number   1
_chemical_formula_structural   CuNiC11
_chemical_formula_sum   'Cu2 Ni2 C22'
_cell_volume   328.94225406
_cell_formula_units_Z   2
loop_
 _symmetry_equiv_pos_site_id
 _symmetry_equiv_pos_as_xyz
  1  'x, y, z'
loop_
 _atom_site_type_symbol
 _atom_site_label
 _atom_site_symmetry_multiplicity
 _atom_site_fract_x
 _atom_site_fract_y
 _atom_site_fract_z
 _atom_site_occupancy
  C  C0  1  0.20048200  0.75306000  0.04793400  1
  C  C1  1  0.79951800  0.24694000  0.95206600  1
  Ni  Ni2  1  0.33677100  0.72981800  0.65285200  1
  Ni  Ni3  1  0.66322900  0.27018200  0.34714800  1
  Cu  Cu4  1  0.08114000  0.29028900  0.56163300  1
  Cu  Cu5  1  0.91886000  0.70971100  0.43836700  1
  C  C6  1  0.15772200  0.18976600  0.23414100  1
  C  C7  1  0.84227800  0.81023400  0.76585900  1
  C  C8  1  0.53854100  0.72170900  0.30233400  1
  C  C9  1  0.46145900  0.27829100  0.69766600  1
  C  C10  1  0.92839000  0.66107600  0.88835700  1
  C  C11  1  0.44796000  0.26228500  0.21181000  1
  C  C12  1  0.89584400  0.02944000  0.77136300  1
  C  C13  1  0.26365400  0.42102200  0.69898700  1
  C  C14  1  0.55204000  0.73771500  0.78819000  1
  C  C15  1  0.42921200  0.17634200  0.57474000  1
  C  C16  1  0.57078800  0.82365800  0.42526000  1
  C  C17  1  0.39536400  0.12887400  0.86375700  1
  C  C18  1  0.10415600  0.97056000  0.22863700  1
  C  C19  1  0.60463600  0.87112600  0.13624300  1
  C  C20  1  0.07161000  0.33892400  0.11164300  1
  C  C21  1  0.97371400  0.18956200  0.39460700  1
  C  C22  1  0.02628600  0.81043800  0.60539300  1
  C  C23  1  0.25592500  0.58675900  0.36594200  1
  C  C24  1  0.73634600  0.57897800  0.30101300  1
  C  C25  1  0.74407500  0.41324100  0.63405800  1
