# generated using pymatgen
data_Cu(NiC6)2
_symmetry_space_group_name_H-M   'P 1'
_cell_length_a   6.54036900
_cell_length_b   7.40561200
_cell_length_c   9.83211200
_cell_angle_alpha   90.00000000
_cell_angle_beta   90.00000000
_cell_angle_gamma   90.00000000
_symmetry_Int_Tables_number   1
_chemical_formula_structural   Cu(NiC6)2
_chemical_formula_sum   'Cu2 Ni4 C24'
_cell_volume   476.22262317
_cell_formula_units_Z   2
loop_
 _symmetry_equiv_pos_site_id
 _symmetry_equiv_pos_as_xyz
  1  'x, y, z'
loop_
 _atom_site_type_symbol
 _atom_site_label
 _atom_site_symmetry_multiplicity
 _atom_site_fract_x
 _atom_site_fract_y
 _atom_site_fract_z
 _atom_site_occupancy
  C  C0  1  0.00000000  0.73388900  0.00000000  1
  C  C1  1  0.50000000  0.26611100  0.50000000  1
  C  C2  1  0.25000000  0.00000000  0.75000000  1
  C  C3  1  0.25000000  0.00000000  0.25000000  1
  C  C4  1  0.75000000  0.00000000  0.75000000  1
  C  C5  1  0.50000000  0.79358300  0.50000000  1
  C  C6  1  0.00000000  0.20641700  0.00000000  1
  C  C7  1  0.75000000  0.00000000  0.25000000  1
  Ni  Ni8  1  0.50000000  0.58605800  0.81301200  1
  Ni  Ni9  1  0.00000000  0.41394200  0.68698800  1
  Ni  Ni10  1  0.50000000  0.58605800  0.18698800  1
  Ni  Ni11  1  0.00000000  0.41394200  0.31301200  1
  Cu  Cu12  1  0.00000000  0.86104600  0.50000000  1
  Cu  Cu13  1  0.50000000  0.13895400  0.00000000  1
  C  C14  1  0.00000000  0.98730300  0.86696300  1
  C  C15  1  0.00000000  0.42764800  0.86414800  1
  C  C16  1  0.50000000  0.57235200  0.36414800  1
  C  C17  1  0.29334600  0.72930800  0.84106400  1
  C  C18  1  0.20665400  0.27069200  0.34106400  1
  C  C19  1  0.79334600  0.27069200  0.34106400  1
  C  C20  1  0.50000000  0.01269700  0.63303700  1
  C  C21  1  0.70665400  0.72930800  0.84106400  1
  C  C22  1  0.70665400  0.72930800  0.15893600  1
  C  C23  1  0.79334600  0.27069200  0.65893600  1
  C  C24  1  0.00000000  0.98730300  0.13303700  1
  C  C25  1  0.50000000  0.01269700  0.36696300  1
  C  C26  1  0.20665400  0.27069200  0.65893600  1
  C  C27  1  0.29334600  0.72930800  0.15893600  1
  C  C28  1  0.50000000  0.57235200  0.63585200  1
  C  C29  1  0.00000000  0.42764800  0.13585200  1
