# generated using pymatgen
data_Cu2Ni17C5
_symmetry_space_group_name_H-M   'P 1'
_cell_length_a   11.02467225
_cell_length_b   11.02467225
_cell_length_c   10.03595796
_cell_angle_alpha   68.85576564
_cell_angle_beta   68.85576564
_cell_angle_gamma   102.17996345
_symmetry_Int_Tables_number   1
_chemical_formula_structural   Cu2Ni17C5
_chemical_formula_sum   'Cu4 Ni34 C10'
_cell_volume   976.10872901
_cell_formula_units_Z   2
loop_
 _symmetry_equiv_pos_site_id
 _symmetry_equiv_pos_as_xyz
  1  'x, y, z'
loop_
 _atom_site_type_symbol
 _atom_site_label
 _atom_site_symmetry_multiplicity
 _atom_site_fract_x
 _atom_site_fract_y
 _atom_site_fract_z
 _atom_site_occupancy
  C  C0  1  0.29868700  0.80029600  0.65342000  1
  C  C1  1  0.80029600  0.29868700  0.65342000  1
  C  C2  1  0.70131300  0.19970400  0.34658000  1
  C  C3  1  0.19970400  0.70131300  0.34658000  1
  C  C4  1  0.17077800  0.17077800  0.88389700  1
  C  C5  1  0.82922200  0.82922200  0.11610300  1
  C  C6  1  0.00308700  0.47327500  0.84812900  1
  C  C7  1  0.47327500  0.00308700  0.84812900  1
  C  C8  1  0.99691300  0.52672500  0.15187100  1
  C  C9  1  0.52672500  0.99691300  0.15187100  1
  Ni  Ni10  1  0.12479100  0.63198600  0.63626200  1
  Ni  Ni11  1  0.63198600  0.12479100  0.63626200  1
  Ni  Ni12  1  0.87520900  0.36801400  0.36373800  1
  Ni  Ni13  1  0.36801400  0.87520900  0.36373800  1
  Ni  Ni14  1  0.86474800  0.37485100  0.82143700  1
  Ni  Ni15  1  0.37485100  0.86474800  0.82143700  1
  Ni  Ni16  1  0.13525200  0.62514900  0.17856300  1
  Ni  Ni17  1  0.62514900  0.13525200  0.17856300  1
  Ni  Ni18  1  0.88968800  0.39193700  0.08875700  1
  Ni  Ni19  1  0.39193700  0.88968800  0.08875700  1
  Ni  Ni20  1  0.11031200  0.60806300  0.91124300  1
  Ni  Ni21  1  0.60806300  0.11031200  0.91124300  1
  Ni  Ni22  1  0.87732700  0.59251500  0.85329400  1
  Ni  Ni23  1  0.59251500  0.87732700  0.85329400  1
  Ni  Ni24  1  0.12267300  0.40748500  0.14670600  1
  Ni  Ni25  1  0.40748500  0.12267300  0.14670600  1
  Ni  Ni26  1  0.39876700  0.69197300  0.64528700  1
  Ni  Ni27  1  0.69197300  0.39876700  0.64528700  1
  Ni  Ni28  1  0.60123300  0.30802700  0.35471300  1
  Ni  Ni29  1  0.30802700  0.60123300  0.35471300  1
  Ni  Ni30  1  0.11012500  0.36903600  0.84482700  1
  Ni  Ni31  1  0.36903600  0.11012500  0.84482700  1
  Ni  Ni32  1  0.88987500  0.63096400  0.15517300  1
  Ni  Ni33  1  0.63096400  0.88987500  0.15517300  1
  Ni  Ni34  1  0.19420700  0.90382600  0.66090500  1
  Ni  Ni35  1  0.90382600  0.19420700  0.66090500  1
  Ni  Ni36  1  0.80579300  0.09617400  0.33909500  1
  Ni  Ni37  1  0.09617400  0.80579300  0.33909500  1
  Ni  Ni38  1  0.15701100  0.15701100  0.07309600  1
  Ni  Ni39  1  0.84298900  0.84298900  0.92690400  1
  Ni  Ni40  1  0.38439100  0.38439100  0.73621700  1
  Ni  Ni41  1  0.61560900  0.61560900  0.26378300  1
  Ni  Ni42  1  0.19541400  0.19541400  0.68713100  1
  Ni  Ni43  1  0.80458600  0.80458600  0.31286900  1
  Cu  Cu44  1  0.92515100  0.07484900  0.00000000  1
  Cu  Cu45  1  0.07484900  0.92515100  0.00000000  1
  Cu  Cu46  1  0.50000000  0.00000000  0.50000000  1
  Cu  Cu47  1  0.00000000  0.50000000  0.50000000  1
