# generated using pymatgen
data_CuNi3C10
_symmetry_space_group_name_H-M   'P 1'
_cell_length_a   8.25597500
_cell_length_b   8.27468100
_cell_length_c   8.80533200
_cell_angle_alpha   90.00000000
_cell_angle_beta   90.00000000
_cell_angle_gamma   90.00000000
_symmetry_Int_Tables_number   1
_chemical_formula_structural   CuNi3C10
_chemical_formula_sum   'Cu4 Ni12 C40'
_cell_volume   601.54118189
_cell_formula_units_Z   4
loop_
 _symmetry_equiv_pos_site_id
 _symmetry_equiv_pos_as_xyz
  1  'x, y, z'
loop_
 _atom_site_type_symbol
 _atom_site_label
 _atom_site_symmetry_multiplicity
 _atom_site_fract_x
 _atom_site_fract_y
 _atom_site_fract_z
 _atom_site_occupancy
  C  C0  1  0.77343900  0.75138800  0.75604900  1
  C  C1  1  0.49361300  0.49565400  0.49372200  1
  C  C2  1  0.50638700  0.99565400  0.00627800  1
  C  C3  1  0.22656100  0.25138800  0.74395100  1
  C  C4  1  0.27343900  0.74861200  0.24395100  1
  C  C5  1  0.99361300  0.00434600  0.50627800  1
  C  C6  1  0.00638700  0.50434600  0.99372200  1
  C  C7  1  0.72656100  0.24861200  0.25604900  1
  Ni  Ni8  1  0.63485300  0.12371500  0.62089700  1
  Ni  Ni9  1  0.62313400  0.87388600  0.37031000  1
  Ni  Ni10  1  0.62164400  0.62277600  0.12245300  1
  Ni  Ni11  1  0.37835600  0.12277600  0.37754700  1
  Ni  Ni12  1  0.37686600  0.37388600  0.12969000  1
  Ni  Ni13  1  0.36514700  0.62371500  0.87910300  1
  Ni  Ni14  1  0.13485300  0.37628500  0.37910300  1
  Ni  Ni15  1  0.12313400  0.62611400  0.62969000  1
  Ni  Ni16  1  0.12164400  0.87722400  0.87754700  1
  Ni  Ni17  1  0.87835600  0.37722400  0.62245300  1
  Ni  Ni18  1  0.87686600  0.12611400  0.87031000  1
  Ni  Ni19  1  0.86514700  0.87628500  0.12089700  1
  Cu  Cu20  1  0.62060500  0.37852500  0.86284700  1
  Cu  Cu21  1  0.37939500  0.87852500  0.63715300  1
  Cu  Cu22  1  0.12060500  0.12147500  0.13715300  1
  Cu  Cu23  1  0.87939500  0.62147500  0.36284700  1
  C  C24  1  0.63906100  0.37661000  0.64351000  1
  C  C25  1  0.64358000  0.14012600  0.86890000  1
  C  C26  1  0.62643800  0.84976300  0.13836300  1
  C  C27  1  0.60985300  0.87096900  0.63272500  1
  C  C28  1  0.63973500  0.64034200  0.37153800  1
  C  C29  1  0.60830400  0.10286300  0.39159100  1
  C  C30  1  0.61021300  0.38621400  0.09893500  1
  C  C31  1  0.62997800  0.60741600  0.87947900  1
  C  C32  1  0.37002200  0.10741600  0.62052100  1
  C  C33  1  0.38978700  0.88621400  0.40106500  1
  C  C34  1  0.39169600  0.60286300  0.10840900  1
  C  C35  1  0.36026500  0.14034200  0.12846200  1
  C  C36  1  0.39014700  0.37096900  0.86727500  1
  C  C37  1  0.37356200  0.34976300  0.36163700  1
  C  C38  1  0.35642000  0.64012600  0.63110000  1
  C  C39  1  0.36093900  0.87661000  0.85649000  1
  C  C40  1  0.13906100  0.12339000  0.35649000  1
  C  C41  1  0.14358000  0.35987400  0.13110000  1
  C  C42  1  0.12643800  0.65023700  0.86163700  1
  C  C43  1  0.10985300  0.62903100  0.36727500  1
  C  C44  1  0.13973500  0.85965800  0.62846200  1
  C  C45  1  0.10830400  0.39713700  0.60840900  1
  C  C46  1  0.11021300  0.11378600  0.90106500  1
  C  C47  1  0.12997800  0.89258400  0.12052100  1
  C  C48  1  0.87002200  0.39258400  0.37947900  1
  C  C49  1  0.88978700  0.61378600  0.59893500  1
  C  C50  1  0.89169600  0.89713700  0.89159100  1
  C  C51  1  0.86026500  0.35965800  0.87153800  1
  C  C52  1  0.89014700  0.12903100  0.13272500  1
  C  C53  1  0.87356200  0.15023700  0.63836300  1
  C  C54  1  0.85642000  0.85987400  0.36890000  1
  C  C55  1  0.86093900  0.62339000  0.14351000  1
