# generated using pymatgen
data_Cu2Ni2C19
_symmetry_space_group_name_H-M   'P 1'
_cell_length_a   7.46280842
_cell_length_b   9.99794940
_cell_length_c   18.35943630
_cell_angle_alpha   90.00000000
_cell_angle_beta   90.00000000
_cell_angle_gamma   90.00000000
_symmetry_Int_Tables_number   1
_chemical_formula_structural   Cu2Ni2C19
_chemical_formula_sum   'Cu8 Ni8 C76'
_cell_volume   1369.84859929
_cell_formula_units_Z   4
loop_
 _symmetry_equiv_pos_site_id
 _symmetry_equiv_pos_as_xyz
  1  'x, y, z'
loop_
 _atom_site_type_symbol
 _atom_site_label
 _atom_site_symmetry_multiplicity
 _atom_site_fract_x
 _atom_site_fract_y
 _atom_site_fract_z
 _atom_site_occupancy
  C  C0  1  0.25000000  0.02006037  0.51332561  1
  C  C1  1  0.25000000  0.52006037  0.98667439  1
  C  C2  1  0.75000000  0.97993963  0.48667439  1
  C  C3  1  0.75000000  0.47993963  0.01332561  1
  C  C4  1  0.75000000  0.90910562  0.77089349  1
  C  C5  1  0.75000000  0.40910562  0.72910651  1
  C  C6  1  0.25000000  0.09089438  0.22910651  1
  C  C7  1  0.25000000  0.59089438  0.27089349  1
  C  C8  1  0.25000000  0.87635393  0.78979306  1
  C  C9  1  0.25000000  0.37635393  0.71020694  1
  C  C10  1  0.75000000  0.12364607  0.21020694  1
  C  C11  1  0.75000000  0.62364607  0.28979306  1
  Ni  Ni12  1  0.99843712  0.69597565  0.61457052  1
  Ni  Ni13  1  0.50156288  0.19597565  0.88542948  1
  Ni  Ni14  1  0.49843712  0.30402435  0.38542948  1
  Ni  Ni15  1  0.00156288  0.80402435  0.11457052  1
  Ni  Ni16  1  0.00156288  0.30402435  0.38542948  1
  Ni  Ni17  1  0.49843712  0.80402435  0.11457052  1
  Ni  Ni18  1  0.50156288  0.69597565  0.61457052  1
  Ni  Ni19  1  0.99843712  0.19597565  0.88542948  1
  Cu  Cu20  1  0.99429585  0.11113251  0.65791621  1
  Cu  Cu21  1  0.50570415  0.61113251  0.84208379  1
  Cu  Cu22  1  0.49429585  0.88886749  0.34208379  1
  Cu  Cu23  1  0.00570415  0.38886749  0.15791621  1
  Cu  Cu24  1  0.00570415  0.88886749  0.34208379  1
  Cu  Cu25  1  0.49429585  0.38886749  0.15791621  1
  Cu  Cu26  1  0.50570415  0.11113251  0.65791621  1
  Cu  Cu27  1  0.99429585  0.61113251  0.84208379  1
  C  C28  1  0.25000000  0.85315282  0.55880152  1
  C  C29  1  0.25000000  0.35315282  0.94119848  1
  C  C30  1  0.75000000  0.14684718  0.44119848  1
  C  C31  1  0.75000000  0.64684718  0.05880152  1
  C  C32  1  0.25000000  0.18557756  0.46736239  1
  C  C33  1  0.25000000  0.68557756  0.03263761  1
  C  C34  1  0.75000000  0.81442244  0.53263761  1
  C  C35  1  0.75000000  0.31442244  0.96736239  1
  C  C36  1  0.96818504  0.05855312  0.56451495  1
  C  C37  1  0.53181496  0.55855312  0.93548505  1
  C  C38  1  0.46818504  0.94144688  0.43548505  1
  C  C39  1  0.03181496  0.44144688  0.06451495  1
  C  C40  1  0.03181496  0.94144688  0.43548505  1
  C  C41  1  0.46818504  0.44144688  0.06451495  1
  C  C42  1  0.53181496  0.05855312  0.56451495  1
  C  C43  1  0.96818504  0.55855312  0.93548505  1
  C  C44  1  0.25000000  0.13676002  0.63474145  1
  C  C45  1  0.25000000  0.63676002  0.86525855  1
  C  C46  1  0.75000000  0.86323998  0.36525855  1
  C  C47  1  0.75000000  0.36323998  0.13474145  1
  C  C48  1  0.75000000  0.02407461  0.85047998  1
  C  C49  1  0.75000000  0.52407461  0.64952002  1
  C  C50  1  0.25000000  0.97592539  0.14952002  1
  C  C51  1  0.25000000  0.47592539  0.35047998  1
  C  C52  1  0.75000000  0.79187215  0.69235908  1
  C  C53  1  0.75000000  0.29187215  0.80764092  1
  C  C54  1  0.25000000  0.20812785  0.30764092  1
  C  C55  1  0.25000000  0.70812785  0.19235908  1
  C  C56  1  0.97807737  0.28921042  0.67407952  1
  C  C57  1  0.52192263  0.78921042  0.82592048  1
  C  C58  1  0.47807737  0.71078958  0.32592048  1
  C  C59  1  0.02192263  0.21078958  0.17407952  1
  C  C60  1  0.02192263  0.71078958  0.32592048  1
  C  C61  1  0.47807737  0.21078958  0.17407952  1
  C  C62  1  0.52192263  0.28921042  0.67407952  1
  C  C63  1  0.97807737  0.78921042  0.82592048  1
  C  C64  1  0.03408078  0.99290843  0.73086149  1
  C  C65  1  0.46591922  0.49290843  0.76913851  1
  C  C66  1  0.53408078  0.00709157  0.26913851  1
  C  C67  1  0.96591922  0.50709157  0.23086149  1
  C  C68  1  0.96591922  0.00709157  0.26913851  1
  C  C69  1  0.53408078  0.50709157  0.23086149  1
  C  C70  1  0.46591922  0.99290843  0.73086149  1
  C  C71  1  0.03408078  0.49290843  0.76913851  1
  C  C72  1  0.75000000  0.08284258  0.68316071  1
  C  C73  1  0.75000000  0.58284258  0.81683929  1
  C  C74  1  0.25000000  0.91715742  0.31683929  1
  C  C75  1  0.25000000  0.41715742  0.18316071  1
  C  C76  1  0.25000000  0.99835588  0.86563849  1
  C  C77  1  0.25000000  0.49835588  0.63436151  1
  C  C78  1  0.75000000  0.00164412  0.13436151  1
  C  C79  1  0.75000000  0.50164412  0.36563849  1
  C  C80  1  0.25000000  0.75586091  0.71257545  1
  C  C81  1  0.25000000  0.25586091  0.78742455  1
  C  C82  1  0.75000000  0.24413909  0.28742455  1
  C  C83  1  0.75000000  0.74413909  0.21257545  1
  C  C84  1  0.04406228  0.55225277  0.50323124  1
  C  C85  1  0.45593772  0.05225277  0.99676876  1
  C  C86  1  0.54406228  0.44774723  0.49676876  1
  C  C87  1  0.95593772  0.94774723  0.00323124  1
  C  C88  1  0.95593772  0.44774723  0.49676876  1
  C  C89  1  0.54406228  0.94774723  0.00323124  1
  C  C90  1  0.45593772  0.55225277  0.50323124  1
  C  C91  1  0.04406228  0.05225277  0.99676876  1
