# generated using pymatgen
data_Cu6Ni8C27
_symmetry_space_group_name_H-M   'P 1'
_cell_length_a   7.03428233
_cell_length_b   16.42750474
_cell_length_c   14.62405387
_cell_angle_alpha   101.97767964
_cell_angle_beta   90.00000000
_cell_angle_gamma   90.00000000
_symmetry_Int_Tables_number   1
_chemical_formula_structural   Cu6Ni8C27
_chemical_formula_sum   'Cu24 Ni32 C108'
_cell_volume   1653.10140842
_cell_formula_units_Z   4
loop_
 _symmetry_equiv_pos_site_id
 _symmetry_equiv_pos_as_xyz
  1  'x, y, z'
loop_
 _atom_site_type_symbol
 _atom_site_label
 _atom_site_symmetry_multiplicity
 _atom_site_fract_x
 _atom_site_fract_y
 _atom_site_fract_z
 _atom_site_occupancy
  C  C0  1  0.63809532  0.17804989  0.79205090  1
  C  C1  1  0.36190468  0.82195011  0.20794910  1
  C  C2  1  0.13809532  0.82195011  0.70794910  1
  C  C3  1  0.86190468  0.17804989  0.29205090  1
  C  C4  1  0.35432064  0.72643454  0.36586160  1
  C  C5  1  0.64567936  0.27356546  0.63413840  1
  C  C6  1  0.85432064  0.27356546  0.13413840  1
  C  C7  1  0.14567936  0.72643454  0.86586160  1
  C  C8  1  0.56867911  0.79418988  0.72426528  1
  C  C9  1  0.43132089  0.20581012  0.27573472  1
  C  C10  1  0.06867911  0.20581012  0.77573472  1
  C  C11  1  0.93132089  0.79418988  0.22426528  1
  C  C12  1  0.47933971  0.71843605  0.91258671  1
  C  C13  1  0.52066029  0.28156395  0.08741329  1
  C  C14  1  0.97933971  0.28156395  0.58741329  1
  C  C15  1  0.02066029  0.71843605  0.41258671  1
  C  C16  1  0.93634039  0.76474309  0.87463084  1
  C  C17  1  0.06365961  0.23525691  0.12536916  1
  C  C18  1  0.43634039  0.23525691  0.62536916  1
  C  C19  1  0.56365961  0.76474309  0.37463084  1
  C  C20  1  0.35859538  0.64939577  0.94973118  1
  C  C21  1  0.64140462  0.35060423  0.05026882  1
  C  C22  1  0.85859538  0.35060423  0.55026882  1
  C  C23  1  0.14140462  0.64939577  0.44973118  1
  C  C24  1  0.51928579  0.82540336  0.82946015  1
  C  C25  1  0.48071421  0.17459664  0.17053985  1
  C  C26  1  0.01928579  0.17459664  0.67053985  1
  C  C27  1  0.98071421  0.82540336  0.32946015  1
  C  C28  1  0.84830509  0.67910799  0.70705813  1
  C  C29  1  0.15169491  0.32089201  0.29294187  1
  C  C30  1  0.34830509  0.32089201  0.79294187  1
  C  C31  1  0.65169491  0.67910799  0.20705813  1
  C  C32  1  0.79206533  0.71062316  0.61635178  1
  C  C33  1  0.20793467  0.28937684  0.38364822  1
  C  C34  1  0.29206533  0.28937684  0.88364822  1
  C  C35  1  0.70793467  0.71062316  0.11635178  1
  C  C36  1  0.87133258  0.39460110  0.70355463  1
  C  C37  1  0.12866742  0.60539890  0.29644537  1
  C  C38  1  0.37133258  0.60539890  0.79644537  1
  C  C39  1  0.62866742  0.39460110  0.20355463  1
  C  C40  1  0.75841600  0.50323817  0.51483511  1
  C  C41  1  0.24158400  0.49676183  0.48516489  1
  C  C42  1  0.25841600  0.49676183  0.98516489  1
  C  C43  1  0.74158400  0.50323817  0.01483511  1
  C  C44  1  0.75179751  0.98604733  0.92469733  1
  C  C45  1  0.24820249  0.01395267  0.07530267  1
  C  C46  1  0.25179751  0.01395267  0.57530267  1
  C  C47  1  0.74820249  0.98604733  0.42469733  1
  C  C48  1  0.36043491  0.84344623  0.53009462  1
  C  C49  1  0.63956509  0.15655377  0.46990538  1
  C  C50  1  0.86043491  0.15655377  0.96990538  1
  C  C51  1  0.13956509  0.84344623  0.03009462  1
  C  C52  1  0.93325877  0.24279698  0.95256269  1
  C  C53  1  0.06674123  0.75720302  0.04743731  1
  C  C54  1  0.43325877  0.75720302  0.54743731  1
  C  C55  1  0.56674123  0.24279698  0.45256269  1
  Ni  Ni56  1  0.84329362  0.55055751  0.87611831  1
  Ni  Ni57  1  0.15670638  0.44944249  0.12388169  1
  Ni  Ni58  1  0.34329362  0.44944249  0.62388169  1
  Ni  Ni59  1  0.65670638  0.55055751  0.37611831  1
  Ni  Ni60  1  0.88367842  0.85987879  0.51253230  1
  Ni  Ni61  1  0.11632158  0.14012121  0.48746770  1
  Ni  Ni62  1  0.38367842  0.14012121  0.98746770  1
  Ni  Ni63  1  0.61632158  0.85987879  0.01253230  1
  Ni  Ni64  1  0.79629141  0.97628789  0.74061670  1
  Ni  Ni65  1  0.20370859  0.02371211  0.25938330  1
  Ni  Ni66  1  0.29629141  0.02371211  0.75938330  1
  Ni  Ni67  1  0.70370859  0.97628789  0.24061670  1
  Ni  Ni68  1  0.82537607  0.60372562  0.97061214  1
  Ni  Ni69  1  0.17462393  0.39627438  0.02938786  1
  Ni  Ni70  1  0.32537607  0.39627438  0.52938786  1
  Ni  Ni71  1  0.67462393  0.60372562  0.47061214  1
  Ni  Ni72  1  0.75505441  0.39580526  0.89031271  1
  Ni  Ni73  1  0.24494559  0.60419474  0.10968729  1
  Ni  Ni74  1  0.25505441  0.60419474  0.60968729  1
  Ni  Ni75  1  0.74494559  0.39580526  0.39031271  1
  Ni  Ni76  1  0.82239299  0.46418140  0.84567681  1
  Ni  Ni77  1  0.17760701  0.53581860  0.15432319  1
  Ni  Ni78  1  0.32239299  0.53581860  0.65432319  1
  Ni  Ni79  1  0.67760701  0.46418140  0.34567681  1
  Ni  Ni80  1  0.80490650  0.94438540  0.55350670  1
  Ni  Ni81  1  0.19509350  0.05561460  0.44649330  1
  Ni  Ni82  1  0.30490650  0.05561460  0.94649330  1
  Ni  Ni83  1  0.69509350  0.94438540  0.05350670  1
  Ni  Ni84  1  0.77465279  0.99171952  0.64370216  1
  Ni  Ni85  1  0.22534721  0.00828048  0.35629784  1
  Ni  Ni86  1  0.27465279  0.00828048  0.85629784  1
  Ni  Ni87  1  0.72534721  0.99171952  0.14370216  1
  Cu  Cu88  1  0.90686439  0.52165411  0.72697892  1
  Cu  Cu89  1  0.09313561  0.47834589  0.27302108  1
  Cu  Cu90  1  0.40686439  0.47834589  0.77302108  1
  Cu  Cu91  1  0.59313561  0.52165411  0.22697892  1
  Cu  Cu92  1  0.89301773  0.58287733  0.80053739  1
  Cu  Cu93  1  0.10698227  0.41712267  0.19946261  1
  Cu  Cu94  1  0.39301773  0.41712267  0.69946261  1
  Cu  Cu95  1  0.60698227  0.58287733  0.30053739  1
  Cu  Cu96  1  0.18917078  0.93052896  0.95430951  1
  Cu  Cu97  1  0.81082922  0.06947104  0.04569049  1
  Cu  Cu98  1  0.68917078  0.06947104  0.54569049  1
  Cu  Cu99  1  0.31082922  0.93052896  0.45430951  1
  Cu  Cu100  1  0.86585751  0.45060226  0.75402638  1
  Cu  Cu101  1  0.13414249  0.54939774  0.24597362  1
  Cu  Cu102  1  0.36585751  0.54939774  0.74597362  1
  Cu  Cu103  1  0.63414249  0.45060226  0.25402638  1
  Cu  Cu104  1  0.75202270  0.99568284  0.99704244  1
  Cu  Cu105  1  0.24797730  0.00431716  0.00295756  1
  Cu  Cu106  1  0.25202270  0.00431716  0.50295756  1
  Cu  Cu107  1  0.74797730  0.99568284  0.49704244  1
  Cu  Cu108  1  0.20384973  0.93318013  0.86546310  1
  Cu  Cu109  1  0.79615027  0.06681987  0.13453690  1
  Cu  Cu110  1  0.70384973  0.06681987  0.63453690  1
  Cu  Cu111  1  0.29615027  0.93318013  0.36546310  1
  C  C112  1  0.73873173  0.32425569  0.83912506  1
  C  C113  1  0.26126827  0.67574431  0.16087494  1
  C  C114  1  0.23873173  0.67574431  0.66087494  1
  C  C115  1  0.76126827  0.32425569  0.33912506  1
  C  C116  1  0.86269427  0.67954082  0.98736025  1
  C  C117  1  0.13730573  0.32045918  0.01263975  1
  C  C118  1  0.36269427  0.32045918  0.51263975  1
  C  C119  1  0.63730573  0.67954082  0.48736025  1
  C  C120  1  0.65181563  0.83072898  0.92717330  1
  C  C121  1  0.34818437  0.16927102  0.07282670  1
  C  C122  1  0.15181563  0.16927102  0.57282670  1
  C  C123  1  0.84818437  0.83072898  0.42717330  1
  C  C124  1  0.43921816  0.76709671  0.34551358  1
  C  C125  1  0.56078184  0.23290329  0.65448642  1
  C  C126  1  0.93921816  0.23290329  0.15448642  1
  C  C127  1  0.06078184  0.76709671  0.84551358  1
  C  C128  1  0.86539988  0.90866550  0.75327046  1
  C  C129  1  0.13460012  0.09133450  0.24672954  1
  C  C130  1  0.36539988  0.09133450  0.74672954  1
  C  C131  1  0.63460012  0.90866550  0.25327046  1
  C  C132  1  0.71673885  0.41545575  0.97774948  1
  C  C133  1  0.28326115  0.58454425  0.02225052  1
  C  C134  1  0.21673885  0.58454425  0.52225052  1
  C  C135  1  0.78326115  0.41545575  0.47774948  1
  C  C136  1  0.23817509  0.96531471  0.69308901  1
  C  C137  1  0.76182491  0.03468529  0.30691099  1
  C  C138  1  0.73817509  0.03468529  0.80691099  1
  C  C139  1  0.26182491  0.96531471  0.19308901  1
  C  C140  1  0.73238083  0.56768999  0.53829155  1
  C  C141  1  0.26761917  0.43231001  0.46170845  1
  C  C142  1  0.23238083  0.43231001  0.96170845  1
  C  C143  1  0.76761917  0.56768999  0.03829155  1
  C  C144  1  0.37688279  0.67726883  0.89590200  1
  C  C145  1  0.62311721  0.32273117  0.10409800  1
  C  C146  1  0.87688279  0.32273117  0.60409800  1
  C  C147  1  0.12311721  0.67726883  0.39590200  1
  C  C148  1  0.98322007  0.82424992  0.56472586  1
  C  C149  1  0.01677993  0.17575008  0.43527414  1
  C  C150  1  0.48322007  0.17575008  0.93527414  1
  C  C151  1  0.51677993  0.82424992  0.06472586  1
  C  C152  1  0.83159315  0.72956995  0.68186303  1
  C  C153  1  0.16840685  0.27043005  0.31813697  1
  C  C154  1  0.33159315  0.27043005  0.81813697  1
  C  C155  1  0.66840685  0.72956995  0.18186303  1
  C  C156  1  0.46338088  0.81625858  0.76584793  1
  C  C157  1  0.53661912  0.18374142  0.23415207  1
  C  C158  1  0.96338088  0.18374142  0.73415207  1
  C  C159  1  0.03661912  0.81625858  0.26584793  1
  C  C160  1  0.38289470  0.81134982  0.57912083  1
  C  C161  1  0.61710530  0.18865018  0.42087917  1
  C  C162  1  0.88289470  0.18865018  0.92087917  1
  C  C163  1  0.11710530  0.81134982  0.07912083  1
