# generated using pymatgen
data_CuNi3C7
_symmetry_space_group_name_H-M   'P 1'
_cell_length_a   6.83516165
_cell_length_b   6.83516165
_cell_length_c   6.83516180
_cell_angle_alpha   92.48253894
_cell_angle_beta   92.48253894
_cell_angle_gamma   92.48253478
_symmetry_Int_Tables_number   1
_chemical_formula_structural   CuNi3C7
_chemical_formula_sum   'Cu2 Ni6 C14'
_cell_volume   318.40890751
_cell_formula_units_Z   2
loop_
 _symmetry_equiv_pos_site_id
 _symmetry_equiv_pos_as_xyz
  1  'x, y, z'
loop_
 _atom_site_type_symbol
 _atom_site_label
 _atom_site_symmetry_multiplicity
 _atom_site_fract_x
 _atom_site_fract_y
 _atom_site_fract_z
 _atom_site_occupancy
  Ni  Ni0  1  0.60177700  0.89822300  0.25000000  1
  Ni  Ni1  1  0.25000000  0.60177700  0.89822300  1
  Ni  Ni2  1  0.89822300  0.25000000  0.60177700  1
  Ni  Ni3  1  0.75000000  0.39822300  0.10177700  1
  Ni  Ni4  1  0.10177700  0.75000000  0.39822300  1
  Ni  Ni5  1  0.39822300  0.10177700  0.75000000  1
  Cu  Cu6  1  0.25000000  0.25000000  0.25000000  1
  Cu  Cu7  1  0.75000000  0.75000000  0.75000000  1
  C  C8  1  0.00000000  0.00000000  0.00000000  1
  C  C9  1  0.50000000  0.50000000  0.50000000  1
  C  C10  1  0.28100600  0.95221500  0.08135700  1
  C  C11  1  0.08135700  0.28100600  0.95221500  1
  C  C12  1  0.95221500  0.08135700  0.28100600  1
  C  C13  1  0.58135700  0.45221500  0.78100600  1
  C  C14  1  0.78100600  0.58135700  0.45221500  1
  C  C15  1  0.45221500  0.78100600  0.58135700  1
  C  C16  1  0.71899400  0.04778500  0.91864300  1
  C  C17  1  0.91864300  0.71899400  0.04778500  1
  C  C18  1  0.04778500  0.91864300  0.71899400  1
  C  C19  1  0.41864300  0.54778500  0.21899400  1
  C  C20  1  0.21899400  0.41864300  0.54778500  1
  C  C21  1  0.54778500  0.21899400  0.41864300  1
