# generated using pymatgen
data_Cu(NiC10)2
_symmetry_space_group_name_H-M   'P 1'
_cell_length_a   5.57465300
_cell_length_b   7.24691270
_cell_length_c   14.71390553
_cell_angle_alpha   92.58766017
_cell_angle_beta   95.39982074
_cell_angle_gamma   90.55149198
_symmetry_Int_Tables_number   1
_chemical_formula_structural   Cu(NiC10)2
_chemical_formula_sum   'Cu2 Ni4 C40'
_cell_volume   591.12853894
_cell_formula_units_Z   2
loop_
 _symmetry_equiv_pos_site_id
 _symmetry_equiv_pos_as_xyz
  1  'x, y, z'
loop_
 _atom_site_type_symbol
 _atom_site_label
 _atom_site_symmetry_multiplicity
 _atom_site_fract_x
 _atom_site_fract_y
 _atom_site_fract_z
 _atom_site_occupancy
  C  C0  1  0.50569600  0.76095400  0.49710300  1
  C  C1  1  0.49631000  0.24241300  0.50028900  1
  C  C2  1  0.29478700  0.00936300  0.26529000  1
  C  C3  1  0.70513600  0.99133800  0.73607800  1
  C  C4  1  0.80517400  0.49264900  0.13359600  1
  C  C5  1  0.19486500  0.50711500  0.86633200  1
  C  C6  1  0.99995200  0.49954300  0.50004600  1
  C  C7  1  0.75272600  0.26411800  0.92191900  1
  C  C8  1  0.24721000  0.73588300  0.07817500  1
  C  C9  1  0.81759300  0.01805700  0.10045500  1
  C  C10  1  0.18248300  0.98207000  0.89957200  1
  C  C11  1  0.02604800  0.00088200  0.49181800  1
  C  C12  1  0.69809500  0.50701600  0.71609100  1
  C  C13  1  0.30151900  0.49240600  0.28401300  1
  Ni  Ni14  1  0.80225300  0.20480100  0.31610700  1
  Ni  Ni15  1  0.19618100  0.79573100  0.68451500  1
  Ni  Ni16  1  0.81710300  0.78116500  0.30367800  1
  Ni  Ni17  1  0.18262600  0.21825900  0.69513500  1
  Cu  Cu18  1  0.68666100  0.74424300  0.93351100  1
  Cu  Cu19  1  0.31325200  0.25566800  0.06651700  1
  C  C20  1  0.74433500  0.56982200  0.87016600  1
  C  C21  1  0.25534100  0.43016800  0.12980100  1
  C  C22  1  0.58764400  0.25735700  0.05683200  1
  C  C23  1  0.41226900  0.74264000  0.94314600  1
  C  C24  1  0.56667100  0.67655100  0.25810400  1
  C  C25  1  0.43279100  0.32334000  0.74172700  1
  C  C26  1  0.95011200  0.30366700  0.74442400  1
  C  C27  1  0.05042200  0.69653500  0.25483800  1
  C  C28  1  0.54154500  0.28964400  0.28138600  1
  C  C29  1  0.45775800  0.71069800  0.71805900  1
  C  C30  1  0.98179700  0.68544900  0.72768900  1
  C  C31  1  0.01731500  0.31435400  0.27275000  1
  C  C32  1  0.82949800  0.72563000  0.02866100  1
  C  C33  1  0.17044600  0.27426900  0.97134700  1
  C  C34  1  0.76432100  0.92733600  0.89169400  1
  C  C35  1  0.23573300  0.07266600  0.10841400  1
  C  C36  1  0.74138100  0.99068000  0.57918700  1
  C  C37  1  0.26557100  0.00341400  0.42393500  1
  C  C38  1  0.79604700  0.99441200  0.26477500  1
  C  C39  1  0.20407900  0.00616600  0.73525500  1
  C  C40  1  0.67807000  0.48445000  0.59339200  1
  C  C41  1  0.32193400  0.51494300  0.40666400  1
  C  C42  1  0.84187300  0.78974100  0.41416100  1
  C  C43  1  0.16447900  0.21052500  0.58464300  1
  C  C44  1  0.83725800  0.19911000  0.42647300  1
  C  C45  1  0.15329000  0.80187600  0.57437700  1
