# generated using pymatgen
data_Cu2NiC
_symmetry_space_group_name_H-M   'P 1'
_cell_length_a   7.02611445
_cell_length_b   7.02611445
_cell_length_c   14.21208506
_cell_angle_alpha   72.67877888
_cell_angle_beta   72.67877888
_cell_angle_gamma   44.63881186
_symmetry_Int_Tables_number   1
_chemical_formula_structural   Cu2NiC
_chemical_formula_sum   'Cu16 Ni8 C8'
_cell_volume   466.73849267
_cell_formula_units_Z   8
loop_
 _symmetry_equiv_pos_site_id
 _symmetry_equiv_pos_as_xyz
  1  'x, y, z'
loop_
 _atom_site_type_symbol
 _atom_site_label
 _atom_site_symmetry_multiplicity
 _atom_site_fract_x
 _atom_site_fract_y
 _atom_site_fract_z
 _atom_site_occupancy
  C  C0  1  0.98745700  0.35153800  0.65358900  1
  C  C1  1  0.64846200  0.01254300  0.84641100  1
  C  C2  1  0.01254300  0.64846200  0.34641100  1
  C  C3  1  0.35153800  0.98745700  0.15358900  1
  C  C4  1  0.99756900  0.21773400  0.91412100  1
  C  C5  1  0.78226600  0.00243100  0.58587900  1
  C  C6  1  0.00243100  0.78226600  0.08587900  1
  C  C7  1  0.21773400  0.99756900  0.41412100  1
  Ni  Ni8  1  0.17213600  0.83396400  0.95812900  1
  Ni  Ni9  1  0.16603600  0.82786400  0.54187100  1
  Ni  Ni10  1  0.82786400  0.16603600  0.04187100  1
  Ni  Ni11  1  0.83396400  0.17213600  0.45812900  1
  Ni  Ni12  1  0.41516200  0.79662500  0.64940100  1
  Ni  Ni13  1  0.20337500  0.58483800  0.85059900  1
  Ni  Ni14  1  0.58483800  0.20337500  0.35059900  1
  Ni  Ni15  1  0.79662500  0.41516200  0.14940100  1
  Cu  Cu16  1  0.23049400  0.16601200  0.80279500  1
  Cu  Cu17  1  0.83398800  0.76950600  0.69720500  1
  Cu  Cu18  1  0.76950600  0.83398800  0.19720500  1
  Cu  Cu19  1  0.16601200  0.23049400  0.30279500  1
  Cu  Cu20  1  0.42716000  0.22583600  0.59592500  1
  Cu  Cu21  1  0.77416400  0.57284000  0.90407500  1
  Cu  Cu22  1  0.57284000  0.77416400  0.40407500  1
  Cu  Cu23  1  0.22583600  0.42716000  0.09592500  1
  Cu  Cu24  1  0.76230300  0.18613200  0.66104600  1
  Cu  Cu25  1  0.81386800  0.23769700  0.83895400  1
  Cu  Cu26  1  0.23769700  0.81386800  0.33895400  1
  Cu  Cu27  1  0.18613200  0.76230300  0.16104600  1
  Cu  Cu28  1  0.14136300  0.23440000  0.48054100  1
  Cu  Cu29  1  0.76560000  0.85863700  0.01945900  1
  Cu  Cu30  1  0.85863700  0.76560000  0.51945900  1
  Cu  Cu31  1  0.23440000  0.14136300  0.98054100  1
