# generated using pymatgen
data_Cu15NiC12
_symmetry_space_group_name_H-M   'P 1'
_cell_length_a   6.12539700
_cell_length_b   7.12437000
_cell_length_c   11.31313800
_cell_angle_alpha   90.00000000
_cell_angle_beta   90.00000000
_cell_angle_gamma   90.00000000
_symmetry_Int_Tables_number   1
_chemical_formula_structural   Cu15NiC12
_chemical_formula_sum   'Cu30 Ni2 C24'
_cell_volume   493.70075626
_cell_formula_units_Z   2
loop_
 _symmetry_equiv_pos_site_id
 _symmetry_equiv_pos_as_xyz
  1  'x, y, z'
loop_
 _atom_site_type_symbol
 _atom_site_label
 _atom_site_symmetry_multiplicity
 _atom_site_fract_x
 _atom_site_fract_y
 _atom_site_fract_z
 _atom_site_occupancy
  C  C0  1  0.38263200  0.00000000  0.59638500  1
  C  C1  1  0.61736800  0.50000000  0.09638500  1
  Ni  Ni2  1  0.00308800  0.50000000  0.73012600  1
  Ni  Ni3  1  0.99691200  0.00000000  0.23012600  1
  Cu  Cu4  1  0.82811800  0.00000000  0.55844300  1
  Cu  Cu5  1  0.17188200  0.50000000  0.05844300  1
  Cu  Cu6  1  0.71893400  0.00000000  0.42819700  1
  Cu  Cu7  1  0.28106600  0.50000000  0.92819700  1
  Cu  Cu8  1  0.00808200  0.11272600  0.71536100  1
  Cu  Cu9  1  0.00808200  0.88727400  0.71536100  1
  Cu  Cu10  1  0.99191800  0.38727400  0.21536100  1
  Cu  Cu11  1  0.99191800  0.61272600  0.21536100  1
  Cu  Cu12  1  0.38514300  0.31484500  0.73403200  1
  Cu  Cu13  1  0.38514300  0.68515500  0.73403200  1
  Cu  Cu14  1  0.61485700  0.18515500  0.23403200  1
  Cu  Cu15  1  0.61485700  0.81484500  0.23403200  1
  Cu  Cu16  1  0.63231500  0.25102200  0.71785700  1
  Cu  Cu17  1  0.63231500  0.74897800  0.71785700  1
  Cu  Cu18  1  0.36768500  0.24897800  0.21785700  1
  Cu  Cu19  1  0.36768500  0.75102200  0.21785700  1
  Cu  Cu20  1  0.21505600  0.19472600  0.40311100  1
  Cu  Cu21  1  0.21505600  0.80527400  0.40311100  1
  Cu  Cu22  1  0.78494400  0.30527400  0.90311100  1
  Cu  Cu23  1  0.78494400  0.69472600  0.90311100  1
  Cu  Cu24  1  0.18275300  0.30784600  0.52311600  1
  Cu  Cu25  1  0.18275300  0.69215400  0.52311600  1
  Cu  Cu26  1  0.81724700  0.19215400  0.02311600  1
  Cu  Cu27  1  0.81724700  0.80784600  0.02311600  1
  Cu  Cu28  1  0.86666300  0.50000000  0.54502900  1
  Cu  Cu29  1  0.13333700  0.00000000  0.04502900  1
  Cu  Cu30  1  0.55437500  0.38968400  0.47211100  1
  Cu  Cu31  1  0.55437500  0.61031600  0.47211100  1
  Cu  Cu32  1  0.44562500  0.11031600  0.97211100  1
  Cu  Cu33  1  0.44562500  0.88968400  0.97211100  1
  C  C34  1  0.68830500  0.00000000  0.51438600  1
  C  C35  1  0.31169500  0.50000000  0.01438600  1
  C  C36  1  0.05225200  0.00000000  0.66834100  1
  C  C37  1  0.94774800  0.50000000  0.16834100  1
  C  C38  1  0.47948500  0.20683700  0.70951200  1
  C  C39  1  0.47948500  0.79316300  0.70951200  1
  C  C40  1  0.52051500  0.29316300  0.20951200  1
  C  C41  1  0.52051500  0.70683700  0.20951200  1
  C  C42  1  0.28102400  0.21785500  0.48345500  1
  C  C43  1  0.28102400  0.78214500  0.48345500  1
  C  C44  1  0.71897600  0.28214500  0.98345500  1
  C  C45  1  0.71897600  0.71785500  0.98345500  1
  C  C46  1  0.01913600  0.50000000  0.58603700  1
  C  C47  1  0.98086400  0.00000000  0.08603700  1
  C  C48  1  0.23990500  0.50000000  0.77381800  1
  C  C49  1  0.76009500  0.00000000  0.27381800  1
  C  C50  1  0.88221500  0.68031500  0.76648300  1
  C  C51  1  0.88221500  0.31968500  0.76648300  1
  C  C52  1  0.11778500  0.81968500  0.26648300  1
  C  C53  1  0.11778500  0.18031500  0.26648300  1
  C  C54  1  0.64918100  0.50000000  0.48109200  1
  C  C55  1  0.35081900  0.00000000  0.98109200  1
