# generated using pymatgen
data_Cu5(NiC15)2
_symmetry_space_group_name_H-M   'P 1'
_cell_length_a   6.47527358
_cell_length_b   8.05194562
_cell_length_c   9.47215313
_cell_angle_alpha   104.72092290
_cell_angle_beta   108.48403728
_cell_angle_gamma   101.52038422
_symmetry_Int_Tables_number   1
_chemical_formula_structural   Cu5(NiC15)2
_chemical_formula_sum   'Cu5 Ni2 C30'
_cell_volume   431.34645274
_cell_formula_units_Z   1
loop_
 _symmetry_equiv_pos_site_id
 _symmetry_equiv_pos_as_xyz
  1  'x, y, z'
loop_
 _atom_site_type_symbol
 _atom_site_label
 _atom_site_symmetry_multiplicity
 _atom_site_fract_x
 _atom_site_fract_y
 _atom_site_fract_z
 _atom_site_occupancy
  Ni  Ni0  1  0.28386800  0.30951100  0.78919100  1
  Ni  Ni1  1  0.71613200  0.69048900  0.21080900  1
  Cu  Cu2  1  0.04909200  0.21617700  0.02399800  1
  Cu  Cu3  1  0.95090800  0.78382300  0.97600200  1
  Cu  Cu4  1  0.59971400  0.03752900  0.38395600  1
  Cu  Cu5  1  0.40028600  0.96247100  0.61604400  1
  Cu  Cu6  1  0.00000000  0.50000000  0.50000000  1
  C  C7  1  0.22636100  0.64225100  0.26970400  1
  C  C8  1  0.77363900  0.35774900  0.73029600  1
  C  C9  1  0.07790700  0.08699800  0.33217200  1
  C  C10  1  0.92209300  0.91300200  0.66782800  1
  C  C11  1  0.60783000  0.27491900  0.13237000  1
  C  C12  1  0.39217000  0.72508100  0.86763000  1
  C  C13  1  0.38419000  0.28478800  0.00994100  1
  C  C14  1  0.61581000  0.71521200  0.99005900  1
  C  C15  1  0.20583400  0.44408800  0.20384200  1
  C  C16  1  0.79416600  0.55591200  0.79615800  1
  C  C17  1  0.54457500  0.13831100  0.21070100  1
  C  C18  1  0.45542500  0.86168900  0.78929900  1
  C  C19  1  0.73572200  0.46450400  0.26626800  1
  C  C20  1  0.26427800  0.53549600  0.73373200  1
  C  C21  1  0.05668700  0.04400600  0.15602900  1
  C  C22  1  0.94331300  0.95599400  0.84397100  1
  C  C23  1  0.75549500  0.22576500  0.03997400  1
  C  C24  1  0.24450500  0.77423500  0.96002600  1
  C  C25  1  0.29574600  0.03984600  0.41707900  1
  C  C26  1  0.70425400  0.96015400  0.58292100  1
  C  C27  1  0.54508300  0.24268200  0.72613600  1
  C  C28  1  0.45491700  0.75731800  0.27386400  1
  C  C29  1  0.09656900  0.28099700  0.41361800  1
  C  C30  1  0.90343100  0.71900300  0.58638200  1
  C  C31  1  0.13208500  0.04350300  0.66620900  1
  C  C32  1  0.86791500  0.95649700  0.33379100  1
  C  C33  1  0.01907200  0.68701400  0.16543100  1
  C  C34  1  0.98092800  0.31298600  0.83456900  1
  C  C35  1  0.22971900  0.68954400  0.44222700  1
  C  C36  1  0.77028100  0.31045600  0.55777300  1
