# generated using pymatgen
data_Cu3(NiC6)8
_symmetry_space_group_name_H-M   'P 1'
_cell_length_a   13.04480911
_cell_length_b   13.73533634
_cell_length_c   13.73533664
_cell_angle_alpha   110.46713339
_cell_angle_beta   108.45594693
_cell_angle_gamma   108.45594739
_symmetry_Int_Tables_number   1
_chemical_formula_structural   Cu3(NiC6)8
_chemical_formula_sum   'Cu6 Ni16 C96'
_cell_volume   1917.71159589
_cell_formula_units_Z   2
loop_
 _symmetry_equiv_pos_site_id
 _symmetry_equiv_pos_as_xyz
  1  'x, y, z'
loop_
 _atom_site_type_symbol
 _atom_site_label
 _atom_site_symmetry_multiplicity
 _atom_site_fract_x
 _atom_site_fract_y
 _atom_site_fract_z
 _atom_site_occupancy
  Ni  Ni0  1  0.50000000  -0.00000000  -0.00000000  1
  Ni  Ni1  1  0.00000000  -0.00000000  -0.00000000  1
  Ni  Ni2  1  0.42532160  0.21268943  0.99820304  1
  Ni  Ni3  1  0.42711856  0.00179696  0.21448639  1
  Ni  Ni4  1  0.21263218  0.78551361  0.78731057  1
  Ni  Ni5  1  0.92532160  0.99820304  0.21268943  1
  Ni  Ni6  1  0.71263218  0.78731057  0.78551361  1
  Ni  Ni7  1  0.92711856  0.21448639  0.00179696  1
  Ni  Ni8  1  0.57467840  0.78731057  0.00179696  1
  Ni  Ni9  1  0.57288144  0.99820304  0.78551361  1
  Ni  Ni10  1  0.78736782  0.21448639  0.21268943  1
  Ni  Ni11  1  0.07467840  0.00179696  0.78731057  1
  Ni  Ni12  1  0.28736782  0.21268943  0.21448639  1
  Ni  Ni13  1  0.07288144  0.78551361  0.99820304  1
  Ni  Ni14  1  0.75000000  -0.00000000  -0.00000000  1
  Ni  Ni15  1  0.25000000  -0.00000000  -0.00000000  1
  Cu  Cu16  1  0.99786272  0.49572544  0.74786272  1
  Cu  Cu17  1  0.25000000  0.25213728  0.74786272  1
  Cu  Cu18  1  0.50213728  0.25213728  0.50427456  1
  Cu  Cu19  1  0.49786272  0.74786272  0.49572544  1
  Cu  Cu20  1  0.00213728  0.50427456  0.25213728  1
  Cu  Cu21  1  0.75000000  0.74786272  0.25213728  1
  C  C22  1  0.50551376  0.19330261  0.75263288  1
  C  C23  1  0.75288087  0.24736712  0.44066973  1
  C  C24  1  0.31221115  0.55933027  0.80669739  1
  C  C25  1  0.00551376  0.75263288  0.19330261  1
  C  C26  1  0.81221115  0.80669739  0.55933027  1
  C  C27  1  0.25288087  0.44066973  0.24736712  1
  C  C28  1  0.49448624  0.80669739  0.24736712  1
  C  C29  1  0.24711913  0.75263288  0.55933027  1
  C  C30  1  0.68778885  0.44066973  0.19330261  1
  C  C31  1  0.99448624  0.24736712  0.80669739  1
  C  C32  1  0.18778885  0.19330261  0.44066973  1
  C  C33  1  0.74711913  0.55933027  0.75263288  1
  C  C34  1  0.79193797  0.73202437  0.99644129  1
  C  C35  1  0.79549668  0.00355871  0.73558308  1
  C  C36  1  0.05991360  0.26441692  0.26797563  1
  C  C37  1  0.29193797  0.99644129  0.73202437  1
  C  C38  1  0.55991360  0.26797563  0.26441692  1
  C  C39  1  0.29549668  0.73558308  0.00355871  1
  C  C40  1  0.20806203  0.26797563  0.00355871  1
  C  C41  1  0.20450332  0.99644129  0.26441692  1
  C  C42  1  0.94008640  0.73558308  0.73202437  1
  C  C43  1  0.70806203  0.00355871  0.26797563  1
  C  C44  1  0.44008640  0.73202437  0.73558308  1
  C  C45  1  0.70450332  0.26441692  0.99644129  1
  C  C46  1  0.44223657  0.27488996  0.78806806  1
  C  C47  1  0.65416852  0.21193194  0.48682191  1
  C  C48  1  0.16734661  0.51317809  0.72511004  1
  C  C49  1  0.94223657  0.78806806  0.27488996  1
  C  C50  1  0.66734661  0.72511004  0.51317809  1
  C  C51  1  0.15416852  0.48682191  0.21193194  1
  C  C52  1  0.55776343  0.72511004  0.21193194  1
  C  C53  1  0.34583148  0.78806806  0.51317809  1
  C  C54  1  0.83265339  0.48682191  0.27488996  1
  C  C55  1  0.05776343  0.21193194  0.72511004  1
  C  C56  1  0.33265339  0.27488996  0.48682191  1
  C  C57  1  0.84583148  0.51317809  0.78806806  1
  C  C58  1  0.63641155  0.33052401  0.05827621  1
  C  C59  1  0.57813533  0.94172379  0.27224779  1
  C  C60  1  0.30588754  0.72775221  0.66947599  1
  C  C61  1  0.13641155  0.05827621  0.33052401  1
  C  C62  1  0.80588754  0.66947599  0.72775221  1
  C  C63  1  0.07813533  0.27224779  0.94172379  1
  C  C64  1  0.36358845  0.66947599  0.94172379  1
  C  C65  1  0.42186467  0.05827621  0.72775221  1
  C  C66  1  0.69411246  0.27224779  0.33052401  1
  C  C67  1  0.86358845  0.94172379  0.66947599  1
  C  C68  1  0.19411246  0.33052401  0.27224779  1
  C  C69  1  0.92186467  0.72775221  0.05827621  1
  C  C70  1  0.17580319  0.00007437  0.14177060  1
  C  C71  1  0.03403259  0.85822940  0.85830377  1
  C  C72  1  0.17572881  0.14169623  0.99992563  1
  C  C73  1  0.67580319  0.14177060  0.00007437  1
  C  C74  1  0.67572881  0.99992563  0.14169623  1
  C  C75  1  0.53403259  0.85830377  0.85822940  1
  C  C76  1  0.82419681  0.99992563  0.85822940  1
  C  C77  1  0.96596741  0.14177060  0.14169623  1
  C  C78  1  0.82427119  0.85830377  0.00007437  1
  C  C79  1  0.32419681  0.85822940  0.99992563  1
  C  C80  1  0.32427119  0.00007437  0.85830377  1
  C  C81  1  0.46596741  0.14169623  0.14177060  1
  C  C82  1  0.12515099  0.63656589  0.44476056  1
  C  C83  1  0.68039043  0.55523944  0.19180533  1
  C  C84  1  0.48858510  0.80819467  0.36343411  1
  C  C85  1  0.62515099  0.44476056  0.63656589  1
  C  C86  1  0.98858510  0.36343411  0.80819467  1
  C  C87  1  0.18039043  0.19180533  0.55523944  1
  C  C88  1  0.87484901  0.36343411  0.55523944  1
  C  C89  1  0.31960957  0.44476056  0.80819467  1
  C  C90  1  0.51141490  0.19180533  0.63656589  1
  C  C91  1  0.37484901  0.55523944  0.36343411  1
  C  C92  1  0.01141490  0.63656589  0.19180533  1
  C  C93  1  0.81960957  0.80819467  0.44476056  1
  C  C94  1  0.21138442  0.06477002  0.71802608  1
  C  C95  1  0.49335833  0.28197392  0.34674393  1
  C  C96  1  0.14661440  0.65325607  0.93522998  1
  C  C97  1  0.71138442  0.71802608  0.06477002  1
  C  C98  1  0.64661440  0.93522998  0.65325607  1
  C  C99  1  0.99335833  0.34674393  0.28197392  1
  C  C100  1  0.78861558  0.93522998  0.28197392  1
  C  C101  1  0.50664167  0.71802608  0.65325607  1
  C  C102  1  0.85338560  0.34674393  0.06477002  1
  C  C103  1  0.28861558  0.28197392  0.93522998  1
  C  C104  1  0.35338560  0.06477002  0.34674393  1
  C  C105  1  0.00664167  0.65325607  0.71802608  1
  C  C106  1  0.21607053  0.85745549  0.62306454  1
  C  C107  1  0.59300598  0.37693546  0.23439095  1
  C  C108  1  0.35861504  0.76560905  0.14254451  1
  C  C109  1  0.71607053  0.62306454  0.85745549  1
  C  C110  1  0.85861504  0.14254451  0.76560905  1
  C  C111  1  0.09300598  0.23439095  0.37693546  1
  C  C112  1  0.78392947  0.14254451  0.37693546  1
  C  C113  1  0.40699402  0.62306454  0.76560905  1
  C  C114  1  0.64138496  0.23439095  0.85745549  1
  C  C115  1  0.28392947  0.37693546  0.14254451  1
  C  C116  1  0.14138496  0.85745549  0.23439095  1
  C  C117  1  0.90699402  0.76560905  0.62306454  1
