# generated using pymatgen
data_Cu14Ni3C2
_symmetry_space_group_name_H-M   'P 1'
_cell_length_a   8.27204400
_cell_length_b   8.56311794
_cell_length_c   8.56311794
_cell_angle_alpha   120.08115334
_cell_angle_beta   90.00000000
_cell_angle_gamma   90.00000000
_symmetry_Int_Tables_number   1
_chemical_formula_structural   Cu14Ni3C2
_chemical_formula_sum   'Cu28 Ni6 C4'
_cell_volume   524.86980786
_cell_formula_units_Z   2
loop_
 _symmetry_equiv_pos_site_id
 _symmetry_equiv_pos_as_xyz
  1  'x, y, z'
loop_
 _atom_site_type_symbol
 _atom_site_label
 _atom_site_symmetry_multiplicity
 _atom_site_fract_x
 _atom_site_fract_y
 _atom_site_fract_z
 _atom_site_occupancy
  C  C0  1  0.75000000  0.00002100  0.99997900  1
  C  C1  1  0.25000000  0.99997900  0.00002100  1
  C  C2  1  0.25000000  0.66681500  0.33318500  1
  C  C3  1  0.75000000  0.33318500  0.66681500  1
  Ni  Ni4  1  0.50000000  0.50000000  0.00000000  1
  Ni  Ni5  1  0.50000000  0.50000000  0.50000000  1
  Ni  Ni6  1  0.50000000  0.00000000  0.50000000  1
  Ni  Ni7  1  0.00000000  0.50000000  0.00000000  1
  Ni  Ni8  1  0.00000000  0.50000000  0.50000000  1
  Ni  Ni9  1  0.00000000  0.00000000  0.50000000  1
  Cu  Cu10  1  0.61165200  0.66675100  0.33324900  1
  Cu  Cu11  1  0.38834800  0.33324900  0.66675100  1
  Cu  Cu12  1  0.11165200  0.33324900  0.66675100  1
  Cu  Cu13  1  0.88834800  0.66675100  0.33324900  1
  Cu  Cu14  1  0.75000000  0.67669500  0.02936900  1
  Cu  Cu15  1  0.75000000  0.35259800  0.32332300  1
  Cu  Cu16  1  0.75000000  0.97067400  0.64741700  1
  Cu  Cu17  1  0.75000000  0.35258300  0.02932600  1
  Cu  Cu18  1  0.75000000  0.97063100  0.32330500  1
  Cu  Cu19  1  0.75000000  0.67667700  0.64740200  1
  Cu  Cu20  1  0.25000000  0.32330500  0.97063100  1
  Cu  Cu21  1  0.25000000  0.64740200  0.67667700  1
  Cu  Cu22  1  0.25000000  0.02932600  0.35258300  1
  Cu  Cu23  1  0.25000000  0.64741700  0.97067400  1
  Cu  Cu24  1  0.25000000  0.02936900  0.67669500  1
  Cu  Cu25  1  0.25000000  0.32332300  0.35259800  1
  Cu  Cu26  1  0.49127900  0.83450000  0.66878000  1
  Cu  Cu27  1  0.49116200  0.83452600  0.16547400  1
  Cu  Cu28  1  0.49127900  0.33122000  0.16550000  1
  Cu  Cu29  1  0.50872100  0.16550000  0.33122000  1
  Cu  Cu30  1  0.50883800  0.16547400  0.83452600  1
  Cu  Cu31  1  0.50872100  0.66878000  0.83450000  1
  Cu  Cu32  1  0.99127900  0.16550000  0.33122000  1
  Cu  Cu33  1  0.99116200  0.16547400  0.83452600  1
  Cu  Cu34  1  0.99127900  0.66878000  0.83450000  1
  Cu  Cu35  1  0.00872100  0.83450000  0.66878000  1
  Cu  Cu36  1  0.00883800  0.83452600  0.16547400  1
  Cu  Cu37  1  0.00872100  0.33122000  0.16550000  1
