# generated using pymatgen
data_CuNi10C7
_symmetry_space_group_name_H-M   'P 1'
_cell_length_a   7.42993196
_cell_length_b   9.09774949
_cell_length_c   10.01815233
_cell_angle_alpha   87.06288176
_cell_angle_beta   92.89391492
_cell_angle_gamma   74.53369001
_symmetry_Int_Tables_number   1
_chemical_formula_structural   CuNi10C7
_chemical_formula_sum   'Cu1 Ni10 C7'
_cell_volume   650.35440042
_cell_formula_units_Z   1
loop_
 _symmetry_equiv_pos_site_id
 _symmetry_equiv_pos_as_xyz
  1  'x, y, z'
loop_
 _atom_site_type_symbol
 _atom_site_label
 _atom_site_symmetry_multiplicity
 _atom_site_fract_x
 _atom_site_fract_y
 _atom_site_fract_z
 _atom_site_occupancy
  C  C0  1  0.11920500  0.22013600  0.28412900  1
  C  C1  1  0.48747800  0.37752400  0.36164600  1
  C  C2  1  0.50982300  0.63640900  0.64914800  1
  C  C3  1  0.90309400  0.83352800  0.02318000  1
  C  C4  1  0.07685800  0.20560100  0.97658900  1
  C  C5  1  0.20292800  0.92797400  0.13878400  1
  C  C6  1  0.78380800  0.10603400  0.86299600  1
  Ni  Ni7  1  0.45841900  0.18320500  0.16740400  1
  Ni  Ni8  1  0.59757300  0.53671300  0.19454000  1
  Ni  Ni9  1  0.13645700  0.51217700  0.28687900  1
  Ni  Ni10  1  0.82371500  0.19668600  0.41527100  1
  Ni  Ni11  1  0.67630000  0.77014600  0.49321300  1
  Ni  Ni12  1  0.34681600  0.18672600  0.50397000  1
  Ni  Ni13  1  0.19559200  0.79853900  0.56436300  1
  Ni  Ni14  1  0.83876000  0.45626900  0.72739900  1
  Ni  Ni15  1  0.37309200  0.48099100  0.80832100  1
  Ni  Ni16  1  0.53125900  0.82177100  0.83025700  1
  Cu  Cu17  1  0.49715800  0.49242300  0.50565800  1
