# generated using pymatgen
data_Cu(NiC5)3
_symmetry_space_group_name_H-M   'P 1'
_cell_length_a   10.60700200
_cell_length_b   5.70097700
_cell_length_c   9.24370868
_cell_angle_alpha   73.84600663
_cell_angle_beta   90.00000000
_cell_angle_gamma   90.00000000
_symmetry_Int_Tables_number   1
_chemical_formula_structural   Cu(NiC5)3
_chemical_formula_sum   'Cu2 Ni6 C30'
_cell_volume   536.90002590
_cell_formula_units_Z   2
loop_
 _symmetry_equiv_pos_site_id
 _symmetry_equiv_pos_as_xyz
  1  'x, y, z'
loop_
 _atom_site_type_symbol
 _atom_site_label
 _atom_site_symmetry_multiplicity
 _atom_site_fract_x
 _atom_site_fract_y
 _atom_site_fract_z
 _atom_site_occupancy
  Ni  Ni0  1  0.50000000  0.00000000  0.50000000  1
  Ni  Ni1  1  0.49859300  0.00346300  0.16791900  1
  Ni  Ni2  1  0.50140700  0.99653700  0.83208100  1
  Ni  Ni3  1  0.00000000  0.00000000  0.50000000  1
  Ni  Ni4  1  0.00140700  0.00346300  0.16791900  1
  Ni  Ni5  1  0.99859300  0.99653700  0.83208100  1
  Cu  Cu6  1  0.75000000  0.46865000  0.75343300  1
  Cu  Cu7  1  0.25000000  0.53135000  0.24656700  1
  C  C8  1  0.75000000  0.61239400  0.57178900  1
  C  C9  1  0.75000000  0.64350000  0.21863000  1
  C  C10  1  0.75000000  0.61328000  0.88781400  1
  C  C11  1  0.25000000  0.38760600  0.42821100  1
  C  C12  1  0.25000000  0.38672000  0.11218600  1
  C  C13  1  0.25000000  0.35650000  0.78137000  1
  C  C14  1  0.40898200  0.12478600  0.64114600  1
  C  C15  1  0.40272500  0.12010200  0.31920900  1
  C  C16  1  0.40732400  0.12221400  0.97564200  1
  C  C17  1  0.59101800  0.87521400  0.35885400  1
  C  C18  1  0.59267600  0.87778600  0.02435800  1
  C  C19  1  0.59727500  0.87989800  0.68079100  1
  C  C20  1  0.09153300  0.72780600  0.54706900  1
  C  C21  1  0.11646500  0.72374200  0.21245100  1
  C  C22  1  0.08972700  0.73010200  0.87802100  1
  C  C23  1  0.90846700  0.27219400  0.45293100  1
  C  C24  1  0.91027300  0.26989800  0.12197900  1
  C  C25  1  0.88353500  0.27625800  0.78754900  1
  C  C26  1  0.59153300  0.27219400  0.45293100  1
  C  C27  1  0.58972700  0.26989800  0.12197900  1
  C  C28  1  0.61646500  0.27625800  0.78754900  1
  C  C29  1  0.40846700  0.72780600  0.54706900  1
  C  C30  1  0.38353500  0.72374200  0.21245100  1
  C  C31  1  0.41027300  0.73010200  0.87802100  1
  C  C32  1  0.09101800  0.12478600  0.64114600  1
  C  C33  1  0.09727500  0.12010200  0.31920900  1
  C  C34  1  0.09267600  0.12221400  0.97564200  1
  C  C35  1  0.90898200  0.87521400  0.35885400  1
  C  C36  1  0.90732400  0.87778600  0.02435800  1
  C  C37  1  0.90272500  0.87989800  0.68079100  1
