# generated using pymatgen
data_Cu2NiC22
_symmetry_space_group_name_H-M   'P 1'
_cell_length_a   7.51673462
_cell_length_b   7.91325403
_cell_length_c   7.51827476
_cell_angle_alpha   62.57916241
_cell_angle_beta   63.53764676
_cell_angle_gamma   88.85091603
_symmetry_Int_Tables_number   1
_chemical_formula_structural   Cu2NiC22
_chemical_formula_sum   'Cu2 Ni1 C22'
_cell_volume   345.58504062
_cell_formula_units_Z   1
loop_
 _symmetry_equiv_pos_site_id
 _symmetry_equiv_pos_as_xyz
  1  'x, y, z'
loop_
 _atom_site_type_symbol
 _atom_site_label
 _atom_site_symmetry_multiplicity
 _atom_site_fract_x
 _atom_site_fract_y
 _atom_site_fract_z
 _atom_site_occupancy
  C  C0  1  0.24885051  0.78666688  0.73731861  1
  C  C1  1  0.75836798  0.20012107  0.25865455  1
  Ni  Ni2  1  0.33401204  0.64678364  0.24934648  1
  Cu  Cu3  1  0.79951231  0.19666435  0.74224788  1
  Cu  Cu4  1  0.10951887  0.91000646  0.26444763  1
  C  C5  1  0.29863076  0.30660722  0.70241413  1
  C  C6  1  0.72118531  0.67206789  0.29988960  1
  C  C7  1  0.69651064  0.69318678  0.79956710  1
  C  C8  1  0.32566436  0.29055582  0.19557570  1
  C  C9  1  0.39298165  0.26823282  0.91373834  1
  C  C10  1  0.63014452  0.74623888  0.06508119  1
  C  C11  1  0.75853822  0.60940115  0.55842988  1
  C  C12  1  0.23148625  0.36457236  0.44856093  1
  C  C13  1  0.62769845  0.91732708  0.62664267  1
  C  C14  1  0.39825312  0.06877848  0.36488596  1
  C  C15  1  0.04745739  0.32806014  0.88458172  1
  C  C16  1  0.96592362  0.64852281  0.11236140  1
  C  C17  1  0.39694896  0.62154404  0.51655884  1
  C  C18  1  0.60344761  0.37434348  0.44914360  1
  C  C19  1  0.35800663  0.58697291  0.99269006  1
  C  C20  1  0.64487620  0.41106991  0.02945484  1
  C  C21  1  0.24877570  0.04715601  0.78769406  1
  C  C22  1  0.78137350  0.93773175  0.20689942  1
  C  C23  1  0.98485845  0.76766898  0.68910998  1
  C  C24  1  0.03697697  0.19971907  0.30113441  1
