# generated using pymatgen
data_Cu2NiC8
_symmetry_space_group_name_H-M   'P 1'
_cell_length_a   7.63173305
_cell_length_b   7.63173305
_cell_length_c   7.63173305
_cell_angle_alpha   120.56043362
_cell_angle_beta   119.78630722
_cell_angle_gamma   89.70128928
_symmetry_Int_Tables_number   1
_chemical_formula_structural   Cu2NiC8
_chemical_formula_sum   'Cu4 Ni2 C16'
_cell_volume   313.46107858
_cell_formula_units_Z   2
loop_
 _symmetry_equiv_pos_site_id
 _symmetry_equiv_pos_as_xyz
  1  'x, y, z'
loop_
 _atom_site_type_symbol
 _atom_site_label
 _atom_site_symmetry_multiplicity
 _atom_site_fract_x
 _atom_site_fract_y
 _atom_site_fract_z
 _atom_site_occupancy
  C  C0  1  0.50000000  0.50000000  0.00000000  1
  C  C1  1  0.00000000  0.50000000  0.50000000  1
  Ni  Ni2  1  0.50000000  0.50000000  0.50000000  1
  Ni  Ni3  1  0.50000000  0.00000000  0.00000000  1
  Cu  Cu4  1  0.00000000  0.00000000  0.50000000  1
  Cu  Cu5  1  0.00000000  0.50000000  0.00000000  1
  Cu  Cu6  1  0.00000000  0.00000000  0.00000000  1
  Cu  Cu7  1  0.50000000  0.00000000  0.50000000  1
  C  C8  1  0.79896600  0.54896600  0.25000000  1
  C  C9  1  0.39859600  0.14859600  0.25000000  1
  C  C10  1  0.84915900  0.17711100  0.27851900  1
  C  C11  1  0.39859200  0.57064000  0.22148100  1
  C  C12  1  0.84915900  0.57064000  0.67204800  1
  C  C13  1  0.39859200  0.17711100  0.82795200  1
  C  C14  1  0.20103400  0.45103400  0.75000000  1
  C  C15  1  0.60140400  0.85140400  0.75000000  1
  C  C16  1  0.15084100  0.82288900  0.72148100  1
  C  C17  1  0.60140800  0.42936000  0.77851900  1
  C  C18  1  0.15084100  0.42936000  0.32795200  1
  C  C19  1  0.60140800  0.82288900  0.17204800  1
  C  C20  1  0.12006100  0.87006100  0.25000000  1
  C  C21  1  0.87993900  0.12993900  0.75000000  1
