# generated using pymatgen
data_Cu7Ni4
_symmetry_space_group_name_H-M   'P 1'
_cell_length_a   3.90221600
_cell_length_b   6.47984000
_cell_length_c   15.53648059
_cell_angle_alpha   80.41378010
_cell_angle_beta   90.00000000
_cell_angle_gamma   90.00000000
_symmetry_Int_Tables_number   1
_chemical_formula_structural   Cu7Ni4
_chemical_formula_sum   'Cu14 Ni8'
_cell_volume   387.36560618
_cell_formula_units_Z   2
loop_
 _symmetry_equiv_pos_site_id
 _symmetry_equiv_pos_as_xyz
  1  'x, y, z'
loop_
 _atom_site_type_symbol
 _atom_site_label
 _atom_site_symmetry_multiplicity
 _atom_site_fract_x
 _atom_site_fract_y
 _atom_site_fract_z
 _atom_site_occupancy
  Ni  Ni0  1  0.00000000  0.93786400  0.90361200  1
  Ni  Ni1  1  0.00000000  0.39201400  0.50389600  1
  Ni  Ni2  1  0.50000000  0.28525100  0.34909000  1
  Ni  Ni3  1  0.50000000  0.52187900  0.65562600  1
  Ni  Ni4  1  0.00000000  0.44978400  0.84443600  1
  Ni  Ni5  1  0.50000000  0.73050000  0.19233400  1
  Ni  Ni6  1  0.50000000  0.74410900  0.41822200  1
  Ni  Ni7  1  0.50000000  0.05066900  0.58069100  1
  Cu  Cu8  1  0.50000000  0.20585800  0.97306900  1
  Cu  Cu9  1  0.50000000  0.58778400  0.97511300  1
  Cu  Cu10  1  0.00000000  0.66828500  0.06047400  1
  Cu  Cu11  1  0.00000000  0.40298000  0.19292100  1
  Cu  Cu12  1  0.00000000  0.76091900  0.55546200  1
  Cu  Cu13  1  0.00000000  0.03985500  0.43467200  1
  Cu  Cu14  1  0.50000000  0.15642100  0.17700800  1
  Cu  Cu15  1  0.50000000  0.76274700  0.80987600  1
  Cu  Cu16  1  0.00000000  0.20215200  0.69583500  1
  Cu  Cu17  1  0.00000000  0.04945300  0.07132700  1
  Cu  Cu18  1  0.00000000  0.58889400  0.31776700  1
  Cu  Cu19  1  0.50000000  0.17235800  0.80375300  1
  Cu  Cu20  1  0.00000000  0.82186600  0.70755500  1
  Cu  Cu21  1  0.00000000  0.97202000  0.28083900  1
