# generated using pymatgen
data_Cu11(NiC2)10
_symmetry_space_group_name_H-M   'P 1'
_cell_length_a   7.24158800
_cell_length_b   9.23369192
_cell_length_c   12.21562285
_cell_angle_alpha   104.32076385
_cell_angle_beta   88.15180073
_cell_angle_gamma   101.49298980
_symmetry_Int_Tables_number   1
_chemical_formula_structural   Cu11(NiC2)10
_chemical_formula_sum   'Cu22 Ni20 C40'
_cell_volume   775.44163659
_cell_formula_units_Z   2
loop_
 _symmetry_equiv_pos_site_id
 _symmetry_equiv_pos_as_xyz
  1  'x, y, z'
loop_
 _atom_site_type_symbol
 _atom_site_label
 _atom_site_symmetry_multiplicity
 _atom_site_fract_x
 _atom_site_fract_y
 _atom_site_fract_z
 _atom_site_occupancy
  C  C0  1  0.73984100  0.06228700  0.77058600  1
  C  C1  1  0.26015900  0.93771300  0.22941400  1
  Ni  Ni2  1  0.98169500  0.97010900  0.69361600  1
  Ni  Ni3  1  0.01830500  0.02989100  0.30638400  1
  Ni  Ni4  1  0.75423300  0.88010200  0.85956800  1
  Ni  Ni5  1  0.24576700  0.11989800  0.14043200  1
  Ni  Ni6  1  0.91476700  0.77372700  0.74200900  1
  Ni  Ni7  1  0.08523300  0.22627300  0.25799100  1
  Ni  Ni8  1  0.54280100  0.85311900  0.77628400  1
  Ni  Ni9  1  0.45719900  0.14688100  0.22371600  1
  Ni  Ni10  1  0.65857000  0.69914500  0.76840300  1
  Ni  Ni11  1  0.34143000  0.30085500  0.23159700  1
  Ni  Ni12  1  0.91258700  0.79209200  0.59073300  1
  Ni  Ni13  1  0.08741300  0.20790800  0.40926700  1
  Ni  Ni14  1  0.57153900  0.89898000  0.64033500  1
  Ni  Ni15  1  0.42846100  0.10102000  0.35966500  1
  Ni  Ni16  1  0.75215200  0.64986400  0.63401600  1
  Ni  Ni17  1  0.24784800  0.35013600  0.36598400  1
  Ni  Ni18  1  0.67923900  0.75830300  0.54686400  1
  Ni  Ni19  1  0.32076100  0.24169700  0.45313600  1
  Ni  Ni20  1  0.52631900  0.70572600  0.65237600  1
  Ni  Ni21  1  0.47368100  0.29427400  0.34762400  1
  C  C22  1  0.05078200  0.01923500  0.87855600  1
  C  C23  1  0.94921800  0.98076500  0.12144400  1
  C  C24  1  0.12704500  0.04308600  0.67099300  1
  C  C25  1  0.87295500  0.95691400  0.32900700  1
  C  C26  1  0.74238800  0.88853500  0.95923000  1
  C  C27  1  0.25761200  0.11146500  0.04077000  1
  C  C28  1  0.03685700  0.71922500  0.76954200  1
  C  C29  1  0.96314300  0.28077500  0.23045800  1
  C  C30  1  0.83144200  0.00557000  0.53994200  1
  C  C31  1  0.16855800  0.99443000  0.46005800  1
  C  C32  1  0.40412600  0.86926800  0.83096000  1
  C  C33  1  0.59587400  0.13073200  0.16904000  1
  C  C34  1  0.61139400  0.60481700  0.82153000  1
  C  C35  1  0.38860600  0.39518300  0.17847000  1
  C  C36  1  0.03494900  0.77194300  0.52402000  1
  C  C37  1  0.96505100  0.22805700  0.47598000  1
  C  C38  1  0.45673200  0.94750200  0.59932700  1
  C  C39  1  0.54326800  0.05249800  0.40067300  1
  C  C40  1  0.77431100  0.52173600  0.59768400  1
  C  C41  1  0.22568900  0.47826400  0.40231600  1
  C  C42  1  0.63995700  0.71971300  0.44849700  1
  C  C43  1  0.36004300  0.28028700  0.55150300  1
  C  C44  1  0.37856400  0.62102100  0.62426300  1
  C  C45  1  0.62143600  0.37897900  0.37573700  1
  C  C46  1  0.62411900  0.25067100  0.64642200  1
  C  C47  1  0.37588100  0.74932900  0.35357800  1
  C  C48  1  0.39377600  0.15042600  0.80042600  1
  C  C49  1  0.60622400  0.84957400  0.19957400  1
  C  C50  1  0.60125100  0.17260800  0.98638600  1
  C  C51  1  0.39874900  0.82739200  0.01361400  1
  C  C52  1  0.00766500  0.29486500  0.04444900  1
  C  C53  1  0.99233500  0.70513500  0.95555100  1
  C  C54  1  0.30581000  0.41168000  0.96880300  1
  C  C55  1  0.69419000  0.58832000  0.03119700  1
  C  C56  1  0.31717600  0.46700400  0.77929700  1
  C  C57  1  0.68282400  0.53299600  0.22070300  1
  C  C58  1  0.03190800  0.39770700  0.65611900  1
  C  C59  1  0.96809200  0.60229300  0.34388100  1
  Cu  Cu60  1  0.93766500  0.96278900  0.81656700  1
  Cu  Cu61  1  0.06233500  0.03721100  0.18343300  1
  Cu  Cu62  1  0.79731900  0.93593400  0.60095400  1
  Cu  Cu63  1  0.20268100  0.06406600  0.39904600  1
  Cu  Cu64  1  0.85350000  0.30424000  0.77996900  1
  Cu  Cu65  1  0.14650000  0.69576000  0.22003100  1
  Cu  Cu66  1  0.66699700  0.24783700  0.73019800  1
  Cu  Cu67  1  0.33300300  0.75216300  0.26980200  1
  Cu  Cu68  1  0.54407200  0.19519200  0.81234800  1
  Cu  Cu69  1  0.45592800  0.80480800  0.18765200  1
  Cu  Cu70  1  0.65453800  0.20522000  0.90992200  1
  Cu  Cu71  1  0.34546200  0.79478000  0.09007800  1
  Cu  Cu72  1  0.84605300  0.27675700  0.89205500  1
  Cu  Cu73  1  0.15394700  0.72324300  0.10794500  1
  Cu  Cu74  1  0.01226100  0.31472600  0.95988400  1
  Cu  Cu75  1  0.98773900  0.68527400  0.04011600  1
  Cu  Cu76  1  0.17692200  0.38035300  0.91708200  1
  Cu  Cu77  1  0.82307800  0.61964700  0.08291800  1
  Cu  Cu78  1  0.18392200  0.41118100  0.80814600  1
  Cu  Cu79  1  0.81607800  0.58881900  0.19185400  1
  Cu  Cu80  1  0.02600600  0.37339300  0.73920800  1
  Cu  Cu81  1  0.97399400  0.62660700  0.26079200  1
