# generated using pymatgen
data_CuNiC10
_symmetry_space_group_name_H-M   'P 1'
_cell_length_a   10.06111819
_cell_length_b   10.06111819
_cell_length_c   6.39291900
_cell_angle_alpha   90.00000000
_cell_angle_beta   90.00000000
_cell_angle_gamma   120.00000126
_symmetry_Int_Tables_number   1
_chemical_formula_structural   CuNiC10
_chemical_formula_sum   'Cu2 Ni2 C20'
_cell_volume   560.43123181
_cell_formula_units_Z   2
loop_
 _symmetry_equiv_pos_site_id
 _symmetry_equiv_pos_as_xyz
  1  'x, y, z'
loop_
 _atom_site_type_symbol
 _atom_site_label
 _atom_site_symmetry_multiplicity
 _atom_site_fract_x
 _atom_site_fract_y
 _atom_site_fract_z
 _atom_site_occupancy
  C  C0  1  0.15161900  0.37083300  0.17999500  1
  C  C1  1  0.21921400  0.84838100  0.17999500  1
  C  C2  1  0.62916700  0.78078600  0.17999500  1
  C  C3  1  0.84838100  0.62916700  0.67999500  1
  C  C4  1  0.78078600  0.15161900  0.67999500  1
  C  C5  1  0.37083300  0.21921400  0.67999500  1
  Ni  Ni6  1  0.66666700  0.33333300  0.11551100  1
  Ni  Ni7  1  0.33333300  0.66666700  0.61551100  1
  Cu  Cu8  1  0.00000000  0.00000000  0.03124000  1
  Cu  Cu9  1  0.00000000  0.00000000  0.53124000  1
  C  C10  1  0.88194600  0.08591700  0.28318300  1
  C  C11  1  0.20397100  0.11805400  0.28318300  1
  C  C12  1  0.91408300  0.79602900  0.28318300  1
  C  C13  1  0.11805400  0.91408300  0.78318300  1
  C  C14  1  0.79602900  0.88194600  0.78318300  1
  C  C15  1  0.08591700  0.20397100  0.78318300  1
  C  C16  1  0.43452300  0.51394900  0.44745700  1
  C  C17  1  0.07942600  0.56547700  0.44745700  1
  C  C18  1  0.48605100  0.92057400  0.44745700  1
  C  C19  1  0.56547700  0.48605100  0.94745700  1
  C  C20  1  0.92057400  0.43452300  0.94745700  1
  C  C21  1  0.51394900  0.07942600  0.94745700  1
  C  C22  1  0.66666700  0.33333300  0.49246400  1
  C  C23  1  0.33333300  0.66666700  0.99246400  1
