# generated using pymatgen
data_Cu2NiC11
_symmetry_space_group_name_H-M   'P 1'
_cell_length_a   15.10160855
_cell_length_b   15.10160855
_cell_length_c   5.90052108
_cell_angle_alpha   84.15877236
_cell_angle_beta   84.15877236
_cell_angle_gamma   10.94641031
_symmetry_Int_Tables_number   1
_chemical_formula_structural   Cu2NiC11
_chemical_formula_sum   'Cu4 Ni2 C22'
_cell_volume   254.19028609
_cell_formula_units_Z   2
loop_
 _symmetry_equiv_pos_site_id
 _symmetry_equiv_pos_as_xyz
  1  'x, y, z'
loop_
 _atom_site_type_symbol
 _atom_site_label
 _atom_site_symmetry_multiplicity
 _atom_site_fract_x
 _atom_site_fract_y
 _atom_site_fract_z
 _atom_site_occupancy
  C  C0  1  0.57658300  0.57658300  0.21752600  1
  C  C1  1  0.71071600  0.71071600  0.64042700  1
  C  C2  1  0.85261200  0.85261200  0.07546800  1
  C  C3  1  0.14538200  0.14538200  0.92760400  1
  C  C4  1  0.28325500  0.28325500  0.35382100  1
  C  C5  1  0.42702300  0.42702300  0.78322800  1
  C  C6  1  0.00458100  0.00458100  0.50087800  1
  C  C7  1  0.14337600  0.14337600  0.42628600  1
  Ni  Ni8  1  0.00233200  0.00233200  0.99377100  1
  Ni  Ni9  1  0.42792600  0.42792600  0.29129700  1
  Cu  Cu10  1  0.28390800  0.28390800  0.86690200  1
  Cu  Cu11  1  0.58077400  0.58077400  0.69561100  1
  Cu  Cu12  1  0.70706700  0.70706700  0.15354400  1
  Cu  Cu13  1  0.85344200  0.85344200  0.57273600  1
  C  C14  1  0.50290200  0.50290200  0.21589700  1
  C  C15  1  0.63990100  0.63990100  0.68544600  1
  C  C16  1  0.78519400  0.78519400  0.09608900  1
  C  C17  1  0.06571700  0.06571700  0.94177700  1
  C  C18  1  0.21436600  0.21436600  0.36718700  1
  C  C19  1  0.35678000  0.35678000  0.80633200  1
  C  C20  1  0.92840400  0.92840400  0.51635700  1
  C  C21  1  0.64665900  0.64665900  0.17306200  1
  C  C22  1  0.78630300  0.78630300  0.62180600  1
  C  C23  1  0.93385400  0.93385400  0.05891800  1
  C  C24  1  0.21622700  0.21622700  0.91720400  1
  C  C25  1  0.35597100  0.35597100  0.33920600  1
  C  C26  1  0.49791700  0.49791700  0.77803500  1
  C  C27  1  0.07082800  0.07082800  0.48358300  1
