# generated using pymatgen
data_Cu4Ni43C6
_symmetry_space_group_name_H-M   'P 1'
_cell_length_a   10.97020370
_cell_length_b   10.97020370
_cell_length_c   17.52616100
_cell_angle_alpha   90.00000000
_cell_angle_beta   90.00000000
_cell_angle_gamma   119.99999818
_symmetry_Int_Tables_number   1
_chemical_formula_structural   Cu4Ni43C6
_chemical_formula_sum   'Cu8 Ni86 C12'
_cell_volume   1826.61416046
_cell_formula_units_Z   2
loop_
 _symmetry_equiv_pos_site_id
 _symmetry_equiv_pos_as_xyz
  1  'x, y, z'
loop_
 _atom_site_type_symbol
 _atom_site_label
 _atom_site_symmetry_multiplicity
 _atom_site_fract_x
 _atom_site_fract_y
 _atom_site_fract_z
 _atom_site_occupancy
  C  C0  1  0.47042400  0.47042400  0.90470600  1
  C  C1  1  0.52957600  0.00000000  0.90470600  1
  C  C2  1  0.00000000  0.52957600  0.90470600  1
  C  C3  1  0.52957600  0.52957600  0.09529400  1
  C  C4  1  0.47042400  0.00000000  0.09529400  1
  C  C5  1  0.00000000  0.47042400  0.09529400  1
  C  C6  1  0.52957600  0.52957600  0.40470600  1
  C  C7  1  0.47042400  0.00000000  0.40470600  1
  C  C8  1  0.00000000  0.47042400  0.40470600  1
  C  C9  1  0.47042400  0.47042400  0.59529400  1
  C  C10  1  0.52957600  0.00000000  0.59529400  1
  C  C11  1  0.00000000  0.52957600  0.59529400  1
  Ni  Ni12  1  0.84005600  0.23115600  0.83481600  1
  Ni  Ni13  1  0.76884400  0.60890000  0.83481600  1
  Ni  Ni14  1  0.39110000  0.15994400  0.83481600  1
  Ni  Ni15  1  0.23115600  0.84005600  0.83481600  1
  Ni  Ni16  1  0.60890000  0.76884400  0.83481600  1
  Ni  Ni17  1  0.15994400  0.39110000  0.83481600  1
  Ni  Ni18  1  0.15994400  0.76884400  0.16518400  1
  Ni  Ni19  1  0.23115600  0.39110000  0.16518400  1
  Ni  Ni20  1  0.60890000  0.84005600  0.16518400  1
  Ni  Ni21  1  0.76884400  0.15994400  0.16518400  1
  Ni  Ni22  1  0.39110000  0.23115600  0.16518400  1
  Ni  Ni23  1  0.84005600  0.60890000  0.16518400  1
  Ni  Ni24  1  0.15994400  0.76884400  0.33481600  1
  Ni  Ni25  1  0.23115600  0.39110000  0.33481600  1
  Ni  Ni26  1  0.60890000  0.84005600  0.33481600  1
  Ni  Ni27  1  0.76884400  0.15994400  0.33481600  1
  Ni  Ni28  1  0.39110000  0.23115600  0.33481600  1
  Ni  Ni29  1  0.84005600  0.60890000  0.33481600  1
  Ni  Ni30  1  0.84005600  0.23115600  0.66518400  1
  Ni  Ni31  1  0.76884400  0.60890000  0.66518400  1
  Ni  Ni32  1  0.39110000  0.15994400  0.66518400  1
  Ni  Ni33  1  0.23115600  0.84005600  0.66518400  1
  Ni  Ni34  1  0.60890000  0.76884400  0.66518400  1
  Ni  Ni35  1  0.15994400  0.39110000  0.66518400  1
  Ni  Ni36  1  0.84544000  0.84544000  0.38426500  1
  Ni  Ni37  1  0.15456000  0.00000000  0.38426500  1
  Ni  Ni38  1  0.00000000  0.15456000  0.38426500  1
  Ni  Ni39  1  0.15456000  0.15456000  0.61573500  1
  Ni  Ni40  1  0.84544000  0.00000000  0.61573500  1
  Ni  Ni41  1  0.00000000  0.84544000  0.61573500  1
  Ni  Ni42  1  0.15456000  0.15456000  0.88426500  1
  Ni  Ni43  1  0.84544000  0.00000000  0.88426500  1
  Ni  Ni44  1  0.00000000  0.84544000  0.88426500  1
  Ni  Ni45  1  0.84544000  0.84544000  0.11573500  1
  Ni  Ni46  1  0.15456000  0.00000000  0.11573500  1
  Ni  Ni47  1  0.00000000  0.15456000  0.11573500  1
  Ni  Ni48  1  0.74869000  0.74869000  0.96928500  1
  Ni  Ni49  1  0.25131000  0.00000000  0.96928500  1
  Ni  Ni50  1  0.00000000  0.25131000  0.96928500  1
  Ni  Ni51  1  0.25131000  0.25131000  0.03071500  1
  Ni  Ni52  1  0.74869000  0.00000000  0.03071500  1
  Ni  Ni53  1  0.00000000  0.74869000  0.03071500  1
  Ni  Ni54  1  0.25131000  0.25131000  0.46928500  1
  Ni  Ni55  1  0.74869000  0.00000000  0.46928500  1
  Ni  Ni56  1  0.00000000  0.74869000  0.46928500  1
  Ni  Ni57  1  0.74869000  0.74869000  0.53071500  1
  Ni  Ni58  1  0.25131000  0.00000000  0.53071500  1
  Ni  Ni59  1  0.00000000  0.25131000  0.53071500  1
  Ni  Ni60  1  0.85585800  0.45174500  0.75000000  1
  Ni  Ni61  1  0.54825500  0.40411300  0.75000000  1
  Ni  Ni62  1  0.59588700  0.14414200  0.75000000  1
  Ni  Ni63  1  0.45174500  0.85585800  0.75000000  1
  Ni  Ni64  1  0.40411300  0.54825500  0.75000000  1
  Ni  Ni65  1  0.14414200  0.59588700  0.75000000  1
  Ni  Ni66  1  0.14414200  0.54825500  0.25000000  1
  Ni  Ni67  1  0.45174500  0.59588700  0.25000000  1
  Ni  Ni68  1  0.40411300  0.85585800  0.25000000  1
  Ni  Ni69  1  0.54825500  0.14414200  0.25000000  1
  Ni  Ni70  1  0.59588700  0.45174500  0.25000000  1
  Ni  Ni71  1  0.85585800  0.40411300  0.25000000  1
  Ni  Ni72  1  0.75294700  0.24705300  0.00000000  1
  Ni  Ni73  1  0.75294700  0.50589400  0.00000000  1
  Ni  Ni74  1  0.49410600  0.24705300  0.00000000  1
  Ni  Ni75  1  0.24705300  0.75294700  0.00000000  1
  Ni  Ni76  1  0.50589400  0.75294700  0.00000000  1
  Ni  Ni77  1  0.24705300  0.49410600  0.00000000  1
  Ni  Ni78  1  0.24705300  0.75294700  0.50000000  1
  Ni  Ni79  1  0.24705300  0.49410600  0.50000000  1
  Ni  Ni80  1  0.50589400  0.75294700  0.50000000  1
  Ni  Ni81  1  0.75294700  0.24705300  0.50000000  1
  Ni  Ni82  1  0.49410600  0.24705300  0.50000000  1
  Ni  Ni83  1  0.75294700  0.50589400  0.50000000  1
  Ni  Ni84  1  0.66666700  0.33333300  0.87248400  1
  Ni  Ni85  1  0.33333300  0.66666700  0.87248400  1
  Ni  Ni86  1  0.33333300  0.66666700  0.12751600  1
  Ni  Ni87  1  0.66666700  0.33333300  0.12751600  1
  Ni  Ni88  1  0.33333300  0.66666700  0.37248400  1
  Ni  Ni89  1  0.66666700  0.33333300  0.37248400  1
  Ni  Ni90  1  0.66666700  0.33333300  0.62751600  1
  Ni  Ni91  1  0.33333300  0.66666700  0.62751600  1
  Ni  Ni92  1  0.85495200  0.85495200  0.75000000  1
  Ni  Ni93  1  0.14504800  0.00000000  0.75000000  1
  Ni  Ni94  1  0.00000000  0.14504800  0.75000000  1
  Ni  Ni95  1  0.14504800  0.14504800  0.25000000  1
  Ni  Ni96  1  0.85495200  0.00000000  0.25000000  1
  Ni  Ni97  1  0.00000000  0.85495200  0.25000000  1
  Cu  Cu98  1  0.26975100  0.26975100  0.75000000  1
  Cu  Cu99  1  0.73024900  0.00000000  0.75000000  1
  Cu  Cu100  1  0.00000000  0.73024900  0.75000000  1
  Cu  Cu101  1  0.73024900  0.73024900  0.25000000  1
  Cu  Cu102  1  0.26975100  0.00000000  0.25000000  1
  Cu  Cu103  1  0.00000000  0.26975100  0.25000000  1
  Cu  Cu104  1  0.00000000  0.00000000  0.00000000  1
  Cu  Cu105  1  0.00000000  0.00000000  0.50000000  1
