# generated using pymatgen
data_Cu20Ni19
_symmetry_space_group_name_H-M   'P 1'
_cell_length_a   4.92945453
_cell_length_b   4.92945453
_cell_length_c   26.93469900
_cell_angle_alpha   90.00000000
_cell_angle_beta   90.00000000
_cell_angle_gamma   120.00000708
_symmetry_Int_Tables_number   1
_chemical_formula_structural   Cu20Ni19
_chemical_formula_sum   'Cu20 Ni19'
_cell_volume   566.81385418
_cell_formula_units_Z   1
loop_
 _symmetry_equiv_pos_site_id
 _symmetry_equiv_pos_as_xyz
  1  'x, y, z'
loop_
 _atom_site_type_symbol
 _atom_site_label
 _atom_site_symmetry_multiplicity
 _atom_site_fract_x
 _atom_site_fract_y
 _atom_site_fract_z
 _atom_site_occupancy
  Ni  Ni0  1  0.33333300  0.66666700  0.21690400  1
  Ni  Ni1  1  0.00000000  0.00000000  0.54916700  1
  Ni  Ni2  1  0.66666700  0.33333300  0.88139700  1
  Ni  Ni3  1  0.33333300  0.66666700  0.11860300  1
  Ni  Ni4  1  0.00000000  0.00000000  0.45083300  1
  Ni  Ni5  1  0.66666700  0.33333300  0.78309600  1
  Ni  Ni6  1  0.66666700  0.33333300  0.16845400  1
  Ni  Ni7  1  0.33333300  0.66666700  0.50002500  1
  Ni  Ni8  1  0.00000000  0.00000000  0.83167300  1
  Ni  Ni9  1  0.00000000  0.00000000  0.16832700  1
  Ni  Ni10  1  0.66666700  0.33333300  0.49997500  1
  Ni  Ni11  1  0.33333300  0.66666700  0.83154600  1
  Ni  Ni12  1  0.33333300  0.66666700  0.31963700  1
  Ni  Ni13  1  0.00000000  0.00000000  0.65272800  1
  Ni  Ni14  1  0.66666700  0.33333300  0.98415400  1
  Ni  Ni15  1  0.33333300  0.66666700  0.01584600  1
  Ni  Ni16  1  0.00000000  0.00000000  0.34727200  1
  Ni  Ni17  1  0.66666700  0.33333300  0.68036300  1
  Ni  Ni18  1  0.00000000  0.00000000  0.00000000  1
  Cu  Cu19  1  0.34069000  0.17034500  0.07901200  1
  Cu  Cu20  1  0.99980800  0.49990400  0.40862400  1
  Cu  Cu21  1  0.66621500  0.83310700  0.74133700  1
  Cu  Cu22  1  0.82965500  0.65931000  0.07901200  1
  Cu  Cu23  1  0.50009600  0.00019200  0.40862400  1
  Cu  Cu24  1  0.16689300  0.33378500  0.74133700  1
  Cu  Cu25  1  0.82965500  0.17034500  0.07901200  1
  Cu  Cu26  1  0.50009600  0.49990400  0.40862400  1
  Cu  Cu27  1  0.16689300  0.83310700  0.74133700  1
  Cu  Cu28  1  0.33378500  0.16689300  0.25866300  1
  Cu  Cu29  1  0.00019200  0.50009600  0.59137600  1
  Cu  Cu30  1  0.65931000  0.82965500  0.92098800  1
  Cu  Cu31  1  0.83310700  0.66621500  0.25866300  1
  Cu  Cu32  1  0.49990400  0.99980800  0.59137600  1
  Cu  Cu33  1  0.17034500  0.34069000  0.92098800  1
  Cu  Cu34  1  0.83310700  0.16689300  0.25866300  1
  Cu  Cu35  1  0.49990400  0.50009600  0.59137600  1
  Cu  Cu36  1  0.17034500  0.82965500  0.92098800  1
  Cu  Cu37  1  0.66666700  0.33333300  0.33379500  1
  Cu  Cu38  1  0.33333300  0.66666700  0.66620500  1
