# generated using pymatgen
data_Cu6NiC4
_symmetry_space_group_name_H-M   'P 1'
_cell_length_a   7.11157112
_cell_length_b   7.11157112
_cell_length_c   3.54038100
_cell_angle_alpha   90.00000000
_cell_angle_beta   90.00000000
_cell_angle_gamma   119.99999184
_symmetry_Int_Tables_number   1
_chemical_formula_structural   Cu6NiC4
_chemical_formula_sum   'Cu6 Ni1 C4'
_cell_volume   155.06428620
_cell_formula_units_Z   1
loop_
 _symmetry_equiv_pos_site_id
 _symmetry_equiv_pos_as_xyz
  1  'x, y, z'
loop_
 _atom_site_type_symbol
 _atom_site_label
 _atom_site_symmetry_multiplicity
 _atom_site_fract_x
 _atom_site_fract_y
 _atom_site_fract_z
 _atom_site_occupancy
  Ni  Ni0  1  0.00000000  0.00000000  0.00000000  1
  C  C1  1  0.81223000  0.18777000  0.50000000  1
  C  C2  1  0.37554000  0.18777000  0.50000000  1
  C  C3  1  0.33333300  0.66666700  0.00000000  1
  C  C4  1  0.81223000  0.62446000  0.50000000  1
  Cu  Cu5  1  0.19128800  0.80871200  0.50000000  1
  Cu  Cu6  1  0.19128800  0.38257700  0.50000000  1
  Cu  Cu7  1  0.53429700  0.06859500  0.00000000  1
  Cu  Cu8  1  0.93140500  0.46570300  0.00000000  1
  Cu  Cu9  1  0.53429700  0.46570300  0.00000000  1
  Cu  Cu10  1  0.61742300  0.80871200  0.50000000  1
