# generated using pymatgen
data_Cu14NiC4
_symmetry_space_group_name_H-M   'P 1'
_cell_length_a   8.26120751
_cell_length_b   8.26120714
_cell_length_c   10.30359400
_cell_angle_alpha   90.00000000
_cell_angle_beta   90.00000000
_cell_angle_gamma   120.00000258
_symmetry_Int_Tables_number   1
_chemical_formula_structural   Cu14NiC4
_chemical_formula_sum   'Cu28 Ni2 C8'
_cell_volume   608.98472648
_cell_formula_units_Z   2
loop_
 _symmetry_equiv_pos_site_id
 _symmetry_equiv_pos_as_xyz
  1  'x, y, z'
loop_
 _atom_site_type_symbol
 _atom_site_label
 _atom_site_symmetry_multiplicity
 _atom_site_fract_x
 _atom_site_fract_y
 _atom_site_fract_z
 _atom_site_occupancy
  C  C0  1  0.00000000  0.00000000  0.81598600  1
  C  C1  1  0.00000000  0.00000000  0.18401400  1
  C  C2  1  0.58171000  0.71000100  0.99353400  1
  C  C3  1  0.41829000  0.28999900  0.00646600  1
  C  C4  1  0.12829100  0.41829000  0.99353400  1
  C  C5  1  0.87170900  0.58171000  0.00646600  1
  C  C6  1  0.28999900  0.87170900  0.99353400  1
  C  C7  1  0.71000100  0.12829100  0.00646600  1
  Ni  Ni8  1  0.66666700  0.33333300  0.69230900  1
  Ni  Ni9  1  0.33333300  0.66666700  0.30769100  1
  Cu  Cu10  1  0.79740700  0.27339600  0.64020700  1
  Cu  Cu11  1  0.20259300  0.72660400  0.35979300  1
  Cu  Cu12  1  0.47599000  0.20259300  0.64020700  1
  Cu  Cu13  1  0.52401000  0.79740700  0.35979300  1
  Cu  Cu14  1  0.72660400  0.52401000  0.64020700  1
  Cu  Cu15  1  0.27339600  0.47599000  0.35979300  1
  Cu  Cu16  1  0.93278000  0.17458400  0.89904900  1
  Cu  Cu17  1  0.06722000  0.82541600  0.10095100  1
  Cu  Cu18  1  0.24180400  0.06722000  0.89904900  1
  Cu  Cu19  1  0.75819600  0.93278000  0.10095100  1
  Cu  Cu20  1  0.82541600  0.75819600  0.89904900  1
  Cu  Cu21  1  0.17458400  0.24180400  0.10095100  1
  Cu  Cu22  1  0.52111900  0.89151500  0.91927400  1
  Cu  Cu23  1  0.47888100  0.10848500  0.08072600  1
  Cu  Cu24  1  0.37039600  0.47888100  0.91927400  1
  Cu  Cu25  1  0.62960400  0.52111900  0.08072600  1
  Cu  Cu26  1  0.10848500  0.62960400  0.91927400  1
  Cu  Cu27  1  0.89151500  0.37039600  0.08072600  1
  Cu  Cu28  1  0.77726200  0.99470400  0.72488500  1
  Cu  Cu29  1  0.22273800  0.00529600  0.27511500  1
  Cu  Cu30  1  0.21744200  0.22273800  0.72488500  1
  Cu  Cu31  1  0.78255800  0.77726200  0.27511500  1
  Cu  Cu32  1  0.00529600  0.78255800  0.72488500  1
  Cu  Cu33  1  0.99470400  0.21744200  0.27511500  1
  Cu  Cu34  1  0.00000000  0.00000000  0.55833800  1
  Cu  Cu35  1  0.00000000  0.00000000  0.44166200  1
  Cu  Cu36  1  0.66666700  0.33333300  0.83702200  1
  Cu  Cu37  1  0.33333300  0.66666700  0.16297800  1
