# generated using pymatgen
data_Cu9(NiC)2
_symmetry_space_group_name_H-M   'P 1'
_cell_length_a   13.78468900
_cell_length_b   9.45028100
_cell_length_c   20.03203363
_cell_angle_alpha   64.00357859
_cell_angle_beta   90.00000000
_cell_angle_gamma   90.00000000
_symmetry_Int_Tables_number   1
_chemical_formula_structural   Cu9(NiC)2
_chemical_formula_sum   'Cu108 Ni24 C24'
_cell_volume   2345.52545727
_cell_formula_units_Z   12
loop_
 _symmetry_equiv_pos_site_id
 _symmetry_equiv_pos_as_xyz
  1  'x, y, z'
loop_
 _atom_site_type_symbol
 _atom_site_label
 _atom_site_symmetry_multiplicity
 _atom_site_fract_x
 _atom_site_fract_y
 _atom_site_fract_z
 _atom_site_occupancy
  C  C0  1  0.11330700  0.88850400  0.13578100  1
  C  C1  1  0.61330700  0.11149600  0.36421900  1
  C  C2  1  0.88669300  0.11149600  0.86421900  1
  C  C3  1  0.38669300  0.88850400  0.63578100  1
  C  C4  1  0.40211500  0.87234200  0.14679900  1
  C  C5  1  0.90211500  0.12765800  0.35320100  1
  C  C6  1  0.59788500  0.12765800  0.85320100  1
  C  C7  1  0.09788500  0.87234200  0.64679900  1
  C  C8  1  0.26972000  0.84754900  0.99236700  1
  C  C9  1  0.76972000  0.15245100  0.50763300  1
  C  C10  1  0.73028000  0.15245100  0.00763300  1
  C  C11  1  0.23028000  0.84754900  0.49236700  1
  C  C12  1  0.24094400  0.54783300  0.27681700  1
  C  C13  1  0.74094400  0.45216700  0.22318300  1
  C  C14  1  0.75905600  0.45216700  0.72318300  1
  C  C15  1  0.25905600  0.54783300  0.77681700  1
  C  C16  1  0.38396300  0.49433700  0.13471200  1
  C  C17  1  0.88396300  0.50566300  0.36528800  1
  C  C18  1  0.61603700  0.50566300  0.86528800  1
  C  C19  1  0.11603700  0.49433700  0.63471200  1
  C  C20  1  0.12071900  0.49549300  0.12506500  1
  C  C21  1  0.62071900  0.50450700  0.37493500  1
  C  C22  1  0.87928100  0.50450700  0.87493500  1
  C  C23  1  0.37928100  0.49549300  0.62506500  1
  Ni  Ni24  1  0.39231400  0.48329600  0.45436200  1
  Ni  Ni25  1  0.89231400  0.51670400  0.04563800  1
  Ni  Ni26  1  0.60768600  0.51670400  0.54563800  1
  Ni  Ni27  1  0.10768600  0.48329600  0.95436200  1
  Ni  Ni28  1  0.39598100  0.25749200  0.05151800  1
  Ni  Ni29  1  0.89598100  0.74250800  0.44848200  1
  Ni  Ni30  1  0.60401900  0.74250800  0.94848200  1
  Ni  Ni31  1  0.10401900  0.25749200  0.55151800  1
  Ni  Ni32  1  0.14912300  0.70171500  0.37884900  1
  Ni  Ni33  1  0.64912300  0.29828500  0.12115100  1
  Ni  Ni34  1  0.85087700  0.29828500  0.62115100  1
  Ni  Ni35  1  0.35087700  0.70171500  0.87884900  1
  Ni  Ni36  1  0.05858900  0.13284000  0.21254300  1
  Ni  Ni37  1  0.55858900  0.86716000  0.28745700  1
  Ni  Ni38  1  0.94141100  0.86716000  0.78745700  1
  Ni  Ni39  1  0.44141100  0.13284000  0.71254300  1
  Ni  Ni40  1  0.37718300  0.11438300  0.31930100  1
  Ni  Ni41  1  0.87718300  0.88561700  0.18069900  1
  Ni  Ni42  1  0.62281700  0.88561700  0.68069900  1
  Ni  Ni43  1  0.12281700  0.11438300  0.81930100  1
  Ni  Ni44  1  0.14314500  0.20231000  0.38209200  1
  Ni  Ni45  1  0.64314500  0.79769000  0.11790800  1
  Ni  Ni46  1  0.85685500  0.79769000  0.61790800  1
  Ni  Ni47  1  0.35685500  0.20231000  0.88209200  1
  Cu  Cu48  1  0.25928000  0.93137000  0.08344500  1
  Cu  Cu49  1  0.75928000  0.06863000  0.41655500  1
  Cu  Cu50  1  0.74072000  0.06863000  0.91655500  1
  Cu  Cu51  1  0.24072000  0.93137000  0.58344500  1
  Cu  Cu52  1  0.12183000  0.62545900  0.19443200  1
  Cu  Cu53  1  0.62183000  0.37454100  0.30556800  1
  Cu  Cu54  1  0.87817000  0.37454100  0.80556800  1
  Cu  Cu55  1  0.37817000  0.62545900  0.69443200  1
  Cu  Cu56  1  0.37851900  0.61235400  0.20780700  1
  Cu  Cu57  1  0.87851900  0.38764600  0.29219300  1
  Cu  Cu58  1  0.62148100  0.38764600  0.79219300  1
  Cu  Cu59  1  0.12148100  0.61235400  0.70780700  1
  Cu  Cu60  1  0.25610700  0.59264800  0.06125500  1
  Cu  Cu61  1  0.75610700  0.40735200  0.43874500  1
  Cu  Cu62  1  0.74389300  0.40735200  0.93874500  1
  Cu  Cu63  1  0.24389300  0.59264800  0.56125500  1
  Cu  Cu64  1  0.24644000  0.40585200  0.20441000  1
  Cu  Cu65  1  0.74644000  0.59414800  0.29559000  1
  Cu  Cu66  1  0.75356000  0.59414800  0.79559000  1
  Cu  Cu67  1  0.25356000  0.40585200  0.70441000  1
  Cu  Cu68  1  0.25146000  0.82091200  0.21448500  1
  Cu  Cu69  1  0.75146000  0.17908800  0.28551500  1
  Cu  Cu70  1  0.74854000  0.17908800  0.78551500  1
  Cu  Cu71  1  0.24854000  0.82091200  0.71448500  1
  Cu  Cu72  1  0.40389500  0.76723600  0.06550300  1
  Cu  Cu73  1  0.90389500  0.23276400  0.43449700  1
  Cu  Cu74  1  0.59610500  0.23276400  0.93449700  1
  Cu  Cu75  1  0.09610500  0.76723600  0.56550300  1
  Cu  Cu76  1  0.11039800  0.79207800  0.04963200  1
  Cu  Cu77  1  0.61039800  0.20792200  0.45036800  1
  Cu  Cu78  1  0.88960200  0.20792200  0.95036800  1
  Cu  Cu79  1  0.38960200  0.79207800  0.54963200  1
  Cu  Cu80  1  0.34662800  0.37832300  0.50671600  1
  Cu  Cu81  1  0.84662800  0.62167700  0.99328400  1
  Cu  Cu82  1  0.65337200  0.62167700  0.49328400  1
  Cu  Cu83  1  0.15337200  0.37832300  0.00671600  1
  Cu  Cu84  1  0.42404400  0.60273000  0.45953500  1
  Cu  Cu85  1  0.92404400  0.39727000  0.04046500  1
  Cu  Cu86  1  0.57595600  0.39727000  0.54046500  1
  Cu  Cu87  1  0.07595600  0.60273000  0.95953500  1
  Cu  Cu88  1  0.40820700  0.46703300  0.39549700  1
  Cu  Cu89  1  0.90820700  0.53296700  0.10450300  1
  Cu  Cu90  1  0.59179300  0.53296700  0.60450300  1
  Cu  Cu91  1  0.09179300  0.46703300  0.89549700  1
  Cu  Cu92  1  0.40471800  0.40229900  0.01187800  1
  Cu  Cu93  1  0.90471800  0.59770100  0.48812200  1
  Cu  Cu94  1  0.59528200  0.59770100  0.98812200  1
  Cu  Cu95  1  0.09528200  0.40229900  0.51187800  1
  Cu  Cu96  1  0.42272200  0.15981700  0.02731300  1
  Cu  Cu97  1  0.92272200  0.84018300  0.47268700  1
  Cu  Cu98  1  0.57727800  0.84018300  0.97268700  1
  Cu  Cu99  1  0.07727800  0.15981700  0.52731300  1
  Cu  Cu100  1  0.36124600  0.20525100  0.11676800  1
  Cu  Cu101  1  0.86124600  0.79474900  0.38323200  1
  Cu  Cu102  1  0.63875400  0.79474900  0.88323200  1
  Cu  Cu103  1  0.13875400  0.20525100  0.61676800  1
  Cu  Cu104  1  0.24062600  0.70867800  0.37636700  1
  Cu  Cu105  1  0.74062600  0.29132200  0.12363300  1
  Cu  Cu106  1  0.75937400  0.29132200  0.62363300  1
  Cu  Cu107  1  0.25937400  0.70867800  0.87636700  1
  Cu  Cu108  1  0.10233800  0.75193000  0.41829800  1
  Cu  Cu109  1  0.60233800  0.24807000  0.08170200  1
  Cu  Cu110  1  0.89766200  0.24807000  0.58170200  1
  Cu  Cu111  1  0.39766200  0.75193000  0.91829800  1
  Cu  Cu112  1  0.10356100  0.64333200  0.34130600  1
  Cu  Cu113  1  0.60356100  0.35666800  0.15869400  1
  Cu  Cu114  1  0.89643900  0.35666800  0.65869400  1
  Cu  Cu115  1  0.39643900  0.64333200  0.84130600  1
  Cu  Cu116  1  0.02907800  0.99442600  0.24763300  1
  Cu  Cu117  1  0.52907800  0.00557400  0.25236700  1
  Cu  Cu118  1  0.97092200  0.00557400  0.75236700  1
  Cu  Cu119  1  0.47092200  0.99442600  0.74763300  1
  Cu  Cu120  1  0.02836700  0.24129800  0.22952100  1
  Cu  Cu121  1  0.52836700  0.75870200  0.27047900  1
  Cu  Cu122  1  0.97163300  0.75870200  0.77047900  1
  Cu  Cu123  1  0.47163300  0.24129800  0.72952100  1
  Cu  Cu124  1  0.11867900  0.17023200  0.15917700  1
  Cu  Cu125  1  0.61867900  0.82976800  0.34082300  1
  Cu  Cu126  1  0.88132100  0.82976800  0.84082300  1
  Cu  Cu127  1  0.38132100  0.17023200  0.65917700  1
  Cu  Cu128  1  0.39603100  0.99783400  0.38028100  1
  Cu  Cu129  1  0.89603100  0.00216600  0.11971900  1
  Cu  Cu130  1  0.60396900  0.00216600  0.61971900  1
  Cu  Cu131  1  0.10396900  0.99783400  0.88028100  1
  Cu  Cu132  1  0.43408000  0.23177500  0.29378800  1
  Cu  Cu133  1  0.93408000  0.76822500  0.20621200  1
  Cu  Cu134  1  0.56592000  0.76822500  0.70621200  1
  Cu  Cu135  1  0.06592000  0.23177500  0.79378800  1
  Cu  Cu136  1  0.30202600  0.11199500  0.28464000  1
  Cu  Cu137  1  0.80202600  0.88800500  0.21536000  1
  Cu  Cu138  1  0.69797400  0.88800500  0.71536000  1
  Cu  Cu139  1  0.19797400  0.11199500  0.78464000  1
  Cu  Cu140  1  0.09433300  0.07551600  0.40302700  1
  Cu  Cu141  1  0.59433300  0.92448400  0.09697300  1
  Cu  Cu142  1  0.90566700  0.92448400  0.59697300  1
  Cu  Cu143  1  0.40566700  0.07551600  0.90302700  1
  Cu  Cu144  1  0.22945400  0.19818900  0.40327100  1
  Cu  Cu145  1  0.72945400  0.80181100  0.09672900  1
  Cu  Cu146  1  0.77054600  0.80181100  0.59672900  1
  Cu  Cu147  1  0.27054600  0.19818900  0.90327100  1
  Cu  Cu148  1  0.10338400  0.33186400  0.33954600  1
  Cu  Cu149  1  0.60338400  0.66813600  0.16045400  1
  Cu  Cu150  1  0.89661600  0.66813600  0.66045400  1
  Cu  Cu151  1  0.39661600  0.33186400  0.83954600  1
  Cu  Cu152  1  0.05261800  0.05574500  0.01205500  1
  Cu  Cu153  1  0.55261800  0.94425500  0.48794500  1
  Cu  Cu154  1  0.94738200  0.94425500  0.98794500  1
  Cu  Cu155  1  0.44738200  0.05574500  0.51205500  1
