# generated using pymatgen
data_Cu9Ni3C
_symmetry_space_group_name_H-M   'P 1'
_cell_length_a   8.89764810
_cell_length_b   8.89764810
_cell_length_c   10.25438000
_cell_angle_alpha   90.00000000
_cell_angle_beta   90.00000000
_cell_angle_gamma   121.74719783
_symmetry_Int_Tables_number   1
_chemical_formula_structural   Cu9Ni3C
_chemical_formula_sum   'Cu18 Ni6 C2'
_cell_volume   690.35401227
_cell_formula_units_Z   2
loop_
 _symmetry_equiv_pos_site_id
 _symmetry_equiv_pos_as_xyz
  1  'x, y, z'
loop_
 _atom_site_type_symbol
 _atom_site_label
 _atom_site_symmetry_multiplicity
 _atom_site_fract_x
 _atom_site_fract_y
 _atom_site_fract_z
 _atom_site_occupancy
  C  C0  1  0.32991900  0.66383600  0.25000000  1
  C  C1  1  0.66383600  0.32991900  0.75000000  1
  Ni  Ni2  1  0.74340400  0.00214500  0.00118700  1
  Ni  Ni3  1  0.00214500  0.74340400  0.99881300  1
  Ni  Ni4  1  0.25813600  0.25813600  0.00000000  1
  Ni  Ni5  1  0.74340400  0.00214500  0.49881300  1
  Ni  Ni6  1  0.00214500  0.74340400  0.50118700  1
  Ni  Ni7  1  0.25813600  0.25813600  0.50000000  1
  Cu  Cu8  1  0.57276500  0.82864900  0.01080200  1
  Cu  Cu9  1  0.16733500  0.73995700  0.00584800  1
  Cu  Cu10  1  0.26294500  0.42833200  0.00865600  1
  Cu  Cu11  1  0.57276500  0.82864900  0.48919800  1
  Cu  Cu12  1  0.16733500  0.73995700  0.49415200  1
  Cu  Cu13  1  0.26294500  0.42833200  0.49134400  1
  Cu  Cu14  1  0.82864900  0.57276500  0.51080200  1
  Cu  Cu15  1  0.73995700  0.16733500  0.50584800  1
  Cu  Cu16  1  0.42833200  0.26294500  0.50865600  1
  Cu  Cu17  1  0.82864900  0.57276500  0.98919800  1
  Cu  Cu18  1  0.73995700  0.16733500  0.99415200  1
  Cu  Cu19  1  0.42833200  0.26294500  0.99134400  1
  Cu  Cu20  1  0.39705100  0.92931200  0.25000000  1
  Cu  Cu21  1  0.06666800  0.46490000  0.25000000  1
  Cu  Cu22  1  0.53280600  0.60806900  0.25000000  1
  Cu  Cu23  1  0.92931200  0.39705100  0.75000000  1
  Cu  Cu24  1  0.46490000  0.06666800  0.75000000  1
  Cu  Cu25  1  0.60806900  0.53280600  0.75000000  1
