# generated using pymatgen
data_Cu4NiC3
_symmetry_space_group_name_H-M   'P 1'
_cell_length_a   4.63616200
_cell_length_b   16.08509000
_cell_length_c   19.29135500
_cell_angle_alpha   90.00000000
_cell_angle_beta   90.00000000
_cell_angle_gamma   90.00000000
_symmetry_Int_Tables_number   1
_chemical_formula_structural   Cu4NiC3
_chemical_formula_sum   'Cu32 Ni8 C24'
_cell_volume   1438.61581807
_cell_formula_units_Z   8
loop_
 _symmetry_equiv_pos_site_id
 _symmetry_equiv_pos_as_xyz
  1  'x, y, z'
loop_
 _atom_site_type_symbol
 _atom_site_label
 _atom_site_symmetry_multiplicity
 _atom_site_fract_x
 _atom_site_fract_y
 _atom_site_fract_z
 _atom_site_occupancy
  C  C0  1  0.64739600  0.17848700  0.04132200  1
  C  C1  1  0.35260400  0.67848700  0.95867800  1
  C  C2  1  0.85260400  0.17848700  0.54132200  1
  C  C3  1  0.14739600  0.67848700  0.45867800  1
  C  C4  1  0.13085200  0.06116700  0.37221800  1
  C  C5  1  0.86914800  0.56116700  0.62778200  1
  C  C6  1  0.36914800  0.06116700  0.87221800  1
  C  C7  1  0.63085200  0.56116700  0.12778200  1
  C  C8  1  0.15370400  0.14621000  0.21080300  1
  C  C9  1  0.84629600  0.64621000  0.78919700  1
  C  C10  1  0.34629600  0.14621000  0.71080300  1
  C  C11  1  0.65370400  0.64621000  0.28919700  1
  C  C12  1  0.15894800  0.33946900  0.00928800  1
  C  C13  1  0.84105200  0.83946900  0.99071200  1
  C  C14  1  0.34105200  0.33946900  0.50928800  1
  C  C15  1  0.65894800  0.83946900  0.49071200  1
  C  C16  1  0.16973900  0.48541700  0.25715600  1
  C  C17  1  0.83026100  0.98541700  0.74284400  1
  C  C18  1  0.33026100  0.48541700  0.75715600  1
  C  C19  1  0.66973900  0.98541700  0.24284400  1
  C  C20  1  0.37755400  0.76451400  0.11965700  1
  C  C21  1  0.62244600  0.26451400  0.88034300  1
  C  C22  1  0.12244600  0.76451400  0.61965700  1
  C  C23  1  0.87755400  0.26451400  0.38034300  1
  Ni  Ni24  1  0.27261500  0.00491100  0.07126200  1
  Ni  Ni25  1  0.72738500  0.50491100  0.92873800  1
  Ni  Ni26  1  0.22738500  0.00491100  0.57126200  1
  Ni  Ni27  1  0.77261500  0.50491100  0.42873800  1
  Ni  Ni28  1  0.77255000  0.31969100  0.18148000  1
  Ni  Ni29  1  0.22745000  0.81969100  0.81852000  1
  Ni  Ni30  1  0.72745000  0.31969100  0.68148000  1
  Ni  Ni31  1  0.27255000  0.81969100  0.31852000  1
  Cu  Cu32  1  0.24832600  0.22513900  0.04677300  1
  Cu  Cu33  1  0.75167400  0.72513900  0.95322700  1
  Cu  Cu34  1  0.25167400  0.22513900  0.54677300  1
  Cu  Cu35  1  0.74832600  0.72513900  0.45322700  1
  Cu  Cu36  1  0.25198000  0.79378900  0.00739400  1
  Cu  Cu37  1  0.74802000  0.29378900  0.99260600  1
  Cu  Cu38  1  0.24802000  0.79378900  0.50739400  1
  Cu  Cu39  1  0.75198000  0.29378900  0.49260600  1
  Cu  Cu40  1  0.25287800  0.51730600  0.15842700  1
  Cu  Cu41  1  0.74712200  0.01730600  0.84157300  1
  Cu  Cu42  1  0.24712200  0.51730600  0.65842700  1
  Cu  Cu43  1  0.75287800  0.01730600  0.34157300  1
  Cu  Cu44  1  0.26144600  0.30509800  0.41113500  1
  Cu  Cu45  1  0.73855400  0.80509800  0.58886500  1
  Cu  Cu46  1  0.23855400  0.30509800  0.91113500  1
  Cu  Cu47  1  0.76144600  0.80509800  0.08886500  1
  Cu  Cu48  1  0.25432000  0.60038200  0.29445800  1
  Cu  Cu49  1  0.74568000  0.10038200  0.70554200  1
  Cu  Cu50  1  0.24568000  0.60038200  0.79445800  1
  Cu  Cu51  1  0.75432000  0.10038200  0.20554200  1
  Cu  Cu52  1  0.25878700  0.03151000  0.25957200  1
  Cu  Cu53  1  0.74121300  0.53151000  0.74042800  1
  Cu  Cu54  1  0.24121300  0.03151000  0.75957200  1
  Cu  Cu55  1  0.75878700  0.53151000  0.24042800  1
  Cu  Cu56  1  0.11760200  0.17228300  0.31675800  1
  Cu  Cu57  1  0.88239800  0.67228300  0.68324200  1
  Cu  Cu58  1  0.38239800  0.17228300  0.81675800  1
  Cu  Cu59  1  0.61760200  0.67228300  0.18324200  1
  Cu  Cu60  1  0.38389800  0.65224700  0.06445800  1
  Cu  Cu61  1  0.61610200  0.15224700  0.93554200  1
  Cu  Cu62  1  0.11610200  0.65224700  0.56445800  1
  Cu  Cu63  1  0.88389800  0.15224700  0.43554200  1
