# generated using pymatgen
data_Cu8Ni8C9
_symmetry_space_group_name_H-M   'P 1'
_cell_length_a   5.19088003
_cell_length_b   5.28320884
_cell_length_c   11.75109412
_cell_angle_alpha   88.19506896
_cell_angle_beta   93.52002720
_cell_angle_gamma   92.18298936
_symmetry_Int_Tables_number   1
_chemical_formula_structural   Cu8Ni8C9
_chemical_formula_sum   'Cu8 Ni8 C9'
_cell_volume   321.28910686
_cell_formula_units_Z   1
loop_
 _symmetry_equiv_pos_site_id
 _symmetry_equiv_pos_as_xyz
  1  'x, y, z'
loop_
 _atom_site_type_symbol
 _atom_site_label
 _atom_site_symmetry_multiplicity
 _atom_site_fract_x
 _atom_site_fract_y
 _atom_site_fract_z
 _atom_site_occupancy
  C  C0  1  0.48790600  0.95964800  0.03168600  1
  C  C1  1  0.96823000  0.92932400  0.99321200  1
  C  C2  1  0.04429500  0.07400200  0.25288400  1
  C  C3  1  0.94248500  0.91612500  0.49888100  1
  C  C4  1  0.10009200  0.04012000  0.74784500  1
  C  C5  1  0.59234100  0.43402900  0.14540000  1
  C  C6  1  0.44077200  0.56297000  0.62476200  1
  C  C7  1  0.45854200  0.54227700  0.87504700  1
  C  C8  1  0.40945900  0.57620300  0.37253300  1
  Ni  Ni9  1  0.15698300  0.83138900  0.37461300  1
  Ni  Ni10  1  0.18583000  0.81833100  0.62751400  1
  Ni  Ni11  1  0.24425000  0.83383100  0.88373300  1
  Ni  Ni12  1  0.30446300  0.33945700  0.25387600  1
  Ni  Ni13  1  0.32898600  0.33460300  0.74985300  1
  Ni  Ni14  1  0.68188100  0.65174900  0.00317900  1
  Ni  Ni15  1  0.65179100  0.68070600  0.50250800  1
  Ni  Ni16  1  0.79932000  0.12159300  0.11948300  1
  Cu  Cu17  1  0.22869500  0.85328400  0.13795900  1
  Cu  Cu18  1  0.32247300  0.28182100  0.99464900  1
  Cu  Cu19  1  0.27534000  0.35230000  0.50095900  1
  Cu  Cu20  1  0.67359600  0.69954400  0.26717700  1
  Cu  Cu21  1  0.68171800  0.69054200  0.75381300  1
  Cu  Cu22  1  0.82048500  0.17325500  0.37568900  1
  Cu  Cu23  1  0.84408800  0.15038200  0.62010000  1
  Cu  Cu24  1  0.84208900  0.15251500  0.85514400  1
