# generated using pymatgen
data_Cu2(NiC5)3
_symmetry_space_group_name_H-M   'P 1'
_cell_length_a   11.13908977
_cell_length_b   11.13908977
_cell_length_c   11.13908977
_cell_angle_alpha   109.47122063
_cell_angle_beta   109.47122063
_cell_angle_gamma   109.47122063
_symmetry_Int_Tables_number   1
_chemical_formula_structural   Cu2(NiC5)3
_chemical_formula_sum   'Cu8 Ni12 C60'
_cell_volume   1063.96470580
_cell_formula_units_Z   4
loop_
 _symmetry_equiv_pos_site_id
 _symmetry_equiv_pos_as_xyz
  1  'x, y, z'
loop_
 _atom_site_type_symbol
 _atom_site_label
 _atom_site_symmetry_multiplicity
 _atom_site_fract_x
 _atom_site_fract_y
 _atom_site_fract_z
 _atom_site_occupancy
  Ni  Ni0  1  0.87500000  0.62500000  0.75000000  1
  Ni  Ni1  1  0.12500000  0.37500000  0.25000000  1
  Ni  Ni2  1  0.62500000  0.87500000  0.25000000  1
  Ni  Ni3  1  0.62500000  0.75000000  0.87500000  1
  Ni  Ni4  1  0.87500000  0.25000000  0.62500000  1
  Ni  Ni5  1  0.37500000  0.12500000  0.75000000  1
  Ni  Ni6  1  0.37500000  0.25000000  0.12500000  1
  Ni  Ni7  1  0.12500000  0.75000000  0.37500000  1
  Ni  Ni8  1  0.75000000  0.87500000  0.62500000  1
  Ni  Ni9  1  0.25000000  0.12500000  0.37500000  1
  Ni  Ni10  1  0.25000000  0.62500000  0.87500000  1
  Ni  Ni11  1  0.75000000  0.37500000  0.12500000  1
  Cu  Cu12  1  -0.00000000  -0.00000000  -0.00000000  1
  Cu  Cu13  1  0.50000000  -0.00000000  0.50000000  1
  Cu  Cu14  1  0.50000000  0.50000000  -0.00000000  1
  Cu  Cu15  1  -0.00000000  -0.00000000  0.50000000  1
  Cu  Cu16  1  -0.00000000  0.50000000  0.50000000  1
  Cu  Cu17  1  0.50000000  0.50000000  0.50000000  1
  Cu  Cu18  1  0.50000000  -0.00000000  -0.00000000  1
  Cu  Cu19  1  -0.00000000  0.50000000  -0.00000000  1
  C  C20  1  0.62500000  0.37500000  0.75000000  1
  C  C21  1  0.37500000  0.62500000  0.25000000  1
  C  C22  1  0.87500000  0.12500000  0.25000000  1
  C  C23  1  0.37500000  0.75000000  0.62500000  1
  C  C24  1  0.62500000  0.25000000  0.37500000  1
  C  C25  1  0.12500000  0.87500000  0.75000000  1
  C  C26  1  0.12500000  0.25000000  0.87500000  1
  C  C27  1  0.87500000  0.75000000  0.12500000  1
  C  C28  1  0.75000000  0.62500000  0.37500000  1
  C  C29  1  0.25000000  0.37500000  0.62500000  1
  C  C30  1  0.25000000  0.87500000  0.12500000  1
  C  C31  1  0.75000000  0.12500000  0.87500000  1
  C  C32  1  0.71606416  0.62895116  0.53030721  1
  C  C33  1  0.28393584  0.37104884  0.46969279  1
  C  C34  1  0.78393584  0.81424305  0.41288700  1
  C  C35  1  0.40135605  0.87104884  0.08711300  1
  C  C36  1  0.62895116  0.53030721  0.71606416  1
  C  C37  1  0.71606416  0.08711300  0.68575695  1
  C  C38  1  0.21606416  0.18575695  0.58711300  1
  C  C39  1  0.59864395  0.12895116  0.91288700  1
  C  C40  1  0.37104884  0.46969279  0.28393584  1
  C  C41  1  0.28393584  0.91288700  0.31424305  1
  C  C42  1  0.09864395  0.68575695  0.96969279  1
  C  C43  1  0.81424305  0.41288700  0.78393584  1
  C  C44  1  0.78393584  0.96969279  0.87104884  1
  C  C45  1  0.90135605  0.31424305  0.03030721  1
  C  C46  1  0.18575695  0.58711300  0.21606416  1
  C  C47  1  0.21606416  0.03030721  0.12895116  1
  C  C48  1  0.87104884  0.08711300  0.40135605  1
  C  C49  1  0.40135605  0.53030721  0.81424305  1
  C  C50  1  0.12895116  0.91288700  0.59864395  1
  C  C51  1  0.59864395  0.46969279  0.18575695  1
  C  C52  1  0.68575695  0.96969279  0.09864395  1
  C  C53  1  0.09864395  0.41288700  0.62895116  1
  C  C54  1  0.31424305  0.03030721  0.90135605  1
  C  C55  1  0.90135605  0.58711300  0.37104884  1
  C  C56  1  0.53030721  0.71606416  0.62895116  1
  C  C57  1  0.62895116  0.09864395  0.41288700  1
  C  C58  1  0.46969279  0.28393584  0.37104884  1
  C  C59  1  0.37104884  0.90135605  0.58711300  1
  C  C60  1  0.08711300  0.40135605  0.87104884  1
  C  C61  1  0.87104884  0.78393584  0.96969279  1
  C  C62  1  0.91288700  0.59864395  0.12895116  1
  C  C63  1  0.12895116  0.21606416  0.03030721  1
  C  C64  1  0.96969279  0.09864395  0.68575695  1
  C  C65  1  0.68575695  0.71606416  0.08711300  1
  C  C66  1  0.03030721  0.90135605  0.31424305  1
  C  C67  1  0.31424305  0.28393584  0.91288700  1
  C  C68  1  0.41288700  0.78393584  0.81424305  1
  C  C69  1  0.81424305  0.40135605  0.53030721  1
  C  C70  1  0.58711300  0.21606416  0.18575695  1
  C  C71  1  0.18575695  0.59864395  0.46969279  1
  C  C72  1  0.08711300  0.68575695  0.71606416  1
  C  C73  1  0.91288700  0.31424305  0.28393584  1
  C  C74  1  0.96969279  0.87104884  0.78393584  1
  C  C75  1  0.03030721  0.12895116  0.21606416  1
  C  C76  1  0.41288700  0.62895116  0.09864395  1
  C  C77  1  0.58711300  0.37104884  0.90135605  1
  C  C78  1  0.53030721  0.81424305  0.40135605  1
  C  C79  1  0.46969279  0.18575695  0.59864395  1
