# generated using pymatgen
data_Cu30NiC32
_symmetry_space_group_name_H-M   'P 1'
_cell_length_a   8.67563700
_cell_length_b   8.67563700
_cell_length_c   8.60270600
_cell_angle_alpha   90.00000000
_cell_angle_beta   90.00000000
_cell_angle_gamma   90.00000000
_symmetry_Int_Tables_number   1
_chemical_formula_structural   Cu30NiC32
_chemical_formula_sum   'Cu30 Ni1 C32'
_cell_volume   647.49709689
_cell_formula_units_Z   1
loop_
 _symmetry_equiv_pos_site_id
 _symmetry_equiv_pos_as_xyz
  1  'x, y, z'
loop_
 _atom_site_type_symbol
 _atom_site_label
 _atom_site_symmetry_multiplicity
 _atom_site_fract_x
 _atom_site_fract_y
 _atom_site_fract_z
 _atom_site_occupancy
  C  C0  1  0.00000000  0.00000000  0.01165700  1
  Ni  Ni1  1  0.50000000  0.50000000  0.99979200  1
  Cu  Cu2  1  0.50000000  0.00000000  0.99910300  1
  Cu  Cu3  1  0.00000000  0.50000000  0.99910300  1
  Cu  Cu4  1  0.00000000  0.00000000  0.49418200  1
  Cu  Cu5  1  0.50000000  0.00000000  0.50134300  1
  Cu  Cu6  1  0.00000000  0.50000000  0.50134300  1
  Cu  Cu7  1  0.50000000  0.50000000  0.50008400  1
  Cu  Cu8  1  0.24398200  0.24398200  0.99997200  1
  Cu  Cu9  1  0.75601800  0.24398200  0.99997200  1
  Cu  Cu10  1  0.24398200  0.75601800  0.99997200  1
  Cu  Cu11  1  0.75601800  0.75601800  0.99997200  1
  Cu  Cu12  1  0.24819100  0.24819100  0.50015300  1
  Cu  Cu13  1  0.75180900  0.24819100  0.50015300  1
  Cu  Cu14  1  0.24819100  0.75180900  0.50015300  1
  Cu  Cu15  1  0.75180900  0.75180900  0.50015300  1
  Cu  Cu16  1  0.25479800  0.00000000  0.25359000  1
  Cu  Cu17  1  0.74520200  0.00000000  0.25359000  1
  Cu  Cu18  1  0.24429000  0.50000000  0.25600800  1
  Cu  Cu19  1  0.75571000  0.50000000  0.25600800  1
  Cu  Cu20  1  0.24890500  0.00000000  0.74859600  1
  Cu  Cu21  1  0.75109500  0.00000000  0.74859600  1
  Cu  Cu22  1  0.24306600  0.50000000  0.74398200  1
  Cu  Cu23  1  0.75693400  0.50000000  0.74398200  1
  Cu  Cu24  1  0.00000000  0.25479800  0.25359000  1
  Cu  Cu25  1  0.50000000  0.24429000  0.25600800  1
  Cu  Cu26  1  0.00000000  0.74520200  0.25359000  1
  Cu  Cu27  1  0.50000000  0.75571000  0.25600800  1
  Cu  Cu28  1  0.00000000  0.24890500  0.74859600  1
  Cu  Cu29  1  0.50000000  0.24306600  0.74398200  1
  Cu  Cu30  1  0.00000000  0.75109500  0.74859600  1
  Cu  Cu31  1  0.50000000  0.75693400  0.74398200  1
  C  C32  1  0.50000000  0.00000000  0.25295300  1
  C  C33  1  0.00000000  0.50000000  0.25295300  1
  C  C34  1  0.50000000  0.50000000  0.24670700  1
  C  C35  1  0.00000000  0.00000000  0.72894100  1
  C  C36  1  0.50000000  0.00000000  0.74770100  1
  C  C37  1  0.00000000  0.50000000  0.74770100  1
  C  C38  1  0.50000000  0.50000000  0.75323500  1
  C  C39  1  0.25279400  0.25279400  0.24838100  1
  C  C40  1  0.74720600  0.25279400  0.24838100  1
  C  C41  1  0.25279400  0.74720600  0.24838100  1
  C  C42  1  0.74720600  0.74720600  0.24838100  1
  C  C43  1  0.25112500  0.25112500  0.75166300  1
  C  C44  1  0.74887500  0.25112500  0.75166300  1
  C  C45  1  0.25112500  0.74887500  0.75166300  1
  C  C46  1  0.74887500  0.74887500  0.75166300  1
  C  C47  1  0.27429900  0.00000000  0.99971300  1
  C  C48  1  0.72570100  0.00000000  0.99971300  1
  C  C49  1  0.25810400  0.50000000  0.99989600  1
  C  C50  1  0.74189600  0.50000000  0.99989600  1
  C  C51  1  0.25602600  0.00000000  0.50134500  1
  C  C52  1  0.74397400  0.00000000  0.50134500  1
  C  C53  1  0.25202100  0.50000000  0.50000000  1
  C  C54  1  0.74797900  0.50000000  0.50000000  1
  C  C55  1  0.00000000  0.27429900  0.99971300  1
  C  C56  1  0.50000000  0.25810400  0.99989600  1
  C  C57  1  0.00000000  0.72570100  0.99971300  1
  C  C58  1  0.50000000  0.74189600  0.99989600  1
  C  C59  1  0.00000000  0.25602600  0.50134500  1
  C  C60  1  0.50000000  0.25202100  0.50000000  1
  C  C61  1  0.00000000  0.74397400  0.50134500  1
  C  C62  1  0.50000000  0.74797900  0.50000000  1
