# generated using pymatgen
data_CuNiC8
_symmetry_space_group_name_H-M   'P 1'
_cell_length_a   5.54992400
_cell_length_b   5.52137623
_cell_length_c   8.15041850
_cell_angle_alpha   88.77956154
_cell_angle_beta   90.00053296
_cell_angle_gamma   89.99951650
_symmetry_Int_Tables_number   1
_chemical_formula_structural   CuNiC8
_chemical_formula_sum   'Cu2 Ni2 C16'
_cell_volume   249.69839730
_cell_formula_units_Z   2
loop_
 _symmetry_equiv_pos_site_id
 _symmetry_equiv_pos_as_xyz
  1  'x, y, z'
loop_
 _atom_site_type_symbol
 _atom_site_label
 _atom_site_symmetry_multiplicity
 _atom_site_fract_x
 _atom_site_fract_y
 _atom_site_fract_z
 _atom_site_occupancy
  C  C0  1  0.96553500  0.49047200  0.74804400  1
  C  C1  1  0.46554800  0.00955300  0.75195000  1
  C  C2  1  0.03446300  0.50950800  0.25197700  1
  C  C3  1  0.53445000  0.99049600  0.24804600  1
  Ni  Ni4  1  0.49999700  0.50000000  0.50000200  1
  Ni  Ni5  1  0.99999900  0.00000200  0.99999500  1
  Cu  Cu6  1  0.49999800  0.49999500  0.99999900  1
  Cu  Cu7  1  0.00000300  0.00000100  0.49999900  1
  C  C8  1  0.51547700  0.58255400  0.76585200  1
  C  C9  1  0.01547400  0.91745200  0.73412300  1
  C  C10  1  0.48453100  0.41744000  0.23414700  1
  C  C11  1  0.98452800  0.08254600  0.26587100  1
  C  C12  1  0.28019800  0.78858600  0.04432000  1
  C  C13  1  0.78020600  0.71141500  0.45568600  1
  C  C14  1  0.71175200  0.22199800  0.54678400  1
  C  C15  1  0.21175300  0.27800300  0.95320800  1
  C  C16  1  0.71979600  0.21140600  0.95568000  1
  C  C17  1  0.21979300  0.28858600  0.54430800  1
  C  C18  1  0.28824900  0.77799900  0.45321500  1
  C  C19  1  0.78824800  0.72198900  0.04679400  1
