# generated using pymatgen
data_Cu6NiC4
_symmetry_space_group_name_H-M   'P 1'
_cell_length_a   7.26514237
_cell_length_b   7.26514237
_cell_length_c   10.90749944
_cell_angle_alpha   88.49696479
_cell_angle_beta   88.49696479
_cell_angle_gamma   117.40825694
_symmetry_Int_Tables_number   1
_chemical_formula_structural   Cu6NiC4
_chemical_formula_sum   'Cu24 Ni4 C16'
_cell_volume   510.44541183
_cell_formula_units_Z   4
loop_
 _symmetry_equiv_pos_site_id
 _symmetry_equiv_pos_as_xyz
  1  'x, y, z'
loop_
 _atom_site_type_symbol
 _atom_site_label
 _atom_site_symmetry_multiplicity
 _atom_site_fract_x
 _atom_site_fract_y
 _atom_site_fract_z
 _atom_site_occupancy
  C  C0  1  0.50000000  0.50000000  0.50000000  1
  C  C1  1  0.50000000  0.50000000  0.00000000  1
  C  C2  1  0.15340800  0.84659200  0.75000000  1
  C  C3  1  0.84659200  0.15340800  0.25000000  1
  C  C4  1  0.25084800  0.00381300  0.33412900  1
  C  C5  1  0.99618700  0.74915200  0.16587100  1
  C  C6  1  0.74915200  0.99618700  0.66587100  1
  C  C7  1  0.00381300  0.25084800  0.83412900  1
  C  C8  1  0.02849900  0.77678500  0.36069200  1
  C  C9  1  0.22321500  0.97150100  0.13930800  1
  C  C10  1  0.97150100  0.22321500  0.63930800  1
  C  C11  1  0.77678500  0.02849900  0.86069200  1
  C  C12  1  0.26281400  0.77447500  0.34765600  1
  C  C13  1  0.22552500  0.73718600  0.15234400  1
  C  C14  1  0.73718600  0.22552500  0.65234400  1
  C  C15  1  0.77447500  0.26281400  0.84765600  1
  Ni  Ni16  1  0.17584300  0.84674900  0.31608100  1
  Ni  Ni17  1  0.15325100  0.82415700  0.18391900  1
  Ni  Ni18  1  0.82415700  0.15325100  0.68391900  1
  Ni  Ni19  1  0.84674900  0.17584300  0.81608100  1
  Cu  Cu20  1  0.47345200  0.29659600  0.38535800  1
  Cu  Cu21  1  0.70340400  0.52654800  0.11464200  1
  Cu  Cu22  1  0.52654800  0.70340400  0.61464200  1
  Cu  Cu23  1  0.29659600  0.47345200  0.88535800  1
  Cu  Cu24  1  0.21572600  0.33043700  0.55725900  1
  Cu  Cu25  1  0.66956300  0.78427400  0.94274100  1
  Cu  Cu26  1  0.78427400  0.66956300  0.44274100  1
  Cu  Cu27  1  0.33043700  0.21572600  0.05725900  1
  Cu  Cu28  1  0.40270600  0.63841800  0.38417100  1
  Cu  Cu29  1  0.36158200  0.59729400  0.11582900  1
  Cu  Cu30  1  0.59729400  0.36158200  0.61582900  1
  Cu  Cu31  1  0.63841800  0.40270600  0.88417100  1
  Cu  Cu32  1  0.87684800  0.79827700  0.71737600  1
  Cu  Cu33  1  0.20172300  0.12315200  0.78262400  1
  Cu  Cu34  1  0.12315200  0.20172300  0.28262400  1
  Cu  Cu35  1  0.79827700  0.87684800  0.21737600  1
  Cu  Cu36  1  0.07369500  0.56201000  0.71791000  1
  Cu  Cu37  1  0.43799000  0.92630500  0.78209000  1
  Cu  Cu38  1  0.92630500  0.43799000  0.28209000  1
  Cu  Cu39  1  0.56201000  0.07369500  0.21791000  1
  Cu  Cu40  1  0.22972300  0.91372300  0.57852500  1
  Cu  Cu41  1  0.08627700  0.77027700  0.92147500  1
  Cu  Cu42  1  0.77027700  0.08627700  0.42147500  1
  Cu  Cu43  1  0.91372300  0.22972300  0.07852500  1
