# generated using pymatgen
data_CuNi5C4
_symmetry_space_group_name_H-M   'P 1'
_cell_length_a   8.98983985
_cell_length_b   10.14866355
_cell_length_c   10.06890698
_cell_angle_alpha   78.78498779
_cell_angle_beta   86.25782305
_cell_angle_gamma   96.87727952
_symmetry_Int_Tables_number   1
_chemical_formula_structural   CuNi5C4
_chemical_formula_sum   'Cu6 Ni30 C24'
_cell_volume   890.90336797
_cell_formula_units_Z   6
loop_
 _symmetry_equiv_pos_site_id
 _symmetry_equiv_pos_as_xyz
  1  'x, y, z'
loop_
 _atom_site_type_symbol
 _atom_site_label
 _atom_site_symmetry_multiplicity
 _atom_site_fract_x
 _atom_site_fract_y
 _atom_site_fract_z
 _atom_site_occupancy
  C  C0  1  0.16405200  0.53404600  0.20074800  1
  C  C1  1  0.17717700  0.21325400  0.35566200  1
  C  C2  1  0.42459900  0.84519100  0.39055100  1
  C  C3  1  0.57540100  0.15480900  0.60944900  1
  C  C4  1  0.82282300  0.78674600  0.64433800  1
  C  C5  1  0.83594800  0.46595400  0.79925200  1
  C  C6  1  0.16661800  0.51579600  0.56979600  1
  C  C7  1  0.14920900  0.06305200  0.03939400  1
  C  C8  1  0.39698000  0.35838700  0.97764700  1
  C  C9  1  0.60302000  0.64161300  0.02235300  1
  C  C10  1  0.85079100  0.93694800  0.96060600  1
  C  C11  1  0.83338200  0.48420400  0.43020400  1
  C  C12  1  0.38022900  0.85152800  0.06121900  1
  C  C13  1  0.45075000  0.48833100  0.32815600  1
  C  C14  1  0.54925000  0.51166900  0.67184400  1
  C  C15  1  0.61977100  0.14847200  0.93878100  1
  C  C16  1  0.75196400  0.37947800  0.13487500  1
  C  C17  1  0.83233600  0.94520400  0.34822400  1
  C  C18  1  0.08724600  0.78621400  0.84981800  1
  C  C19  1  0.94974300  0.18648100  0.70547600  1
  C  C20  1  0.05025700  0.81351900  0.29452400  1
  C  C21  1  0.91275400  0.21378600  0.15018200  1
  C  C22  1  0.16766400  0.05479600  0.65177600  1
  C  C23  1  0.24803600  0.62052200  0.86512500  1
  Ni  Ni24  1  0.15336600  0.85472200  0.97520800  1
  Ni  Ni25  1  0.03358400  0.13334600  0.57235900  1
  Ni  Ni26  1  0.14101000  0.89012100  0.70153300  1
  Ni  Ni27  1  0.29092700  0.51330000  0.77140300  1
  Ni  Ni28  1  0.09617500  0.23712000  0.13580400  1
  Ni  Ni29  1  0.03287400  0.64915200  0.33762200  1
  Ni  Ni30  1  0.93242000  0.89669100  0.19325000  1
  Ni  Ni31  1  0.23828700  0.42709100  0.40081500  1
  Ni  Ni32  1  0.37967400  0.70766600  0.93069700  1
  Ni  Ni33  1  0.41579400  0.46139000  0.14472300  1
  Ni  Ni34  1  0.22108100  0.88601100  0.23486400  1
  Ni  Ni35  1  0.55728300  0.29115500  0.79595300  1
  Ni  Ni36  1  0.48848100  0.70650100  0.58063600  1
  Ni  Ni37  1  0.41389400  0.60605400  0.50500700  1
  Ni  Ni38  1  0.39916700  0.07981100  0.01833100  1
  Ni  Ni39  1  0.60083300  0.92018900  0.98166900  1
  Ni  Ni40  1  0.58610600  0.39394600  0.49499300  1
  Ni  Ni41  1  0.51151900  0.29349900  0.41936400  1
  Ni  Ni42  1  0.44271700  0.70884500  0.20404700  1
  Ni  Ni43  1  0.77891900  0.11398900  0.76513600  1
  Ni  Ni44  1  0.58420600  0.53861000  0.85527700  1
  Ni  Ni45  1  0.62032600  0.29233400  0.06930300  1
  Ni  Ni46  1  0.76171300  0.57290900  0.59918500  1
  Ni  Ni47  1  0.06758000  0.10330900  0.80675000  1
  Ni  Ni48  1  0.96712600  0.35084800  0.66237800  1
  Ni  Ni49  1  0.90382500  0.76288000  0.86419600  1
  Ni  Ni50  1  0.70907300  0.48670000  0.22859700  1
  Ni  Ni51  1  0.85899000  0.10987900  0.29846700  1
  Ni  Ni52  1  0.96641600  0.86665400  0.42764100  1
  Ni  Ni53  1  0.84663400  0.14527800  0.02479200  1
  Cu  Cu54  1  0.15503800  0.50575000  0.99605800  1
  Cu  Cu55  1  0.26352600  0.04789800  0.49992100  1
  Cu  Cu56  1  0.32573000  0.12504000  0.69869800  1
  Cu  Cu57  1  0.67427000  0.87496000  0.30130200  1
  Cu  Cu58  1  0.73647400  0.95210200  0.50007900  1
  Cu  Cu59  1  0.84496200  0.49425000  0.00394200  1
