# generated using pymatgen
data_Cu6NiC21
_symmetry_space_group_name_H-M   'P 1'
_cell_length_a   7.86872187
_cell_length_b   7.86872187
_cell_length_c   14.28969800
_cell_angle_alpha   90.00000000
_cell_angle_beta   90.00000000
_cell_angle_gamma   119.99999893
_symmetry_Int_Tables_number   1
_chemical_formula_structural   Cu6NiC21
_chemical_formula_sum   'Cu12 Ni2 C42'
_cell_volume   766.23516080
_cell_formula_units_Z   2
loop_
 _symmetry_equiv_pos_site_id
 _symmetry_equiv_pos_as_xyz
  1  'x, y, z'
loop_
 _atom_site_type_symbol
 _atom_site_label
 _atom_site_symmetry_multiplicity
 _atom_site_fract_x
 _atom_site_fract_y
 _atom_site_fract_z
 _atom_site_occupancy
  Ni  Ni0  1  0.66666700  0.33333300  0.38409900  1
  Ni  Ni1  1  0.33333300  0.66666700  0.88409900  1
  Cu  Cu2  1  0.75776500  0.80073000  0.88995100  1
  Cu  Cu3  1  0.04296500  0.24223500  0.88995100  1
  Cu  Cu4  1  0.95703500  0.19927000  0.38995100  1
  Cu  Cu5  1  0.19927000  0.95703500  0.88995100  1
  Cu  Cu6  1  0.80073000  0.75776500  0.38995100  1
  Cu  Cu7  1  0.24223500  0.04296500  0.38995100  1
  Cu  Cu8  1  0.62347300  0.09066800  0.87688200  1
  Cu  Cu9  1  0.46719400  0.37652700  0.87688200  1
  Cu  Cu10  1  0.53280600  0.90933200  0.37688200  1
  Cu  Cu11  1  0.90933200  0.53280600  0.87688200  1
  Cu  Cu12  1  0.09066800  0.62347300  0.37688200  1
  Cu  Cu13  1  0.37652700  0.46719400  0.37688200  1
  C  C14  1  0.00000000  0.00000000  0.60208100  1
  C  C15  1  0.00000000  0.00000000  0.10208100  1
  C  C16  1  0.66666700  0.33333300  0.74937600  1
  C  C17  1  0.33333300  0.66666700  0.24937600  1
  C  C18  1  0.84684100  0.29464900  0.93835700  1
  C  C19  1  0.44780700  0.15315900  0.93835700  1
  C  C20  1  0.55219300  0.70535100  0.43835700  1
  C  C21  1  0.70535100  0.55219300  0.93835700  1
  C  C22  1  0.29464900  0.84684100  0.43835700  1
  C  C23  1  0.15315900  0.44780700  0.43835700  1
  C  C24  1  0.82081400  0.03755000  0.82988900  1
  C  C25  1  0.21673600  0.17918600  0.82988900  1
  C  C26  1  0.78326400  0.96245000  0.32988900  1
  C  C27  1  0.96245000  0.78326400  0.82988900  1
  C  C28  1  0.03755000  0.82081400  0.32988900  1
  C  C29  1  0.17918600  0.21673600  0.32988900  1
  C  C30  1  0.84207400  0.03648900  0.63272300  1
  C  C31  1  0.19441500  0.15792600  0.63272300  1
  C  C32  1  0.80558500  0.96351100  0.13272300  1
  C  C33  1  0.96351100  0.80558500  0.63272300  1
  C  C34  1  0.03648900  0.84207400  0.13272300  1
  C  C35  1  0.15792600  0.19441500  0.13272300  1
  C  C36  1  0.42015800  0.63498300  0.62625600  1
  C  C37  1  0.21482500  0.57984200  0.62625600  1
  C  C38  1  0.78517500  0.36501700  0.12625600  1
  C  C39  1  0.36501700  0.78517500  0.62625600  1
  C  C40  1  0.63498300  0.42015800  0.12625600  1
  C  C41  1  0.57984200  0.21482500  0.12625600  1
  C  C42  1  0.49578700  0.59705400  0.81506800  1
  C  C43  1  0.10126700  0.50421300  0.81506800  1
  C  C44  1  0.89873300  0.40294600  0.31506800  1
  C  C45  1  0.40294600  0.89873300  0.81506800  1
  C  C46  1  0.59705400  0.49578700  0.31506800  1
  C  C47  1  0.50421300  0.10126700  0.31506800  1
  C  C48  1  0.00000000  0.00000000  0.99291800  1
  C  C49  1  0.00000000  0.00000000  0.49291800  1
  C  C50  1  0.56736900  0.83137200  0.95214900  1
  C  C51  1  0.26400300  0.43263100  0.95214900  1
  C  C52  1  0.73599700  0.16862800  0.45214900  1
  C  C53  1  0.16862800  0.73599700  0.95214900  1
  C  C54  1  0.83137200  0.56736900  0.45214900  1
  C  C55  1  0.43263100  0.26400300  0.45214900  1
