# generated using pymatgen
data_Cu3Ni2C
_symmetry_space_group_name_H-M   'P 1'
_cell_length_a   8.39775187
_cell_length_b   11.71575912
_cell_length_c   5.04966902
_cell_angle_alpha   90.00000790
_cell_angle_beta   91.41049426
_cell_angle_gamma   45.76896284
_symmetry_Int_Tables_number   1
_chemical_formula_structural   Cu3Ni2C
_chemical_formula_sum   'Cu12 Ni8 C4'
_cell_volume   355.77552961
_cell_formula_units_Z   4
loop_
 _symmetry_equiv_pos_site_id
 _symmetry_equiv_pos_as_xyz
  1  'x, y, z'
loop_
 _atom_site_type_symbol
 _atom_site_label
 _atom_site_symmetry_multiplicity
 _atom_site_fract_x
 _atom_site_fract_y
 _atom_site_fract_z
 _atom_site_occupancy
  C  C0  1  0.00000000  0.01664263  0.75000000  1
  C  C1  1  1.00000000  0.98335737  0.25000000  1
  C  C2  1  1.00000000  0.52214797  0.75000000  1
  C  C3  1  0.00000000  0.47785203  0.25000000  1
  Ni  Ni4  1  0.23150164  0.69555776  0.62197997  1
  Ni  Ni5  1  0.76849836  0.92705940  0.87802003  1
  Ni  Ni6  1  0.76849836  0.30444224  0.37802003  1
  Ni  Ni7  1  0.23150164  0.07294060  0.12197997  1
  Ni  Ni8  1  0.21836140  0.53100513  0.85320572  1
  Ni  Ni9  1  0.78163860  0.74936653  0.64679428  1
  Ni  Ni10  1  0.78163860  0.46899487  0.14679428  1
  Ni  Ni11  1  0.21836140  0.25063347  0.35320572  1
  Cu  Cu12  1  0.15771771  0.81906487  0.52384269  1
  Cu  Cu13  1  0.84228229  0.97678258  0.97615731  1
  Cu  Cu14  1  0.84228229  0.18093513  0.47615731  1
  Cu  Cu15  1  0.15771771  0.02321742  0.02384269  1
  Cu  Cu16  1  0.32032959  0.56812581  0.74184799  1
  Cu  Cu17  1  0.67967041  0.88845640  0.75815201  1
  Cu  Cu18  1  0.67967041  0.43187419  0.25815201  1
  Cu  Cu19  1  0.32032959  0.11154360  0.24184799  1
  Cu  Cu20  1  0.19987212  0.48349014  0.05693221  1
  Cu  Cu21  1  0.80012788  0.68336126  0.44306779  1
  Cu  Cu22  1  0.80012788  0.51650986  0.94306779  1
  Cu  Cu23  1  0.19987212  0.31663874  0.55693221  1
