# generated using pymatgen
data_Cu2NiC20
_symmetry_space_group_name_H-M   'P 1'
_cell_length_a   8.79220843
_cell_length_b   8.79220843
_cell_length_c   6.95131474
_cell_angle_alpha   67.26404629
_cell_angle_beta   112.73595371
_cell_angle_gamma   133.41391356
_symmetry_Int_Tables_number   1
_chemical_formula_structural   Cu2NiC20
_chemical_formula_sum   'Cu2 Ni1 C20'
_cell_volume   354.10201763
_cell_formula_units_Z   1
loop_
 _symmetry_equiv_pos_site_id
 _symmetry_equiv_pos_as_xyz
  1  'x, y, z'
loop_
 _atom_site_type_symbol
 _atom_site_label
 _atom_site_symmetry_multiplicity
 _atom_site_fract_x
 _atom_site_fract_y
 _atom_site_fract_z
 _atom_site_occupancy
  C  C0  1  0.75505300  0.24494700  0.86621300  1
  C  C1  1  0.24494700  0.75505300  0.13378700  1
  Ni  Ni2  1  0.00000000  0.00000000  0.00000000  1
  Cu  Cu3  1  0.70081500  0.29918500  0.28431500  1
  Cu  Cu4  1  0.29918500  0.70081500  0.71568500  1
  C  C5  1  0.26755400  0.26755400  0.00000000  1
  C  C6  1  0.73244600  0.73244600  0.00000000  1
  C  C7  1  0.95373800  0.04626200  0.56674900  1
  C  C8  1  0.04626200  0.95373800  0.43325100  1
  C  C9  1  0.92163800  0.44286700  0.16234600  1
  C  C10  1  0.55713300  0.07836200  0.16234600  1
  C  C11  1  0.07836200  0.55713300  0.83765400  1
  C  C12  1  0.44286700  0.92163800  0.83765400  1
  C  C13  1  0.58034100  0.41965900  0.21969900  1
  C  C14  1  0.41965900  0.58034100  0.78030100  1
  C  C15  1  0.76237500  0.23762500  0.56069300  1
  C  C16  1  0.23762500  0.76237500  0.43930700  1
  C  C17  1  0.63091100  0.36908900  0.74196200  1
  C  C18  1  0.36908900  0.63091100  0.25803800  1
  C  C19  1  0.88744500  0.11255500  0.00574500  1
  C  C20  1  0.11255500  0.88744500  0.99425500  1
  C  C21  1  0.15035800  0.15035800  0.50000000  1
  C  C22  1  0.84964200  0.84964200  0.50000000  1
