# generated using pymatgen
data_Cu2Ni4C5
_symmetry_space_group_name_H-M   'P 1'
_cell_length_a   9.54848754
_cell_length_b   9.54848754
_cell_length_c   7.29899043
_cell_angle_alpha   89.53057511
_cell_angle_beta   89.53057511
_cell_angle_gamma   119.57304182
_symmetry_Int_Tables_number   1
_chemical_formula_structural   Cu2Ni4C5
_chemical_formula_sum   'Cu4 Ni8 C10'
_cell_volume   578.70531355
_cell_formula_units_Z   2
loop_
 _symmetry_equiv_pos_site_id
 _symmetry_equiv_pos_as_xyz
  1  'x, y, z'
loop_
 _atom_site_type_symbol
 _atom_site_label
 _atom_site_symmetry_multiplicity
 _atom_site_fract_x
 _atom_site_fract_y
 _atom_site_fract_z
 _atom_site_occupancy
  Ni  Ni0  1  0.47587700  0.95103200  0.38150500  1
  Ni  Ni1  1  0.95103200  0.47587700  0.88150500  1
  Ni  Ni2  1  0.86071200  0.71760100  0.19133400  1
  Ni  Ni3  1  0.28530100  0.13725500  0.20168900  1
  Ni  Ni4  1  0.85317400  0.13980200  0.19835600  1
  Ni  Ni5  1  0.13725500  0.28530100  0.70168900  1
  Ni  Ni6  1  0.71760100  0.86071200  0.69133400  1
  Ni  Ni7  1  0.13980200  0.85317400  0.69835600  1
  Cu  Cu8  1  0.04685600  0.52582700  0.37977300  1
  Cu  Cu9  1  0.47935800  0.52780500  0.38008400  1
  Cu  Cu10  1  0.52582700  0.04685600  0.87977300  1
  Cu  Cu11  1  0.52780500  0.47935800  0.88008400  1
  C  C12  1  0.66487200  0.32973400  0.50044700  1
  C  C13  1  0.32973400  0.66487200  0.00044700  1
  C  C14  1  0.66348400  0.33628000  0.16475600  1
  C  C15  1  0.33628000  0.66348400  0.66475600  1
  C  C16  1  0.19626300  0.38657000  0.10599500  1
  C  C17  1  0.61193400  0.80548600  0.09533200  1
  C  C18  1  0.19631700  0.80852200  0.09970600  1
  C  C19  1  0.80548600  0.61193400  0.59533200  1
  C  C20  1  0.38657000  0.19626300  0.60599500  1
  C  C21  1  0.80852200  0.19631700  0.59970600  1
