# generated using pymatgen
data_Cu(NiC5)2
_symmetry_space_group_name_H-M   'P 1'
_cell_length_a   9.93640746
_cell_length_b   9.93640746
_cell_length_c   5.44023915
_cell_angle_alpha   88.56840632
_cell_angle_beta   88.56840632
_cell_angle_gamma   37.17356399
_symmetry_Int_Tables_number   1
_chemical_formula_structural   Cu(NiC5)2
_chemical_formula_sum   'Cu2 Ni4 C20'
_cell_volume   324.43615551
_cell_formula_units_Z   2
loop_
 _symmetry_equiv_pos_site_id
 _symmetry_equiv_pos_as_xyz
  1  'x, y, z'
loop_
 _atom_site_type_symbol
 _atom_site_label
 _atom_site_symmetry_multiplicity
 _atom_site_fract_x
 _atom_site_fract_y
 _atom_site_fract_z
 _atom_site_occupancy
  C  C0  1  0.88122500  0.53465400  0.25790800  1
  C  C1  1  0.46534600  0.11877500  0.24209200  1
  C  C2  1  0.11877500  0.46534600  0.74209200  1
  C  C3  1  0.53465400  0.88122500  0.75790800  1
  Ni  Ni4  1  0.03987200  0.74033300  0.25002200  1
  Ni  Ni5  1  0.25966700  0.96012800  0.24997800  1
  Ni  Ni6  1  0.96012800  0.25966700  0.74997800  1
  Ni  Ni7  1  0.74033300  0.03987200  0.75002200  1
  Cu  Cu8  1  0.63342900  0.36657100  0.25000000  1
  Cu  Cu9  1  0.36657100  0.63342900  0.75000000  1
  C  C10  1  0.05794500  0.80621300  0.58694100  1
  C  C11  1  0.19378700  0.94205500  0.91305900  1
  C  C12  1  0.94205500  0.19378700  0.41305900  1
  C  C13  1  0.80621300  0.05794500  0.08694100  1
  C  C14  1  0.30203600  0.58532300  0.08242500  1
  C  C15  1  0.41467700  0.69796400  0.41757500  1
  C  C16  1  0.69796400  0.41467700  0.91757500  1
  C  C17  1  0.58532300  0.30203600  0.58242500  1
  C  C18  1  0.88261000  0.75900900  0.98991700  1
  C  C19  1  0.24099100  0.11739000  0.51008300  1
  C  C20  1  0.47070500  0.15912500  0.83919600  1
  C  C21  1  0.84087500  0.52929500  0.66080400  1
  C  C22  1  0.52929500  0.84087500  0.16080400  1
  C  C23  1  0.15912500  0.47070500  0.33919600  1
  C  C24  1  0.75900900  0.88261000  0.48991700  1
  C  C25  1  0.11739000  0.24099100  0.01008300  1
