# generated using pymatgen
data_Cu3(Ni3C4)4
_symmetry_space_group_name_H-M   'P 1'
_cell_length_a   7.60463300
_cell_length_b   9.82578640
_cell_length_c   11.85278422
_cell_angle_alpha   104.08885382
_cell_angle_beta   98.47051863
_cell_angle_gamma   112.01455770
_symmetry_Int_Tables_number   1
_chemical_formula_structural   Cu3(Ni3C4)4
_chemical_formula_sum   'Cu6 Ni24 C32'
_cell_volume   767.84961361
_cell_formula_units_Z   2
loop_
 _symmetry_equiv_pos_site_id
 _symmetry_equiv_pos_as_xyz
  1  'x, y, z'
loop_
 _atom_site_type_symbol
 _atom_site_label
 _atom_site_symmetry_multiplicity
 _atom_site_fract_x
 _atom_site_fract_y
 _atom_site_fract_z
 _atom_site_occupancy
  C  C0  1  0.90705300  0.62295200  0.80093700  1
  C  C1  1  0.09294700  0.37704800  0.19906300  1
  Ni  Ni2  1  0.71387400  0.59049700  0.00146800  1
  Ni  Ni3  1  0.28612600  0.40950300  0.99853200  1
  Ni  Ni4  1  0.74757600  0.43847900  0.98016700  1
  Ni  Ni5  1  0.25242400  0.56152100  0.01983300  1
  Ni  Ni6  1  0.82450300  0.21436200  0.52420600  1
  Ni  Ni7  1  0.17549700  0.78563900  0.47579400  1
  Ni  Ni8  1  0.67768800  0.58622500  0.57408200  1
  Ni  Ni9  1  0.32231200  0.41377500  0.42591800  1
  Ni  Ni10  1  0.73072500  0.90926200  0.77033600  1
  Ni  Ni11  1  0.26927500  0.09073800  0.22966400  1
  Ni  Ni12  1  0.58442900  0.71641000  0.84151100  1
  Ni  Ni13  1  0.41557100  0.28359000  0.15848900  1
  Ni  Ni14  1  0.25846700  0.19871800  0.03247300  1
  Ni  Ni15  1  0.74153300  0.80128200  0.96752700  1
  Ni  Ni16  1  0.44999900  0.38186000  0.58589400  1
  Ni  Ni17  1  0.55000100  0.61814000  0.41410600  1
  Ni  Ni18  1  0.39350000  0.17332200  0.89401200  1
  Ni  Ni19  1  0.60650000  0.82667800  0.10598800  1
  Ni  Ni20  1  0.19369600  0.16419000  0.82576800  1
  Ni  Ni21  1  0.80630400  0.83581000  0.17423200  1
  Ni  Ni22  1  0.43795500  0.15741700  0.34508500  1
  Ni  Ni23  1  0.56204500  0.84258300  0.65491500  1
  Ni  Ni24  1  0.29592500  0.20907500  0.50510200  1
  Ni  Ni25  1  0.70407500  0.79092500  0.49489800  1
  Cu  Cu26  1  0.13806900  0.80694200  0.66758400  1
  Cu  Cu27  1  0.86193100  0.19305800  0.33241600  1
  Cu  Cu28  1  0.27360100  0.82413700  0.01282800  1
  Cu  Cu29  1  0.72639900  0.17586300  0.98717200  1
  Cu  Cu30  1  0.95384100  0.28549900  0.69877500  1
  Cu  Cu31  1  0.04615900  0.71450100  0.30122500  1
  C  C32  1  0.74745800  0.51938000  0.94403100  1
  C  C33  1  0.25254200  0.48062000  0.05596900  1
  C  C34  1  0.69116300  0.92781200  0.69509100  1
  C  C35  1  0.30883700  0.07218800  0.30490900  1
  C  C36  1  0.72597300  0.77055100  0.87759700  1
  C  C37  1  0.27402700  0.22944900  0.12240300  1
  C  C38  1  0.67539300  0.54423400  0.64213600  1
  C  C39  1  0.32460700  0.45576600  0.35786400  1
  C  C40  1  0.29681200  0.21774400  0.90176100  1
  C  C41  1  0.70318800  0.78225600  0.09823900  1
  C  C42  1  0.30791100  0.31297700  0.54335400  1
  C  C43  1  0.69208900  0.68702300  0.45664600  1
  C  C44  1  0.11847700  0.66835700  0.64830900  1
  C  C45  1  0.88152300  0.33164300  0.35169100  1
  C  C46  1  0.08554800  0.86742300  0.75649200  1
  C  C47  1  0.91445200  0.13257700  0.24350800  1
  C  C48  1  0.20795500  0.88517500  0.60152300  1
  C  C49  1  0.79204500  0.11482500  0.39847700  1
  C  C50  1  0.25391400  0.69307100  0.93950300  1
  C  C51  1  0.74608600  0.30692900  0.06049700  1
  C  C52  1  0.12808100  0.85675700  0.99860600  1
  C  C53  1  0.87191900  0.14324300  0.00139400  1
  C  C54  1  0.43030700  0.91083500  0.09200400  1
  C  C55  1  0.56969300  0.08916500  0.90799600  1
  C  C56  1  0.98930200  0.38965300  0.79665200  1
  C  C57  1  0.01069800  0.61034700  0.20334800  1
  C  C58  1  0.83518600  0.29264600  0.60613500  1
  C  C59  1  0.16481400  0.70735400  0.39386500  1
  C  C60  1  0.01535900  0.18694200  0.68430300  1
  C  C61  1  0.98464100  0.81305800  0.31569700  1
