# generated using pymatgen
data_CuNiC
_symmetry_space_group_name_H-M   'P 1'
_cell_length_a   3.85887700
_cell_length_b   6.64498500
_cell_length_c   7.48330500
_cell_angle_alpha   90.00000000
_cell_angle_beta   90.00000000
_cell_angle_gamma   90.00000000
_symmetry_Int_Tables_number   1
_chemical_formula_structural   CuNiC
_chemical_formula_sum   'Cu4 Ni4 C4'
_cell_volume   191.88825217
_cell_formula_units_Z   4
loop_
 _symmetry_equiv_pos_site_id
 _symmetry_equiv_pos_as_xyz
  1  'x, y, z'
loop_
 _atom_site_type_symbol
 _atom_site_label
 _atom_site_symmetry_multiplicity
 _atom_site_fract_x
 _atom_site_fract_y
 _atom_site_fract_z
 _atom_site_occupancy
  C  C0  1  0.25000000  0.03164900  0.18059100  1
  C  C1  1  0.25000000  0.53164900  0.31940900  1
  C  C2  1  0.75000000  0.46835100  0.68059100  1
  C  C3  1  0.75000000  0.96835100  0.81940900  1
  Ni  Ni4  1  0.75000000  0.75503500  0.12514600  1
  Ni  Ni5  1  0.75000000  0.25503500  0.37485400  1
  Ni  Ni6  1  0.25000000  0.74496500  0.62514600  1
  Ni  Ni7  1  0.25000000  0.24496500  0.87485400  1
  Cu  Cu8  1  0.75000000  0.34753600  0.06189100  1
  Cu  Cu9  1  0.75000000  0.84753600  0.43810900  1
  Cu  Cu10  1  0.25000000  0.15246400  0.56189100  1
  Cu  Cu11  1  0.25000000  0.65246400  0.93810900  1
