# generated using pymatgen
data_Cu2NiC5
_symmetry_space_group_name_H-M   'P 1'
_cell_length_a   6.71179264
_cell_length_b   6.71179264
_cell_length_c   6.71179264
_cell_angle_alpha   120.06994066
_cell_angle_beta   104.57593161
_cell_angle_gamma   104.31663797
_symmetry_Int_Tables_number   1
_chemical_formula_structural   Cu2NiC5
_chemical_formula_sum   'Cu2 Ni1 C5'
_cell_volume   226.68429149
_cell_formula_units_Z   1
loop_
 _symmetry_equiv_pos_site_id
 _symmetry_equiv_pos_as_xyz
  1  'x, y, z'
loop_
 _atom_site_type_symbol
 _atom_site_label
 _atom_site_symmetry_multiplicity
 _atom_site_fract_x
 _atom_site_fract_y
 _atom_site_fract_z
 _atom_site_occupancy
  Ni  Ni0  1  0.00000000  0.00000000  0.00000000  1
  Cu  Cu1  1  0.50000000  0.00000000  0.50000000  1
  Cu  Cu2  1  0.00000000  0.50000000  0.50000000  1
  C  C3  1  0.50000000  0.50000000  0.00000000  1
  C  C4  1  0.50095700  0.10358300  0.93601300  1
  C  C5  1  0.49904300  0.43505600  0.60262600  1
  C  C6  1  0.16757000  0.56494400  0.06398700  1
  C  C7  1  0.83243000  0.89641700  0.39737400  1
