# generated using pymatgen
data_Cu3Ni9C2
_symmetry_space_group_name_H-M   'P 1'
_cell_length_a   7.56752424
_cell_length_b   7.56752424
_cell_length_c   9.50005400
_cell_angle_alpha   90.00000000
_cell_angle_beta   90.00000000
_cell_angle_gamma   119.55541645
_symmetry_Int_Tables_number   1
_chemical_formula_structural   Cu3Ni9C2
_chemical_formula_sum   'Cu6 Ni18 C4'
_cell_volume   473.25212279
_cell_formula_units_Z   2
loop_
 _symmetry_equiv_pos_site_id
 _symmetry_equiv_pos_as_xyz
  1  'x, y, z'
loop_
 _atom_site_type_symbol
 _atom_site_label
 _atom_site_symmetry_multiplicity
 _atom_site_fract_x
 _atom_site_fract_y
 _atom_site_fract_z
 _atom_site_occupancy
  C  C0  1  0.99509800  0.66974500  0.25000000  1
  C  C1  1  0.00490200  0.33025500  0.75000000  1
  C  C2  1  0.66974500  0.99509800  0.25000000  1
  C  C3  1  0.33025500  0.00490200  0.75000000  1
  Ni  Ni4  1  0.12764000  0.12764000  0.25000000  1
  Ni  Ni5  1  0.87236000  0.87236000  0.75000000  1
  Ni  Ni6  1  0.00141600  0.33489900  0.07369900  1
  Ni  Ni7  1  0.99858400  0.66510100  0.92630100  1
  Ni  Ni8  1  0.99858400  0.66510100  0.57369900  1
  Ni  Ni9  1  0.33489900  0.00141600  0.42630100  1
  Ni  Ni10  1  0.00141600  0.33489900  0.42630100  1
  Ni  Ni11  1  0.66510100  0.99858400  0.57369900  1
  Ni  Ni12  1  0.66510100  0.99858400  0.92630100  1
  Ni  Ni13  1  0.33489900  0.00141600  0.07369900  1
  Ni  Ni14  1  0.33351300  0.33351300  0.55280600  1
  Ni  Ni15  1  0.66648700  0.66648700  0.44719400  1
  Ni  Ni16  1  0.66648700  0.66648700  0.05280600  1
  Ni  Ni17  1  0.33351300  0.33351300  0.94719400  1
  Ni  Ni18  1  0.33812000  0.54661100  0.25000000  1
  Ni  Ni19  1  0.66188000  0.45338900  0.75000000  1
  Ni  Ni20  1  0.54661100  0.33812000  0.25000000  1
  Ni  Ni21  1  0.45338900  0.66188000  0.75000000  1
  Cu  Cu22  1  0.67168600  0.32831400  0.00000000  1
  Cu  Cu23  1  0.32831400  0.67168600  0.00000000  1
  Cu  Cu24  1  0.32831400  0.67168600  0.50000000  1
  Cu  Cu25  1  0.67168600  0.32831400  0.50000000  1
  Cu  Cu26  1  0.00000000  0.00000000  0.00000000  1
  Cu  Cu27  1  0.00000000  0.00000000  0.50000000  1
