# generated using pymatgen
data_Cu6Ni3C7
_symmetry_space_group_name_H-M   'P 1'
_cell_length_a   6.04667336
_cell_length_b   6.88301949
_cell_length_c   24.82506511
_cell_angle_alpha   87.37361967
_cell_angle_beta   95.94141912
_cell_angle_gamma   103.96112019
_symmetry_Int_Tables_number   1
_chemical_formula_structural   Cu6Ni3C7
_chemical_formula_sum   'Cu6 Ni3 C7'
_cell_volume   997.06356787
_cell_formula_units_Z   1
loop_
 _symmetry_equiv_pos_site_id
 _symmetry_equiv_pos_as_xyz
  1  'x, y, z'
loop_
 _atom_site_type_symbol
 _atom_site_label
 _atom_site_symmetry_multiplicity
 _atom_site_fract_x
 _atom_site_fract_y
 _atom_site_fract_z
 _atom_site_occupancy
  C  C0  1  0.00000000  0.00000000  0.00000000  1
  Ni  Ni1  1  0.00000000  0.00000000  0.50000000  1
  Ni  Ni2  1  0.50000000  0.50000000  0.00000000  1
  Ni  Ni3  1  0.00000000  0.50000000  0.00000000  1
  Cu  Cu4  1  0.90788500  0.01477300  0.74272000  1
  Cu  Cu5  1  0.09211500  0.98522700  0.25728000  1
  Cu  Cu6  1  0.64540200  0.69653400  0.98408600  1
  Cu  Cu7  1  0.35459800  0.30346500  0.01591400  1
  Cu  Cu8  1  0.16872900  0.38948400  0.00417900  1
  Cu  Cu9  1  0.83127100  0.61051600  0.99582100  1
  C  C10  1  0.98096300  0.18055600  0.75685000  1
  C  C11  1  0.01903700  0.81944400  0.24315000  1
  C  C12  1  0.83494700  0.84864400  0.72862300  1
  C  C13  1  0.16505300  0.15135600  0.27137700  1
  C  C14  1  0.63537600  0.87706100  0.96874900  1
  C  C15  1  0.36462400  0.12293900  0.03125100  1
