# generated using pymatgen
data_CuNiC12
_symmetry_space_group_name_H-M   'P 1'
_cell_length_a   5.71161900
_cell_length_b   10.39499500
_cell_length_c   13.32569100
_cell_angle_alpha   90.00000000
_cell_angle_beta   90.00000000
_cell_angle_gamma   90.00000000
_symmetry_Int_Tables_number   1
_chemical_formula_structural   CuNiC12
_chemical_formula_sum   'Cu4 Ni4 C48'
_cell_volume   791.17627009
_cell_formula_units_Z   4
loop_
 _symmetry_equiv_pos_site_id
 _symmetry_equiv_pos_as_xyz
  1  'x, y, z'
loop_
 _atom_site_type_symbol
 _atom_site_label
 _atom_site_symmetry_multiplicity
 _atom_site_fract_x
 _atom_site_fract_y
 _atom_site_fract_z
 _atom_site_occupancy
  C  C0  1  0.25000000  0.40743100  0.42267700  1
  C  C1  1  0.75000000  0.59256900  0.57732300  1
  C  C2  1  0.75000000  0.90743100  0.07732300  1
  C  C3  1  0.25000000  0.09256900  0.92267700  1
  C  C4  1  0.25000000  0.68502300  0.20738000  1
  C  C5  1  0.75000000  0.31497700  0.79262000  1
  C  C6  1  0.75000000  0.18502300  0.29262000  1
  C  C7  1  0.25000000  0.81497700  0.70738000  1
  C  C8  1  0.25000000  0.01275000  0.41709500  1
  C  C9  1  0.75000000  0.98725000  0.58290500  1
  C  C10  1  0.75000000  0.51275000  0.08290500  1
  C  C11  1  0.25000000  0.48725000  0.91709500  1
  C  C12  1  0.25000000  0.31202900  0.14133200  1
  C  C13  1  0.75000000  0.68797100  0.85866800  1
  C  C14  1  0.75000000  0.81202900  0.35866800  1
  C  C15  1  0.25000000  0.18797100  0.64133200  1
  Ni  Ni16  1  0.25000000  0.73329200  0.46117300  1
  Ni  Ni17  1  0.75000000  0.26670800  0.53882700  1
  Ni  Ni18  1  0.75000000  0.23329200  0.03882700  1
  Ni  Ni19  1  0.25000000  0.76670800  0.96117300  1
  Cu  Cu20  1  0.25000000  0.03193000  0.19427800  1
  Cu  Cu21  1  0.75000000  0.96807000  0.80572200  1
  Cu  Cu22  1  0.75000000  0.53193000  0.30572200  1
  Cu  Cu23  1  0.25000000  0.46807000  0.69427800  1
  C  C24  1  0.25000000  0.18547900  0.29627900  1
  C  C25  1  0.75000000  0.81452100  0.70372100  1
  C  C26  1  0.75000000  0.68547900  0.20372100  1
  C  C27  1  0.25000000  0.31452100  0.79627900  1
  C  C28  1  0.50917400  0.44307600  0.21504000  1
  C  C29  1  0.49082600  0.55692400  0.78496000  1
  C  C30  1  0.49082600  0.94307600  0.28496000  1
  C  C31  1  0.00917400  0.55692400  0.78496000  1
  C  C32  1  0.50917400  0.05692400  0.71504000  1
  C  C33  1  0.99082600  0.44307600  0.21504000  1
  C  C34  1  0.99082600  0.05692400  0.71504000  1
  C  C35  1  0.00917400  0.94307600  0.28496000  1
  C  C36  1  0.00917900  0.13972100  0.11393700  1
  C  C37  1  0.99082100  0.86027900  0.88606300  1
  C  C38  1  0.99082100  0.63972100  0.38606300  1
  C  C39  1  0.50917900  0.86027900  0.88606300  1
  C  C40  1  0.00917900  0.36027900  0.61393700  1
  C  C41  1  0.49082100  0.13972100  0.11393700  1
  C  C42  1  0.49082100  0.36027900  0.61393700  1
  C  C43  1  0.50917900  0.63972100  0.38606300  1
  C  C44  1  0.50449800  0.36517900  0.00830000  1
  C  C45  1  0.49550200  0.63482100  0.99170000  1
  C  C46  1  0.49550200  0.86517900  0.49170000  1
  C  C47  1  0.00449800  0.63482100  0.99170000  1
  C  C48  1  0.50449800  0.13482100  0.50830000  1
  C  C49  1  0.99550200  0.36517900  0.00830000  1
  C  C50  1  0.99550200  0.13482100  0.50830000  1
  C  C51  1  0.00449800  0.86517900  0.49170000  1
  C  C52  1  0.25000000  0.60987600  0.58870600  1
  C  C53  1  0.75000000  0.39012400  0.41129400  1
  C  C54  1  0.75000000  0.10987600  0.91129400  1
  C  C55  1  0.25000000  0.89012400  0.08870600  1
