# generated using pymatgen
data_Cu(NiC9)2
_symmetry_space_group_name_H-M   'P 1'
_cell_length_a   5.45803200
_cell_length_b   7.11120165
_cell_length_c   15.04459363
_cell_angle_alpha   84.26885109
_cell_angle_beta   88.28579823
_cell_angle_gamma   89.80156894
_symmetry_Int_Tables_number   1
_chemical_formula_structural   Cu(NiC9)2
_chemical_formula_sum   'Cu2 Ni4 C36'
_cell_volume   580.74942212
_cell_formula_units_Z   2
loop_
 _symmetry_equiv_pos_site_id
 _symmetry_equiv_pos_as_xyz
  1  'x, y, z'
loop_
 _atom_site_type_symbol
 _atom_site_label
 _atom_site_symmetry_multiplicity
 _atom_site_fract_x
 _atom_site_fract_y
 _atom_site_fract_z
 _atom_site_occupancy
  C  C0  1  0.72508300  0.34115900  0.16522100  1
  C  C1  1  0.27491700  0.65884100  0.83477900  1
  C  C2  1  0.23768500  0.82375500  0.09867700  1
  C  C3  1  0.76231500  0.17624500  0.90132300  1
  C  C4  1  0.29301600  0.20513200  0.70042700  1
  C  C5  1  0.70698400  0.79486800  0.29957300  1
  C  C6  1  0.50000000  0.50000000  0.50000000  1
  C  C7  1  0.01357400  0.75181400  0.50053300  1
  C  C8  1  0.98642600  0.24818600  0.49946700  1
  C  C9  1  0.50000000  0.00000000  0.50000000  1
  Ni  Ni10  1  0.20342600  0.51052200  0.31548700  1
  Ni  Ni11  1  0.79657400  0.48947800  0.68451300  1
  Ni  Ni12  1  0.20222300  0.06660600  0.31281100  1
  Ni  Ni13  1  0.79777700  0.93339400  0.68718900  1
  Cu  Cu14  1  0.24653200  0.28234100  0.02444500  1
  Cu  Cu15  1  0.75346800  0.71765900  0.97555500  1
  C  C16  1  0.45682700  0.60891000  0.27514200  1
  C  C17  1  0.54317300  0.39109000  0.72485800  1
  C  C18  1  0.01153000  0.16636500  0.05488600  1
  C  C19  1  0.98847000  0.83363500  0.94511400  1
  C  C20  1  0.25820900  0.31278400  0.91999700  1
  C  C21  1  0.74179100  0.68721600  0.08000300  1
  C  C22  1  0.54376600  0.01311000  0.72890500  1
  C  C23  1  0.45623400  0.98689000  0.27109500  1
  C  C24  1  0.47315700  0.16224100  0.05569000  1
  C  C25  1  0.52684300  0.83775900  0.94431000  1
  C  C26  1  0.04255400  0.38968900  0.72596300  1
  C  C27  1  0.95744600  0.61031100  0.27403700  1
  C  C28  1  0.04360500  0.01234900  0.73011600  1
  C  C29  1  0.95639500  0.98765100  0.26988400  1
  C  C30  1  0.63461600  0.25908600  0.45574100  1
  C  C31  1  0.36538400  0.74091400  0.54425900  1
  C  C32  1  0.24376200  0.46657900  0.07075900  1
  C  C33  1  0.75623800  0.53342100  0.92924100  1
  C  C34  1  0.18972800  0.02839500  0.42467900  1
  C  C35  1  0.81027200  0.97160500  0.57532100  1
  C  C36  1  0.29165600  0.22624300  0.58220000  1
  C  C37  1  0.70834400  0.77375700  0.41780000  1
  C  C38  1  0.19815100  0.29568100  0.28448400  1
  C  C39  1  0.80184900  0.70431900  0.71551600  1
  C  C40  1  0.19018300  0.49911400  0.42728800  1
  C  C41  1  0.80981700  0.50088600  0.57271200  1
