# generated using pymatgen
data_Cu2Ni2C11
_symmetry_space_group_name_H-M   'P 1'
_cell_length_a   3.35702618
_cell_length_b   3.35702618
_cell_length_c   67.36990200
_cell_angle_alpha   90.00000000
_cell_angle_beta   90.00000000
_cell_angle_gamma   120.00000346
_symmetry_Int_Tables_number   1
_chemical_formula_structural   Cu2Ni2C11
_chemical_formula_sum   'Cu4 Ni4 C22'
_cell_volume   657.51548810
_cell_formula_units_Z   2
loop_
 _symmetry_equiv_pos_site_id
 _symmetry_equiv_pos_as_xyz
  1  'x, y, z'
loop_
 _atom_site_type_symbol
 _atom_site_label
 _atom_site_symmetry_multiplicity
 _atom_site_fract_x
 _atom_site_fract_y
 _atom_site_fract_z
 _atom_site_occupancy
  C  C0  1  0.66666700  0.33333300  0.14998600  1
  C  C1  1  0.66666700  0.33333300  0.34999600  1
  Ni  Ni2  1  0.66666700  0.33333300  0.55000300  1
  Ni  Ni3  1  0.66666700  0.33333300  0.74999800  1
  Ni  Ni4  1  0.66666700  0.33333300  0.95001200  1
  Ni  Ni5  1  0.33333300  0.66666700  0.04999100  1
  Cu  Cu6  1  0.33333300  0.66666700  0.25000300  1
  Cu  Cu7  1  0.33333300  0.66666700  0.45001200  1
  Cu  Cu8  1  0.33333300  0.66666700  0.65000000  1
  Cu  Cu9  1  0.33333300  0.66666700  0.84999400  1
  C  C10  1  0.66666700  0.33333300  0.02531300  1
  C  C11  1  0.66666700  0.33333300  0.22521600  1
  C  C12  1  0.66666700  0.33333300  0.42523200  1
  C  C13  1  0.66666700  0.33333300  0.62520900  1
  C  C14  1  0.66666700  0.33333300  0.82520500  1
  C  C15  1  0.33333300  0.66666700  0.17553200  1
  C  C16  1  0.33333300  0.66666700  0.37553000  1
  C  C17  1  0.33333300  0.66666700  0.57467300  1
  C  C18  1  0.33333300  0.66666700  0.77467100  1
  C  C19  1  0.33333300  0.66666700  0.97469000  1
  C  C20  1  0.33333300  0.66666700  0.12443800  1
  C  C21  1  0.33333300  0.66666700  0.32447000  1
  C  C22  1  0.33333300  0.66666700  0.52532900  1
  C  C23  1  0.33333300  0.66666700  0.72532700  1
  C  C24  1  0.33333300  0.66666700  0.92534300  1
  C  C25  1  0.66666700  0.33333300  0.07465700  1
  C  C26  1  0.66666700  0.33333300  0.27478600  1
  C  C27  1  0.66666700  0.33333300  0.47480800  1
  C  C28  1  0.66666700  0.33333300  0.67479000  1
  C  C29  1  0.66666700  0.33333300  0.87478600  1
