# generated using pymatgen
data_Cu2Ni4C35
_symmetry_space_group_name_H-M   'P 1'
_cell_length_a   8.62523400
_cell_length_b   6.53248400
_cell_length_c   15.50294934
_cell_angle_alpha   77.88058623
_cell_angle_beta   90.00000000
_cell_angle_gamma   90.00000000
_symmetry_Int_Tables_number   1
_chemical_formula_structural   Cu2Ni4C35
_chemical_formula_sum   'Cu4 Ni8 C70'
_cell_volume   854.03286366
_cell_formula_units_Z   2
loop_
 _symmetry_equiv_pos_site_id
 _symmetry_equiv_pos_as_xyz
  1  'x, y, z'
loop_
 _atom_site_type_symbol
 _atom_site_label
 _atom_site_symmetry_multiplicity
 _atom_site_fract_x
 _atom_site_fract_y
 _atom_site_fract_z
 _atom_site_occupancy
  Ni  Ni0  1  0.82398600  0.96972000  0.22735600  1
  Ni  Ni1  1  0.32398600  0.03028000  0.27264400  1
  Ni  Ni2  1  0.17601400  0.03028000  0.77264400  1
  Ni  Ni3  1  0.67601400  0.96972000  0.72735600  1
  Ni  Ni4  1  0.98428600  0.39065200  0.38611700  1
  Ni  Ni5  1  0.48428600  0.60934800  0.11388300  1
  Ni  Ni6  1  0.01571400  0.60934800  0.61388300  1
  Ni  Ni7  1  0.51571400  0.39065200  0.88611700  1
  Cu  Cu8  1  0.80448000  0.34165700  0.02458900  1
  Cu  Cu9  1  0.30448000  0.65834300  0.47541100  1
  Cu  Cu10  1  0.19552000  0.65834300  0.97541100  1
  Cu  Cu11  1  0.69552000  0.34165700  0.52458900  1
  C  C12  1  0.65448500  0.06414500  0.42200700  1
  C  C13  1  0.15448500  0.93585500  0.07799300  1
  C  C14  1  0.34551500  0.93585500  0.57799300  1
  C  C15  1  0.84551500  0.06414500  0.92200700  1
  C  C16  1  0.83055900  0.75215000  0.03780500  1
  C  C17  1  0.33055900  0.24785000  0.46219500  1
  C  C18  1  0.16944100  0.24785000  0.96219500  1
  C  C19  1  0.66944100  0.75215000  0.53780500  1
  C  C20  1  0.88027000  0.47709800  0.18308600  1
  C  C21  1  0.38027000  0.52290200  0.31691400  1
  C  C22  1  0.11973000  0.52290200  0.81691400  1
  C  C23  1  0.61973000  0.47709800  0.68308600  1
  C  C24  1  0.60216400  0.71474600  0.38187000  1
  C  C25  1  0.10216400  0.28525400  0.11813000  1
  C  C26  1  0.39783600  0.28525400  0.61813000  1
  C  C27  1  0.89783600  0.71474600  0.88187000  1
  C  C28  1  0.66286300  0.42549600  0.30714200  1
  C  C29  1  0.16286300  0.57450400  0.19285800  1
  C  C30  1  0.33713700  0.57450400  0.69285800  1
  C  C31  1  0.83713700  0.42549600  0.80714200  1
  C  C32  1  0.03900000  0.90313200  0.42723500  1
  C  C33  1  0.53900000  0.09686800  0.07276500  1
  C  C34  1  0.96100000  0.09686800  0.57276500  1
  C  C35  1  0.46100000  0.90313200  0.92723500  1
  C  C36  1  0.93817400  0.32868100  0.13096200  1
  C  C37  1  0.43817400  0.67131900  0.36903800  1
  C  C38  1  0.06182600  0.67131900  0.86903800  1
  C  C39  1  0.56182600  0.32868100  0.63096200  1
  C  C40  1  0.52900800  0.97695100  0.15596400  1
  C  C41  1  0.02900800  0.02304900  0.34403600  1
  C  C42  1  0.47099200  0.02304900  0.84403600  1
  C  C43  1  0.97099200  0.97695100  0.65596400  1
  C  C44  1  0.67796900  0.27439800  0.40067900  1
  C  C45  1  0.17796900  0.72560200  0.09932100  1
  C  C46  1  0.32203100  0.72560200  0.59932100  1
  C  C47  1  0.82203100  0.27439800  0.90067900  1
  C  C48  1  0.83529300  0.97119800  0.01262500  1
  C  C49  1  0.33529300  0.02880200  0.48737500  1
  C  C50  1  0.16470700  0.02880200  0.98737500  1
  C  C51  1  0.66470700  0.97119800  0.51262500  1
  C  C52  1  0.70709200  0.62966300  0.32515700  1
  C  C53  1  0.20709200  0.37033700  0.17484300  1
  C  C54  1  0.29290800  0.37033700  0.67484300  1
  C  C55  1  0.79290800  0.62966300  0.82515700  1
  C  C56  1  0.08344200  0.69742400  0.44891100  1
  C  C57  1  0.58344200  0.30257600  0.05108900  1
  C  C58  1  0.91655800  0.30257600  0.55108900  1
  C  C59  1  0.41655800  0.69742400  0.94891100  1
  C  C60  1  0.85336500  0.63491500  0.97628000  1
  C  C61  1  0.35336500  0.36508500  0.52372000  1
  C  C62  1  0.14663500  0.36508500  0.02372000  1
  C  C63  1  0.64663500  0.63491500  0.47628000  1
  C  C64  1  0.77396500  0.35722900  0.24879000  1
  C  C65  1  0.27396500  0.64277100  0.25121000  1
  C  C66  1  0.22603500  0.64277100  0.75121000  1
  C  C67  1  0.72603500  0.35722900  0.74879000  1
  C  C68  1  0.00422700  0.57716600  0.22453900  1
  C  C69  1  0.50422700  0.42283400  0.27546100  1
  C  C70  1  0.99577300  0.42283400  0.77546100  1
  C  C71  1  0.49577300  0.57716600  0.72453900  1
  C  C72  1  0.00000000  0.00000000  0.50000000  1
  C  C73  1  0.50000000  0.00000000  0.00000000  1
  C  C74  1  0.79256900  0.66359200  0.12365600  1
  C  C75  1  0.29256900  0.33640800  0.37634400  1
  C  C76  1  0.20743100  0.33640800  0.87634400  1
  C  C77  1  0.70743100  0.66359200  0.62365600  1
  C  C78  1  0.62290800  0.94896300  0.35998600  1
  C  C79  1  0.12290800  0.05103700  0.14001400  1
  C  C80  1  0.37709200  0.05103700  0.64001400  1
  C  C81  1  0.87709200  0.94896300  0.85998600  1
