# generated using pymatgen
data_CuNiC7
_symmetry_space_group_name_H-M   'P 1'
_cell_length_a   11.56806250
_cell_length_b   11.73614075
_cell_length_c   17.54086713
_cell_angle_alpha   109.68213285
_cell_angle_beta   109.20726712
_cell_angle_gamma   89.90162219
_symmetry_Int_Tables_number   1
_chemical_formula_structural   CuNiC7
_chemical_formula_sum   'Cu16 Ni16 C112'
_cell_volume   2101.47828726
_cell_formula_units_Z   16
loop_
 _symmetry_equiv_pos_site_id
 _symmetry_equiv_pos_as_xyz
  1  'x, y, z'
loop_
 _atom_site_type_symbol
 _atom_site_label
 _atom_site_symmetry_multiplicity
 _atom_site_fract_x
 _atom_site_fract_y
 _atom_site_fract_z
 _atom_site_occupancy
  Ni  Ni0  1  0.30665100  0.06793600  0.10949900  1
  Ni  Ni1  1  0.30249700  0.56167100  0.10714000  1
  Ni  Ni2  1  0.80693200  0.06393400  0.11100100  1
  Ni  Ni3  1  0.80531400  0.56217300  0.10882500  1
  Ni  Ni4  1  0.20052500  0.93635300  0.39524900  1
  Ni  Ni5  1  0.19233500  0.92883000  0.88246100  1
  Ni  Ni6  1  0.70220600  0.43700100  0.39634300  1
  Ni  Ni7  1  0.69268000  0.42918300  0.88485600  1
  Ni  Ni8  1  0.70027600  0.93403400  0.39644000  1
  Ni  Ni9  1  0.05706400  0.29539100  0.10875900  1
  Ni  Ni10  1  0.05266100  0.79170900  0.10579100  1
  Ni  Ni11  1  0.55579500  0.29422900  0.10839100  1
  Ni  Ni12  1  0.55252100  0.79435000  0.10454800  1
  Ni  Ni13  1  0.45266500  0.71244000  0.39584500  1
  Ni  Ni14  1  0.44031000  0.70558000  0.88289900  1
  Ni  Ni15  1  0.94143900  0.70313100  0.88245400  1
  Cu  Cu16  1  0.29848800  0.07078000  0.60388400  1
  Cu  Cu17  1  0.30053600  0.56294600  0.59993700  1
  Cu  Cu18  1  0.80252800  0.06708400  0.60380700  1
  Cu  Cu19  1  0.79733100  0.56758400  0.60117800  1
  Cu  Cu20  1  0.20215300  0.43754900  0.40512400  1
  Cu  Cu21  1  0.19821600  0.43509100  0.89711500  1
  Cu  Cu22  1  0.69657800  0.93412800  0.89566100  1
  Cu  Cu23  1  0.05152900  0.28306300  0.60312800  1
  Cu  Cu24  1  0.04974000  0.78652100  0.60043400  1
  Cu  Cu25  1  0.55010900  0.28586500  0.60178300  1
  Cu  Cu26  1  0.55186000  0.78548600  0.60218600  1
  Cu  Cu27  1  0.45415100  0.21529200  0.40572200  1
  Cu  Cu28  1  0.44788300  0.21052300  0.89668600  1
  Cu  Cu29  1  0.95239400  0.21586600  0.40450200  1
  Cu  Cu30  1  0.94623700  0.21143400  0.89605400  1
  Cu  Cu31  1  0.95000100  0.71609300  0.40308300  1
  C  C32  1  0.00615500  0.99894700  0.99610600  1
  C  C33  1  0.01518800  0.00193400  0.50439000  1
  C  C34  1  0.00369800  0.49592300  0.99516200  1
  C  C35  1  0.01439900  0.50160600  0.50166300  1
  C  C36  1  0.50436700  0.99869900  0.99398000  1
  C  C37  1  0.51413500  0.00572300  0.50615600  1
  C  C38  1  0.50483800  0.49612600  0.99509700  1
  C  C39  1  0.51531400  0.50136100  0.50577800  1
  C  C40  1  0.25536300  0.24982300  0.99607000  1
  C  C41  1  0.26471900  0.25376400  0.50451500  1
  C  C42  1  0.25312000  0.74527000  0.99332800  1
  C  C43  1  0.26342900  0.74914400  0.50305100  1
  C  C44  1  0.75637000  0.24492200  0.99419900  1
  C  C45  1  0.76795900  0.25117000  0.50492100  1
  C  C46  1  0.75373800  0.74872500  0.99480400  1
  C  C47  1  0.76519000  0.75282300  0.50629300  1
  C  C48  1  0.10020600  0.10709000  0.25857500  1
  C  C49  1  0.09695300  0.59254500  0.25702800  1
  C  C50  1  0.59947400  0.10003500  0.25632600  1
  C  C51  1  0.85799700  0.40582100  0.25509000  1
  C  C52  1  0.08817300  0.09861200  0.74770300  1
  C  C53  1  0.08762400  0.58278400  0.73748000  1
  C  C54  1  0.58545200  0.08922400  0.74602200  1
  C  C55  1  0.59929400  0.59253600  0.25056400  1
  C  C56  1  0.58728600  0.58909300  0.74217000  1
  C  C57  1  0.34411300  0.40492900  0.25940500  1
  C  C58  1  0.33670200  0.39939800  0.74799300  1
  C  C59  1  0.34688800  0.91314500  0.25110000  1
  C  C60  1  0.33706300  0.90692300  0.73903500  1
  C  C61  1  0.84187100  0.39862800  0.74323000  1
  C  C62  1  0.84987500  0.90947400  0.25378100  1
  C  C63  1  0.83465300  0.91071400  0.74612600  1
  C  C64  1  0.12947200  0.12536200  0.49024800  1
  C  C65  1  0.12368900  0.12172800  0.98568800  1
  C  C66  1  0.12739400  0.61593600  0.48235300  1
  C  C67  1  0.12286100  0.61352800  0.98311500  1
  C  C68  1  0.63237300  0.12590000  0.49474100  1
  C  C69  1  0.62413400  0.11625400  0.98246800  1
  C  C70  1  0.63171600  0.62244000  0.49344000  1
  C  C71  1  0.62276100  0.61818900  0.98501000  1
  C  C72  1  0.13150300  0.37682900  0.00250600  1
  C  C73  1  0.14705500  0.38747100  0.51998600  1
  C  C74  1  0.13402600  0.87643500  0.00544400  1
  C  C75  1  0.14469000  0.88026500  0.51895700  1
  C  C76  1  0.63278300  0.37383300  0.00434000  1
  C  C77  1  0.64695700  0.38365600  0.52137900  1
  C  C78  1  0.63394400  0.87889600  0.00396700  1
  C  C79  1  0.64795400  0.88740200  0.52536400  1
  C  C80  1  0.38185700  0.12329900  0.48907200  1
  C  C81  1  0.37443000  0.11948200  0.98290600  1
  C  C82  1  0.37978000  0.61691100  0.49163800  1
  C  C83  1  0.37117700  0.61362200  0.98376300  1
  C  C84  1  0.88357800  0.12008700  0.48860600  1
  C  C85  1  0.87443400  0.11579000  0.98342400  1
  C  C86  1  0.88419200  0.62205300  0.49202600  1
  C  C87  1  0.87281600  0.61684000  0.98570300  1
  C  C88  1  0.38277900  0.37741500  0.00305600  1
  C  C89  1  0.39707300  0.38616600  0.52074600  1
  C  C90  1  0.38225900  0.87859600  0.00427900  1
  C  C91  1  0.39762700  0.89004300  0.52523200  1
  C  C92  1  0.88496200  0.37631300  0.00539000  1
  C  C93  1  0.89923100  0.38583100  0.52119600  1
  C  C94  1  0.88123300  0.87900800  0.00366800  1
  C  C95  1  0.89740200  0.88630300  0.52196200  1
  C  C96  1  0.07589500  0.08846600  0.13916500  1
  C  C97  1  0.09281700  0.10609800  0.63887600  1
  C  C98  1  0.07632000  0.58581900  0.14211300  1
  C  C99  1  0.09299300  0.61216300  0.63814000  1
  C  C100  1  0.57426700  0.08836300  0.13833700  1
  C  C101  1  0.58731100  0.11150700  0.64231700  1
  C  C102  1  0.57437600  0.58953700  0.13531100  1
  C  C103  1  0.59503400  0.61181500  0.63959500  1
  C  C104  1  0.44613800  0.39225400  0.36675100  1
  C  C105  1  0.43946900  0.39317400  0.85742600  1
  C  C106  1  0.44787400  0.91435300  0.36605000  1
  C  C107  1  0.44210000  0.91350400  0.85450100  1
  C  C108  1  0.95382000  0.38997700  0.36384000  1
  C  C109  1  0.93566800  0.39751400  0.85665300  1
  C  C110  1  0.94629600  0.89733100  0.36583400  1
  C  C111  1  0.94367300  0.91163000  0.85805200  1
  C  C112  1  0.32516500  0.30912100  0.13849000  1
  C  C113  1  0.33891200  0.28237700  0.63887600  1
  C  C114  1  0.32492800  0.79903500  0.13773300  1
  C  C115  1  0.33826800  0.77535400  0.63893000  1
  C  C116  1  0.83398900  0.29904400  0.13880700  1
  C  C117  1  0.85092000  0.27665800  0.63882600  1
  C  C118  1  0.82804600  0.80071600  0.13811100  1
  C  C119  1  0.83928300  0.78478400  0.64270400  1
  C  C120  1  0.20634500  0.22435600  0.36497500  1
  C  C121  1  0.19027400  0.21285600  0.85796400  1
  C  C122  1  0.20535900  0.70834600  0.36479500  1
  C  C123  1  0.18716100  0.69104200  0.85483200  1
  C  C124  1  0.71110500  0.20878400  0.36480000  1
  C  C125  1  0.70262600  0.19561200  0.85680200  1
  C  C126  1  0.70127200  0.70147600  0.36701200  1
  C  C127  1  0.68245300  0.70629400  0.85579800  1
  C  C128  1  0.44533000  0.07211000  0.27130400  1
  C  C129  1  0.41816300  0.06997600  0.75003200  1
  C  C130  1  0.44051300  0.54490300  0.25114900  1
  C  C131  1  0.41773700  0.53993600  0.73020400  1
  C  C132  1  0.94774700  0.06795700  0.27311500  1
  C  C133  1  0.92240800  0.06578800  0.74972700  1
  C  C134  1  0.93886000  0.56742500  0.26792300  1
  C  C135  1  0.91742500  0.54281900  0.72773200  1
  C  C136  1  0.18611400  0.44455100  0.27021900  1
  C  C137  1  0.17124700  0.43170900  0.75091800  1
  C  C138  1  0.18480300  0.95316200  0.25055400  1
  C  C139  1  0.16651600  0.93922500  0.72890700  1
  C  C140  1  0.69847400  0.45218000  0.25527300  1
  C  C141  1  0.67227900  0.43457600  0.73204000  1
  C  C142  1  0.68687700  0.94852400  0.25179400  1
  C  C143  1  0.66600000  0.93375400  0.74709100  1
