# generated using pymatgen
data_Cu10NiC2
_symmetry_space_group_name_H-M   'P 1'
_cell_length_a   4.15123500
_cell_length_b   5.56893000
_cell_length_c   11.09803700
_cell_angle_alpha   90.00000000
_cell_angle_beta   90.00000000
_cell_angle_gamma   90.00000000
_symmetry_Int_Tables_number   1
_chemical_formula_structural   Cu10NiC2
_chemical_formula_sum   'Cu20 Ni2 C4'
_cell_volume   256.56372162
_cell_formula_units_Z   2
loop_
 _symmetry_equiv_pos_site_id
 _symmetry_equiv_pos_as_xyz
  1  'x, y, z'
loop_
 _atom_site_type_symbol
 _atom_site_label
 _atom_site_symmetry_multiplicity
 _atom_site_fract_x
 _atom_site_fract_y
 _atom_site_fract_z
 _atom_site_occupancy
  C  C0  1  0.50000000  0.19195800  0.36322800  1
  C  C1  1  0.50000000  0.80804200  0.63677200  1
  C  C2  1  0.50000000  0.30804200  0.86322800  1
  C  C3  1  0.50000000  0.69195800  0.13677200  1
  Ni  Ni4  1  0.00000000  0.00000000  0.00000000  1
  Ni  Ni5  1  0.00000000  0.50000000  0.50000000  1
  Cu  Cu6  1  0.00000000  0.37443900  0.04101100  1
  Cu  Cu7  1  0.00000000  0.62556100  0.95898900  1
  Cu  Cu8  1  0.00000000  0.12556100  0.54101100  1
  Cu  Cu9  1  0.00000000  0.87443900  0.45898900  1
  Cu  Cu10  1  0.00000000  0.34537800  0.19744300  1
  Cu  Cu11  1  0.00000000  0.65462200  0.80255700  1
  Cu  Cu12  1  0.00000000  0.15462200  0.69744300  1
  Cu  Cu13  1  0.00000000  0.84537800  0.30255700  1
  Cu  Cu14  1  0.00000000  0.03573600  0.18767500  1
  Cu  Cu15  1  0.00000000  0.96426400  0.81232500  1
  Cu  Cu16  1  0.00000000  0.46426400  0.68767500  1
  Cu  Cu17  1  0.00000000  0.53573600  0.31232500  1
  Cu  Cu18  1  0.30021800  0.20358000  0.11407200  1
  Cu  Cu19  1  0.69978200  0.79642000  0.88592800  1
  Cu  Cu20  1  0.30021800  0.79642000  0.88592800  1
  Cu  Cu21  1  0.69978200  0.29642000  0.61407200  1
  Cu  Cu22  1  0.69978200  0.20358000  0.11407200  1
  Cu  Cu23  1  0.30021800  0.70358000  0.38592800  1
  Cu  Cu24  1  0.69978200  0.70358000  0.38592800  1
  Cu  Cu25  1  0.30021800  0.29642000  0.61407200  1
