# generated using pymatgen
data_CuNiC3
_symmetry_space_group_name_H-M   'P 1'
_cell_length_a   5.87434922
_cell_length_b   5.87434922
_cell_length_c   7.14721800
_cell_angle_alpha   90.00000000
_cell_angle_beta   90.00000000
_cell_angle_gamma   140.53883479
_symmetry_Int_Tables_number   1
_chemical_formula_structural   CuNiC3
_chemical_formula_sum   'Cu2 Ni2 C6'
_cell_volume   156.75079036
_cell_formula_units_Z   2
loop_
 _symmetry_equiv_pos_site_id
 _symmetry_equiv_pos_as_xyz
  1  'x, y, z'
loop_
 _atom_site_type_symbol
 _atom_site_label
 _atom_site_symmetry_multiplicity
 _atom_site_fract_x
 _atom_site_fract_y
 _atom_site_fract_z
 _atom_site_occupancy
  C  C0  1  0.54599600  0.45400400  0.25000000  1
  C  C1  1  0.45400400  0.54599600  0.75000000  1
  Ni  Ni2  1  0.26978400  0.73021600  0.25000000  1
  Ni  Ni3  1  0.73021600  0.26978400  0.75000000  1
  C  C4  1  0.83220900  0.16779100  0.05354200  1
  C  C5  1  0.16779100  0.83220900  0.94645800  1
  C  C6  1  0.16779100  0.83220900  0.55354200  1
  C  C7  1  0.83220900  0.16779100  0.44645800  1
  Cu  Cu8  1  0.00000000  0.00000000  0.00000000  1
  Cu  Cu9  1  0.00000000  0.00000000  0.50000000  1
