# generated using pymatgen
data_Cu9NiC8
_symmetry_space_group_name_H-M   'P 1'
_cell_length_a   6.23817300
_cell_length_b   7.73601000
_cell_length_c   9.84962100
_cell_angle_alpha   90.00000000
_cell_angle_beta   90.00000000
_cell_angle_gamma   90.00000000
_symmetry_Int_Tables_number   1
_chemical_formula_structural   Cu9NiC8
_chemical_formula_sum   'Cu18 Ni2 C16'
_cell_volume   475.32861179
_cell_formula_units_Z   2
loop_
 _symmetry_equiv_pos_site_id
 _symmetry_equiv_pos_as_xyz
  1  'x, y, z'
loop_
 _atom_site_type_symbol
 _atom_site_label
 _atom_site_symmetry_multiplicity
 _atom_site_fract_x
 _atom_site_fract_y
 _atom_site_fract_z
 _atom_site_occupancy
  C  C0  1  0.00000000  0.20488100  0.43844300  1
  C  C1  1  0.00000000  0.79511900  0.93844300  1
  C  C2  1  0.24388800  0.50115000  0.17259400  1
  C  C3  1  0.75611200  0.49885000  0.67259400  1
  C  C4  1  0.24388800  0.49885000  0.67259400  1
  C  C5  1  0.75611200  0.50115000  0.17259400  1
  C  C6  1  0.50000000  0.32991100  0.42709600  1
  C  C7  1  0.50000000  0.67008900  0.92709600  1
  C  C8  1  0.00000000  0.16983800  0.11847500  1
  C  C9  1  0.00000000  0.83016200  0.61847500  1
  C  C10  1  0.06022300  0.70560400  0.33875200  1
  C  C11  1  0.93977700  0.29439600  0.83875200  1
  C  C12  1  0.06022300  0.29439600  0.83875200  1
  C  C13  1  0.93977700  0.70560400  0.33875200  1
  C  C14  1  0.00000000  0.38966800  0.32551800  1
  C  C15  1  0.00000000  0.61033200  0.82551900  1
  Ni  Ni16  1  0.50000000  0.99017300  0.16937300  1
  Ni  Ni17  1  0.50000000  0.00982700  0.66937300  1
  Cu  Cu18  1  0.30052800  0.21499200  0.41521900  1
  Cu  Cu19  1  0.69947200  0.78500800  0.91521900  1
  Cu  Cu20  1  0.30052800  0.78500800  0.91521900  1
  Cu  Cu21  1  0.69947200  0.21499200  0.41521900  1
  Cu  Cu22  1  0.00000000  0.08970200  0.26311700  1
  Cu  Cu23  1  0.00000000  0.91029800  0.76311700  1
  Cu  Cu24  1  0.20403300  0.27757400  0.09377500  1
  Cu  Cu25  1  0.79596700  0.72242600  0.59377500  1
  Cu  Cu26  1  0.20403300  0.72242600  0.59377500  1
  Cu  Cu27  1  0.79596700  0.27757400  0.09377500  1
  Cu  Cu28  1  0.00000000  0.01362700  0.01849700  1
  Cu  Cu29  1  0.00000000  0.98637300  0.51849700  1
  Cu  Cu30  1  0.50000000  0.59043500  0.07105100  1
  Cu  Cu31  1  0.50000000  0.40956500  0.57105100  1
  Cu  Cu32  1  0.50000000  0.46929200  0.31321100  1
  Cu  Cu33  1  0.50000000  0.53070800  0.81321100  1
  Cu  Cu34  1  0.00000000  0.64703600  0.07923800  1
  Cu  Cu35  1  0.00000000  0.35296400  0.57923800  1
