# generated using pymatgen
data_CuNi4C19
_symmetry_space_group_name_H-M   'P 1'
_cell_length_a   13.44036700
_cell_length_b   13.44036700
_cell_length_c   8.17869400
_cell_angle_alpha   90.00000000
_cell_angle_beta   90.00000000
_cell_angle_gamma   90.00000000
_symmetry_Int_Tables_number   1
_chemical_formula_structural   CuNi4C19
_chemical_formula_sum   'Cu4 Ni16 C76'
_cell_volume   1477.42762411
_cell_formula_units_Z   4
loop_
 _symmetry_equiv_pos_site_id
 _symmetry_equiv_pos_as_xyz
  1  'x, y, z'
loop_
 _atom_site_type_symbol
 _atom_site_label
 _atom_site_symmetry_multiplicity
 _atom_site_fract_x
 _atom_site_fract_y
 _atom_site_fract_z
 _atom_site_occupancy
  C  C0  1  0.77482800  0.72517200  0.00000000  1
  C  C1  1  0.22517200  0.27482800  0.00000000  1
  C  C2  1  0.72517200  0.22517200  0.00000000  1
  C  C3  1  0.27482800  0.77482800  0.00000000  1
  C  C4  1  0.88136700  0.61863300  0.50000000  1
  C  C5  1  0.11863300  0.38136700  0.50000000  1
  C  C6  1  0.61863300  0.11863300  0.50000000  1
  C  C7  1  0.38136700  0.88136700  0.50000000  1
  Ni  Ni8  1  0.63011000  0.61558800  0.68502600  1
  Ni  Ni9  1  0.36989000  0.38441200  0.68502600  1
  Ni  Ni10  1  0.86989000  0.11558800  0.68502600  1
  Ni  Ni11  1  0.13011000  0.88441200  0.68502600  1
  Ni  Ni12  1  0.61558800  0.36989000  0.68502600  1
  Ni  Ni13  1  0.38441200  0.63011000  0.68502600  1
  Ni  Ni14  1  0.11558800  0.13011000  0.68502600  1
  Ni  Ni15  1  0.88441200  0.86989000  0.68502600  1
  Ni  Ni16  1  0.36989000  0.38441200  0.31497400  1
  Ni  Ni17  1  0.63011000  0.61558800  0.31497400  1
  Ni  Ni18  1  0.13011000  0.88441200  0.31497400  1
  Ni  Ni19  1  0.86989000  0.11558800  0.31497400  1
  Ni  Ni20  1  0.38441200  0.63011000  0.31497400  1
  Ni  Ni21  1  0.61558800  0.36989000  0.31497400  1
  Ni  Ni22  1  0.88441200  0.86989000  0.31497400  1
  Ni  Ni23  1  0.11558800  0.13011000  0.31497400  1
  C  C24  1  0.53020500  0.72985900  0.77782900  1
  C  C25  1  0.46979500  0.27014100  0.77782900  1
  C  C26  1  0.96979500  0.22985900  0.77782900  1
  C  C27  1  0.03020500  0.77014100  0.77782900  1
  C  C28  1  0.72985900  0.46979500  0.77782900  1
  C  C29  1  0.27014100  0.53020500  0.77782900  1
  C  C30  1  0.22985900  0.03020500  0.77782900  1
  C  C31  1  0.77014100  0.96979500  0.77782900  1
  C  C32  1  0.46979500  0.27014100  0.22217100  1
  C  C33  1  0.53020500  0.72985900  0.22217100  1
  C  C34  1  0.03020500  0.77014100  0.22217100  1
  C  C35  1  0.96979500  0.22985900  0.22217100  1
  C  C36  1  0.27014100  0.53020500  0.22217100  1
  C  C37  1  0.72985900  0.46979500  0.22217100  1
  C  C38  1  0.77014100  0.96979500  0.22217100  1
  C  C39  1  0.22985900  0.03020500  0.22217100  1
  C  C40  1  0.87229300  0.37229300  0.40687400  1
  C  C41  1  0.12770700  0.62770700  0.40687400  1
  C  C42  1  0.62770700  0.87229300  0.40687400  1
  C  C43  1  0.37229300  0.12770700  0.40687400  1
  C  C44  1  0.12770700  0.62770700  0.59312600  1
  C  C45  1  0.87229300  0.37229300  0.59312600  1
  C  C46  1  0.37229300  0.12770700  0.59312600  1
  C  C47  1  0.62770700  0.87229300  0.59312600  1
  Cu  Cu48  1  0.50000000  0.50000000  0.68146600  1
  Cu  Cu49  1  0.00000000  0.00000000  0.68146600  1
  Cu  Cu50  1  0.50000000  0.50000000  0.31853400  1
  Cu  Cu51  1  0.00000000  0.00000000  0.31853400  1
  C  C52  1  0.64677900  0.66235800  0.50000000  1
  C  C53  1  0.35322100  0.33764200  0.50000000  1
  C  C54  1  0.85322100  0.16235800  0.50000000  1
  C  C55  1  0.14677900  0.83764200  0.50000000  1
  C  C56  1  0.66235800  0.35322100  0.50000000  1
  C  C57  1  0.33764200  0.64677900  0.50000000  1
  C  C58  1  0.16235800  0.14677900  0.50000000  1
  C  C59  1  0.83764200  0.85322100  0.50000000  1
  C  C60  1  0.60580600  0.71527400  0.78419600  1
  C  C61  1  0.39419400  0.28472600  0.78419600  1
  C  C62  1  0.89419400  0.21527400  0.78419600  1
  C  C63  1  0.10580600  0.78472600  0.78419600  1
  C  C64  1  0.71527400  0.39419400  0.78419600  1
  C  C65  1  0.28472600  0.60580600  0.78419600  1
  C  C66  1  0.21527400  0.10580600  0.78419600  1
  C  C67  1  0.78472600  0.89419400  0.78419600  1
  C  C68  1  0.39419400  0.28472600  0.21580400  1
  C  C69  1  0.60580600  0.71527400  0.21580400  1
  C  C70  1  0.10580600  0.78472600  0.21580400  1
  C  C71  1  0.89419400  0.21527400  0.21580400  1
  C  C72  1  0.28472600  0.60580600  0.21580400  1
  C  C73  1  0.71527400  0.39419400  0.21580400  1
  C  C74  1  0.78472600  0.89419400  0.21580400  1
  C  C75  1  0.21527400  0.10580600  0.21580400  1
  C  C76  1  0.73300800  0.58185700  0.74353300  1
  C  C77  1  0.26699200  0.41814300  0.74353300  1
  C  C78  1  0.76699200  0.08185700  0.74353300  1
  C  C79  1  0.23300800  0.91814300  0.74353300  1
  C  C80  1  0.58185700  0.26699200  0.74353300  1
  C  C81  1  0.41814300  0.73300800  0.74353300  1
  C  C82  1  0.08185700  0.23300800  0.74353300  1
  C  C83  1  0.91814300  0.76699200  0.74353300  1
  C  C84  1  0.26699200  0.41814300  0.25646700  1
  C  C85  1  0.73300800  0.58185700  0.25646700  1
  C  C86  1  0.23300800  0.91814300  0.25646700  1
  C  C87  1  0.76699200  0.08185700  0.25646700  1
  C  C88  1  0.41814300  0.73300800  0.25646700  1
  C  C89  1  0.58185700  0.26699200  0.25646700  1
  C  C90  1  0.91814300  0.76699200  0.25646700  1
  C  C91  1  0.08185700  0.23300800  0.25646700  1
  C  C92  1  0.90451600  0.40451600  0.50000000  1
  C  C93  1  0.09548400  0.59548400  0.50000000  1
  C  C94  1  0.59548400  0.90451600  0.50000000  1
  C  C95  1  0.40451600  0.09548400  0.50000000  1
