# generated using pymatgen
data_CuNi2C13
_symmetry_space_group_name_H-M   'P 1'
_cell_length_a   5.73692100
_cell_length_b   10.09875073
_cell_length_c   5.81453688
_cell_angle_alpha   105.86123687
_cell_angle_beta   119.55736699
_cell_angle_gamma   73.49980500
_symmetry_Int_Tables_number   1
_chemical_formula_structural   CuNi2C13
_chemical_formula_sum   'Cu2 Ni4 C26'
_cell_volume   277.35629631
_cell_formula_units_Z   2
loop_
 _symmetry_equiv_pos_site_id
 _symmetry_equiv_pos_as_xyz
  1  'x, y, z'
loop_
 _atom_site_type_symbol
 _atom_site_label
 _atom_site_symmetry_multiplicity
 _atom_site_fract_x
 _atom_site_fract_y
 _atom_site_fract_z
 _atom_site_occupancy
  C  C0  1  0.50002300  0.99995400  0.99999900  1
  C  C1  1  0.99997600  0.50004700  0.50000100  1
  C  C2  1  0.99996500  0.00000100  0.99993100  1
  C  C3  1  0.50003600  0.49999800  0.50006900  1
  C  C4  1  0.25000000  0.25000000  0.75000100  1
  C  C5  1  0.74999900  0.75000000  0.25000000  1
  C  C6  1  0.00002100  0.99993300  0.50000700  1
  C  C7  1  0.49997900  0.50006600  0.99999300  1
  C  C8  1  0.50005200  0.99993400  0.50000700  1
  C  C9  1  0.99994800  0.50006600  0.99999300  1
  Ni  Ni10  1  0.25000400  0.75000000  0.75000800  1
  Ni  Ni11  1  0.75000300  0.75000300  0.75000600  1
  Ni  Ni12  1  0.74999300  0.25000100  0.24999500  1
  Ni  Ni13  1  0.25000400  0.25000200  0.24999900  1
  Cu  Cu14  1  0.24999700  0.75000100  0.24999600  1
  Cu  Cu15  1  0.74999900  0.25000100  0.75000200  1
  C  C16  1  0.61016000  0.13257100  0.35288500  1
  C  C17  1  0.11016200  0.63242800  0.85274300  1
  C  C18  1  0.88984100  0.36742900  0.14711600  1
  C  C19  1  0.38983700  0.86757000  0.64725400  1
  C  C20  1  0.11286300  0.13723500  0.36295000  1
  C  C21  1  0.61287400  0.63707800  0.86281500  1
  C  C22  1  0.38714000  0.36276300  0.13705200  1
  C  C23  1  0.88712600  0.86292100  0.63718300  1
  C  C24  1  0.11317200  0.14166500  0.89477200  1
  C  C25  1  0.61338800  0.64143100  0.39486100  1
  C  C26  1  0.63994000  0.14166200  0.89477100  1
  C  C27  1  0.14004200  0.64142900  0.39485800  1
  C  C28  1  0.38682700  0.35833500  0.60522900  1
  C  C29  1  0.88661100  0.85856900  0.10513700  1
  C  C30  1  0.86006100  0.35833700  0.60523000  1
  C  C31  1  0.35995400  0.85856800  0.10513900  1
