# generated using pymatgen
data_Cu(NiC2)2
_symmetry_space_group_name_H-M   'P 1'
_cell_length_a   5.98517920
_cell_length_b   5.98517920
_cell_length_c   15.09739300
_cell_angle_alpha   90.00000000
_cell_angle_beta   90.00000000
_cell_angle_gamma   119.99999113
_symmetry_Int_Tables_number   1
_chemical_formula_structural   Cu(NiC2)2
_chemical_formula_sum   'Cu6 Ni12 C24'
_cell_volume   468.36770997
_cell_formula_units_Z   6
loop_
 _symmetry_equiv_pos_site_id
 _symmetry_equiv_pos_as_xyz
  1  'x, y, z'
loop_
 _atom_site_type_symbol
 _atom_site_label
 _atom_site_symmetry_multiplicity
 _atom_site_fract_x
 _atom_site_fract_y
 _atom_site_fract_z
 _atom_site_occupancy
  Ni  Ni0  1  0.34988400  0.17494200  0.16530700  1
  Ni  Ni1  1  0.82505800  0.65011600  0.16530700  1
  Ni  Ni2  1  0.01396200  0.50698100  0.50066800  1
  Ni  Ni3  1  0.82505800  0.17494200  0.16530700  1
  Ni  Ni4  1  0.49301900  0.98603800  0.50066800  1
  Ni  Ni5  1  0.33333300  0.66666700  0.67717300  1
  Ni  Ni6  1  0.33333300  0.66666700  0.28948600  1
  Ni  Ni7  1  0.64159100  0.82079500  0.82873600  1
  Ni  Ni8  1  0.49301900  0.50698100  0.50066800  1
  Ni  Ni9  1  0.17920500  0.35840900  0.82873600  1
  Ni  Ni10  1  0.17920500  0.82079500  0.82873600  1
  Ni  Ni11  1  0.66666700  0.33333300  0.94894600  1
  Cu  Cu12  1  0.33333300  0.66666700  0.04502700  1
  Cu  Cu13  1  0.00000000  0.00000000  0.37282400  1
  Cu  Cu14  1  0.66666700  0.33333300  0.33979500  1
  Cu  Cu15  1  0.66666700  0.33333300  0.69549900  1
  Cu  Cu16  1  0.00000000  0.00000000  0.00184400  1
  Cu  Cu17  1  0.00000000  0.00000000  0.63070300  1
  C  C18  1  0.68763300  0.84381600  0.09285000  1
  C  C19  1  0.00000000  0.00000000  0.24046100  1
  C  C20  1  0.15618400  0.31236700  0.09285000  1
  C  C21  1  0.15618400  0.84381600  0.09285000  1
  C  C22  1  0.35215100  0.17607600  0.42713300  1
  C  C23  1  0.50482100  0.49517900  0.24896500  1
  C  C24  1  0.66666700  0.33333300  0.56827600  1
  C  C25  1  0.50482100  0.00964200  0.24896500  1
  C  C26  1  0.66666700  0.33333300  0.07299100  1
  C  C27  1  0.82392400  0.64784900  0.42713300  1
  C  C28  1  0.82392400  0.17607600  0.42713300  1
  C  C29  1  0.99035800  0.49517900  0.24896500  1
  C  C30  1  0.00679100  0.50339500  0.74993600  1
  C  C31  1  0.18083300  0.81916700  0.58408800  1
  C  C32  1  0.18083300  0.36166600  0.58408800  1
  C  C33  1  0.33333300  0.66666700  0.91381100  1
  C  C34  1  0.33333300  0.66666700  0.41484900  1
  C  C35  1  0.49660500  0.99320900  0.74993600  1
  C  C36  1  0.49660500  0.50339500  0.74993600  1
  C  C37  1  0.63833400  0.81916700  0.58408800  1
  C  C38  1  0.83962200  0.16037800  0.91060300  1
  C  C39  1  0.83962200  0.67924400  0.91060300  1
  C  C40  1  0.00000000  0.00000000  0.76325300  1
  C  C41  1  0.32075600  0.16037800  0.91060300  1
