# generated using pymatgen
data_CuNiC11
_symmetry_space_group_name_H-M   'P 1'
_cell_length_a   9.83047069
_cell_length_b   9.83047069
_cell_length_c   9.55619207
_cell_angle_alpha   61.20878981
_cell_angle_beta   61.20878981
_cell_angle_gamma   32.45251711
_symmetry_Int_Tables_number   1
_chemical_formula_structural   CuNiC11
_chemical_formula_sum   'Cu2 Ni2 C22'
_cell_volume   428.69721728
_cell_formula_units_Z   2
loop_
 _symmetry_equiv_pos_site_id
 _symmetry_equiv_pos_as_xyz
  1  'x, y, z'
loop_
 _atom_site_type_symbol
 _atom_site_label
 _atom_site_symmetry_multiplicity
 _atom_site_fract_x
 _atom_site_fract_y
 _atom_site_fract_z
 _atom_site_occupancy
  C  C0  1  0.75589100  0.26368800  0.24010500  1
  C  C1  1  0.26368800  0.75589100  0.74010500  1
  Ni  Ni2  1  0.35089400  0.94758000  0.26561800  1
  Ni  Ni3  1  0.94758000  0.35089400  0.76561800  1
  Cu  Cu4  1  0.05337500  0.63924300  0.23919900  1
  Cu  Cu5  1  0.63924300  0.05337500  0.73919900  1
  C  C6  1  0.83964000  0.43335900  0.44626300  1
  C  C7  1  0.56653300  0.15021100  0.05870200  1
  C  C8  1  0.15021100  0.56653300  0.55870200  1
  C  C9  1  0.43335900  0.83964000  0.94626300  1
  C  C10  1  0.94343300  0.52417900  0.35267900  1
  C  C11  1  0.47832800  0.05425600  0.14791700  1
  C  C12  1  0.05425600  0.47832800  0.64791700  1
  C  C13  1  0.52417900  0.94343300  0.85267900  1
  C  C14  1  0.33943300  0.86903800  0.12474700  1
  C  C15  1  0.14111300  0.64821600  0.37323500  1
  C  C16  1  0.64821600  0.14111300  0.87323500  1
  C  C17  1  0.86903800  0.33943300  0.62474700  1
  C  C18  1  0.80210900  0.98450400  0.12455100  1
  C  C19  1  0.99704200  0.21662800  0.36759000  1
  C  C20  1  0.21662800  0.99704200  0.86759000  1
  C  C21  1  0.98450400  0.80210900  0.62455100  1
  C  C22  1  0.43531800  0.34951800  0.57650000  1
  C  C23  1  0.66173800  0.55473500  0.93289600  1
  C  C24  1  0.55473500  0.66173800  0.43289600  1
  C  C25  1  0.34951800  0.43531800  0.07650000  1
