# generated using pymatgen
data_Cu3NiC
_symmetry_space_group_name_H-M   'P 1'
_cell_length_a   12.70116300
_cell_length_b   6.28383900
_cell_length_c   7.50395862
_cell_angle_alpha   75.34263111
_cell_angle_beta   90.00000000
_cell_angle_gamma   90.00000000
_symmetry_Int_Tables_number   1
_chemical_formula_structural   Cu3NiC
_chemical_formula_sum   'Cu12 Ni4 C4'
_cell_volume   579.41578693
_cell_formula_units_Z   4
loop_
 _symmetry_equiv_pos_site_id
 _symmetry_equiv_pos_as_xyz
  1  'x, y, z'
loop_
 _atom_site_type_symbol
 _atom_site_label
 _atom_site_symmetry_multiplicity
 _atom_site_fract_x
 _atom_site_fract_y
 _atom_site_fract_z
 _atom_site_occupancy
  C  C0  1  0.92218900  0.29013500  0.25809500  1
  C  C1  1  0.42218900  0.20986500  0.74190500  1
  C  C2  1  0.07781100  0.70986500  0.74190500  1
  C  C3  1  0.57781100  0.79013500  0.25809500  1
  Ni  Ni4  1  0.76808800  0.30951000  0.70597700  1
  Ni  Ni5  1  0.26808800  0.19049000  0.29402300  1
  Ni  Ni6  1  0.23191200  0.69049000  0.29402300  1
  Ni  Ni7  1  0.73191200  0.80951000  0.70597700  1
  Cu  Cu8  1  0.82065700  0.81685300  0.93966100  1
  Cu  Cu9  1  0.32065700  0.68314700  0.06033900  1
  Cu  Cu10  1  0.17934300  0.18314700  0.06033900  1
  Cu  Cu11  1  0.67934300  0.31685300  0.93966100  1
  Cu  Cu12  1  0.59235200  0.65885900  0.80398300  1
  Cu  Cu13  1  0.09235200  0.84114100  0.19601700  1
  Cu  Cu14  1  0.40764800  0.34114100  0.19601700  1
  Cu  Cu15  1  0.90764800  0.15885900  0.80398300  1
  Cu  Cu16  1  0.80336300  0.62005300  0.54775000  1
  Cu  Cu17  1  0.30336300  0.87994700  0.45225000  1
  Cu  Cu18  1  0.19663700  0.37994700  0.45225000  1
  Cu  Cu19  1  0.69663700  0.12005300  0.54775000  1
