# generated using pymatgen
data_CuNi2C7
_symmetry_space_group_name_H-M   'P 1'
_cell_length_a   12.89373817
_cell_length_b   12.89373817
_cell_length_c   12.89373853
_cell_angle_alpha   33.61241423
_cell_angle_beta   33.61241423
_cell_angle_gamma   33.61241876
_symmetry_Int_Tables_number   1
_chemical_formula_structural   CuNi2C7
_chemical_formula_sum   'Cu2 Ni4 C14'
_cell_volume   585.14990922
_cell_formula_units_Z   2
loop_
 _symmetry_equiv_pos_site_id
 _symmetry_equiv_pos_as_xyz
  1  'x, y, z'
loop_
 _atom_site_type_symbol
 _atom_site_label
 _atom_site_symmetry_multiplicity
 _atom_site_fract_x
 _atom_site_fract_y
 _atom_site_fract_z
 _atom_site_occupancy
  Ni  Ni0  1  0.87384100  0.87384100  0.87384100  1
  Ni  Ni1  1  0.12615900  0.12615900  0.12615900  1
  Ni  Ni2  1  0.71095900  0.71095900  0.71095900  1
  Ni  Ni3  1  0.28904100  0.28904100  0.28904100  1
  Cu  Cu4  1  0.58876600  0.58876600  0.58876600  1
  Cu  Cu5  1  0.41123400  0.41123400  0.41123400  1
  C  C6  1  0.00000000  0.00000000  0.00000000  1
  C  C7  1  0.50000000  0.50000000  0.50000000  1
  C  C8  1  0.38788600  0.84886300  0.38788600  1
  C  C9  1  0.38788600  0.38788600  0.84886300  1
  C  C10  1  0.84886300  0.38788600  0.38788600  1
  C  C11  1  0.61211400  0.15113700  0.61211400  1
  C  C12  1  0.61211400  0.61211400  0.15113700  1
  C  C13  1  0.15113700  0.61211400  0.61211400  1
  C  C14  1  0.19954500  0.71947800  0.19954500  1
  C  C15  1  0.19954500  0.19954500  0.71947800  1
  C  C16  1  0.71947800  0.19954500  0.19954500  1
  C  C17  1  0.80045500  0.28052200  0.80045500  1
  C  C18  1  0.80045500  0.80045500  0.28052200  1
  C  C19  1  0.28052200  0.80045500  0.80045500  1
