# generated using pymatgen
data_Cu4NiC15
_symmetry_space_group_name_H-M   'P 1'
_cell_length_a   7.72659488
_cell_length_b   7.71513063
_cell_length_c   9.39397885
_cell_angle_alpha   76.36167751
_cell_angle_beta   109.39737279
_cell_angle_gamma   72.05280866
_symmetry_Int_Tables_number   1
_chemical_formula_structural   Cu4NiC15
_chemical_formula_sum   'Cu8 Ni2 C30'
_cell_volume   465.46261057
_cell_formula_units_Z   2
loop_
 _symmetry_equiv_pos_site_id
 _symmetry_equiv_pos_as_xyz
  1  'x, y, z'
loop_
 _atom_site_type_symbol
 _atom_site_label
 _atom_site_symmetry_multiplicity
 _atom_site_fract_x
 _atom_site_fract_y
 _atom_site_fract_z
 _atom_site_occupancy
  C  C0  1  0.70187000  0.42291100  0.87461500  1
  C  C1  1  0.70303600  0.92144500  0.37581600  1
  C  C2  1  0.29739500  0.07739800  0.62462400  1
  C  C3  1  0.29806000  0.57713300  0.12506800  1
  Ni  Ni4  1  0.09583900  0.02933300  0.87500100  1
  Ni  Ni5  1  0.09567000  0.52949700  0.37492600  1
  C  C6  1  0.90466900  0.97028400  0.12508600  1
  C  C7  1  0.90511600  0.47018500  0.62503200  1
  Cu  Cu8  1  0.62069900  0.72506500  0.07994400  1
  Cu  Cu9  1  0.62034700  0.22571600  0.57977000  1
  Cu  Cu10  1  0.19552700  0.70890900  0.67033300  1
  Cu  Cu11  1  0.19527700  0.20918800  0.17029400  1
  Cu  Cu12  1  0.37811200  0.77394200  0.42023800  1
  Cu  Cu13  1  0.37893200  0.27325000  0.92061100  1
  Cu  Cu14  1  0.80559300  0.79188400  0.82922900  1
  Cu  Cu15  1  0.80508500  0.29209500  0.32961300  1
  C  C16  1  0.79120200  0.76372700  0.20733800  1
  C  C17  1  0.79131700  0.26393600  0.70741000  1
  C  C18  1  0.02896000  0.66671100  0.54241200  1
  C  C19  1  0.02889100  0.16673700  0.04240800  1
  C  C20  1  0.20488300  0.73486300  0.29437600  1
  C  C21  1  0.20793500  0.23231800  0.79468400  1
  C  C22  1  0.97172100  0.83812200  0.95452000  1
  C  C23  1  0.97011700  0.33948700  0.45515600  1
  C  C24  1  0.39055300  0.83320400  0.05026200  1
  C  C25  1  0.39020900  0.33367000  0.55023000  1
  C  C26  1  0.11706500  0.90960700  0.70019200  1
  C  C27  1  0.11701300  0.40985600  0.20029400  1
  C  C28  1  0.60686400  0.66507200  0.44810300  1
  C  C29  1  0.60865100  0.16514300  0.94967700  1
  C  C30  1  0.88564300  0.59074700  0.80022000  1
  C  C31  1  0.88583000  0.09052200  0.30204500  1
  C  C32  1  0.63374600  0.77036800  0.90001000  1
  C  C33  1  0.63245500  0.27160900  0.39963300  1
  C  C34  1  0.32961800  0.01662000  0.35036400  1
  C  C35  1  0.33005400  0.51609200  0.85028500  1
  C  C36  1  0.36945400  0.72882300  0.60174500  1
  C  C37  1  0.36910500  0.22939200  0.10160200  1
  C  C38  1  0.66883700  0.48233500  0.14839500  1
  C  C39  1  0.66864800  0.98280600  0.64843700  1
