# generated using pymatgen
data_Cu2NiC3
_symmetry_space_group_name_H-M   'P 1'
_cell_length_a   3.54080200
_cell_length_b   6.32002100
_cell_length_c   13.11965400
_cell_angle_alpha   90.00000000
_cell_angle_beta   90.00000000
_cell_angle_gamma   90.00000000
_symmetry_Int_Tables_number   1
_chemical_formula_structural   Cu2NiC3
_chemical_formula_sum   'Cu8 Ni4 C12'
_cell_volume   293.59086935
_cell_formula_units_Z   4
loop_
 _symmetry_equiv_pos_site_id
 _symmetry_equiv_pos_as_xyz
  1  'x, y, z'
loop_
 _atom_site_type_symbol
 _atom_site_label
 _atom_site_symmetry_multiplicity
 _atom_site_fract_x
 _atom_site_fract_y
 _atom_site_fract_z
 _atom_site_occupancy
  C  C0  1  0.75000000  0.24980800  0.54949200  1
  C  C1  1  0.75000000  0.25019200  0.04949200  1
  C  C2  1  0.25000000  0.75019200  0.45050800  1
  C  C3  1  0.25000000  0.74980800  0.95050800  1
  C  C4  1  0.25000000  0.54131300  0.64895000  1
  C  C5  1  0.25000000  0.95868700  0.14895000  1
  C  C6  1  0.75000000  0.45868700  0.35105000  1
  C  C7  1  0.75000000  0.04131300  0.85105000  1
  C  C8  1  0.25000000  0.17932300  0.38442000  1
  C  C9  1  0.25000000  0.32067700  0.88442000  1
  C  C10  1  0.75000000  0.82067700  0.61558000  1
  C  C11  1  0.75000000  0.67932300  0.11558100  1
  Ni  Ni12  1  0.25000000  0.11941500  0.70404200  1
  Ni  Ni13  1  0.25000000  0.38058500  0.20404200  1
  Ni  Ni14  1  0.75000000  0.88058500  0.29595800  1
  Ni  Ni15  1  0.75000000  0.61941500  0.79595800  1
  Cu  Cu16  1  0.25000000  0.49835100  0.57714200  1
  Cu  Cu17  1  0.25000000  0.00164900  0.07714200  1
  Cu  Cu18  1  0.75000000  0.50164900  0.42285800  1
  Cu  Cu19  1  0.75000000  0.99835100  0.92285800  1
  Cu  Cu20  1  0.25000000  0.12834800  0.45487100  1
  Cu  Cu21  1  0.25000000  0.37165200  0.95487100  1
  Cu  Cu22  1  0.75000000  0.87165200  0.54512900  1
  Cu  Cu23  1  0.75000000  0.62834800  0.04512900  1
