# generated using pymatgen
data_Cu17(NiC4)3
_symmetry_space_group_name_H-M   'P 1'
_cell_length_a   6.40286637
_cell_length_b   11.81800438
_cell_length_c   12.83711980
_cell_angle_alpha   91.02088952
_cell_angle_beta   76.35595339
_cell_angle_gamma   80.49141155
_symmetry_Int_Tables_number   1
_chemical_formula_structural   Cu17(NiC4)3
_chemical_formula_sum   'Cu34 Ni6 C24'
_cell_volume   929.35643892
_cell_formula_units_Z   2
loop_
 _symmetry_equiv_pos_site_id
 _symmetry_equiv_pos_as_xyz
  1  'x, y, z'
loop_
 _atom_site_type_symbol
 _atom_site_label
 _atom_site_symmetry_multiplicity
 _atom_site_fract_x
 _atom_site_fract_y
 _atom_site_fract_z
 _atom_site_occupancy
  C  C0  1  0.35093000  0.83749700  0.22280300  1
  C  C1  1  0.00000000  0.50000000  0.00000000  1
  C  C2  1  0.64907000  0.16250300  0.77719700  1
  C  C3  1  0.00000000  0.50000000  0.50000000  1
  C  C4  1  0.55383000  0.10260700  0.02622700  1
  C  C5  1  0.86292100  0.84593000  0.54662800  1
  C  C6  1  0.79173700  0.86211000  0.16285000  1
  C  C7  1  0.65149000  0.41607700  0.32476900  1
  C  C8  1  0.76193800  0.01903700  0.72020600  1
  C  C9  1  0.32805200  0.05129200  0.90792500  1
  C  C10  1  0.27585600  0.56357300  0.24817700  1
  C  C11  1  0.72414400  0.43642700  0.75182300  1
  C  C12  1  0.72107200  0.62115900  0.92660500  1
  C  C13  1  0.42884000  0.31618400  0.46339200  1
  C  C14  1  0.18026000  0.40487700  0.11824300  1
  C  C15  1  0.67194800  0.94870800  0.09207500  1
  C  C16  1  0.27892800  0.37884100  0.07339500  1
  C  C17  1  0.57116000  0.68381600  0.53660800  1
  C  C18  1  0.13707900  0.15407000  0.45337200  1
  C  C19  1  0.34851000  0.58392300  0.67523100  1
  C  C20  1  0.23806200  0.98096300  0.27979400  1
  C  C21  1  0.20826300  0.13789000  0.83715000  1
  C  C22  1  0.44617000  0.89739300  0.97377300  1
  C  C23  1  0.81974000  0.59512300  0.88175700  1
  Ni  Ni24  1  0.17886500  0.75907300  0.01124000  1
  Ni  Ni25  1  0.19655900  0.75791400  0.49752800  1
  Ni  Ni26  1  0.60868900  0.59017900  0.24247000  1
  Ni  Ni27  1  0.80344100  0.24208600  0.50247200  1
  Ni  Ni28  1  0.82113500  0.24092700  0.98876000  1
  Ni  Ni29  1  0.39131100  0.40982100  0.75753000  1
  Cu  Cu30  1  0.39653500  0.97816600  0.00797500  1
  Cu  Cu31  1  0.01296000  0.17285600  0.42095400  1
  Cu  Cu32  1  0.02118100  0.82230000  0.96055200  1
  Cu  Cu33  1  0.14035800  0.80789000  0.12803500  1
  Cu  Cu34  1  0.18800100  0.79500500  0.39013500  1
  Cu  Cu35  1  0.14203200  0.63477000  0.02101000  1
  Cu  Cu36  1  0.62731700  0.38613500  0.79009100  1
  Cu  Cu37  1  0.37976300  0.28248800  0.74321700  1
  Cu  Cu38  1  0.81068300  0.36678600  0.49174200  1
  Cu  Cu39  1  0.28548500  0.37170800  0.46995700  1
  Cu  Cu40  1  0.64804400  0.89938300  0.15530200  1
  Cu  Cu41  1  0.76868400  0.54733200  0.13781600  1
  Cu  Cu42  1  0.37268300  0.61386500  0.20990900  1
  Cu  Cu43  1  0.93349900  0.55595000  0.35339300  1
  Cu  Cu44  1  0.46532700  0.55462400  0.71001600  1
  Cu  Cu45  1  0.41004400  0.75795000  0.95790800  1
  Cu  Cu46  1  0.85796800  0.36523000  0.97899000  1
  Cu  Cu47  1  0.23131600  0.45266800  0.86218400  1
  Cu  Cu48  1  0.71451500  0.62829200  0.53004300  1
  Cu  Cu49  1  0.84820200  0.65930500  0.41518200  1
  Cu  Cu50  1  0.58995600  0.24205000  0.04209200  1
  Cu  Cu51  1  0.62297300  0.21386700  0.46206100  1
  Cu  Cu52  1  0.06650100  0.44405000  0.64660700  1
  Cu  Cu53  1  0.97881900  0.17770100  0.03944800  1
  Cu  Cu54  1  0.15179800  0.34069500  0.58481800  1
  Cu  Cu55  1  0.81199900  0.20499500  0.60986500  1
  Cu  Cu56  1  0.62023700  0.71751200  0.25678300  1
  Cu  Cu57  1  0.53467300  0.44537600  0.28998400  1
  Cu  Cu58  1  0.85964200  0.19211000  0.87196500  1
  Cu  Cu59  1  0.60346500  0.02183400  0.99202500  1
  Cu  Cu60  1  0.18931700  0.63321400  0.50825800  1
  Cu  Cu61  1  0.37702700  0.78613300  0.53793900  1
  Cu  Cu62  1  0.35195600  0.10061700  0.84469800  1
  Cu  Cu63  1  0.98704000  0.82714400  0.57904600  1
