# generated using pymatgen
data_Cu2Ni2C
_symmetry_space_group_name_H-M   'P 1'
_cell_length_a   9.44067802
_cell_length_b   9.44067802
_cell_length_c   6.16069800
_cell_angle_alpha   90.00000000
_cell_angle_beta   90.00000000
_cell_angle_gamma   120.00000014
_symmetry_Int_Tables_number   1
_chemical_formula_structural   Cu2Ni2C
_chemical_formula_sum   'Cu12 Ni12 C6'
_cell_volume   475.51795838
_cell_formula_units_Z   6
loop_
 _symmetry_equiv_pos_site_id
 _symmetry_equiv_pos_as_xyz
  1  'x, y, z'
loop_
 _atom_site_type_symbol
 _atom_site_label
 _atom_site_symmetry_multiplicity
 _atom_site_fract_x
 _atom_site_fract_y
 _atom_site_fract_z
 _atom_site_occupancy
  Ni  Ni0  1  0.84383800  0.37524100  0.75000000  1
  Ni  Ni1  1  0.15616200  0.62475900  0.25000000  1
  Ni  Ni2  1  0.53140300  0.15616200  0.75000000  1
  Ni  Ni3  1  0.46859700  0.84383800  0.25000000  1
  Ni  Ni4  1  0.62475900  0.46859700  0.75000000  1
  Ni  Ni5  1  0.37524100  0.53140300  0.25000000  1
  Ni  Ni6  1  0.70566500  0.20687900  0.75000000  1
  Ni  Ni7  1  0.29433500  0.79312100  0.25000000  1
  Ni  Ni8  1  0.50121400  0.29433500  0.75000000  1
  Ni  Ni9  1  0.49878600  0.70566500  0.25000000  1
  Ni  Ni10  1  0.79312100  0.49878600  0.75000000  1
  Ni  Ni11  1  0.20687900  0.50121400  0.25000000  1
  Cu  Cu12  1  0.74329100  0.08976300  0.75000000  1
  Cu  Cu13  1  0.25670900  0.91023700  0.25000000  1
  Cu  Cu14  1  0.34647100  0.25670900  0.75000000  1
  Cu  Cu15  1  0.65352900  0.74329100  0.25000000  1
  Cu  Cu16  1  0.91023700  0.65352900  0.75000000  1
  Cu  Cu17  1  0.08976300  0.34647100  0.25000000  1
  Cu  Cu18  1  0.77846700  0.99086800  0.75000000  1
  Cu  Cu19  1  0.22153300  0.00913200  0.25000000  1
  Cu  Cu20  1  0.21240200  0.22153300  0.75000000  1
  Cu  Cu21  1  0.78759800  0.77846700  0.25000000  1
  Cu  Cu22  1  0.00913200  0.78759800  0.75000000  1
  Cu  Cu23  1  0.99086800  0.21240200  0.25000000  1
  C  C24  1  0.98860700  0.40901100  0.75000000  1
  C  C25  1  0.01139300  0.59098900  0.25000000  1
  C  C26  1  0.42040400  0.01139300  0.75000000  1
  C  C27  1  0.57959600  0.98860700  0.25000000  1
  C  C28  1  0.59098900  0.57959600  0.75000000  1
  C  C29  1  0.40901100  0.42040400  0.25000000  1
