# generated using pymatgen
data_Cu21Ni2C11
_symmetry_space_group_name_H-M   'P 1'
_cell_length_a   5.66654200
_cell_length_b   15.72121600
_cell_length_c   24.38648080
_cell_angle_alpha   89.73400395
_cell_angle_beta   90.00000000
_cell_angle_gamma   90.00000000
_symmetry_Int_Tables_number   1
_chemical_formula_structural   Cu21Ni2C11
_chemical_formula_sum   'Cu84 Ni8 C44'
_cell_volume   2172.44454191
_cell_formula_units_Z   4
loop_
 _symmetry_equiv_pos_site_id
 _symmetry_equiv_pos_as_xyz
  1  'x, y, z'
loop_
 _atom_site_type_symbol
 _atom_site_label
 _atom_site_symmetry_multiplicity
 _atom_site_fract_x
 _atom_site_fract_y
 _atom_site_fract_z
 _atom_site_occupancy
  C  C0  1  0.76278200  0.46764900  0.04510500  1
  C  C1  1  0.26278200  0.53235100  0.45489500  1
  C  C2  1  0.23721800  0.53235100  0.95489500  1
  C  C3  1  0.73721800  0.46764900  0.54510500  1
  C  C4  1  0.23528500  0.08315800  0.53387800  1
  C  C5  1  0.73528500  0.91684200  0.96612200  1
  C  C6  1  0.76471500  0.91684200  0.46612200  1
  C  C7  1  0.26471500  0.08315800  0.03387800  1
  C  C8  1  0.76282400  0.97646000  0.12770700  1
  C  C9  1  0.26282400  0.02354000  0.37229300  1
  C  C10  1  0.23717600  0.02354000  0.87229300  1
  C  C11  1  0.73717600  0.97646000  0.62770700  1
  C  C12  1  0.78959700  0.21894700  0.09559000  1
  C  C13  1  0.28959700  0.78105300  0.40441000  1
  C  C14  1  0.21040300  0.78105300  0.90441000  1
  C  C15  1  0.71040300  0.21894700  0.59559000  1
  C  C16  1  0.33706200  0.36960100  0.15005600  1
  C  C17  1  0.83706200  0.63039900  0.34994400  1
  C  C18  1  0.66293800  0.63039900  0.84994400  1
  C  C19  1  0.16293800  0.36960100  0.65005600  1
  C  C20  1  0.82565700  0.52941300  0.20374100  1
  C  C21  1  0.32565700  0.47058700  0.29625900  1
  C  C22  1  0.17434300  0.47058700  0.79625900  1
  C  C23  1  0.67434300  0.52941300  0.70374100  1
  C  C24  1  0.29493400  0.57767200  0.11166300  1
  C  C25  1  0.79493400  0.42232800  0.38833700  1
  C  C26  1  0.70506600  0.42232800  0.88833700  1
  C  C27  1  0.20506600  0.57767200  0.61166300  1
  C  C28  1  0.31101400  0.31226000  0.00088200  1
  C  C29  1  0.81101400  0.68774000  0.49911800  1
  C  C30  1  0.68898600  0.68774000  0.99911800  1
  C  C31  1  0.18898600  0.31226000  0.50088200  1
  C  C32  1  0.26839700  0.86436600  0.05631200  1
  C  C33  1  0.76839700  0.13563400  0.44368800  1
  C  C34  1  0.73160300  0.13563400  0.94368800  1
  C  C35  1  0.23160300  0.86436600  0.55631200  1
  C  C36  1  0.24208400  0.12374900  0.17295800  1
  C  C37  1  0.74208400  0.87625100  0.32704200  1
  C  C38  1  0.75791600  0.87625100  0.82704200  1
  C  C39  1  0.25791600  0.12374900  0.67295800  1
  C  C40  1  0.35318600  0.67867400  0.26209200  1
  C  C41  1  0.85318600  0.32132600  0.23790800  1
  C  C42  1  0.64681400  0.32132600  0.73790800  1
  C  C43  1  0.14681400  0.67867400  0.76209200  1
  Ni  Ni44  1  0.27367700  0.92044400  0.21615700  1
  Ni  Ni45  1  0.77367700  0.07955600  0.28384300  1
  Ni  Ni46  1  0.72632300  0.07955600  0.78384300  1
  Ni  Ni47  1  0.22632300  0.92044400  0.71615700  1
  Ni  Ni48  1  0.80461900  0.74992200  0.15899400  1
  Ni  Ni49  1  0.30461900  0.25007800  0.34100600  1
  Ni  Ni50  1  0.19538100  0.25007800  0.84100600  1
  Ni  Ni51  1  0.69538100  0.74992200  0.65899400  1
  Cu  Cu52  1  0.41294000  0.55916000  0.04039100  1
  Cu  Cu53  1  0.91294000  0.44084000  0.45960900  1
  Cu  Cu54  1  0.58706000  0.44084000  0.95960900  1
  Cu  Cu55  1  0.08706000  0.55916000  0.54039100  1
  Cu  Cu56  1  0.04681500  0.49713100  0.11736300  1
  Cu  Cu57  1  0.54681500  0.50286900  0.38263700  1
  Cu  Cu58  1  0.95318500  0.50286900  0.88263700  1
  Cu  Cu59  1  0.45318500  0.49713100  0.61736300  1
  Cu  Cu60  1  0.52229900  0.50407600  0.14329700  1
  Cu  Cu61  1  0.02229900  0.49592400  0.35670300  1
  Cu  Cu62  1  0.47770100  0.49592400  0.85670300  1
  Cu  Cu63  1  0.97770100  0.50407600  0.64329700  1
  Cu  Cu64  1  0.09438000  0.40435900  0.00043900  1
  Cu  Cu65  1  0.59438000  0.59564100  0.49956100  1
  Cu  Cu66  1  0.90562000  0.59564100  0.99956100  1
  Cu  Cu67  1  0.40562000  0.40435900  0.50043900  1
  Cu  Cu68  1  0.11702500  0.22930400  0.03546500  1
  Cu  Cu69  1  0.61702500  0.77069600  0.46453500  1
  Cu  Cu70  1  0.88297500  0.77069600  0.96453500  1
  Cu  Cu71  1  0.38297500  0.22930400  0.53546500  1
  Cu  Cu72  1  0.50468800  0.34148900  0.06294200  1
  Cu  Cu73  1  0.00468800  0.65851100  0.43705800  1
  Cu  Cu74  1  0.49531200  0.65851100  0.93705800  1
  Cu  Cu75  1  0.99531200  0.34148900  0.56294200  1
  Cu  Cu76  1  0.37094500  0.83829300  0.98492900  1
  Cu  Cu77  1  0.87094500  0.16170700  0.51507100  1
  Cu  Cu78  1  0.62905500  0.16170700  0.01507100  1
  Cu  Cu79  1  0.12905500  0.83829300  0.48492900  1
  Cu  Cu80  1  0.00528400  0.93563200  0.04410700  1
  Cu  Cu81  1  0.50528400  0.06436800  0.45589300  1
  Cu  Cu82  1  0.99471600  0.06436800  0.95589300  1
  Cu  Cu83  1  0.49471600  0.93563200  0.54410700  1
  Cu  Cu84  1  0.48804500  0.95515700  0.06066300  1
  Cu  Cu85  1  0.98804500  0.04484300  0.43933700  1
  Cu  Cu86  1  0.51195500  0.04484300  0.93933700  1
  Cu  Cu87  1  0.01195500  0.95515700  0.56066300  1
  Cu  Cu88  1  0.15962000  0.23983500  0.16805800  1
  Cu  Cu89  1  0.65962000  0.76016500  0.33194200  1
  Cu  Cu90  1  0.84038000  0.76016500  0.83194200  1
  Cu  Cu91  1  0.34038000  0.23983500  0.66805800  1
  Cu  Cu92  1  0.50336300  0.11674700  0.12488200  1
  Cu  Cu93  1  0.00336300  0.88325300  0.37511800  1
  Cu  Cu94  1  0.49663700  0.88325300  0.87511800  1
  Cu  Cu95  1  0.99663700  0.11674700  0.62488200  1
  Cu  Cu96  1  0.02075100  0.09078200  0.11747800  1
  Cu  Cu97  1  0.52075100  0.90921800  0.38252200  1
  Cu  Cu98  1  0.97924900  0.90921800  0.88252200  1
  Cu  Cu99  1  0.47924900  0.09078200  0.61747800  1
  Cu  Cu100  1  0.21471100  0.68145200  0.33245000  1
  Cu  Cu101  1  0.71471100  0.31854800  0.16755000  1
  Cu  Cu102  1  0.78528900  0.31854800  0.66755000  1
  Cu  Cu103  1  0.28528900  0.68145200  0.83245000  1
  Cu  Cu104  1  0.15712100  0.58912500  0.23670600  1
  Cu  Cu105  1  0.65712100  0.41087500  0.26329400  1
  Cu  Cu106  1  0.84287900  0.41087500  0.76329400  1
  Cu  Cu107  1  0.34287900  0.58912500  0.73670600  1
  Cu  Cu108  1  0.59764200  0.59742400  0.27445100  1
  Cu  Cu109  1  0.09764200  0.40257600  0.22554900  1
  Cu  Cu110  1  0.40235800  0.40257600  0.72554900  1
  Cu  Cu111  1  0.90235800  0.59742400  0.77445100  1
  Cu  Cu112  1  0.09750700  0.93889600  0.18641800  1
  Cu  Cu113  1  0.59750700  0.06110400  0.31358200  1
  Cu  Cu114  1  0.90249300  0.06110400  0.81358200  1
  Cu  Cu115  1  0.40249300  0.93889600  0.68641800  1
  Cu  Cu116  1  0.24616400  0.89903700  0.26559900  1
  Cu  Cu117  1  0.74616400  0.10096300  0.23440100  1
  Cu  Cu118  1  0.75383600  0.10096300  0.73440100  1
  Cu  Cu119  1  0.25383600  0.89903700  0.76559900  1
  Cu  Cu120  1  0.48004000  0.92434900  0.19590300  1
  Cu  Cu121  1  0.98004000  0.07565100  0.30409700  1
  Cu  Cu122  1  0.51996000  0.07565100  0.80409700  1
  Cu  Cu123  1  0.01996000  0.92434900  0.69590300  1
  Cu  Cu124  1  0.75977900  0.80762700  0.12347500  1
  Cu  Cu125  1  0.25977900  0.19237300  0.37652500  1
  Cu  Cu126  1  0.24022100  0.19237300  0.87652500  1
  Cu  Cu127  1  0.74022100  0.80762700  0.62347500  1
  Cu  Cu128  1  0.90300000  0.76734300  0.20351500  1
  Cu  Cu129  1  0.40300000  0.23265700  0.29648500  1
  Cu  Cu130  1  0.09700000  0.23265700  0.79648500  1
  Cu  Cu131  1  0.59700000  0.76734300  0.70351500  1
  Cu  Cu132  1  0.74692200  0.67271500  0.14794400  1
  Cu  Cu133  1  0.24692200  0.32728500  0.35205600  1
  Cu  Cu134  1  0.25307800  0.32728500  0.85205600  1
  Cu  Cu135  1  0.75307800  0.67271500  0.64794400  1
