# generated using pymatgen
data_Cu4NiC3
_symmetry_space_group_name_H-M   'P 1'
_cell_length_a   5.52383397
_cell_length_b   5.52383397
_cell_length_c   7.24571038
_cell_angle_alpha   104.42532060
_cell_angle_beta   104.42532060
_cell_angle_gamma   103.65882467
_symmetry_Int_Tables_number   1
_chemical_formula_structural   Cu4NiC3
_chemical_formula_sum   'Cu8 Ni2 C6'
_cell_volume   196.60655246
_cell_formula_units_Z   2
loop_
 _symmetry_equiv_pos_site_id
 _symmetry_equiv_pos_as_xyz
  1  'x, y, z'
loop_
 _atom_site_type_symbol
 _atom_site_label
 _atom_site_symmetry_multiplicity
 _atom_site_fract_x
 _atom_site_fract_y
 _atom_site_fract_z
 _atom_site_occupancy
  C  C0  1  0.33660100  0.66339900  0.25000000  1
  C  C1  1  0.66339900  0.33660100  0.75000000  1
  C  C2  1  0.00000000  0.00000000  0.50000000  1
  C  C3  1  0.00000000  0.00000000  0.00000000  1
  Ni  Ni4  1  0.67963900  0.32036100  0.25000000  1
  Ni  Ni5  1  0.32036100  0.67963900  0.75000000  1
  Cu  Cu6  1  0.67750500  0.12112800  0.35778000  1
  Cu  Cu7  1  0.87887200  0.32249500  0.14222000  1
  Cu  Cu8  1  0.32249500  0.87887200  0.64222000  1
  Cu  Cu9  1  0.12112800  0.67750500  0.85778000  1
  Cu  Cu10  1  0.74223900  0.58676300  0.39904300  1
  Cu  Cu11  1  0.41323700  0.25776100  0.10095700  1
  Cu  Cu12  1  0.25776100  0.41323700  0.60095700  1
  Cu  Cu13  1  0.58676300  0.74223900  0.89904300  1
  C  C14  1  0.08573600  0.91426400  0.25000000  1
  C  C15  1  0.91426400  0.08573600  0.75000000  1
