# generated using pymatgen
data_Cu3(NiC16)2
_symmetry_space_group_name_H-M   'P 1'
_cell_length_a   8.70869889
_cell_length_b   8.66489385
_cell_length_c   8.66219051
_cell_angle_alpha   60.19734918
_cell_angle_beta   61.30408746
_cell_angle_gamma   59.35695182
_symmetry_Int_Tables_number   1
_chemical_formula_structural   Cu3(NiC16)2
_chemical_formula_sum   'Cu3 Ni2 C32'
_cell_volume   464.92348287
_cell_formula_units_Z   1
loop_
 _symmetry_equiv_pos_site_id
 _symmetry_equiv_pos_as_xyz
  1  'x, y, z'
loop_
 _atom_site_type_symbol
 _atom_site_label
 _atom_site_symmetry_multiplicity
 _atom_site_fract_x
 _atom_site_fract_y
 _atom_site_fract_z
 _atom_site_occupancy
  C  C0  1  0.24131000  0.25762400  0.24770800  1
  C  C1  1  0.60849600  0.12701100  0.13255600  1
  Ni  Ni2  1  0.01943400  0.99927500  0.98737300  1
  Ni  Ni3  1  0.48653300  0.50511100  0.50371600  1
  Cu  Cu4  1  0.04906400  0.64417600  0.65523100  1
  Cu  Cu5  1  0.44209500  0.85486800  0.85345400  1
  Cu  Cu6  1  0.88605100  0.36515900  0.37726500  1
  C  C7  1  0.26484500  0.25410100  0.53925600  1
  C  C8  1  0.25602100  0.94820300  0.24956500  1
  C  C9  1  0.25578900  0.55121500  0.94304000  1
  C  C10  1  0.74644300  0.45649000  0.04489500  1
  C  C11  1  0.74506800  0.04021100  0.75417800  1
  C  C12  1  0.73350800  0.74803400  0.46989400  1
  C  C13  1  0.08150500  0.11286800  0.30876200  1
  C  C14  1  0.08476700  0.50493500  0.10225300  1
  C  C15  1  0.08942600  0.31222800  0.49071900  1
  C  C16  1  0.25512800  0.10138400  0.73270200  1
  C  C17  1  0.43104000  0.19890700  0.37064100  1
  C  C18  1  0.27992200  0.42392700  0.54589600  1
  C  C19  1  0.23794800  0.92897200  0.09092100  1
  C  C20  1  0.28069800  0.75350300  0.41244500  1
  C  C21  1  0.57357200  0.59611400  0.98184000  1
  C  C22  1  0.27739000  0.55575100  0.74975200  1
  C  C23  1  0.79335200  0.24791800  0.06240200  1
  C  C24  1  0.57948400  0.97527000  0.84969500  1
  C  C25  1  0.42272700  0.00643200  0.19232400  1
  C  C26  1  0.23757300  0.74901400  0.91851900  1
  C  C27  1  0.69631900  0.45690800  0.24579300  1
  C  C28  1  0.42772500  0.37829000  0.00224200  1
  C  C29  1  0.69050500  0.24307800  0.60409900  1
  C  C30  1  0.79111100  0.05700700  0.89947200  1
  C  C31  1  0.68967100  0.59409200  0.46711600  1
  C  C32  1  0.56313100  0.84196800  0.60546800  1
  C  C33  1  0.77219700  0.89277200  0.26689200  1
  C  C34  1  0.91326300  0.66123700  0.52141800  1
  C  C35  1  0.92208000  0.50595900  0.90533200  1
  C  C36  1  0.92480600  0.89998900  0.66516400  1
