# generated using pymatgen
data_Cu2NiC37
_symmetry_space_group_name_H-M   'P 1'
_cell_length_a   8.38089621
_cell_length_b   8.45358010
_cell_length_c   8.50610376
_cell_angle_alpha   62.71856586
_cell_angle_beta   62.99388786
_cell_angle_gamma   63.24245852
_symmetry_Int_Tables_number   1
_chemical_formula_structural   Cu2NiC37
_chemical_formula_sum   'Cu2 Ni1 C37'
_cell_volume   454.35954028
_cell_formula_units_Z   1
loop_
 _symmetry_equiv_pos_site_id
 _symmetry_equiv_pos_as_xyz
  1  'x, y, z'
loop_
 _atom_site_type_symbol
 _atom_site_label
 _atom_site_symmetry_multiplicity
 _atom_site_fract_x
 _atom_site_fract_y
 _atom_site_fract_z
 _atom_site_occupancy
  C  C0  1  0.74761457  0.14490820  0.35575113  1
  C  C1  1  0.26490760  0.85641670  0.64356371  1
  C  C2  1  0.64290545  0.26364964  0.85565738  1
  C  C3  1  0.85581074  0.64357283  0.26542863  1
  Ni  Ni4  1  0.85109632  0.84934897  0.85226674  1
  Cu  Cu5  1  0.01111588  0.00446901  0.99395002  1
  Cu  Cu6  1  0.49127269  0.50235235  0.50026426  1
  C  C7  1  0.14389328  0.14454858  0.14469121  1
  C  C8  1  0.35675282  0.35677973  0.35633945  1
  C  C9  1  0.64626383  0.64539133  0.64872778  1
  C  C10  1  0.24913404  0.54635362  0.95466376  1
  C  C11  1  0.55091016  0.95530425  0.24990253  1
  C  C12  1  0.94897963  0.24857263  0.54472379  1
  C  C13  1  0.05393705  0.74781766  0.44858003  1
  C  C14  1  0.44552669  0.04950243  0.75086095  1
  C  C15  1  0.74898290  0.44634809  0.05101323  1
  C  C16  1  0.11158936  0.30850473  0.50332221  1
  C  C17  1  0.31271390  0.51202349  0.11046620  1
  C  C18  1  0.05048378  0.91614958  0.26192992  1
  C  C19  1  0.53689538  0.10575087  0.31145902  1
  C  C20  1  0.01198241  0.81323643  0.61043767  1
  C  C21  1  0.24861942  0.59779748  0.43261829  1
  C  C22  1  0.25105276  0.07018199  0.90458581  1
  C  C23  1  0.45325617  0.23845528  0.58732818  1
  C  C24  1  0.18382899  0.38994025  0.98721145  1
  C  C25  1  0.60033511  0.42952526  0.24921432  1
  C  C26  1  0.09445829  0.74720137  0.92979476  1
  C  C27  1  0.38874203  0.99912690  0.18877544  1
  C  C28  1  0.60727942  0.00686530  0.82068565  1
  C  C29  1  0.90129941  0.24861794  0.07419638  1
  C  C30  1  0.40276705  0.56776138  0.75543727  1
  C  C31  1  0.81832360  0.60611800  0.01107181  1
  C  C32  1  0.56745594  0.75459275  0.40450822  1
  C  C33  1  0.75201402  0.92724044  0.09270472  1
  C  C34  1  0.74953006  0.40443468  0.57173051  1
  C  C35  1  0.96490052  0.18612355  0.39459234  1
  C  C36  1  0.47468479  0.89359968  0.68554442  1
  C  C37  1  0.93018891  0.09195571  0.74554685  1
  C  C38  1  0.68275889  0.47460931  0.89675117  1
  C  C39  1  0.89573713  0.68185261  0.47670081  1
