# generated using pymatgen
data_Cu3NiC3
_symmetry_space_group_name_H-M   'P 1'
_cell_length_a   6.81372525
_cell_length_b   5.99573912
_cell_length_c   3.79368200
_cell_angle_alpha   90.00000000
_cell_angle_beta   90.00000000
_cell_angle_gamma   120.12296772
_symmetry_Int_Tables_number   1
_chemical_formula_structural   Cu3NiC3
_chemical_formula_sum   'Cu6 Ni2 C6'
_cell_volume   134.05389283
_cell_formula_units_Z   2
loop_
 _symmetry_equiv_pos_site_id
 _symmetry_equiv_pos_as_xyz
  1  'x, y, z'
loop_
 _atom_site_type_symbol
 _atom_site_label
 _atom_site_symmetry_multiplicity
 _atom_site_fract_x
 _atom_site_fract_y
 _atom_site_fract_z
 _atom_site_occupancy
  Ni  Ni0  1  0.66392100  0.28006200  0.75000000  1
  Ni  Ni1  1  0.33607900  0.71993800  0.25000000  1
  Cu  Cu2  1  0.87652100  0.70175500  0.25000000  1
  Cu  Cu3  1  0.82909700  0.11557500  0.25000000  1
  Cu  Cu4  1  0.37853400  0.29521100  0.25000000  1
  Cu  Cu5  1  0.12347900  0.29824500  0.75000000  1
  Cu  Cu6  1  0.17090300  0.88442500  0.75000000  1
  Cu  Cu7  1  0.62146600  0.70478900  0.75000000  1
  C  C8  1  0.86973800  0.61105400  0.75000000  1
  C  C9  1  0.78649700  0.07163800  0.75000000  1
  C  C10  1  0.39287100  0.26591800  0.75000000  1
  C  C11  1  0.13026200  0.38894600  0.25000000  1
  C  C12  1  0.21350300  0.92836200  0.25000000  1
  C  C13  1  0.60712900  0.73408200  0.25000000  1
