# generated using pymatgen
data_Cu14NiC
_symmetry_space_group_name_H-M   'P 1'
_cell_length_a   6.48970952
_cell_length_b   6.55141846
_cell_length_c   10.32798807
_cell_angle_alpha   90.00000000
_cell_angle_beta   90.00000000
_cell_angle_gamma   120.31505382
_symmetry_Int_Tables_number   1
_chemical_formula_structural   Cu14NiC
_chemical_formula_sum   'Cu14 Ni1 C1'
_cell_volume   379.07001641
_cell_formula_units_Z   1
loop_
 _symmetry_equiv_pos_site_id
 _symmetry_equiv_pos_as_xyz
  1  'x, y, z'
loop_
 _atom_site_type_symbol
 _atom_site_label
 _atom_site_symmetry_multiplicity
 _atom_site_fract_x
 _atom_site_fract_y
 _atom_site_fract_z
 _atom_site_occupancy
  C  C0  1  0.16719823  0.33359861  0.12500000  1
  Ni  Ni1  1  0.18247855  0.84123878  0.12500000  1
  Cu  Cu2  1  0.16655512  0.33327706  0.62500000  1
  Cu  Cu3  1  0.16599503  0.83299701  0.62500000  1
  Cu  Cu4  1  0.66364801  0.33340921  0.12500000  1
  Cu  Cu5  1  0.66686904  0.33407492  0.62500000  1
  Cu  Cu6  1  0.66364801  0.83023780  0.12500000  1
  Cu  Cu7  1  0.66686904  0.83279312  0.62500000  1
  Cu  Cu8  1  0.33248304  0.15917499  0.37854616  1
  Cu  Cu9  1  0.33248304  0.15917499  0.87145384  1
  Cu  Cu10  1  0.33248304  0.67330905  0.37854616  1
  Cu  Cu11  1  0.33248304  0.67330905  0.87145384  1
  Cu  Cu12  1  0.82576937  0.16288519  0.38024882  1
  Cu  Cu13  1  0.82576937  0.16288519  0.86975118  1
  Cu  Cu14  1  0.83763404  0.66881752  0.37078785  1
  Cu  Cu15  1  0.83763404  0.66881752  0.87921215  1
