# generated using pymatgen
data_Cu8NiC16
_symmetry_space_group_name_H-M   'P 1'
_cell_length_a   7.43869810
_cell_length_b   7.02580772
_cell_length_c   5.64579026
_cell_angle_alpha   104.99249818
_cell_angle_beta   108.26395251
_cell_angle_gamma   78.52536851
_symmetry_Int_Tables_number   1
_chemical_formula_structural   Cu8NiC16
_chemical_formula_sum   'Cu8 Ni1 C16'
_cell_volume   268.41902366
_cell_formula_units_Z   1
loop_
 _symmetry_equiv_pos_site_id
 _symmetry_equiv_pos_as_xyz
  1  'x, y, z'
loop_
 _atom_site_type_symbol
 _atom_site_label
 _atom_site_symmetry_multiplicity
 _atom_site_fract_x
 _atom_site_fract_y
 _atom_site_fract_z
 _atom_site_occupancy
  Ni  Ni0  1  0.14998800  0.93622900  0.88211100  1
  Cu  Cu1  1  0.74844300  0.23504500  0.54630700  1
  Cu  Cu2  1  0.51279600  0.98946000  0.96367400  1
  Cu  Cu3  1  0.25275000  0.27158000  0.53337400  1
  Cu  Cu4  1  0.76066900  0.74272900  0.46462000  1
  Cu  Cu5  1  0.50712800  0.50066400  0.99839600  1
  Cu  Cu6  1  0.87320700  0.05548800  0.10225000  1
  Cu  Cu7  1  0.25864000  0.74532400  0.44506700  1
  Cu  Cu8  1  0.01333200  0.49289400  0.01459400  1
  C  C9  1  0.99162700  0.20572300  0.41200500  1
  C  C10  1  0.94428300  0.19796200  0.88556800  1
  C  C11  1  0.62004300  0.25270600  0.14312000  1
  C  C12  1  0.30203600  0.02452600  0.66064900  1
  C  C13  1  0.52383500  0.32260100  0.66541500  1
  C  C14  1  0.77778700  0.56801600  0.14192800  1
  C  C15  1  0.71576500  0.91623900  0.78998700  1
  C  C16  1  0.23625800  0.43253100  0.86726200  1
  C  C17  1  0.49556000  0.67676500  0.33316200  1
  C  C18  1  0.71107700  0.97151200  0.30135000  1
  C  C19  1  0.19829900  0.47308400  0.33401400  1
  C  C20  1  0.40163600  0.73825100  0.83780500  1
  C  C21  1  0.06998600  0.80826900  0.11668700  1
  C  C22  1  0.01448500  0.77832700  0.56235700  1
  C  C23  1  0.82192900  0.51614900  0.66936200  1
  C  C24  1  0.32066100  0.08310900  0.18607600  1
