# generated using pymatgen
data_CuNi2C3
_symmetry_space_group_name_H-M   'P 1'
_cell_length_a   5.83233012
_cell_length_b   5.83233012
_cell_length_c   5.46726600
_cell_angle_alpha   90.00000000
_cell_angle_beta   90.00000000
_cell_angle_gamma   120.08898314
_symmetry_Int_Tables_number   1
_chemical_formula_structural   CuNi2C3
_chemical_formula_sum   'Cu2 Ni4 C6'
_cell_volume   160.91440428
_cell_formula_units_Z   2
loop_
 _symmetry_equiv_pos_site_id
 _symmetry_equiv_pos_as_xyz
  1  'x, y, z'
loop_
 _atom_site_type_symbol
 _atom_site_label
 _atom_site_symmetry_multiplicity
 _atom_site_fract_x
 _atom_site_fract_y
 _atom_site_fract_z
 _atom_site_occupancy
  Ni  Ni0  1  0.49033700  0.83463600  0.97320500  1
  Ni  Ni1  1  0.83463600  0.49033700  0.97320500  1
  Ni  Ni2  1  0.50966300  0.16536400  0.47320500  1
  Ni  Ni3  1  0.16536400  0.50966300  0.47320500  1
  Cu  Cu4  1  0.82195700  0.82195700  0.46158800  1
  Cu  Cu5  1  0.17804300  0.17804300  0.96158800  1
  C  C6  1  0.50268100  0.83255400  0.34829600  1
  C  C7  1  0.83255400  0.50268100  0.34829600  1
  C  C8  1  0.49731900  0.16744600  0.84829600  1
  C  C9  1  0.16744600  0.49731900  0.84829600  1
  C  C10  1  0.84180400  0.84180400  0.83979100  1
  C  C11  1  0.15819600  0.15819600  0.33979100  1
