# generated using pymatgen
data_CuNi12C11
_symmetry_space_group_name_H-M   'P 1'
_cell_length_a   13.34882081
_cell_length_b   13.34882081
_cell_length_c   13.34882081
_cell_angle_alpha   90.00000000
_cell_angle_beta   90.00000000
_cell_angle_gamma   90.00000000
_symmetry_Int_Tables_number   1
_chemical_formula_structural   CuNi12C11
_chemical_formula_sum   'Cu8 Ni96 C88'
_cell_volume   2378.63995612
_cell_formula_units_Z   8
loop_
 _symmetry_equiv_pos_site_id
 _symmetry_equiv_pos_as_xyz
  1  'x, y, z'
loop_
 _atom_site_type_symbol
 _atom_site_label
 _atom_site_symmetry_multiplicity
 _atom_site_fract_x
 _atom_site_fract_y
 _atom_site_fract_z
 _atom_site_occupancy
  C  C0  1  0.00000000  0.00000000  0.50000000  1
  C  C1  1  0.00000000  0.50000000  0.00000000  1
  C  C2  1  0.50000000  0.00000000  0.00000000  1
  C  C3  1  0.50000000  0.50000000  0.50000000  1
  C  C4  1  0.50000000  0.50000000  0.00000000  1
  C  C5  1  0.50000000  0.00000000  0.50000000  1
  C  C6  1  0.00000000  0.50000000  0.50000000  1
  C  C7  1  0.00000000  0.00000000  0.00000000  1
  Ni  Ni8  1  0.32071354  0.08908947  0.21452656  1
  Ni  Ni9  1  0.67928646  0.58908947  0.28547344  1
  Ni  Ni10  1  0.17928646  0.91091053  0.71452656  1
  Ni  Ni11  1  0.82071354  0.41091053  0.78547344  1
  Ni  Ni12  1  0.21452656  0.32071354  0.08908947  1
  Ni  Ni13  1  0.28547344  0.67928646  0.58908947  1
  Ni  Ni14  1  0.71452656  0.17928646  0.91091053  1
  Ni  Ni15  1  0.78547344  0.82071354  0.41091053  1
  Ni  Ni16  1  0.08908947  0.21452656  0.32071354  1
  Ni  Ni17  1  0.58908947  0.28547344  0.67928646  1
  Ni  Ni18  1  0.91091053  0.71452656  0.17928646  1
  Ni  Ni19  1  0.41091053  0.78547344  0.82071354  1
  Ni  Ni20  1  0.67928646  0.91091053  0.78547344  1
  Ni  Ni21  1  0.32071354  0.41091053  0.71452656  1
  Ni  Ni22  1  0.82071354  0.08908947  0.28547344  1
  Ni  Ni23  1  0.17928646  0.58908947  0.21452656  1
  Ni  Ni24  1  0.78547344  0.67928646  0.91091053  1
  Ni  Ni25  1  0.71452656  0.32071354  0.41091053  1
  Ni  Ni26  1  0.28547344  0.82071354  0.08908947  1
  Ni  Ni27  1  0.21452656  0.17928646  0.58908947  1
  Ni  Ni28  1  0.91091053  0.78547344  0.67928646  1
  Ni  Ni29  1  0.41091053  0.71452656  0.32071354  1
  Ni  Ni30  1  0.08908947  0.28547344  0.82071354  1
  Ni  Ni31  1  0.58908947  0.21452656  0.17928646  1
  Ni  Ni32  1  0.53455439  0.22660130  0.18777928  1
  Ni  Ni33  1  0.46544561  0.72660130  0.31222072  1
  Ni  Ni34  1  0.96544561  0.77339870  0.68777928  1
  Ni  Ni35  1  0.03455439  0.27339870  0.81222072  1
  Ni  Ni36  1  0.18777928  0.53455439  0.22660130  1
  Ni  Ni37  1  0.31222072  0.46544561  0.72660130  1
  Ni  Ni38  1  0.68777928  0.96544561  0.77339870  1
  Ni  Ni39  1  0.81222072  0.03455439  0.27339870  1
  Ni  Ni40  1  0.22660130  0.18777928  0.53455439  1
  Ni  Ni41  1  0.72660130  0.31222072  0.46544561  1
  Ni  Ni42  1  0.77339870  0.68777928  0.96544561  1
  Ni  Ni43  1  0.27339870  0.81222072  0.03455439  1
  Ni  Ni44  1  0.46544561  0.77339870  0.81222072  1
  Ni  Ni45  1  0.53455439  0.27339870  0.68777928  1
  Ni  Ni46  1  0.03455439  0.22660130  0.31222072  1
  Ni  Ni47  1  0.96544561  0.72660130  0.18777928  1
  Ni  Ni48  1  0.81222072  0.46544561  0.77339870  1
  Ni  Ni49  1  0.68777928  0.53455439  0.27339870  1
  Ni  Ni50  1  0.31222072  0.03455439  0.22660130  1
  Ni  Ni51  1  0.18777928  0.96544561  0.72660130  1
  Ni  Ni52  1  0.77339870  0.81222072  0.46544561  1
  Ni  Ni53  1  0.27339870  0.68777928  0.53455439  1
  Ni  Ni54  1  0.22660130  0.31222072  0.03455439  1
  Ni  Ni55  1  0.72660130  0.18777928  0.96544561  1
  Ni  Ni56  1  0.98503754  0.20194805  0.05050724  1
  Ni  Ni57  1  0.01496246  0.70194805  0.44949276  1
  Ni  Ni58  1  0.51496246  0.79805195  0.55050724  1
  Ni  Ni59  1  0.48503754  0.29805195  0.94949276  1
  Ni  Ni60  1  0.05050724  0.98503754  0.20194805  1
  Ni  Ni61  1  0.44949276  0.01496246  0.70194805  1
  Ni  Ni62  1  0.55050724  0.51496246  0.79805195  1
  Ni  Ni63  1  0.94949276  0.48503754  0.29805195  1
  Ni  Ni64  1  0.20194805  0.05050724  0.98503754  1
  Ni  Ni65  1  0.70194805  0.44949276  0.01496246  1
  Ni  Ni66  1  0.79805195  0.55050724  0.51496246  1
  Ni  Ni67  1  0.29805195  0.94949276  0.48503754  1
  Ni  Ni68  1  0.01496246  0.79805195  0.94949276  1
  Ni  Ni69  1  0.98503754  0.29805195  0.55050724  1
  Ni  Ni70  1  0.48503754  0.20194805  0.44949276  1
  Ni  Ni71  1  0.51496246  0.70194805  0.05050724  1
  Ni  Ni72  1  0.94949276  0.01496246  0.79805195  1
  Ni  Ni73  1  0.55050724  0.98503754  0.29805195  1
  Ni  Ni74  1  0.44949276  0.48503754  0.20194805  1
  Ni  Ni75  1  0.05050724  0.51496246  0.70194805  1
  Ni  Ni76  1  0.79805195  0.94949276  0.01496246  1
  Ni  Ni77  1  0.29805195  0.55050724  0.98503754  1
  Ni  Ni78  1  0.20194805  0.44949276  0.48503754  1
  Ni  Ni79  1  0.70194805  0.05050724  0.51496246  1
  Ni  Ni80  1  0.93617983  0.02012909  0.19681807  1
  Ni  Ni81  1  0.06382017  0.52012909  0.30318193  1
  Ni  Ni82  1  0.56382017  0.97987091  0.69681807  1
  Ni  Ni83  1  0.43617983  0.47987091  0.80318193  1
  Ni  Ni84  1  0.19681807  0.93617983  0.02012909  1
  Ni  Ni85  1  0.30318193  0.06382017  0.52012909  1
  Ni  Ni86  1  0.69681807  0.56382017  0.97987091  1
  Ni  Ni87  1  0.80318193  0.43617983  0.47987091  1
  Ni  Ni88  1  0.02012909  0.19681807  0.93617983  1
  Ni  Ni89  1  0.52012909  0.30318193  0.06382017  1
  Ni  Ni90  1  0.97987091  0.69681807  0.56382017  1
  Ni  Ni91  1  0.47987091  0.80318193  0.43617983  1
  Ni  Ni92  1  0.06382017  0.97987091  0.80318193  1
  Ni  Ni93  1  0.93617983  0.47987091  0.69681807  1
  Ni  Ni94  1  0.43617983  0.02012909  0.30318193  1
  Ni  Ni95  1  0.56382017  0.52012909  0.19681807  1
  Ni  Ni96  1  0.80318193  0.06382017  0.97987091  1
  Ni  Ni97  1  0.69681807  0.93617983  0.47987091  1
  Ni  Ni98  1  0.30318193  0.43617983  0.02012909  1
  Ni  Ni99  1  0.19681807  0.56382017  0.52012909  1
  Ni  Ni100  1  0.97987091  0.80318193  0.06382017  1
  Ni  Ni101  1  0.47987091  0.69681807  0.93617983  1
  Ni  Ni102  1  0.02012909  0.30318193  0.43617983  1
  Ni  Ni103  1  0.52012909  0.19681807  0.56382017  1
  Cu  Cu104  1  0.17396660  0.82603340  0.32603340  1
  Cu  Cu105  1  0.82603340  0.32603340  0.17396660  1
  Cu  Cu106  1  0.32603340  0.17396660  0.82603340  1
  Cu  Cu107  1  0.67396660  0.67396660  0.67396660  1
  Cu  Cu108  1  0.82603340  0.17396660  0.67396660  1
  Cu  Cu109  1  0.17396660  0.67396660  0.82603340  1
  Cu  Cu110  1  0.67396660  0.82603340  0.17396660  1
  Cu  Cu111  1  0.32603340  0.32603340  0.32603340  1
  C  C112  1  0.23628510  0.76371490  0.26371490  1
  C  C113  1  0.76371490  0.26371490  0.23628510  1
  C  C114  1  0.26371490  0.23628510  0.76371490  1
  C  C115  1  0.73628510  0.73628510  0.73628510  1
  C  C116  1  0.76371490  0.23628510  0.73628510  1
  C  C117  1  0.23628510  0.73628510  0.76371490  1
  C  C118  1  0.73628510  0.76371490  0.23628510  1
  C  C119  1  0.26371490  0.26371490  0.26371490  1
  C  C120  1  0.05014981  0.76315909  0.33881678  1
  C  C121  1  0.94985019  0.26315909  0.16118322  1
  C  C122  1  0.44985019  0.23684091  0.83881678  1
  C  C123  1  0.55014981  0.73684091  0.66118322  1
  C  C124  1  0.33881678  0.05014981  0.76315909  1
  C  C125  1  0.16118322  0.94985019  0.26315909  1
  C  C126  1  0.83881678  0.44985019  0.23684091  1
  C  C127  1  0.66118322  0.55014981  0.73684091  1
  C  C128  1  0.76315909  0.33881678  0.05014981  1
  C  C129  1  0.26315909  0.16118322  0.94985019  1
  C  C130  1  0.23684091  0.83881678  0.44985019  1
  C  C131  1  0.73684091  0.66118322  0.55014981  1
  C  C132  1  0.94985019  0.23684091  0.66118322  1
  C  C133  1  0.05014981  0.73684091  0.83881678  1
  C  C134  1  0.55014981  0.76315909  0.16118322  1
  C  C135  1  0.44985019  0.26315909  0.33881678  1
  C  C136  1  0.66118322  0.94985019  0.23684091  1
  C  C137  1  0.83881678  0.05014981  0.73684091  1
  C  C138  1  0.16118322  0.55014981  0.76315909  1
  C  C139  1  0.33881678  0.44985019  0.26315909  1
  C  C140  1  0.23684091  0.66118322  0.94985019  1
  C  C141  1  0.73684091  0.83881678  0.05014981  1
  C  C142  1  0.76315909  0.16118322  0.55014981  1
  C  C143  1  0.26315909  0.33881678  0.44985019  1
  C  C144  1  0.17895912  0.63451747  0.03180649  1
  C  C145  1  0.82104088  0.13451747  0.46819351  1
  C  C146  1  0.32104088  0.36548253  0.53180649  1
  C  C147  1  0.67895912  0.86548253  0.96819351  1
  C  C148  1  0.03180649  0.17895912  0.63451747  1
  C  C149  1  0.46819351  0.82104088  0.13451747  1
  C  C150  1  0.53180649  0.32104088  0.36548253  1
  C  C151  1  0.96819351  0.67895912  0.86548253  1
  C  C152  1  0.63451747  0.03180649  0.17895912  1
  C  C153  1  0.13451747  0.46819351  0.82104088  1
  C  C154  1  0.36548253  0.53180649  0.32104088  1
  C  C155  1  0.86548253  0.96819351  0.67895912  1
  C  C156  1  0.82104088  0.36548253  0.96819351  1
  C  C157  1  0.17895912  0.86548253  0.53180649  1
  C  C158  1  0.67895912  0.63451747  0.46819351  1
  C  C159  1  0.32104088  0.13451747  0.03180649  1
  C  C160  1  0.96819351  0.82104088  0.36548253  1
  C  C161  1  0.53180649  0.17895912  0.86548253  1
  C  C162  1  0.46819351  0.67895912  0.63451747  1
  C  C163  1  0.03180649  0.32104088  0.13451747  1
  C  C164  1  0.36548253  0.96819351  0.82104088  1
  C  C165  1  0.86548253  0.53180649  0.17895912  1
  C  C166  1  0.63451747  0.46819351  0.67895912  1
  C  C167  1  0.13451747  0.03180649  0.32104088  1
  C  C168  1  0.50179147  0.65588367  0.99278317  1
  C  C169  1  0.49820853  0.15588367  0.50721683  1
  C  C170  1  0.99820853  0.34411633  0.49278317  1
  C  C171  1  0.00179147  0.84411633  0.00721683  1
  C  C172  1  0.99278317  0.50179147  0.65588367  1
  C  C173  1  0.50721683  0.49820853  0.15588367  1
  C  C174  1  0.49278317  0.99820853  0.34411633  1
  C  C175  1  0.00721683  0.00179147  0.84411633  1
  C  C176  1  0.65588367  0.99278317  0.50179147  1
  C  C177  1  0.15588367  0.50721683  0.49820853  1
  C  C178  1  0.34411633  0.49278317  0.99820853  1
  C  C179  1  0.84411633  0.00721683  0.00179147  1
  C  C180  1  0.49820853  0.34411633  0.00721683  1
  C  C181  1  0.50179147  0.84411633  0.49278317  1
  C  C182  1  0.00179147  0.65588367  0.50721683  1
  C  C183  1  0.99820853  0.15588367  0.99278317  1
  C  C184  1  0.00721683  0.49820853  0.34411633  1
  C  C185  1  0.49278317  0.50179147  0.84411633  1
  C  C186  1  0.50721683  0.00179147  0.65588367  1
  C  C187  1  0.99278317  0.99820853  0.15588367  1
  C  C188  1  0.34411633  0.00721683  0.49820853  1
  C  C189  1  0.84411633  0.49278317  0.50179147  1
  C  C190  1  0.65588367  0.50721683  0.00179147  1
  C  C191  1  0.15588367  0.99278317  0.99820853  1
