# generated using pymatgen
data_Cu2(NiC3)3
_symmetry_space_group_name_H-M   'P 1'
_cell_length_a   7.00711300
_cell_length_b   5.98511200
_cell_length_c   6.47521921
_cell_angle_alpha   88.01560832
_cell_angle_beta   90.00000000
_cell_angle_gamma   90.00000000
_symmetry_Int_Tables_number   1
_chemical_formula_structural   Cu2(NiC3)3
_chemical_formula_sum   'Cu2 Ni3 C9'
_cell_volume   271.39719362
_cell_formula_units_Z   1
loop_
 _symmetry_equiv_pos_site_id
 _symmetry_equiv_pos_as_xyz
  1  'x, y, z'
loop_
 _atom_site_type_symbol
 _atom_site_label
 _atom_site_symmetry_multiplicity
 _atom_site_fract_x
 _atom_site_fract_y
 _atom_site_fract_z
 _atom_site_occupancy
  C  C0  1  0.50000000  0.00000000  0.50000000  1
  Ni  Ni1  1  0.24932600  0.50000000  0.50000000  1
  Ni  Ni2  1  0.75067400  0.50000000  0.50000000  1
  Ni  Ni3  1  0.00000000  0.00000000  0.50000000  1
  Cu  Cu4  1  0.00000000  0.00000000  0.00000000  1
  Cu  Cu5  1  0.50000000  0.00000000  0.00000000  1
  C  C6  1  0.00000000  0.32879600  0.69996200  1
  C  C7  1  0.50000000  0.33681900  0.71526000  1
  C  C8  1  0.24353000  0.82160500  0.71638600  1
  C  C9  1  0.75647000  0.82160500  0.71638600  1
  C  C10  1  0.24353000  0.17839500  0.28361400  1
  C  C11  1  0.75647000  0.17839500  0.28361400  1
  C  C12  1  0.50000000  0.66318100  0.28474000  1
  C  C13  1  0.00000000  0.67120400  0.30003800  1
