# generated using pymatgen
data_CuNiC12
_symmetry_space_group_name_H-M   'P 1'
_cell_length_a   10.93543600
_cell_length_b   10.93543600
_cell_length_c   10.93543600
_cell_angle_alpha   90.00000000
_cell_angle_beta   90.00000000
_cell_angle_gamma   90.00000000
_symmetry_Int_Tables_number   1
_chemical_formula_structural   CuNiC12
_chemical_formula_sum   'Cu4 Ni4 C48'
_cell_volume   1307.70055970
_cell_formula_units_Z   4
loop_
 _symmetry_equiv_pos_site_id
 _symmetry_equiv_pos_as_xyz
  1  'x, y, z'
loop_
 _atom_site_type_symbol
 _atom_site_label
 _atom_site_symmetry_multiplicity
 _atom_site_fract_x
 _atom_site_fract_y
 _atom_site_fract_z
 _atom_site_occupancy
  Ni  Ni0  1  0.50000000  0.50000000  0.00000000  1
  Ni  Ni1  1  0.50000000  0.00000000  0.50000000  1
  Ni  Ni2  1  0.00000000  0.50000000  0.50000000  1
  Ni  Ni3  1  0.00000000  0.00000000  0.00000000  1
  Cu  Cu4  1  0.00000000  0.00000000  0.50000000  1
  Cu  Cu5  1  0.00000000  0.50000000  0.00000000  1
  Cu  Cu6  1  0.50000000  0.00000000  0.00000000  1
  Cu  Cu7  1  0.50000000  0.50000000  0.50000000  1
  C  C8  1  0.43197800  0.58450400  0.63922900  1
  C  C9  1  0.56802200  0.08450400  0.86077100  1
  C  C10  1  0.06802200  0.41549600  0.13922900  1
  C  C11  1  0.93197800  0.91549600  0.36077100  1
  C  C12  1  0.63922900  0.43197800  0.58450400  1
  C  C13  1  0.86077100  0.56802200  0.08450400  1
  C  C14  1  0.13922900  0.06802200  0.41549600  1
  C  C15  1  0.36077100  0.93197800  0.91549600  1
  C  C16  1  0.58450400  0.63922900  0.43197800  1
  C  C17  1  0.08450400  0.86077100  0.56802200  1
  C  C18  1  0.41549600  0.13922900  0.06802200  1
  C  C19  1  0.91549600  0.36077100  0.93197800  1
  C  C20  1  0.56802200  0.41549600  0.36077100  1
  C  C21  1  0.43197800  0.91549600  0.13922900  1
  C  C22  1  0.93197800  0.58450400  0.86077100  1
  C  C23  1  0.06802200  0.08450400  0.63922900  1
  C  C24  1  0.36077100  0.56802200  0.41549600  1
  C  C25  1  0.13922900  0.43197800  0.91549600  1
  C  C26  1  0.86077100  0.93197800  0.58450400  1
  C  C27  1  0.63922900  0.06802200  0.08450400  1
  C  C28  1  0.41549600  0.36077100  0.56802200  1
  C  C29  1  0.91549600  0.13922900  0.43197800  1
  C  C30  1  0.58450400  0.86077100  0.93197800  1
  C  C31  1  0.08450400  0.63922900  0.06802200  1
  C  C32  1  0.57750600  0.68176600  0.28644500  1
  C  C33  1  0.42249400  0.18176600  0.21355500  1
  C  C34  1  0.92249400  0.31823400  0.78644500  1
  C  C35  1  0.07750600  0.81823400  0.71355500  1
  C  C36  1  0.28644500  0.57750600  0.68176600  1
  C  C37  1  0.21355500  0.42249400  0.18176600  1
  C  C38  1  0.78644500  0.92249400  0.31823400  1
  C  C39  1  0.71355500  0.07750600  0.81823400  1
  C  C40  1  0.68176600  0.28644500  0.57750600  1
  C  C41  1  0.18176600  0.21355500  0.42249400  1
  C  C42  1  0.31823400  0.78644500  0.92249400  1
  C  C43  1  0.81823400  0.71355500  0.07750600  1
  C  C44  1  0.42249400  0.31823400  0.71355500  1
  C  C45  1  0.57750600  0.81823400  0.78644500  1
  C  C46  1  0.07750600  0.68176600  0.21355500  1
  C  C47  1  0.92249400  0.18176600  0.28644500  1
  C  C48  1  0.71355500  0.42249400  0.31823400  1
  C  C49  1  0.78644500  0.57750600  0.81823400  1
  C  C50  1  0.21355500  0.07750600  0.68176600  1
  C  C51  1  0.28644500  0.92249400  0.18176600  1
  C  C52  1  0.31823400  0.71355500  0.42249400  1
  C  C53  1  0.81823400  0.78644500  0.57750600  1
  C  C54  1  0.68176600  0.21355500  0.07750600  1
  C  C55  1  0.18176600  0.28644500  0.92249400  1
