# generated using pymatgen
data_Cu2Ni2C15
_symmetry_space_group_name_H-M   'P 1'
_cell_length_a   6.34776000
_cell_length_b   10.18180943
_cell_length_c   10.60197457
_cell_angle_alpha   119.64302702
_cell_angle_beta   90.00000000
_cell_angle_gamma   108.16295398
_symmetry_Int_Tables_number   1
_chemical_formula_structural   Cu2Ni2C15
_chemical_formula_sum   'Cu4 Ni4 C30'
_cell_volume   555.92122273
_cell_formula_units_Z   2
loop_
 _symmetry_equiv_pos_site_id
 _symmetry_equiv_pos_as_xyz
  1  'x, y, z'
loop_
 _atom_site_type_symbol
 _atom_site_label
 _atom_site_symmetry_multiplicity
 _atom_site_fract_x
 _atom_site_fract_y
 _atom_site_fract_z
 _atom_site_occupancy
  C  C0  1  0.64576500  0.24950800  0.90746500  1
  C  C1  1  0.89625500  0.75049200  0.59253500  1
  C  C2  1  0.35423600  0.75049200  0.09253500  1
  C  C3  1  0.10374400  0.24950800  0.40746500  1
  Ni  Ni4  1  0.83251900  0.56521000  0.05870800  1
  Ni  Ni5  1  0.76730900  0.43479000  0.44129200  1
  Ni  Ni6  1  0.16748100  0.43479000  0.94129200  1
  Ni  Ni7  1  0.23269100  0.56521000  0.55870800  1
  Cu  Cu8  1  0.07244900  0.10468800  0.89144300  1
  Cu  Cu9  1  0.46776100  0.89531200  0.60855700  1
  Cu  Cu10  1  0.92755100  0.89531200  0.10855700  1
  Cu  Cu11  1  0.53223900  0.10468800  0.39144300  1
  C  C12  1  0.97750300  0.25676800  0.91276800  1
  C  C13  1  0.22073500  0.74323200  0.58723200  1
  C  C14  1  0.02249700  0.74323200  0.08723200  1
  C  C15  1  0.77926500  0.25676800  0.41276800  1
  C  C16  1  0.56451100  0.00560500  0.79849800  1
  C  C17  1  0.05890500  0.99439500  0.70150200  1
  C  C18  1  0.43548900  0.99439500  0.20150200  1
  C  C19  1  0.94109500  0.00560500  0.29849800  1
  C  C20  1  0.35364600  0.22643500  0.95868000  1
  C  C21  1  0.62721100  0.77356500  0.54132000  1
  C  C22  1  0.64635400  0.77356500  0.04132000  1
  C  C23  1  0.37278900  0.22643500  0.45868000  1
  C  C24  1  0.76416000  0.46002000  0.05466100  1
  C  C25  1  0.80414000  0.53998000  0.44533900  1
  C  C26  1  0.23584000  0.53998000  0.94533900  1
  C  C27  1  0.19586000  0.46002000  0.55466100  1
  C  C28  1  0.72375200  0.18637000  0.06309400  1
  C  C29  1  0.03738200  0.81363000  0.43690600  1
  C  C30  1  0.27624800  0.81363000  0.93690600  1
  C  C31  1  0.96261800  0.18637000  0.56309400  1
  C  C32  1  0.62136900  0.25289100  0.75666000  1
  C  C33  1  0.86847800  0.74710900  0.74334000  1
  C  C34  1  0.37863100  0.74710900  0.24334000  1
  C  C35  1  0.13152200  0.25289100  0.25666000  1
  C  C36  1  0.62069700  0.50000000  0.25000000  1
  C  C37  1  0.37930300  0.50000000  0.75000000  1
