# generated using pymatgen
data_Cu12NiC8
_symmetry_space_group_name_H-M   'P 1'
_cell_length_a   10.57674984
_cell_length_b   10.57674984
_cell_length_c   7.48516800
_cell_angle_alpha   90.00000000
_cell_angle_beta   90.00000000
_cell_angle_gamma   119.99999897
_symmetry_Int_Tables_number   1
_chemical_formula_structural   Cu12NiC8
_chemical_formula_sum   'Cu24 Ni2 C16'
_cell_volume   725.16469701
_cell_formula_units_Z   2
loop_
 _symmetry_equiv_pos_site_id
 _symmetry_equiv_pos_as_xyz
  1  'x, y, z'
loop_
 _atom_site_type_symbol
 _atom_site_label
 _atom_site_symmetry_multiplicity
 _atom_site_fract_x
 _atom_site_fract_y
 _atom_site_fract_z
 _atom_site_occupancy
  C  C0  1  0.03012300  0.40889400  0.25000000  1
  C  C1  1  0.96987700  0.59110600  0.75000000  1
  C  C2  1  0.59110600  0.62122900  0.25000000  1
  C  C3  1  0.40889400  0.37877100  0.75000000  1
  C  C4  1  0.37877100  0.96987700  0.25000000  1
  C  C5  1  0.62122900  0.03012300  0.75000000  1
  C  C6  1  0.24479100  0.26315100  0.25000000  1
  C  C7  1  0.75520900  0.73684900  0.75000000  1
  C  C8  1  0.73684900  0.98164000  0.25000000  1
  C  C9  1  0.26315100  0.01836000  0.75000000  1
  C  C10  1  0.01836000  0.75520900  0.25000000  1
  C  C11  1  0.98164000  0.24479100  0.75000000  1
  C  C12  1  0.33333300  0.66666700  0.99485600  1
  C  C13  1  0.66666700  0.33333300  0.00514400  1
  C  C14  1  0.66666700  0.33333300  0.49485600  1
  C  C15  1  0.33333300  0.66666700  0.50514400  1
  Ni  Ni16  1  0.00000000  0.00000000  0.00000000  1
  Ni  Ni17  1  0.00000000  0.00000000  0.50000000  1
  Cu  Cu18  1  0.49529600  0.15568500  0.25000000  1
  Cu  Cu19  1  0.50470400  0.84431500  0.75000000  1
  Cu  Cu20  1  0.84431500  0.33961100  0.25000000  1
  Cu  Cu21  1  0.15568500  0.66038900  0.75000000  1
  Cu  Cu22  1  0.66038900  0.50470400  0.25000000  1
  Cu  Cu23  1  0.33961100  0.49529600  0.75000000  1
  Cu  Cu24  1  0.12546800  0.59974400  0.25000000  1
  Cu  Cu25  1  0.87453200  0.40025600  0.75000000  1
  Cu  Cu26  1  0.40025600  0.52572400  0.25000000  1
  Cu  Cu27  1  0.59974400  0.47427600  0.75000000  1
  Cu  Cu28  1  0.47427600  0.87453200  0.25000000  1
  Cu  Cu29  1  0.52572400  0.12546800  0.75000000  1
  Cu  Cu30  1  0.09441500  0.35821600  0.06718800  1
  Cu  Cu31  1  0.90558500  0.64178400  0.93281200  1
  Cu  Cu32  1  0.64178400  0.73619900  0.06718800  1
  Cu  Cu33  1  0.90558500  0.64178400  0.56718800  1
  Cu  Cu34  1  0.35821600  0.26380100  0.93281200  1
  Cu  Cu35  1  0.09441500  0.35821600  0.43281200  1
  Cu  Cu36  1  0.26380100  0.90558500  0.06718800  1
  Cu  Cu37  1  0.35821600  0.26380100  0.56718800  1
  Cu  Cu38  1  0.73619900  0.09441500  0.93281200  1
  Cu  Cu39  1  0.64178400  0.73619900  0.43281200  1
  Cu  Cu40  1  0.73619900  0.09441500  0.56718800  1
  Cu  Cu41  1  0.26380100  0.90558500  0.43281200  1
