# generated using pymatgen
data_Cu4Ni3C19
_symmetry_space_group_name_H-M   'P 1'
_cell_length_a   13.46686783
_cell_length_b   21.21832243
_cell_length_c   22.65050972
_cell_angle_alpha   118.32055130
_cell_angle_beta   90.00000000
_cell_angle_gamma   90.00000000
_symmetry_Int_Tables_number   1
_chemical_formula_structural   Cu4Ni3C19
_chemical_formula_sum   'Cu32 Ni24 C152'
_cell_volume   5697.57301316
_cell_formula_units_Z   8
loop_
 _symmetry_equiv_pos_site_id
 _symmetry_equiv_pos_as_xyz
  1  'x, y, z'
loop_
 _atom_site_type_symbol
 _atom_site_label
 _atom_site_symmetry_multiplicity
 _atom_site_fract_x
 _atom_site_fract_y
 _atom_site_fract_z
 _atom_site_occupancy
  C  C0  1  0.54165964  0.47904387  0.34885386  1
  C  C1  1  0.04165964  0.52095613  0.15114614  1
  C  C2  1  0.45834036  0.52095613  0.65114614  1
  C  C3  1  0.95834036  0.47904387  0.84885386  1
  C  C4  1  0.73929351  0.58916868  0.16814191  1
  C  C5  1  0.23929351  0.41083132  0.33185809  1
  C  C6  1  0.26070649  0.41083132  0.83185809  1
  C  C7  1  0.76070649  0.58916868  0.66814191  1
  C  C8  1  0.95829738  0.37324505  0.35689609  1
  C  C9  1  0.45829738  0.62675495  0.14310391  1
  C  C10  1  0.04170262  0.62675495  0.64310391  1
  C  C11  1  0.54170262  0.37324505  0.85689609  1
  C  C12  1  0.98665137  0.86209361  0.34933125  1
  C  C13  1  0.48665137  0.13790639  0.15066875  1
  C  C14  1  0.01334863  0.13790639  0.65066875  1
  C  C15  1  0.51334863  0.86209361  0.84933125  1
  C  C16  1  0.67754105  0.10695671  0.66855900  1
  C  C17  1  0.17754105  0.89304329  0.83144100  1
  C  C18  1  0.32245895  0.89304329  0.33144100  1
  C  C19  1  0.82245895  0.10695671  0.16855900  1
  C  C20  1  0.53863679  0.00938982  0.34476068  1
  C  C21  1  0.03863679  0.99061018  0.15523932  1
  C  C22  1  0.46136321  0.99061018  0.65523932  1
  C  C23  1  0.96136321  0.00938982  0.84476068  1
  Ni  Ni24  1  0.73893942  0.33722381  0.15693150  1
  Ni  Ni25  1  0.23893942  0.66277619  0.34306850  1
  Ni  Ni26  1  0.26106058  0.66277619  0.84306850  1
  Ni  Ni27  1  0.76106058  0.33722381  0.65693150  1
  Ni  Ni28  1  0.23670180  0.18078894  0.84151575  1
  Ni  Ni29  1  0.73670180  0.81921106  0.65848425  1
  Ni  Ni30  1  0.76329820  0.81921106  0.15848425  1
  Ni  Ni31  1  0.26329820  0.18078894  0.34151575  1
  Ni  Ni32  1  0.89572007  0.12907099  0.43946673  1
  Ni  Ni33  1  0.39572007  0.87092901  0.06053327  1
  Ni  Ni34  1  0.10427993  0.87092901  0.56053327  1
  Ni  Ni35  1  0.60427993  0.12907099  0.93946673  1
  Ni  Ni36  1  0.65253040  0.29214326  0.43782369  1
  Ni  Ni37  1  0.15253040  0.70785674  0.06217631  1
  Ni  Ni38  1  0.34746960  0.70785674  0.56217631  1
  Ni  Ni39  1  0.84746960  0.29214326  0.93782369  1
  Ni  Ni40  1  0.15180245  0.35174919  0.56616944  1
  Ni  Ni41  1  0.65180245  0.64825081  0.93383056  1
  Ni  Ni42  1  0.84819755  0.64825081  0.43383056  1
  Ni  Ni43  1  0.34819755  0.35174919  0.06616944  1
  Ni  Ni44  1  0.11049060  0.19386800  0.06455766  1
  Ni  Ni45  1  0.61049060  0.80613200  0.43544234  1
  Ni  Ni46  1  0.88950940  0.80613200  0.93544234  1
  Ni  Ni47  1  0.38950940  0.19386800  0.56455766  1
  Cu  Cu48  1  0.15644002  0.13702911  0.48931252  1
  Cu  Cu49  1  0.65644002  0.86297089  0.01068748  1
  Cu  Cu50  1  0.84355998  0.86297089  0.51068748  1
  Cu  Cu51  1  0.34355998  0.13702911  0.98931252  1
  Cu  Cu52  1  0.84803770  0.15629781  0.01427937  1
  Cu  Cu53  1  0.34803770  0.84370219  0.48572063  1
  Cu  Cu54  1  0.15196230  0.84370219  0.98572063  1
  Cu  Cu55  1  0.65196230  0.15629781  0.51427937  1
  Cu  Cu56  1  0.60921220  0.34495030  0.01398173  1
  Cu  Cu57  1  0.10921220  0.65504970  0.48601827  1
  Cu  Cu58  1  0.39078780  0.65504970  0.98601827  1
  Cu  Cu59  1  0.89078780  0.34495030  0.51398173  1
  Cu  Cu60  1  0.11151822  0.33530282  0.99070577  1
  Cu  Cu61  1  0.61151822  0.66469718  0.50929423  1
  Cu  Cu62  1  0.88848178  0.66469718  0.00929423  1
  Cu  Cu63  1  0.38848178  0.33530282  0.49070577  1
  Cu  Cu64  1  0.84744360  0.98487517  0.28550111  1
  Cu  Cu65  1  0.34744360  0.01512483  0.21449889  1
  Cu  Cu66  1  0.15255640  0.01512483  0.71449889  1
  Cu  Cu67  1  0.65255640  0.98487517  0.78550111  1
  Cu  Cu68  1  0.68653258  0.28797467  0.28396440  1
  Cu  Cu69  1  0.18653258  0.71202533  0.21603560  1
  Cu  Cu70  1  0.31346742  0.71202533  0.71603560  1
  Cu  Cu71  1  0.81346742  0.28797467  0.78396440  1
  Cu  Cu72  1  0.35027533  0.22194458  0.72810342  1
  Cu  Cu73  1  0.85027533  0.77805542  0.77189658  1
  Cu  Cu74  1  0.64972467  0.77805542  0.27189658  1
  Cu  Cu75  1  0.14972467  0.22194458  0.22810342  1
  Cu  Cu76  1  0.31778767  0.49514956  0.22768801  1
  Cu  Cu77  1  0.81778767  0.50485044  0.27231199  1
  Cu  Cu78  1  0.68221233  0.50485044  0.77231199  1
  Cu  Cu79  1  0.18221233  0.49514956  0.72768801  1
  C  C80  1  0.10547621  0.18892586  0.43749529  1
  C  C81  1  0.60547621  0.81107414  0.06250471  1
  C  C82  1  0.89452379  0.81107414  0.56250471  1
  C  C83  1  0.39452379  0.18892586  0.93749529  1
  C  C84  1  0.04969111  0.06492136  0.48183391  1
  C  C85  1  0.54969111  0.93507864  0.01816609  1
  C  C86  1  0.95030889  0.93507864  0.51816609  1
  C  C87  1  0.45030889  0.06492136  0.98183391  1
  C  C88  1  0.20961584  0.08712591  0.95438252  1
  C  C89  1  0.70961584  0.91287409  0.54561748  1
  C  C90  1  0.79038416  0.91287409  0.04561748  1
  C  C91  1  0.29038416  0.08712591  0.45438252  1
  C  C92  1  0.17951473  0.21436263  0.58760261  1
  C  C93  1  0.67951473  0.78563737  0.91239739  1
  C  C94  1  0.82048527  0.78563737  0.41239739  1
  C  C95  1  0.32048527  0.21436263  0.08760261  1
  C  C96  1  0.95321580  0.08522057  0.01163855  1
  C  C97  1  0.45321580  0.91477943  0.48836145  1
  C  C98  1  0.04678420  0.91477943  0.98836145  1
  C  C99  1  0.54678420  0.08522057  0.51163855  1
  C  C100  1  0.78200490  0.14508862  0.55562382  1
  C  C101  1  0.28200490  0.85491138  0.94437618  1
  C  C102  1  0.21799510  0.85491138  0.44437618  1
  C  C103  1  0.71799510  0.14508862  0.05562382  1
  C  C104  1  0.59653543  0.25823073  0.56810574  1
  C  C105  1  0.09653543  0.74176927  0.93189426  1
  C  C106  1  0.40346457  0.74176927  0.43189426  1
  C  C107  1  0.90346457  0.25823073  0.06810574  1
  C  C108  1  0.81719982  0.14009780  0.91824959  1
  C  C109  1  0.31719982  0.85990220  0.58175041  1
  C  C110  1  0.18280018  0.85990220  0.08175041  1
  C  C111  1  0.68280018  0.14009780  0.41824959  1
  C  C112  1  0.99640069  0.41465182  0.51584833  1
  C  C113  1  0.49640069  0.58534818  0.98415167  1
  C  C114  1  0.00359931  0.58534818  0.48415167  1
  C  C115  1  0.50359931  0.41465182  0.01584833  1
  C  C116  1  0.56181030  0.29892545  0.07123019  1
  C  C117  1  0.06181030  0.70107455  0.42876981  1
  C  C118  1  0.43818970  0.70107455  0.92876981  1
  C  C119  1  0.93818970  0.29892545  0.57123019  1
  C  C120  1  0.75604967  0.39574505  0.55218781  1
  C  C121  1  0.25604967  0.60425495  0.94781219  1
  C  C122  1  0.24395033  0.60425495  0.44781219  1
  C  C123  1  0.74395033  0.39574505  0.05218781  1
  C  C124  1  0.63759950  0.26589933  0.91759707  1
  C  C125  1  0.13759950  0.73410067  0.58240293  1
  C  C126  1  0.36240050  0.73410067  0.08240293  1
  C  C127  1  0.86240050  0.26589933  0.41759707  1
  C  C128  1  0.00584642  0.40344716  0.98926283  1
  C  C129  1  0.50584642  0.59655284  0.51073717  1
  C  C130  1  0.99415358  0.59655284  0.01073717  1
  C  C131  1  0.49415358  0.40344716  0.48926283  1
  C  C132  1  0.13930676  0.35240734  0.08735239  1
  C  C133  1  0.63930676  0.64759266  0.41264761  1
  C  C134  1  0.86069324  0.64759266  0.91264761  1
  C  C135  1  0.36069324  0.35240734  0.58735239  1
  C  C136  1  0.43611971  0.23185546  0.43340168  1
  C  C137  1  0.93611971  0.76814454  0.06659832  1
  C  C138  1  0.56388029  0.76814454  0.56659832  1
  C  C139  1  0.06388029  0.23185546  0.93340168  1
  C  C140  1  0.25401459  0.34854754  0.45397323  1
  C  C141  1  0.75401459  0.65145246  0.04602677  1
  C  C142  1  0.74598541  0.65145246  0.54602677  1
  C  C143  1  0.24598541  0.34854754  0.95397323  1
  C  C144  1  0.06064857  0.09730128  0.77503723  1
  C  C145  1  0.56064857  0.90269872  0.72496277  1
  C  C146  1  0.93935143  0.90269872  0.22496277  1
  C  C147  1  0.43935143  0.09730128  0.27503723  1
  C  C148  1  0.28819482  0.03645926  0.76312529  1
  C  C149  1  0.78819482  0.96354074  0.73687471  1
  C  C150  1  0.71180518  0.96354074  0.23687471  1
  C  C151  1  0.21180518  0.03645926  0.26312529  1
  C  C152  1  0.83487185  0.98970726  0.37877061  1
  C  C153  1  0.33487185  0.01029274  0.12122939  1
  C  C154  1  0.16512815  0.01029274  0.62122939  1
  C  C155  1  0.66512815  0.98970726  0.87877061  1
  C  C156  1  0.09584915  0.91860434  0.69909092  1
  C  C157  1  0.59584915  0.08139566  0.80090908  1
  C  C158  1  0.90415085  0.08139566  0.30090908  1
  C  C159  1  0.40415085  0.91860434  0.19909092  1
  C  C160  1  0.58224448  0.30773810  0.22870685  1
  C  C161  1  0.08224448  0.69226190  0.27129315  1
  C  C162  1  0.41775552  0.69226190  0.77129315  1
  C  C163  1  0.91775552  0.30773810  0.72870685  1
  C  C164  1  0.65387084  0.19880158  0.29294708  1
  C  C165  1  0.15387084  0.80119842  0.20705292  1
  C  C166  1  0.34612916  0.80119842  0.70705292  1
  C  C167  1  0.84612916  0.19880158  0.79294708  1
  C  C168  1  0.69570597  0.37429918  0.37885006  1
  C  C169  1  0.19570597  0.62570082  0.12114994  1
  C  C170  1  0.30429403  0.62570082  0.62114994  1
  C  C171  1  0.80429403  0.37429918  0.87885006  1
  C  C172  1  0.82147406  0.27602525  0.23534461  1
  C  C173  1  0.32147406  0.72397475  0.26465539  1
  C  C174  1  0.17852594  0.72397475  0.76465539  1
  C  C175  1  0.67852594  0.27602525  0.73534461  1
  C  C176  1  0.39698095  0.30415560  0.71220926  1
  C  C177  1  0.89698095  0.69584440  0.78779074  1
  C  C178  1  0.60301905  0.69584440  0.28779074  1
  C  C179  1  0.10301905  0.30415560  0.21220926  1
  C  C180  1  0.42236838  0.21734906  0.80517734  1
  C  C181  1  0.92236838  0.78265094  0.69482266  1
  C  C182  1  0.57763162  0.78265094  0.19482266  1
  C  C183  1  0.07763162  0.21734906  0.30517734  1
  C  C184  1  0.30008127  0.23327520  0.25318136  1
  C  C185  1  0.80008127  0.76672480  0.24681864  1
  C  C186  1  0.69991873  0.76672480  0.74681864  1
  C  C187  1  0.19991873  0.23327520  0.75318136  1
  C  C188  1  0.12253337  0.12840033  0.14126265  1
  C  C189  1  0.62253337  0.87159967  0.35873735  1
  C  C190  1  0.87746663  0.87159967  0.85873735  1
  C  C191  1  0.37746663  0.12840033  0.64126265  1
  C  C192  1  0.36480459  0.39597382  0.21038802  1
  C  C193  1  0.86480459  0.60402618  0.28961198  1
  C  C194  1  0.63519541  0.60402618  0.78961198  1
  C  C195  1  0.13519541  0.39597382  0.71038802  1
  C  C196  1  0.31848054  0.49509922  0.13641890  1
  C  C197  1  0.81848054  0.50490078  0.36358110  1
  C  C198  1  0.68151946  0.50490078  0.86358110  1
  C  C199  1  0.18151946  0.49509922  0.63641890  1
  C  C200  1  0.59210373  0.42564059  0.70551080  1
  C  C201  1  0.09210373  0.57435941  0.79448920  1
  C  C202  1  0.40789627  0.57435941  0.29448920  1
  C  C203  1  0.90789627  0.42564059  0.20551080  1
  C  C204  1  0.82396656  0.48213465  0.73240619  1
  C  C205  1  0.32396656  0.51786535  0.76759381  1
  C  C206  1  0.17603344  0.51786535  0.26759381  1
  C  C207  1  0.67603344  0.48213465  0.23240619  1
