# generated using pymatgen
data_CuNi4C25
_symmetry_space_group_name_H-M   'P 1'
_cell_length_a   3.92237400
_cell_length_b   3.92689400
_cell_length_c   27.54331400
_cell_angle_alpha   90.00000000
_cell_angle_beta   90.00000000
_cell_angle_gamma   90.00000000
_symmetry_Int_Tables_number   1
_chemical_formula_structural   CuNi4C25
_chemical_formula_sum   'Cu1 Ni4 C25'
_cell_volume   424.24269506
_cell_formula_units_Z   1
loop_
 _symmetry_equiv_pos_site_id
 _symmetry_equiv_pos_as_xyz
  1  'x, y, z'
loop_
 _atom_site_type_symbol
 _atom_site_label
 _atom_site_symmetry_multiplicity
 _atom_site_fract_x
 _atom_site_fract_y
 _atom_site_fract_z
 _atom_site_occupancy
  Ni  Ni0  1  0.50000000  0.50000000  0.13648600  1
  Ni  Ni1  1  0.00000000  0.50000000  0.63660100  1
  Ni  Ni2  1  0.00000000  0.50000000  0.36339900  1
  Ni  Ni3  1  0.50000000  0.50000000  0.86351400  1
  C  C4  1  0.00000000  0.50000000  0.50000000  1
  Cu  Cu5  1  0.50000000  0.50000000  0.00000000  1
  C  C6  1  0.00000000  0.00000000  0.06237600  1
  C  C7  1  0.50000000  0.00000000  0.56315000  1
  C  C8  1  0.50000000  0.00000000  0.43685000  1
  C  C9  1  0.00000000  0.00000000  0.93762400  1
  C  C10  1  0.00000000  0.00000000  0.21257100  1
  C  C11  1  0.50000000  0.00000000  0.71258000  1
  C  C12  1  0.50000000  0.00000000  0.28742000  1
  C  C13  1  0.00000000  0.00000000  0.78742900  1
  C  C14  1  0.50000000  0.00000000  0.21855100  1
  C  C15  1  0.00000000  0.00000000  0.71858800  1
  C  C16  1  0.00000000  0.00000000  0.28141200  1
  C  C17  1  0.50000000  0.00000000  0.78144900  1
  C  C18  1  0.50000000  0.00000000  0.05263000  1
  C  C19  1  0.00000000  0.00000000  0.55497300  1
  C  C20  1  0.00000000  0.00000000  0.44502700  1
  C  C21  1  0.50000000  0.00000000  0.94737000  1
  C  C22  1  0.00000000  0.00000000  0.14552900  1
  C  C23  1  0.50000000  0.00000000  0.64567500  1
  C  C24  1  0.50000000  0.00000000  0.35432500  1
  C  C25  1  0.00000000  0.00000000  0.85447100  1
  C  C26  1  0.00000000  0.50000000  0.05270000  1
  C  C27  1  0.50000000  0.50000000  0.55500100  1
  C  C28  1  0.50000000  0.50000000  0.44499900  1
  C  C29  1  0.00000000  0.50000000  0.94730000  1
