# generated using pymatgen
data_CuNiC8
_symmetry_space_group_name_H-M   'P 1'
_cell_length_a   7.38045411
_cell_length_b   7.38045411
_cell_length_c   7.38045411
_cell_angle_alpha   120.93272627
_cell_angle_beta   119.62805207
_cell_angle_gamma   89.51877902
_symmetry_Int_Tables_number   1
_chemical_formula_structural   CuNiC8
_chemical_formula_sum   'Cu2 Ni2 C16'
_cell_volume   283.01017610
_cell_formula_units_Z   2
loop_
 _symmetry_equiv_pos_site_id
 _symmetry_equiv_pos_as_xyz
  1  'x, y, z'
loop_
 _atom_site_type_symbol
 _atom_site_label
 _atom_site_symmetry_multiplicity
 _atom_site_fract_x
 _atom_site_fract_y
 _atom_site_fract_z
 _atom_site_occupancy
  Ni  Ni0  1  0.50000000  0.50000000  0.50000000  1
  Ni  Ni1  1  0.50000000  0.00000000  0.00000000  1
  C  C2  1  0.00000000  0.00000000  0.00000000  1
  C  C3  1  0.50000000  0.00000000  0.50000000  1
  Cu  Cu4  1  0.00000000  0.00000000  0.50000000  1
  Cu  Cu5  1  0.00000000  0.50000000  0.00000000  1
  C  C6  1  0.41895200  0.66895200  0.75000000  1
  C  C7  1  0.58104800  0.33104800  0.25000000  1
  C  C8  1  0.32632000  0.07632000  0.25000000  1
  C  C9  1  0.94308200  0.69308200  0.25000000  1
  C  C10  1  0.31056600  0.68074500  0.24482500  1
  C  C11  1  0.93592100  0.06574100  0.25517500  1
  C  C12  1  0.31056600  0.06574100  0.62982100  1
  C  C13  1  0.93592100  0.68074500  0.87017900  1
  C  C14  1  0.67368000  0.92368000  0.75000000  1
  C  C15  1  0.05691800  0.30691800  0.75000000  1
  C  C16  1  0.68943400  0.31925500  0.75517500  1
  C  C17  1  0.06407900  0.93425900  0.74482500  1
  C  C18  1  0.68943400  0.93425900  0.37017900  1
  C  C19  1  0.06407900  0.31925500  0.12982100  1
