# generated using pymatgen
data_Cu3Ni6C11
_symmetry_space_group_name_H-M   'P 1'
_cell_length_a   10.14854700
_cell_length_b   10.14854700
_cell_length_c   4.91577700
_cell_angle_alpha   90.00000000
_cell_angle_beta   90.00000000
_cell_angle_gamma   90.00000000
_symmetry_Int_Tables_number   1
_chemical_formula_structural   Cu3Ni6C11
_chemical_formula_sum   'Cu6 Ni12 C22'
_cell_volume   506.29065109
_cell_formula_units_Z   2
loop_
 _symmetry_equiv_pos_site_id
 _symmetry_equiv_pos_as_xyz
  1  'x, y, z'
loop_
 _atom_site_type_symbol
 _atom_site_label
 _atom_site_symmetry_multiplicity
 _atom_site_fract_x
 _atom_site_fract_y
 _atom_site_fract_z
 _atom_site_occupancy
  Ni  Ni0  1  0.41918200  0.29226100  0.53190800  1
  Ni  Ni1  1  0.58081800  0.70773900  0.53190800  1
  Ni  Ni2  1  0.08081800  0.79226100  0.53190800  1
  Ni  Ni3  1  0.91918200  0.20773900  0.53190800  1
  Ni  Ni4  1  0.29226100  0.58081800  0.53190800  1
  Ni  Ni5  1  0.70773900  0.41918200  0.53190800  1
  Ni  Ni6  1  0.79226100  0.91918200  0.53190800  1
  Ni  Ni7  1  0.20773900  0.08081800  0.53190800  1
  Ni  Ni8  1  0.88347700  0.38347700  0.05080300  1
  Ni  Ni9  1  0.11652300  0.61652300  0.05080300  1
  Ni  Ni10  1  0.61652300  0.88347700  0.05080300  1
  Ni  Ni11  1  0.38347700  0.11652300  0.05080300  1
  Cu  Cu12  1  0.31036000  0.81036000  0.95635500  1
  Cu  Cu13  1  0.68964000  0.18964000  0.95635500  1
  Cu  Cu14  1  0.18964000  0.31036000  0.95635500  1
  Cu  Cu15  1  0.81036000  0.68964000  0.95635500  1
  Cu  Cu16  1  0.50000000  0.50000000  0.97212200  1
  Cu  Cu17  1  0.00000000  0.00000000  0.97212200  1
  C  C18  1  0.32312400  0.42377400  0.66175000  1
  C  C19  1  0.67687600  0.57622600  0.66175000  1
  C  C20  1  0.17687600  0.92377400  0.66175000  1
  C  C21  1  0.82312400  0.07622600  0.66175000  1
  C  C22  1  0.42377400  0.67687600  0.66175000  1
  C  C23  1  0.57622600  0.32312400  0.66175000  1
  C  C24  1  0.92377400  0.82312400  0.66175000  1
  C  C25  1  0.07622600  0.17687600  0.66175000  1
  C  C26  1  0.42415700  0.26886900  0.18886600  1
  C  C27  1  0.57584300  0.73113100  0.18886600  1
  C  C28  1  0.07584300  0.76886900  0.18886600  1
  C  C29  1  0.92415700  0.23113100  0.18886600  1
  C  C30  1  0.26886900  0.57584300  0.18886600  1
  C  C31  1  0.73113100  0.42415700  0.18886600  1
  C  C32  1  0.76886900  0.92415700  0.18886600  1
  C  C33  1  0.23113100  0.07584300  0.18886600  1
  C  C34  1  0.83719500  0.33719500  0.71023900  1
  C  C35  1  0.16280500  0.66280500  0.71023900  1
  C  C36  1  0.66280500  0.83719500  0.71023900  1
  C  C37  1  0.33719500  0.16280500  0.71023900  1
  C  C38  1  0.50000000  0.00000000  0.03152900  1
  C  C39  1  0.00000000  0.50000000  0.03152900  1
