# generated using pymatgen
data_Cu6Ni8C
_symmetry_space_group_name_H-M   'P 1'
_cell_length_a   5.19034500
_cell_length_b   7.26373700
_cell_length_c   10.40151500
_cell_angle_alpha   90.00000000
_cell_angle_beta   90.00000000
_cell_angle_gamma   90.00000000
_symmetry_Int_Tables_number   1
_chemical_formula_structural   Cu6Ni8C
_chemical_formula_sum   'Cu12 Ni16 C2'
_cell_volume   392.15064807
_cell_formula_units_Z   2
loop_
 _symmetry_equiv_pos_site_id
 _symmetry_equiv_pos_as_xyz
  1  'x, y, z'
loop_
 _atom_site_type_symbol
 _atom_site_label
 _atom_site_symmetry_multiplicity
 _atom_site_fract_x
 _atom_site_fract_y
 _atom_site_fract_z
 _atom_site_occupancy
  C  C0  1  0.00000000  0.50000000  0.50000000  1
  C  C1  1  0.00000000  0.00000000  0.00000000  1
  Ni  Ni2  1  0.38091500  0.00000000  0.75783300  1
  Ni  Ni3  1  0.38091500  0.50000000  0.74216700  1
  Ni  Ni4  1  0.61908500  0.00000000  0.24216700  1
  Ni  Ni5  1  0.61908500  0.50000000  0.25783300  1
  Ni  Ni6  1  0.57266700  0.00000000  0.66220400  1
  Ni  Ni7  1  0.57266700  0.50000000  0.83779600  1
  Ni  Ni8  1  0.42733300  0.00000000  0.33779600  1
  Ni  Ni9  1  0.42733300  0.50000000  0.16220400  1
  Ni  Ni10  1  0.68573300  0.16329000  0.61726000  1
  Ni  Ni11  1  0.68573300  0.33671000  0.88274000  1
  Ni  Ni12  1  0.31426700  0.16329000  0.38274000  1
  Ni  Ni13  1  0.68573300  0.66329000  0.88274000  1
  Ni  Ni14  1  0.31426700  0.83671000  0.38274000  1
  Ni  Ni15  1  0.31426700  0.66329000  0.11726000  1
  Ni  Ni16  1  0.68573300  0.83671000  0.61726000  1
  Ni  Ni17  1  0.31426700  0.33671000  0.11726000  1
  Cu  Cu18  1  0.78924100  0.29379100  0.57606000  1
  Cu  Cu19  1  0.78924100  0.20620900  0.92394000  1
  Cu  Cu20  1  0.21075900  0.29379100  0.42394000  1
  Cu  Cu21  1  0.78924100  0.79379100  0.92394000  1
  Cu  Cu22  1  0.21075900  0.70620900  0.42394000  1
  Cu  Cu23  1  0.21075900  0.79379100  0.07606000  1
  Cu  Cu24  1  0.78924100  0.70620900  0.57606000  1
  Cu  Cu25  1  0.21075900  0.20620900  0.07606000  1
  Cu  Cu26  1  0.22745100  0.00000000  0.84061600  1
  Cu  Cu27  1  0.22745100  0.50000000  0.65938400  1
  Cu  Cu28  1  0.77254900  0.00000000  0.15938400  1
  Cu  Cu29  1  0.77254900  0.50000000  0.34061600  1
