# generated using pymatgen
data_CuNiC4
_symmetry_space_group_name_H-M   'P 1'
_cell_length_a   4.61311171
_cell_length_b   4.61311171
_cell_length_c   6.09925300
_cell_angle_alpha   90.00000000
_cell_angle_beta   90.00000000
_cell_angle_gamma   112.15002807
_symmetry_Int_Tables_number   1
_chemical_formula_structural   CuNiC4
_chemical_formula_sum   'Cu2 Ni2 C8'
_cell_volume   120.21793473
_cell_formula_units_Z   2
loop_
 _symmetry_equiv_pos_site_id
 _symmetry_equiv_pos_as_xyz
  1  'x, y, z'
loop_
 _atom_site_type_symbol
 _atom_site_label
 _atom_site_symmetry_multiplicity
 _atom_site_fract_x
 _atom_site_fract_y
 _atom_site_fract_z
 _atom_site_occupancy
  Ni  Ni0  1  0.00000000  0.00000000  0.50000000  1
  Ni  Ni1  1  0.00000000  0.00000000  0.00000000  1
  Cu  Cu2  1  0.34515900  0.65484100  0.25000000  1
  Cu  Cu3  1  0.65484100  0.34515900  0.75000000  1
  C  C4  1  0.76518700  0.23481300  0.95661100  1
  C  C5  1  0.23481300  0.76518700  0.45661100  1
  C  C6  1  0.23481300  0.76518700  0.04338900  1
  C  C7  1  0.76518700  0.23481300  0.54338900  1
  C  C8  1  0.21730000  0.28404500  0.25000000  1
  C  C9  1  0.78270100  0.71595500  0.75000000  1
  C  C10  1  0.28404500  0.21730000  0.75000000  1
  C  C11  1  0.71595500  0.78270100  0.25000000  1
