# generated using pymatgen
data_Cu2NiC11
_symmetry_space_group_name_H-M   'P 1'
_cell_length_a   17.75439157
_cell_length_b   17.75439157
_cell_length_c   11.74602316
_cell_angle_alpha   89.58808203
_cell_angle_beta   89.58808203
_cell_angle_gamma   22.12444883
_symmetry_Int_Tables_number   1
_chemical_formula_structural   Cu2NiC11
_chemical_formula_sum   'Cu12 Ni6 C66'
_cell_volume   1394.42029290
_cell_formula_units_Z   6
loop_
 _symmetry_equiv_pos_site_id
 _symmetry_equiv_pos_as_xyz
  1  'x, y, z'
loop_
 _atom_site_type_symbol
 _atom_site_label
 _atom_site_symmetry_multiplicity
 _atom_site_fract_x
 _atom_site_fract_y
 _atom_site_fract_z
 _atom_site_occupancy
  Ni  Ni0  1  0.79906500  0.20093500  0.75000000  1
  Ni  Ni1  1  0.20093500  0.79906500  0.25000000  1
  Ni  Ni2  1  0.13704200  0.53098300  0.41921600  1
  Ni  Ni3  1  0.46901700  0.86295800  0.08078400  1
  Ni  Ni4  1  0.86295800  0.46901700  0.58078400  1
  Ni  Ni5  1  0.53098300  0.13704200  0.91921600  1
  Cu  Cu6  1  0.01149900  0.67755800  0.76169100  1
  Cu  Cu7  1  0.32244200  0.98850100  0.73830900  1
  Cu  Cu8  1  0.98850100  0.32244200  0.23830900  1
  Cu  Cu9  1  0.67755800  0.01149900  0.26169100  1
  Cu  Cu10  1  0.66139200  0.31814300  0.40819900  1
  Cu  Cu11  1  0.68185700  0.33860800  0.09180100  1
  Cu  Cu12  1  0.33860800  0.68185700  0.59180100  1
  Cu  Cu13  1  0.31814300  0.66139200  0.90819900  1
  Cu  Cu14  1  0.99348400  0.65329800  0.07606400  1
  Cu  Cu15  1  0.34670200  0.00651600  0.42393600  1
  Cu  Cu16  1  0.00651600  0.34670200  0.92393600  1
  Cu  Cu17  1  0.65329800  0.99348400  0.57606400  1
  C  C18  1  0.08371800  0.48184400  0.41457500  1
  C  C19  1  0.51815600  0.91628200  0.08542500  1
  C  C20  1  0.91628200  0.51815600  0.58542500  1
  C  C21  1  0.48184400  0.08371800  0.91457500  1
  C  C22  1  0.97873200  0.68195900  0.60306600  1
  C  C23  1  0.31804100  0.02126800  0.89693400  1
  C  C24  1  0.02126800  0.31804100  0.39693400  1
  C  C25  1  0.68195900  0.97873200  0.10306600  1
  C  C26  1  0.84385900  0.25872900  0.76080000  1
  C  C27  1  0.74127100  0.15614100  0.73920000  1
  C  C28  1  0.15614100  0.74127100  0.23920000  1
  C  C29  1  0.25872900  0.84385900  0.26080000  1
  C  C30  1  0.56768000  0.43232000  0.25000000  1
  C  C31  1  0.43232000  0.56768000  0.75000000  1
  C  C32  1  0.89978600  0.77007800  0.91892200  1
  C  C33  1  0.22992200  0.10021400  0.58107800  1
  C  C34  1  0.10021400  0.22992200  0.08107800  1
  C  C35  1  0.77007800  0.89978600  0.41892200  1
  C  C36  1  0.67930600  0.43127400  0.39643700  1
  C  C37  1  0.56872600  0.32069400  0.10356300  1
  C  C38  1  0.32069400  0.56872600  0.60356300  1
  C  C39  1  0.43127400  0.67930600  0.89643700  1
  C  C40  1  0.05437100  0.73291300  0.75092500  1
  C  C41  1  0.26708700  0.94562900  0.74907500  1
  C  C42  1  0.94562900  0.26708700  0.24907500  1
  C  C43  1  0.73291300  0.05437100  0.25092500  1
  C  C44  1  0.93713200  0.61172400  0.07475700  1
  C  C45  1  0.38827600  0.06286800  0.42524300  1
  C  C46  1  0.06286800  0.38827600  0.92524300  1
  C  C47  1  0.61172400  0.93713200  0.57475700  1
  C  C48  1  0.60207700  0.27924200  0.41517900  1
  C  C49  1  0.72075800  0.39792300  0.08482100  1
  C  C50  1  0.39792300  0.72075800  0.58482100  1
  C  C51  1  0.27924200  0.60207700  0.91517900  1
  C  C52  1  0.25404900  0.41370300  0.79492800  1
  C  C53  1  0.58629700  0.74595100  0.70507200  1
  C  C54  1  0.74595100  0.58629700  0.20507200  1
  C  C55  1  0.41370300  0.25404900  0.29492800  1
  C  C56  1  0.25543000  0.41468500  0.04229800  1
  C  C57  1  0.58531500  0.74457000  0.45770200  1
  C  C58  1  0.74457000  0.58531500  0.95770200  1
  C  C59  1  0.41468500  0.25543000  0.54229800  1
  C  C60  1  0.92235600  0.07873400  0.37362300  1
  C  C61  1  0.92126600  0.07764400  0.12637700  1
  C  C62  1  0.07764400  0.92126600  0.62637700  1
  C  C63  1  0.07873400  0.92235600  0.87362300  1
  C  C64  1  0.17825500  0.59263800  0.42457000  1
  C  C65  1  0.40736200  0.82174500  0.07543000  1
  C  C66  1  0.82174500  0.40736200  0.57543000  1
  C  C67  1  0.59263800  0.17825500  0.92457000  1
  C  C68  1  0.01182300  0.76632900  0.06504500  1
  C  C69  1  0.23367100  0.98817700  0.43495500  1
  C  C70  1  0.98817700  0.23367100  0.93495500  1
  C  C71  1  0.76632900  0.01182300  0.56504500  1
  C  C72  1  0.65148600  0.35462900  0.56663600  1
  C  C73  1  0.64537100  0.34851400  0.93336400  1
  C  C74  1  0.34851400  0.64537100  0.43336400  1
  C  C75  1  0.35462900  0.65148600  0.06663600  1
  C  C76  1  0.98151000  0.68905400  0.23546100  1
  C  C77  1  0.31094600  0.01849000  0.26453900  1
  C  C78  1  0.01849000  0.31094600  0.76453900  1
  C  C79  1  0.68905400  0.98151000  0.73546100  1
  C  C80  1  0.94706600  0.61111300  0.76397500  1
  C  C81  1  0.38888700  0.05293400  0.73602500  1
  C  C82  1  0.05293400  0.38888700  0.23602500  1
  C  C83  1  0.61111300  0.94706600  0.26397500  1
