# generated using pymatgen
data_Cu2Ni2C17
_symmetry_space_group_name_H-M   'P 1'
_cell_length_a   6.12694400
_cell_length_b   9.00158131
_cell_length_c   11.08869066
_cell_angle_alpha   103.32244022
_cell_angle_beta   97.08644363
_cell_angle_gamma   92.63592619
_symmetry_Int_Tables_number   1
_chemical_formula_structural   Cu2Ni2C17
_chemical_formula_sum   'Cu4 Ni4 C34'
_cell_volume   588.80533276
_cell_formula_units_Z   2
loop_
 _symmetry_equiv_pos_site_id
 _symmetry_equiv_pos_as_xyz
  1  'x, y, z'
loop_
 _atom_site_type_symbol
 _atom_site_label
 _atom_site_symmetry_multiplicity
 _atom_site_fract_x
 _atom_site_fract_y
 _atom_site_fract_z
 _atom_site_occupancy
  Ni  Ni0  1  0.81387600  0.30411200  0.68862600  1
  Ni  Ni1  1  0.18612400  0.69588800  0.31137400  1
  Ni  Ni2  1  0.50000000  0.00000000  0.50000000  1
  Ni  Ni3  1  0.00000000  0.50000000  0.50000000  1
  C  C4  1  0.00000000  0.00000000  0.00000000  1
  C  C5  1  0.00000000  0.00000000  0.50000000  1
  Cu  Cu6  1  0.79270200  0.00309500  0.74013000  1
  Cu  Cu7  1  0.20729800  0.99690500  0.25987000  1
  Cu  Cu8  1  0.69437900  0.68621000  0.36495400  1
  Cu  Cu9  1  0.30562100  0.31379000  0.63504600  1
  C  C10  1  0.82096500  0.17876100  0.80005200  1
  C  C11  1  0.17903500  0.82123900  0.19994800  1
  C  C12  1  0.98945100  0.95574200  0.66647300  1
  C  C13  1  0.01054900  0.04425800  0.33352700  1
  C  C14  1  0.57102100  0.95810900  0.65634200  1
  C  C15  1  0.42897900  0.04189100  0.34365800  1
  C  C16  1  0.80676100  0.92313400  0.85191600  1
  C  C17  1  0.19323900  0.07686600  0.14808400  1
  C  C18  1  0.70947200  0.86077800  0.43305300  1
  C  C19  1  0.29052800  0.13922200  0.56694700  1
  C  C20  1  0.53494700  0.35946900  0.70866800  1
  C  C21  1  0.46505300  0.64053100  0.29133200  1
  C  C22  1  0.87286800  0.66770900  0.27504500  1
  C  C23  1  0.12713200  0.33229100  0.72495500  1
  C  C24  1  0.74779900  0.59478100  0.46481100  1
  C  C25  1  0.25220100  0.40521900  0.53518900  1
  C  C26  1  0.89388800  0.48187200  0.64790200  1
  C  C27  1  0.10611200  0.51812800  0.35209800  1
  C  C28  1  0.76493200  0.15011500  0.54283700  1
  C  C29  1  0.23506800  0.84988500  0.45716300  1
  C  C30  1  0.75038000  0.22733800  0.14678100  1
  C  C31  1  0.24962000  0.77266200  0.85321900  1
  C  C32  1  0.73231300  0.07006600  0.08977300  1
  C  C33  1  0.26768700  0.92993400  0.91022700  1
  C  C34  1  0.84826200  0.59200300  0.93278500  1
  C  C35  1  0.15173800  0.40799700  0.06721500  1
  C  C36  1  0.81757600  0.30332600  0.41379400  1
  C  C37  1  0.18242400  0.69667400  0.58620600  1
  C  C38  1  0.68296100  0.61411900  0.98551300  1
  C  C39  1  0.31703900  0.38588100  0.01448700  1
  C  C40  1  0.63410900  0.26682500  0.23224200  1
  C  C41  1  0.36589100  0.73317500  0.76775800  1
