# generated using pymatgen
data_Cu3Ni2C3
_symmetry_space_group_name_H-M   'P 1'
_cell_length_a   5.96696390
_cell_length_b   5.96696390
_cell_length_c   9.38175800
_cell_angle_alpha   90.00000000
_cell_angle_beta   90.00000000
_cell_angle_gamma   102.98067103
_symmetry_Int_Tables_number   1
_chemical_formula_structural   Cu3Ni2C3
_chemical_formula_sum   'Cu6 Ni4 C6'
_cell_volume   325.49834059
_cell_formula_units_Z   2
loop_
 _symmetry_equiv_pos_site_id
 _symmetry_equiv_pos_as_xyz
  1  'x, y, z'
loop_
 _atom_site_type_symbol
 _atom_site_label
 _atom_site_symmetry_multiplicity
 _atom_site_fract_x
 _atom_site_fract_y
 _atom_site_fract_z
 _atom_site_occupancy
  C  C0  1  0.65370800  0.65370800  0.25000000  1
  C  C1  1  0.34629200  0.34629200  0.75000000  1
  C  C2  1  0.80096100  0.19903900  0.00000000  1
  C  C3  1  0.19903900  0.80096100  0.00000000  1
  C  C4  1  0.19903900  0.80096100  0.50000000  1
  C  C5  1  0.80096100  0.19903900  0.50000000  1
  Ni  Ni6  1  0.32148800  0.32148800  0.05009500  1
  Ni  Ni7  1  0.67851200  0.67851200  0.94990500  1
  Ni  Ni8  1  0.67851200  0.67851200  0.55009500  1
  Ni  Ni9  1  0.32148800  0.32148800  0.44990500  1
  Cu  Cu10  1  0.08743100  0.49496600  0.25000000  1
  Cu  Cu11  1  0.91256900  0.50503400  0.75000000  1
  Cu  Cu12  1  0.49496600  0.08743100  0.25000000  1
  Cu  Cu13  1  0.50503400  0.91256900  0.75000000  1
  Cu  Cu14  1  0.04046800  0.04046800  0.25000000  1
  Cu  Cu15  1  0.95953200  0.95953200  0.75000000  1
