# generated using pymatgen
data_Cu9Ni2C
_symmetry_space_group_name_H-M   'P 1'
_cell_length_a   5.94079136
_cell_length_b   9.62984885
_cell_length_c   14.61207400
_cell_angle_alpha   90.00000000
_cell_angle_beta   90.00000000
_cell_angle_gamma   98.63170073
_symmetry_Int_Tables_number   1
_chemical_formula_structural   Cu9Ni2C
_chemical_formula_sum   'Cu36 Ni8 C4'
_cell_volume   826.47272334
_cell_formula_units_Z   4
loop_
 _symmetry_equiv_pos_site_id
 _symmetry_equiv_pos_as_xyz
  1  'x, y, z'
loop_
 _atom_site_type_symbol
 _atom_site_label
 _atom_site_symmetry_multiplicity
 _atom_site_fract_x
 _atom_site_fract_y
 _atom_site_fract_z
 _atom_site_occupancy
  C  C0  1  0.65956800  0.27797800  0.56745600  1
  C  C1  1  0.34043200  0.22202200  0.06745600  1
  C  C2  1  0.34043200  0.72202200  0.43254400  1
  C  C3  1  0.65956800  0.77797800  0.93254400  1
  Ni  Ni4  1  0.60933200  0.44747400  0.36176300  1
  Ni  Ni5  1  0.39066800  0.05252600  0.86176300  1
  Ni  Ni6  1  0.39066800  0.55252600  0.63823700  1
  Ni  Ni7  1  0.60933200  0.94747400  0.13823700  1
  Ni  Ni8  1  0.00105900  0.06330200  0.40541900  1
  Ni  Ni9  1  0.99894100  0.43669800  0.90541900  1
  Ni  Ni10  1  0.99894100  0.93669800  0.59458100  1
  Ni  Ni11  1  0.00105900  0.56330200  0.09458100  1
  Cu  Cu12  1  0.40709500  0.14680900  0.56010300  1
  Cu  Cu13  1  0.59290500  0.35319100  0.06010300  1
  Cu  Cu14  1  0.59290500  0.85319100  0.43989700  1
  Cu  Cu15  1  0.40709500  0.64680900  0.93989700  1
  Cu  Cu16  1  0.93639100  0.38083800  0.58150800  1
  Cu  Cu17  1  0.06360900  0.11916200  0.08150800  1
  Cu  Cu18  1  0.06360900  0.61916200  0.41849200  1
  Cu  Cu19  1  0.93639100  0.88083800  0.91849200  1
  Cu  Cu20  1  0.59879900  0.36371600  0.43473200  1
  Cu  Cu21  1  0.40120100  0.13628400  0.93473200  1
  Cu  Cu22  1  0.40120100  0.63628400  0.56526800  1
  Cu  Cu23  1  0.59879900  0.86371600  0.06526800  1
  Cu  Cu24  1  0.49135000  0.43949100  0.62646000  1
  Cu  Cu25  1  0.50865000  0.06050900  0.12646000  1
  Cu  Cu26  1  0.50865000  0.56050900  0.37354000  1
  Cu  Cu27  1  0.49135000  0.93949100  0.87354000  1
  Cu  Cu28  1  0.89522800  0.13957900  0.44323300  1
  Cu  Cu29  1  0.10477200  0.36042100  0.94323300  1
  Cu  Cu30  1  0.10477200  0.86042100  0.55676700  1
  Cu  Cu31  1  0.89522800  0.63957900  0.05676700  1
  Cu  Cu32  1  0.88760400  0.01109100  0.63064300  1
  Cu  Cu33  1  0.11239600  0.48890900  0.13064300  1
  Cu  Cu34  1  0.11239600  0.98890900  0.36935700  1
  Cu  Cu35  1  0.88760400  0.51109100  0.86935700  1
  Cu  Cu36  1  0.77684700  0.21265700  0.75215500  1
  Cu  Cu37  1  0.22315300  0.28734300  0.25215500  1
  Cu  Cu38  1  0.22315300  0.78734300  0.24784500  1
  Cu  Cu39  1  0.77684700  0.71265700  0.74784500  1
  Cu  Cu40  1  0.30227500  0.07848300  0.78880800  1
  Cu  Cu41  1  0.69772500  0.42151700  0.28880800  1
  Cu  Cu42  1  0.69772500  0.92151700  0.21119200  1
  Cu  Cu43  1  0.30227500  0.57848300  0.71119200  1
  Cu  Cu44  1  0.98412500  0.24426600  0.76508700  1
  Cu  Cu45  1  0.01587500  0.25573400  0.26508700  1
  Cu  Cu46  1  0.01587500  0.75573400  0.23491300  1
  Cu  Cu47  1  0.98412500  0.74426600  0.73491300  1
