# generated using pymatgen
data_CuNiC
_symmetry_space_group_name_H-M   'P 1'
_cell_length_a   4.83227400
_cell_length_b   7.53386000
_cell_length_c   8.17349900
_cell_angle_alpha   90.00000000
_cell_angle_beta   90.00000000
_cell_angle_gamma   90.00000000
_symmetry_Int_Tables_number   1
_chemical_formula_structural   CuNiC
_chemical_formula_sum   'Cu4 Ni4 C4'
_cell_volume   297.56175473
_cell_formula_units_Z   4
loop_
 _symmetry_equiv_pos_site_id
 _symmetry_equiv_pos_as_xyz
  1  'x, y, z'
loop_
 _atom_site_type_symbol
 _atom_site_label
 _atom_site_symmetry_multiplicity
 _atom_site_fract_x
 _atom_site_fract_y
 _atom_site_fract_z
 _atom_site_occupancy
  C  C0  1  0.75000000  0.00638700  0.29391700  1
  C  C1  1  0.25000000  0.99361300  0.70608300  1
  C  C2  1  0.25000000  0.49361300  0.79391700  1
  C  C3  1  0.75000000  0.50638700  0.20608300  1
  Ni  Ni4  1  0.75000000  0.69771300  0.59258800  1
  Ni  Ni5  1  0.25000000  0.30228700  0.40741200  1
  Ni  Ni6  1  0.25000000  0.80228700  0.09258800  1
  Ni  Ni7  1  0.75000000  0.19771300  0.90741200  1
  Cu  Cu8  1  0.75000000  0.80594400  0.92273800  1
  Cu  Cu9  1  0.25000000  0.19405600  0.07726200  1
  Cu  Cu10  1  0.25000000  0.69405600  0.42273800  1
  Cu  Cu11  1  0.75000000  0.30594400  0.57726200  1
