# generated using pymatgen
data_CuNiC5
_symmetry_space_group_name_H-M   'P 1'
_cell_length_a   8.62426055
_cell_length_b   8.62426055
_cell_length_c   8.62426067
_cell_angle_alpha   107.86125034
_cell_angle_beta   107.86125034
_cell_angle_gamma   107.86124278
_symmetry_Int_Tables_number   1
_chemical_formula_structural   CuNiC5
_chemical_formula_sum   'Cu6 Ni6 C30'
_cell_volume   521.14934524
_cell_formula_units_Z   6
loop_
 _symmetry_equiv_pos_site_id
 _symmetry_equiv_pos_as_xyz
  1  'x, y, z'
loop_
 _atom_site_type_symbol
 _atom_site_label
 _atom_site_symmetry_multiplicity
 _atom_site_fract_x
 _atom_site_fract_y
 _atom_site_fract_z
 _atom_site_occupancy
  C  C0  1  0.05849400  0.22950900  0.45754700  1
  C  C1  1  0.45754700  0.05849400  0.22950900  1
  C  C2  1  0.22950900  0.45754700  0.05849400  1
  C  C3  1  0.94089900  0.77028900  0.54171600  1
  C  C4  1  0.54171600  0.94089900  0.77028900  1
  C  C5  1  0.77028900  0.54171600  0.94089900  1
  Ni  Ni6  1  0.13188400  0.72207100  0.89952800  1
  Ni  Ni7  1  0.89952800  0.13188400  0.72207100  1
  Ni  Ni8  1  0.72207100  0.89952800  0.13188400  1
  Ni  Ni9  1  0.61340000  0.43311300  0.20698700  1
  Ni  Ni10  1  0.20698700  0.61340000  0.43311300  1
  Ni  Ni11  1  0.43311300  0.20698700  0.61340000  1
  Cu  Cu12  1  0.86829000  0.27859800  0.10047300  1
  Cu  Cu13  1  0.10047300  0.86829000  0.27859800  1
  Cu  Cu14  1  0.27859800  0.10047300  0.86829000  1
  Cu  Cu15  1  0.38648200  0.56746100  0.79374400  1
  Cu  Cu16  1  0.79374400  0.38648200  0.56746100  1
  Cu  Cu17  1  0.56746100  0.79374400  0.38648200  1
  C  C18  1  0.25215900  0.58797400  0.91040800  1
  C  C19  1  0.91040800  0.25215900  0.58797400  1
  C  C20  1  0.58797400  0.91040800  0.25215900  1
  C  C21  1  0.74773400  0.41084400  0.08929500  1
  C  C22  1  0.08929500  0.74773400  0.41084400  1
  C  C23  1  0.41084400  0.08929500  0.74773400  1
  C  C24  1  0.32569700  0.04425000  0.38109000  1
  C  C25  1  0.38109000  0.32569700  0.04425000  1
  C  C26  1  0.04425000  0.38109000  0.32569600  1
  C  C27  1  0.67325800  0.95515100  0.61811500  1
  C  C28  1  0.61811500  0.67325800  0.95515100  1
  C  C29  1  0.95515100  0.61811500  0.67325800  1
  C  C30  1  0.35719200  0.68726900  0.66140000  1
  C  C31  1  0.66140000  0.35719200  0.68726900  1
  C  C32  1  0.68726900  0.66140000  0.35719200  1
  C  C33  1  0.64362200  0.31276800  0.33950800  1
  C  C34  1  0.33950800  0.64362200  0.31276800  1
  C  C35  1  0.31276800  0.33950800  0.64362200  1
  C  C36  1  0.04976100  0.02961300  0.71995700  1
  C  C37  1  0.71995700  0.04976100  0.02961300  1
  C  C38  1  0.02961300  0.71995700  0.04976100  1
  C  C39  1  0.95137800  0.97051900  0.28055100  1
  C  C40  1  0.28055100  0.95137800  0.97051900  1
  C  C41  1  0.97051900  0.28055100  0.95137800  1
