# generated using pymatgen
data_CuNi4C7
_symmetry_space_group_name_H-M   'P 1'
_cell_length_a   10.84631900
_cell_length_b   9.22729500
_cell_length_c   10.76877283
_cell_angle_alpha   78.23056993
_cell_angle_beta   90.00000000
_cell_angle_gamma   90.00000000
_symmetry_Int_Tables_number   1
_chemical_formula_structural   CuNi4C7
_chemical_formula_sum   'Cu8 Ni32 C56'
_cell_volume   1055.10382582
_cell_formula_units_Z   8
loop_
 _symmetry_equiv_pos_site_id
 _symmetry_equiv_pos_as_xyz
  1  'x, y, z'
loop_
 _atom_site_type_symbol
 _atom_site_label
 _atom_site_symmetry_multiplicity
 _atom_site_fract_x
 _atom_site_fract_y
 _atom_site_fract_z
 _atom_site_occupancy
  C  C0  1  0.45494800  0.78146300  0.82073000  1
  C  C1  1  0.95494800  0.21853700  0.17927000  1
  C  C2  1  0.93685500  0.72094200  0.17549800  1
  C  C3  1  0.43685500  0.27905800  0.82450200  1
  C  C4  1  0.32771900  0.65527300  0.20858300  1
  C  C5  1  0.82771900  0.34472700  0.79141700  1
  C  C6  1  0.06019000  0.84286100  0.79086600  1
  C  C7  1  0.56019000  0.15713900  0.20913400  1
  Ni  Ni8  1  0.79246400  0.70934600  0.41277000  1
  Ni  Ni9  1  0.29246400  0.29065400  0.58723000  1
  Ni  Ni10  1  0.17266400  0.43077700  0.32952900  1
  Ni  Ni11  1  0.67266400  0.56922300  0.67047100  1
  Ni  Ni12  1  0.99814200  0.93176000  0.40421000  1
  Ni  Ni13  1  0.49814200  0.06824000  0.59579000  1
  Ni  Ni14  1  0.16593800  0.55799600  0.41080700  1
  Ni  Ni15  1  0.66593800  0.44200400  0.58919300  1
  Ni  Ni16  1  0.09783300  0.21138700  0.42011000  1
  Ni  Ni17  1  0.59783300  0.78861300  0.57989000  1
  Ni  Ni18  1  0.37151400  0.35707200  0.09546600  1
  Ni  Ni19  1  0.87151400  0.64292800  0.90453400  1
  Ni  Ni20  1  0.22332900  0.17520400  0.36388200  1
  Ni  Ni21  1  0.72332900  0.82479600  0.63611800  1
  Ni  Ni22  1  0.51882600  0.85599000  0.09531500  1
  Ni  Ni23  1  0.01882600  0.14401000  0.90468500  1
  Ni  Ni24  1  0.11082900  0.93343500  0.31860500  1
  Ni  Ni25  1  0.61082900  0.06656500  0.68139500  1
  Ni  Ni26  1  0.22921400  0.93596800  0.58915800  1
  Ni  Ni27  1  0.72921400  0.06403200  0.41084200  1
  Ni  Ni28  1  0.56843800  0.68936100  0.10249200  1
  Ni  Ni29  1  0.06843800  0.31063900  0.89750800  1
  Ni  Ni30  1  0.72415500  0.94113300  0.32584100  1
  Ni  Ni31  1  0.22415500  0.05886700  0.67415900  1
  Ni  Ni32  1  0.31993200  0.18887600  0.10746900  1
  Ni  Ni33  1  0.81993200  0.81112400  0.89253100  1
  Ni  Ni34  1  0.28256600  0.57305800  0.67646900  1
  Ni  Ni35  1  0.78256600  0.42694200  0.32353100  1
  Ni  Ni36  1  0.67368800  0.68235600  0.34095000  1
  Ni  Ni37  1  0.17368800  0.31764400  0.65905000  1
  Ni  Ni38  1  0.39884500  0.55392000  0.60089500  1
  Ni  Ni39  1  0.89884500  0.44608000  0.39910500  1
  Cu  Cu40  1  0.38987700  0.89209100  0.39589100  1
  Cu  Cu41  1  0.88987700  0.10790900  0.60410900  1
  Cu  Cu42  1  0.50124100  0.39287100  0.39583700  1
  Cu  Cu43  1  0.00124100  0.60712900  0.60416300  1
  Cu  Cu44  1  0.20915500  0.96960200  0.02805400  1
  Cu  Cu45  1  0.70915500  0.03039800  0.97194600  1
  Cu  Cu46  1  0.67979100  0.46952100  0.02856400  1
  Cu  Cu47  1  0.17979100  0.53047900  0.97143600  1
  C  C48  1  0.27255100  0.96132100  0.42433100  1
  C  C49  1  0.77255100  0.03867900  0.57566900  1
  C  C50  1  0.48089300  0.89177900  0.49609700  1
  C  C51  1  0.98089300  0.10822100  0.50390300  1
  C  C52  1  0.73801200  0.75662800  0.34244300  1
  C  C53  1  0.23801200  0.24337200  0.65755700  1
  C  C54  1  0.45416500  0.47311700  0.26822500  1
  C  C55  1  0.95416500  0.52688300  0.73177500  1
  C  C56  1  0.32391000  0.97777600  0.95663200  1
  C  C57  1  0.82391000  0.02222400  0.04336800  1
  C  C58  1  0.06506400  0.52267300  0.04299300  1
  C  C59  1  0.56506400  0.47732700  0.95700700  1
  C  C60  1  0.21895400  0.94887300  0.67838400  1
  C  C61  1  0.71895400  0.05112700  0.32161600  1
  C  C62  1  0.49194300  0.75172400  0.10142800  1
  C  C63  1  0.99194300  0.24827600  0.89857200  1
  C  C64  1  0.15898900  0.25187400  0.35368600  1
  C  C65  1  0.65898900  0.74812600  0.64631400  1
  C  C66  1  0.39648200  0.25171700  0.10358500  1
  C  C67  1  0.89648200  0.74828300  0.89641500  1
  C  C68  1  0.02083900  0.92653200  0.31726400  1
  C  C69  1  0.52083900  0.07346800  0.68273600  1
  C  C70  1  0.09753400  0.97076300  0.94045100  1
  C  C71  1  0.59753400  0.02923700  0.05954900  1
  C  C72  1  0.69642100  0.59323800  0.09435400  1
  C  C73  1  0.19642100  0.40676200  0.90564600  1
  C  C74  1  0.19226700  0.09314600  0.09422400  1
  C  C75  1  0.69226700  0.90685400  0.90577600  1
  C  C76  1  0.43782300  0.97148400  0.26833100  1
  C  C77  1  0.93782300  0.02851600  0.73166900  1
  C  C78  1  0.41080700  0.39597800  0.49664000  1
  C  C79  1  0.91080700  0.60402200  0.50336000  1
  C  C80  1  0.17326200  0.54235700  0.32220200  1
  C  C81  1  0.67326200  0.45764300  0.67779800  1
  C  C82  1  0.37250100  0.57204300  0.68353500  1
  C  C83  1  0.87250100  0.42795700  0.31646500  1
  C  C84  1  0.12066000  0.54255700  0.57733200  1
  C  C85  1  0.62066000  0.45744300  0.42266800  1
  C  C86  1  0.29186400  0.52925400  0.05850700  1
  C  C87  1  0.79186400  0.47074600  0.94149300  1
  C  C88  1  0.36598600  0.73528400  0.38068300  1
  C  C89  1  0.86598600  0.26471600  0.61931700  1
  C  C90  1  0.19049000  0.67613100  0.87547500  1
  C  C91  1  0.69049000  0.32386900  0.12452500  1
  C  C92  1  0.01917500  0.76584500  0.61798800  1
  C  C93  1  0.51917500  0.23415500  0.38201200  1
  C  C94  1  0.19825400  0.82423900  0.12460000  1
  C  C95  1  0.69825400  0.17576100  0.87540000  1
