# generated using pymatgen
data_Cu(NiC4)3
_symmetry_space_group_name_H-M   'P 1'
_cell_length_a   5.44551111
_cell_length_b   5.79688890
_cell_length_c   8.19147723
_cell_angle_alpha   94.04700754
_cell_angle_beta   88.54030172
_cell_angle_gamma   91.52008168
_symmetry_Int_Tables_number   1
_chemical_formula_structural   Cu(NiC4)3
_chemical_formula_sum   'Cu1 Ni3 C12'
_cell_volume   257.77276913
_cell_formula_units_Z   1
loop_
 _symmetry_equiv_pos_site_id
 _symmetry_equiv_pos_as_xyz
  1  'x, y, z'
loop_
 _atom_site_type_symbol
 _atom_site_label
 _atom_site_symmetry_multiplicity
 _atom_site_fract_x
 _atom_site_fract_y
 _atom_site_fract_z
 _atom_site_occupancy
  Ni  Ni0  1  0.00000000  0.00000000  0.00000000  1
  Ni  Ni1  1  0.50000000  0.50000000  0.50000000  1
  Ni  Ni2  1  0.00000000  0.00000000  0.50000000  1
  Cu  Cu3  1  0.50000000  0.50000000  0.00000000  1
  C  C4  1  0.94754200  0.99023600  0.74738200  1
  C  C5  1  0.17908800  0.33697300  0.54441300  1
  C  C6  1  0.24382600  0.63476300  0.91921900  1
  C  C7  1  0.34509200  0.49258500  0.19173200  1
  C  C8  1  0.37044200  0.22156700  0.93734400  1
  C  C9  1  0.34029200  0.80506000  0.52477000  1
  C  C10  1  0.65970800  0.19494000  0.47523000  1
  C  C11  1  0.62955800  0.77843300  0.06265600  1
  C  C12  1  0.65490800  0.50741500  0.80826800  1
  C  C13  1  0.75617400  0.36523700  0.08078100  1
  C  C14  1  0.82091200  0.66302700  0.45558700  1
  C  C15  1  0.05245800  0.00976400  0.25261800  1
