# generated using pymatgen
data_Cu6NiC8
_symmetry_space_group_name_H-M   'P 1'
_cell_length_a   10.48922290
_cell_length_b   10.48922290
_cell_length_c   15.12246873
_cell_angle_alpha   56.55264457
_cell_angle_beta   56.55264457
_cell_angle_gamma   24.57608132
_symmetry_Int_Tables_number   1
_chemical_formula_structural   Cu6NiC8
_chemical_formula_sum   'Cu24 Ni4 C32'
_cell_volume   571.38304951
_cell_formula_units_Z   4
loop_
 _symmetry_equiv_pos_site_id
 _symmetry_equiv_pos_as_xyz
  1  'x, y, z'
loop_
 _atom_site_type_symbol
 _atom_site_label
 _atom_site_symmetry_multiplicity
 _atom_site_fract_x
 _atom_site_fract_y
 _atom_site_fract_z
 _atom_site_occupancy
  C  C0  1  0.70024500  0.92138400  0.60342300  1
  C  C1  1  0.29975500  0.07861600  0.39657700  1
  C  C2  1  0.07861600  0.29975500  0.89657700  1
  C  C3  1  0.92138400  0.70024500  0.10342300  1
  C  C4  1  0.62065000  0.30008700  0.87868600  1
  C  C5  1  0.37935000  0.69991300  0.12131400  1
  C  C6  1  0.69991300  0.37935000  0.62131400  1
  C  C7  1  0.30008700  0.62065000  0.37868600  1
  C  C8  1  0.82114500  0.89380700  0.15756000  1
  C  C9  1  0.17885500  0.10619300  0.84244000  1
  C  C10  1  0.10619300  0.17885500  0.34244000  1
  C  C11  1  0.89380700  0.82114500  0.65756000  1
  C  C12  1  0.94480000  0.02890300  0.66754100  1
  C  C13  1  0.05520000  0.97109700  0.33245900  1
  C  C14  1  0.97109700  0.05520000  0.83245900  1
  C  C15  1  0.02890300  0.94480000  0.16754100  1
  C  C16  1  0.87706800  0.93626400  0.01844400  1
  C  C17  1  0.12293200  0.06373600  0.98155600  1
  C  C18  1  0.06373600  0.12293200  0.48155600  1
  C  C19  1  0.93626400  0.87706800  0.51844400  1
  C  C20  1  0.61435300  0.27005700  0.59569900  1
  C  C21  1  0.38564700  0.72994300  0.40430100  1
  C  C22  1  0.72994300  0.38564700  0.90430100  1
  C  C23  1  0.27005700  0.61435300  0.09569900  1
  Ni  Ni24  1  0.33005100  0.30987500  0.90109200  1
  Ni  Ni25  1  0.66994900  0.69012500  0.09890800  1
  Ni  Ni26  1  0.69012500  0.66994900  0.59890800  1
  Ni  Ni27  1  0.30987500  0.33005100  0.40109200  1
  Cu  Cu28  1  0.31870100  0.86369000  0.72130200  1
  Cu  Cu29  1  0.68129900  0.13631000  0.27869800  1
  Cu  Cu30  1  0.13631000  0.68129900  0.77869800  1
  Cu  Cu31  1  0.86369000  0.31870100  0.22130200  1
  Cu  Cu32  1  0.35218200  0.96235100  0.71842900  1
  Cu  Cu33  1  0.64781800  0.03764900  0.28157100  1
  Cu  Cu34  1  0.03764900  0.64781800  0.78157100  1
  Cu  Cu35  1  0.96235100  0.35218200  0.21842900  1
  Cu  Cu36  1  0.52853100  0.67929900  0.64676200  1
  Cu  Cu37  1  0.47146900  0.32070100  0.35323800  1
  Cu  Cu38  1  0.32070100  0.47146900  0.85323800  1
  Cu  Cu39  1  0.67929900  0.52853100  0.14676200  1
  Cu  Cu40  1  0.50570800  0.06596700  0.98269300  1
  Cu  Cu41  1  0.49429200  0.93403300  0.01730700  1
  Cu  Cu42  1  0.93403300  0.49429200  0.51730700  1
  Cu  Cu43  1  0.06596700  0.50570800  0.48269300  1
  Cu  Cu44  1  0.58246300  0.84505800  0.64260600  1
  Cu  Cu45  1  0.41753700  0.15494200  0.35739400  1
  Cu  Cu46  1  0.15494200  0.41753700  0.85739400  1
  Cu  Cu47  1  0.84505800  0.58246300  0.14260600  1
  Cu  Cu48  1  0.78533200  0.94891600  0.59071900  1
  Cu  Cu49  1  0.21466800  0.05108400  0.40928100  1
  Cu  Cu50  1  0.05108400  0.21466800  0.90928100  1
  Cu  Cu51  1  0.94891600  0.78533200  0.09071900  1
  C  C52  1  0.80265300  0.17452600  0.89344100  1
  C  C53  1  0.19734700  0.82547400  0.10655900  1
  C  C54  1  0.82547400  0.19734700  0.60655900  1
  C  C55  1  0.17452600  0.80265300  0.39344100  1
  C  C56  1  0.52555100  0.26944700  0.58707200  1
  C  C57  1  0.47444900  0.73055300  0.41292800  1
  C  C58  1  0.73055300  0.47444900  0.91292800  1
  C  C59  1  0.26944700  0.52555100  0.08707200  1
