# generated using pymatgen
data_Cu(NiC5)2
_symmetry_space_group_name_H-M   'P 1'
_cell_length_a   8.39809300
_cell_length_b   6.45439300
_cell_length_c   12.01013798
_cell_angle_alpha   88.49792293
_cell_angle_beta   90.00000000
_cell_angle_gamma   90.00000000
_symmetry_Int_Tables_number   1
_chemical_formula_structural   Cu(NiC5)2
_chemical_formula_sum   'Cu4 Ni8 C40'
_cell_volume   650.78093588
_cell_formula_units_Z   4
loop_
 _symmetry_equiv_pos_site_id
 _symmetry_equiv_pos_as_xyz
  1  'x, y, z'
loop_
 _atom_site_type_symbol
 _atom_site_label
 _atom_site_symmetry_multiplicity
 _atom_site_fract_x
 _atom_site_fract_y
 _atom_site_fract_z
 _atom_site_occupancy
  Ni  Ni0  1  0.54296700  0.90053300  0.84147500  1
  Ni  Ni1  1  0.95703300  0.90053300  0.34147500  1
  Ni  Ni2  1  0.91035500  0.39111200  0.13639500  1
  Ni  Ni3  1  0.04296700  0.09946700  0.65852500  1
  Ni  Ni4  1  0.08964500  0.60888800  0.86360500  1
  Ni  Ni5  1  0.41035500  0.60888800  0.36360500  1
  Ni  Ni6  1  0.58964500  0.39111200  0.63639500  1
  Ni  Ni7  1  0.45703300  0.09946700  0.15852500  1
  Cu  Cu8  1  0.84105800  0.88980800  0.05052900  1
  Cu  Cu9  1  0.15894200  0.11019200  0.94947100  1
  Cu  Cu10  1  0.34105800  0.11019200  0.44947100  1
  Cu  Cu11  1  0.65894200  0.88980800  0.55052900  1
  C  C12  1  0.81626200  0.23724800  0.87563600  1
  C  C13  1  0.94046200  0.62450700  0.62808900  1
  C  C14  1  0.05953800  0.37549300  0.37191100  1
  C  C15  1  0.18373800  0.76275200  0.12436400  1
  C  C16  1  0.68373800  0.23724800  0.37563600  1
  C  C17  1  0.55953800  0.62450700  0.12808900  1
  C  C18  1  0.31626200  0.76275200  0.62436400  1
  C  C19  1  0.44046200  0.37549300  0.87191100  1
  C  C20  1  0.75679600  0.97120600  0.39836400  1
  C  C21  1  0.98489200  0.34896800  0.60256000  1
  C  C22  1  0.42200400  0.80390200  0.47650100  1
  C  C23  1  0.92200400  0.19609800  0.02349900  1
  C  C24  1  0.74320400  0.97120600  0.89836400  1
  C  C25  1  0.24320400  0.02879400  0.60163600  1
  C  C26  1  0.89210300  0.90449400  0.61435600  1
  C  C27  1  0.10324100  0.50041700  0.14146800  1
  C  C28  1  0.39675900  0.50041700  0.64146800  1
  C  C29  1  0.12619700  0.69165800  0.70975600  1
  C  C30  1  0.62619700  0.30834200  0.79024400  1
  C  C31  1  0.89675900  0.49958300  0.85853200  1
  C  C32  1  0.10789700  0.09550600  0.38564400  1
  C  C33  1  0.46629600  0.11926900  0.30707500  1
  C  C34  1  0.73094200  0.58344500  0.58586800  1
  C  C35  1  0.76905800  0.58344500  0.08586800  1
  C  C36  1  0.96629600  0.88073100  0.19292500  1
  C  C37  1  0.60324100  0.49958300  0.35853200  1
  C  C38  1  0.53370400  0.88073100  0.69292500  1
  C  C39  1  0.57799600  0.19609800  0.52349900  1
  C  C40  1  0.51510800  0.34896800  0.10256000  1
  C  C41  1  0.87380300  0.30834200  0.29024400  1
  C  C42  1  0.25679600  0.02879400  0.10163600  1
  C  C43  1  0.60789700  0.90449400  0.11435600  1
  C  C44  1  0.07799600  0.80390200  0.97650100  1
  C  C45  1  0.23094200  0.41655500  0.91413200  1
  C  C46  1  0.01510800  0.65103200  0.39744000  1
  C  C47  1  0.48489200  0.65103200  0.89744000  1
  C  C48  1  0.39210300  0.09550600  0.88564400  1
  C  C49  1  0.26905800  0.41655500  0.41413200  1
  C  C50  1  0.37380300  0.69165800  0.20975600  1
  C  C51  1  0.03370400  0.11926900  0.80707500  1
