# generated using pymatgen
data_Cu2NiC4
_symmetry_space_group_name_H-M   'P 1'
_cell_length_a   3.48497400
_cell_length_b   10.50328400
_cell_length_c   12.22592300
_cell_angle_alpha   90.00000000
_cell_angle_beta   90.00000000
_cell_angle_gamma   90.00000000
_symmetry_Int_Tables_number   1
_chemical_formula_structural   Cu2NiC4
_chemical_formula_sum   'Cu8 Ni4 C16'
_cell_volume   447.51367117
_cell_formula_units_Z   4
loop_
 _symmetry_equiv_pos_site_id
 _symmetry_equiv_pos_as_xyz
  1  'x, y, z'
loop_
 _atom_site_type_symbol
 _atom_site_label
 _atom_site_symmetry_multiplicity
 _atom_site_fract_x
 _atom_site_fract_y
 _atom_site_fract_z
 _atom_site_occupancy
  Ni  Ni0  1  0.75000000  0.25319900  0.14850500  1
  Ni  Ni1  1  0.75000000  0.75319900  0.35149500  1
  Ni  Ni2  1  0.25000000  0.74680100  0.85149500  1
  Ni  Ni3  1  0.25000000  0.24680100  0.64850500  1
  Cu  Cu4  1  0.75000000  0.42244700  0.89064300  1
  Cu  Cu5  1  0.75000000  0.92244700  0.60935700  1
  Cu  Cu6  1  0.25000000  0.57755300  0.10935700  1
  Cu  Cu7  1  0.25000000  0.07755300  0.39064300  1
  Cu  Cu8  1  0.75000000  0.92610800  0.11118500  1
  Cu  Cu9  1  0.75000000  0.42610800  0.38881500  1
  Cu  Cu10  1  0.25000000  0.07389200  0.88881500  1
  Cu  Cu11  1  0.25000000  0.57389200  0.61118500  1
  C  C12  1  0.75000000  0.20957300  0.83996100  1
  C  C13  1  0.75000000  0.70957300  0.66003900  1
  C  C14  1  0.25000000  0.79042700  0.16003900  1
  C  C15  1  0.25000000  0.29042700  0.33996100  1
  C  C16  1  0.75000000  0.11539900  0.51742700  1
  C  C17  1  0.75000000  0.61539900  0.98257300  1
  C  C18  1  0.25000000  0.88460100  0.48257300  1
  C  C19  1  0.25000000  0.38460100  0.01742700  1
  C  C20  1  0.75000000  0.01792400  0.28301800  1
  C  C21  1  0.75000000  0.51792400  0.21698200  1
  C  C22  1  0.25000000  0.98207600  0.71698200  1
  C  C23  1  0.25000000  0.48207600  0.78301800  1
  C  C24  1  0.75000000  0.42984900  0.57401300  1
  C  C25  1  0.75000000  0.92984900  0.92598700  1
  C  C26  1  0.25000000  0.57015100  0.42598700  1
  C  C27  1  0.25000000  0.07015100  0.07401300  1
