# generated using pymatgen
data_Cu10NiC9
_symmetry_space_group_name_H-M   'P 1'
_cell_length_a   7.57983700
_cell_length_b   9.99154600
_cell_length_c   12.87883600
_cell_angle_alpha   90.00000000
_cell_angle_beta   90.00000000
_cell_angle_gamma   90.00000000
_symmetry_Int_Tables_number   1
_chemical_formula_structural   Cu10NiC9
_chemical_formula_sum   'Cu40 Ni4 C36'
_cell_volume   975.36950123
_cell_formula_units_Z   4
loop_
 _symmetry_equiv_pos_site_id
 _symmetry_equiv_pos_as_xyz
  1  'x, y, z'
loop_
 _atom_site_type_symbol
 _atom_site_label
 _atom_site_symmetry_multiplicity
 _atom_site_fract_x
 _atom_site_fract_y
 _atom_site_fract_z
 _atom_site_occupancy
  C  C0  1  0.50000000  0.00000000  0.50000000  1
  C  C1  1  0.00000000  0.50000000  0.00000000  1
  C  C2  1  0.50000000  0.50000000  0.50000000  1
  C  C3  1  0.00000000  0.00000000  0.00000000  1
  C  C4  1  0.85265500  0.75000000  0.20331200  1
  C  C5  1  0.64734500  0.75000000  0.70331200  1
  C  C6  1  0.14734500  0.25000000  0.79668800  1
  C  C7  1  0.35265500  0.25000000  0.29668800  1
  C  C8  1  0.50000000  0.50000000  0.00000000  1
  C  C9  1  0.00000000  0.00000000  0.50000000  1
  C  C10  1  0.50000000  0.00000000  0.00000000  1
  C  C11  1  0.00000000  0.50000000  0.50000000  1
  C  C12  1  0.48787200  0.51782700  0.23061300  1
  C  C13  1  0.01212800  0.98217300  0.73061300  1
  C  C14  1  0.51212800  0.01782700  0.76938700  1
  C  C15  1  0.98787200  0.48217300  0.26938700  1
  C  C16  1  0.51212800  0.48217300  0.76938700  1
  C  C17  1  0.98787200  0.01782700  0.26938700  1
  C  C18  1  0.48787200  0.98217300  0.23061300  1
  C  C19  1  0.01212800  0.51782700  0.73061300  1
  C  C20  1  0.24918200  0.88066700  0.33713000  1
  C  C21  1  0.25081800  0.61933300  0.83713000  1
  C  C22  1  0.75081800  0.38066700  0.66287000  1
  C  C23  1  0.74918200  0.11933300  0.16287000  1
  C  C24  1  0.75081800  0.11933300  0.66287000  1
  C  C25  1  0.74918200  0.38066700  0.16287000  1
  C  C26  1  0.24918200  0.61933300  0.33713000  1
  C  C27  1  0.25081800  0.88066700  0.83713000  1
  C  C28  1  0.39487400  0.75000000  0.18383200  1
  C  C29  1  0.10512600  0.75000000  0.68383200  1
  C  C30  1  0.60512600  0.25000000  0.81616800  1
  C  C31  1  0.89487400  0.25000000  0.31616800  1
  C  C32  1  0.25728900  0.75000000  0.00494100  1
  C  C33  1  0.24271100  0.75000000  0.50494100  1
  C  C34  1  0.74271100  0.25000000  0.99505900  1
  C  C35  1  0.75728900  0.25000000  0.49505900  1
  Ni  Ni36  1  0.78787200  0.75000000  0.95618200  1
  Ni  Ni37  1  0.71212800  0.75000000  0.45618200  1
  Ni  Ni38  1  0.21212800  0.25000000  0.04381800  1
  Ni  Ni39  1  0.28787200  0.25000000  0.54381800  1
  Cu  Cu40  1  0.24849300  0.75000000  0.11051700  1
  Cu  Cu41  1  0.25150700  0.75000000  0.61051700  1
  Cu  Cu42  1  0.75150700  0.25000000  0.88948300  1
  Cu  Cu43  1  0.74849300  0.25000000  0.38948300  1
  Cu  Cu44  1  0.32118900  0.75000000  0.29414100  1
  Cu  Cu45  1  0.17881100  0.75000000  0.79414100  1
  Cu  Cu46  1  0.67881100  0.25000000  0.70585900  1
  Cu  Cu47  1  0.82118900  0.25000000  0.20585900  1
  Cu  Cu48  1  0.37247500  0.51070100  0.31347600  1
  Cu  Cu49  1  0.12752500  0.98929900  0.81347600  1
  Cu  Cu50  1  0.62752500  0.01070100  0.68652400  1
  Cu  Cu51  1  0.87247500  0.48929900  0.18652400  1
  Cu  Cu52  1  0.62752500  0.48929900  0.68652400  1
  Cu  Cu53  1  0.87247500  0.01070100  0.18652400  1
  Cu  Cu54  1  0.37247500  0.98929900  0.31347600  1
  Cu  Cu55  1  0.12752500  0.51070100  0.81347600  1
  Cu  Cu56  1  0.57571100  0.40178300  0.20811600  1
  Cu  Cu57  1  0.92428900  0.09821700  0.70811600  1
  Cu  Cu58  1  0.42428900  0.90178300  0.79188400  1
  Cu  Cu59  1  0.07571100  0.59821700  0.29188400  1
  Cu  Cu60  1  0.42428900  0.59821700  0.79188400  1
  Cu  Cu61  1  0.07571100  0.90178300  0.29188400  1
  Cu  Cu62  1  0.57571100  0.09821700  0.20811600  1
  Cu  Cu63  1  0.92428900  0.40178300  0.70811600  1
  Cu  Cu64  1  0.50660100  0.63036900  0.17053300  1
  Cu  Cu65  1  0.99339900  0.86963100  0.67053300  1
  Cu  Cu66  1  0.49339900  0.13036900  0.82946700  1
  Cu  Cu67  1  0.00660100  0.36963100  0.32946700  1
  Cu  Cu68  1  0.49339900  0.36963100  0.82946700  1
  Cu  Cu69  1  0.00660100  0.13036900  0.32946700  1
  Cu  Cu70  1  0.50660100  0.86963100  0.17053300  1
  Cu  Cu71  1  0.99339900  0.63036900  0.67053300  1
  Cu  Cu72  1  0.24089300  0.87020800  0.45170800  1
  Cu  Cu73  1  0.25910700  0.62979200  0.95170800  1
  Cu  Cu74  1  0.75910700  0.37020800  0.54829200  1
  Cu  Cu75  1  0.74089300  0.12979200  0.04829200  1
  Cu  Cu76  1  0.75910700  0.12979200  0.54829200  1
  Cu  Cu77  1  0.74089300  0.37020800  0.04829200  1
  Cu  Cu78  1  0.24089300  0.62979200  0.45170800  1
  Cu  Cu79  1  0.25910700  0.87020800  0.95170800  1
