# generated using pymatgen
data_CuNi2C9
_symmetry_space_group_name_H-M   'P 1'
_cell_length_a   7.90204600
_cell_length_b   7.93239000
_cell_length_c   11.78493300
_cell_angle_alpha   90.00000000
_cell_angle_beta   90.00000000
_cell_angle_gamma   90.00000000
_symmetry_Int_Tables_number   1
_chemical_formula_structural   CuNi2C9
_chemical_formula_sum   'Cu4 Ni8 C36'
_cell_volume   738.70447454
_cell_formula_units_Z   4
loop_
 _symmetry_equiv_pos_site_id
 _symmetry_equiv_pos_as_xyz
  1  'x, y, z'
loop_
 _atom_site_type_symbol
 _atom_site_label
 _atom_site_symmetry_multiplicity
 _atom_site_fract_x
 _atom_site_fract_y
 _atom_site_fract_z
 _atom_site_occupancy
  C  C0  1  0.00002300  0.23664600  0.00000000  1
  C  C1  1  0.99997700  0.76335400  0.00000000  1
  C  C2  1  0.50002300  0.26335400  0.00000000  1
  C  C3  1  0.49997700  0.73664600  0.00000000  1
  Ni  Ni4  1  0.75172100  0.50016000  0.18910700  1
  Ni  Ni5  1  0.24827900  0.49984000  0.18910700  1
  Ni  Ni6  1  0.25172100  0.99984000  0.81089300  1
  Ni  Ni7  1  0.74827900  0.00016000  0.81089300  1
  Ni  Ni8  1  0.24827900  0.49984000  0.81089300  1
  Ni  Ni9  1  0.75172100  0.50016000  0.81089300  1
  Ni  Ni10  1  0.74827900  0.00016000  0.18910700  1
  Ni  Ni11  1  0.25172100  0.99984000  0.18910700  1
  Cu  Cu12  1  0.77171800  0.49484600  0.50000000  1
  Cu  Cu13  1  0.22828200  0.50515400  0.50000000  1
  Cu  Cu14  1  0.27171800  0.00515400  0.50000000  1
  Cu  Cu15  1  0.72828200  0.99484600  0.50000000  1
  C  C16  1  0.94393300  0.22948900  0.50000000  1
  C  C17  1  0.05606700  0.77051100  0.50000000  1
  C  C18  1  0.44393300  0.27051100  0.50000000  1
  C  C19  1  0.55606700  0.72948900  0.50000000  1
  C  C20  1  0.00000000  0.50000000  0.13355300  1
  C  C21  1  0.50000000  0.00000000  0.86644700  1
  C  C22  1  0.00000000  0.50000000  0.86644700  1
  C  C23  1  0.50000000  0.00000000  0.13355300  1
  C  C24  1  0.50000000  0.50000000  0.18237900  1
  C  C25  1  0.00000000  0.00000000  0.81762100  1
  C  C26  1  0.50000000  0.50000000  0.81762100  1
  C  C27  1  0.00000000  0.00000000  0.18237900  1
  C  C28  1  0.74984200  0.25003100  0.15137900  1
  C  C29  1  0.25015800  0.74996900  0.15137900  1
  C  C30  1  0.24984200  0.24996900  0.84862100  1
  C  C31  1  0.75015800  0.75003100  0.84862100  1
  C  C32  1  0.25015800  0.74996900  0.84862100  1
  C  C33  1  0.74984200  0.25003100  0.84862100  1
  C  C34  1  0.75015800  0.75003100  0.15137900  1
  C  C35  1  0.24984200  0.24996900  0.15137900  1
  C  C36  1  0.69863400  0.49999400  0.00000000  1
  C  C37  1  0.30136600  0.50000600  0.00000000  1
  C  C38  1  0.19863400  0.00000600  0.00000000  1
  C  C39  1  0.80136600  0.99999400  0.00000000  1
  C  C40  1  0.77942900  0.49971300  0.34137100  1
  C  C41  1  0.22057100  0.50028700  0.34137100  1
  C  C42  1  0.27942900  0.00028700  0.65862900  1
  C  C43  1  0.72057100  0.99971300  0.65862900  1
  C  C44  1  0.22057100  0.50028700  0.65862900  1
  C  C45  1  0.77942900  0.49971300  0.65862900  1
  C  C46  1  0.72057100  0.99971300  0.34137100  1
  C  C47  1  0.27942900  0.00028700  0.34137100  1
