# generated using pymatgen
data_Cu2(NiC5)3
_symmetry_space_group_name_H-M   'P 1'
_cell_length_a   7.82985300
_cell_length_b   8.78818600
_cell_length_c   11.67517500
_cell_angle_alpha   90.00000000
_cell_angle_beta   90.00000000
_cell_angle_gamma   90.00000000
_symmetry_Int_Tables_number   1
_chemical_formula_structural   Cu2(NiC5)3
_chemical_formula_sum   'Cu8 Ni12 C60'
_cell_volume   803.37117952
_cell_formula_units_Z   4
loop_
 _symmetry_equiv_pos_site_id
 _symmetry_equiv_pos_as_xyz
  1  'x, y, z'
loop_
 _atom_site_type_symbol
 _atom_site_label
 _atom_site_symmetry_multiplicity
 _atom_site_fract_x
 _atom_site_fract_y
 _atom_site_fract_z
 _atom_site_occupancy
  C  C0  1  0.99952600  0.97113600  0.88853000  1
  C  C1  1  0.00047400  0.02886400  0.38853000  1
  C  C2  1  0.49952600  0.52886400  0.38853000  1
  C  C3  1  0.50047400  0.47113600  0.88853000  1
  C  C4  1  0.68438700  0.16840200  0.89530200  1
  C  C5  1  0.31561300  0.83159800  0.39530200  1
  C  C6  1  0.18438700  0.33159800  0.39530200  1
  C  C7  1  0.81561300  0.66840200  0.89530200  1
  C  C8  1  0.23260500  0.23655300  0.83933500  1
  C  C9  1  0.76739500  0.76344700  0.33933500  1
  C  C10  1  0.73260500  0.26344700  0.33933500  1
  C  C11  1  0.26739500  0.73655300  0.83933500  1
  C  C12  1  0.92311500  0.97190000  0.64124500  1
  C  C13  1  0.07688500  0.02810000  0.14124500  1
  C  C14  1  0.42311500  0.52810000  0.14124500  1
  C  C15  1  0.57688500  0.47190000  0.64124500  1
  C  C16  1  0.12892400  0.42564500  0.68997300  1
  C  C17  1  0.87107600  0.57435500  0.18997300  1
  C  C18  1  0.62892400  0.07435500  0.18997300  1
  C  C19  1  0.37107600  0.92564500  0.68997300  1
  C  C20  1  0.91524000  0.42231300  0.72156000  1
  C  C21  1  0.08476000  0.57768700  0.22156000  1
  C  C22  1  0.41524000  0.07768700  0.22156000  1
  C  C23  1  0.58476000  0.92231300  0.72156000  1
  C  C24  1  0.98289800  0.35642300  0.59219200  1
  C  C25  1  0.01710200  0.64357700  0.09219200  1
  C  C26  1  0.48289800  0.14357700  0.09219200  1
  C  C27  1  0.51710200  0.85642300  0.59219200  1
  C  C28  1  0.10228200  0.60382500  0.56324200  1
  C  C29  1  0.89771800  0.39617500  0.06324200  1
  C  C30  1  0.60228200  0.89617500  0.06324200  1
  C  C31  1  0.39771800  0.10382500  0.56324200  1
  C  C32  1  0.89220100  0.58826800  0.55554400  1
  C  C33  1  0.10779900  0.41173200  0.05554400  1
  C  C34  1  0.39220100  0.91173200  0.05554400  1
  C  C35  1  0.60779900  0.08826800  0.55554400  1
  Ni  Ni36  1  0.77664500  0.24022000  0.84850000  1
  Ni  Ni37  1  0.22335500  0.75978000  0.34850000  1
  Ni  Ni38  1  0.27664500  0.25978000  0.34850000  1
  Ni  Ni39  1  0.72335500  0.74022000  0.84850000  1
  Ni  Ni40  1  0.28975000  0.18797000  0.91765200  1
  Ni  Ni41  1  0.71025000  0.81203000  0.41765200  1
  Ni  Ni42  1  0.78975000  0.31203000  0.41765200  1
  Ni  Ni43  1  0.21025000  0.68797000  0.91765200  1
  Ni  Ni44  1  0.06397100  0.97038200  0.63847900  1
  Ni  Ni45  1  0.93602900  0.02961800  0.13847900  1
  Ni  Ni46  1  0.56397100  0.52961800  0.13847900  1
  Ni  Ni47  1  0.43602900  0.47038200  0.63847900  1
  Cu  Cu48  1  0.00526900  0.43781800  0.65629600  1
  Cu  Cu49  1  0.99473100  0.56218200  0.15629600  1
  Cu  Cu50  1  0.50526900  0.06218200  0.15629600  1
  Cu  Cu51  1  0.49473100  0.93781800  0.65629600  1
  Cu  Cu52  1  0.99340500  0.59145100  0.61156500  1
  Cu  Cu53  1  0.00659500  0.40854900  0.11156500  1
  Cu  Cu54  1  0.49340500  0.90854900  0.11156500  1
  Cu  Cu55  1  0.50659500  0.09145100  0.61156500  1
  C  C56  1  0.92197800  0.18532800  0.82430000  1
  C  C57  1  0.07802200  0.81467200  0.32430000  1
  C  C58  1  0.42197800  0.31467200  0.32430000  1
  C  C59  1  0.57802200  0.68532800  0.82430000  1
  C  C60  1  0.73238700  0.37535000  0.82143700  1
  C  C61  1  0.26761300  0.62465000  0.32143700  1
  C  C62  1  0.23238700  0.12465000  0.32143700  1
  C  C63  1  0.76761300  0.87535000  0.82143700  1
  C  C64  1  0.22593800  0.06755600  0.95965700  1
  C  C65  1  0.77406200  0.93244400  0.45965700  1
  C  C66  1  0.72593800  0.43244400  0.45965700  1
  C  C67  1  0.27406200  0.56755600  0.95965700  1
  C  C68  1  0.41763500  0.25688800  0.96135200  1
  C  C69  1  0.58236500  0.74311200  0.46135200  1
  C  C70  1  0.91763500  0.24311200  0.46135200  1
  C  C71  1  0.08236500  0.75688800  0.96135200  1
  C  C72  1  0.14471500  0.94891600  0.73198300  1
  C  C73  1  0.85528500  0.05108400  0.23198300  1
  C  C74  1  0.64471500  0.55108400  0.23198300  1
  C  C75  1  0.35528500  0.44891600  0.73198300  1
  C  C76  1  0.13788900  0.98972700  0.54276600  1
  C  C77  1  0.86211100  0.01027300  0.04276600  1
  C  C78  1  0.63788900  0.51027300  0.04276600  1
  C  C79  1  0.36211100  0.48972700  0.54276600  1
