# generated using pymatgen
data_Cu2NiC
_symmetry_space_group_name_H-M   'P 1'
_cell_length_a   5.06430000
_cell_length_b   5.81668700
_cell_length_c   6.95250900
_cell_angle_alpha   90.00000000
_cell_angle_beta   90.00000000
_cell_angle_gamma   90.00000000
_symmetry_Int_Tables_number   1
_chemical_formula_structural   Cu2NiC
_chemical_formula_sum   'Cu8 Ni4 C4'
_cell_volume   204.80317216
_cell_formula_units_Z   4
loop_
 _symmetry_equiv_pos_site_id
 _symmetry_equiv_pos_as_xyz
  1  'x, y, z'
loop_
 _atom_site_type_symbol
 _atom_site_label
 _atom_site_symmetry_multiplicity
 _atom_site_fract_x
 _atom_site_fract_y
 _atom_site_fract_z
 _atom_site_occupancy
  C  C0  1  0.25272400  0.10121700  0.69593900  1
  C  C1  1  0.74727600  0.60121700  0.30406100  1
  C  C2  1  0.25272400  0.60121700  0.80406100  1
  C  C3  1  0.74727600  0.10121700  0.19593900  1
  Ni  Ni4  1  0.28161700  0.26511800  0.63881500  1
  Ni  Ni5  1  0.71838300  0.76511800  0.36118500  1
  Ni  Ni6  1  0.28161700  0.76511800  0.86118500  1
  Ni  Ni7  1  0.71838300  0.26511800  0.13881500  1
  Cu  Cu8  1  0.54636900  0.24176600  0.57250200  1
  Cu  Cu9  1  0.45363100  0.74176600  0.42749800  1
  Cu  Cu10  1  0.54636900  0.74176600  0.92749800  1
  Cu  Cu11  1  0.45363100  0.24176600  0.07250200  1
  Cu  Cu12  1  0.12924200  0.24719900  0.46758800  1
  Cu  Cu13  1  0.87075800  0.74719900  0.53241200  1
  Cu  Cu14  1  0.12924200  0.74719900  0.03241200  1
  Cu  Cu15  1  0.87075800  0.24719900  0.96758800  1
