# generated using pymatgen
data_Cu3(NiC4)2
_symmetry_space_group_name_H-M   'P 1'
_cell_length_a   5.87467400
_cell_length_b   5.87467320
_cell_length_c   9.53574100
_cell_angle_alpha   90.00000000
_cell_angle_beta   90.00000000
_cell_angle_gamma   120.00000450
_symmetry_Int_Tables_number   1
_chemical_formula_structural   Cu3(NiC4)2
_chemical_formula_sum   'Cu6 Ni4 C16'
_cell_volume   285.00504171
_cell_formula_units_Z   2
loop_
 _symmetry_equiv_pos_site_id
 _symmetry_equiv_pos_as_xyz
  1  'x, y, z'
loop_
 _atom_site_type_symbol
 _atom_site_label
 _atom_site_symmetry_multiplicity
 _atom_site_fract_x
 _atom_site_fract_y
 _atom_site_fract_z
 _atom_site_occupancy
  Ni  Ni0  1  0.66666700  0.33333400  0.02664500  1
  Ni  Ni1  1  0.33333300  0.66666600  0.52664600  1
  Ni  Ni2  1  0.66666700  0.33333400  0.42550600  1
  Ni  Ni3  1  0.33333300  0.66666600  0.92550700  1
  Cu  Cu4  1  0.67317800  0.83659000  0.24311000  1
  Cu  Cu5  1  0.83659100  0.16341100  0.74311000  1
  Cu  Cu6  1  0.16341100  0.32682300  0.24311000  1
  Cu  Cu7  1  0.83658900  0.67317800  0.74311000  1
  Cu  Cu8  1  0.32682300  0.16341100  0.74311000  1
  Cu  Cu9  1  0.16341100  0.83659000  0.24311000  1
  C  C10  1  0.83773300  0.16226800  0.14741300  1
  C  C11  1  0.67546400  0.83773300  0.64741200  1
  C  C12  1  0.16226800  0.32453700  0.64741200  1
  C  C13  1  0.83773200  0.67546400  0.14741300  1
  C  C14  1  0.32453600  0.16226800  0.14741300  1
  C  C15  1  0.16226800  0.83773300  0.64741200  1
  C  C16  1  0.51846500  0.48153400  0.86198300  1
  C  C17  1  0.03693200  0.51846500  0.36198200  1
  C  C18  1  0.48153500  0.96306900  0.36198200  1
  C  C19  1  0.51846500  0.03693200  0.86198300  1
  C  C20  1  0.00000000  0.00000000  0.35093500  1
  C  C21  1  0.00000000  0.00000000  0.85093500  1
  C  C22  1  0.33333300  0.66666600  0.13290000  1
  C  C23  1  0.96306700  0.48153400  0.86198300  1
  C  C24  1  0.48153400  0.51846500  0.36198200  1
  C  C25  1  0.66666700  0.33333400  0.63290000  1
