# generated using pymatgen
data_Cu2NiC10
_symmetry_space_group_name_H-M   'P 1'
_cell_length_a   6.39852100
_cell_length_b   7.88102700
_cell_length_c   14.06983200
_cell_angle_alpha   90.00000000
_cell_angle_beta   90.00000000
_cell_angle_gamma   90.00000000
_symmetry_Int_Tables_number   1
_chemical_formula_structural   Cu2NiC10
_chemical_formula_sum   'Cu8 Ni4 C40'
_cell_volume   709.49824711
_cell_formula_units_Z   4
loop_
 _symmetry_equiv_pos_site_id
 _symmetry_equiv_pos_as_xyz
  1  'x, y, z'
loop_
 _atom_site_type_symbol
 _atom_site_label
 _atom_site_symmetry_multiplicity
 _atom_site_fract_x
 _atom_site_fract_y
 _atom_site_fract_z
 _atom_site_occupancy
  C  C0  1  0.00000000  0.00000000  0.00000000  1
  C  C1  1  0.00000000  0.50000000  0.50000000  1
  C  C2  1  0.50000000  0.50000000  0.50000000  1
  C  C3  1  0.50000000  0.00000000  0.00000000  1
  Ni  Ni4  1  0.75000000  0.65213600  0.87669700  1
  Ni  Ni5  1  0.25000000  0.34786400  0.12330300  1
  Ni  Ni6  1  0.25000000  0.15213600  0.62330300  1
  Ni  Ni7  1  0.75000000  0.84786400  0.37669700  1
  Cu  Cu8  1  0.25000000  0.65503200  0.94042100  1
  Cu  Cu9  1  0.75000000  0.34496800  0.05957900  1
  Cu  Cu10  1  0.75000000  0.15503200  0.55957900  1
  Cu  Cu11  1  0.25000000  0.84496800  0.44042100  1
  Cu  Cu12  1  0.75000000  0.60698400  0.68556700  1
  Cu  Cu13  1  0.25000000  0.39301600  0.31443300  1
  Cu  Cu14  1  0.25000000  0.10698400  0.81443300  1
  Cu  Cu15  1  0.75000000  0.89301600  0.18556700  1
  C  C16  1  0.44976100  0.40619500  0.37402500  1
  C  C17  1  0.94976100  0.59380500  0.62597500  1
  C  C18  1  0.55023900  0.90619500  0.12597500  1
  C  C19  1  0.05023900  0.09380500  0.87402500  1
  C  C20  1  0.55023900  0.59380500  0.62597500  1
  C  C21  1  0.05023900  0.40619500  0.37402500  1
  C  C22  1  0.44976100  0.09380500  0.87402500  1
  C  C23  1  0.94976100  0.90619500  0.12597500  1
  C  C24  1  0.25000000  0.66506000  0.48211900  1
  C  C25  1  0.75000000  0.33494000  0.51788100  1
  C  C26  1  0.75000000  0.16506000  0.01788100  1
  C  C27  1  0.25000000  0.83494000  0.98211900  1
  C  C28  1  0.75000000  0.85473000  0.95355100  1
  C  C29  1  0.25000000  0.14527000  0.04644900  1
  C  C30  1  0.25000000  0.35473000  0.54644900  1
  C  C31  1  0.75000000  0.64527000  0.45355100  1
  C  C32  1  0.75000000  0.77516800  0.74763000  1
  C  C33  1  0.25000000  0.22483200  0.25237000  1
  C  C34  1  0.25000000  0.27516800  0.75237000  1
  C  C35  1  0.75000000  0.72483200  0.24763000  1
  C  C36  1  0.06009300  0.86927000  0.37333600  1
  C  C37  1  0.56009300  0.13073000  0.62666400  1
  C  C38  1  0.93990700  0.36927000  0.12666400  1
  C  C39  1  0.43990700  0.63073000  0.87333600  1
  C  C40  1  0.93990700  0.13073000  0.62666400  1
  C  C41  1  0.43990700  0.86927000  0.37333600  1
  C  C42  1  0.06009300  0.63073000  0.87333600  1
  C  C43  1  0.56009300  0.36927000  0.12666400  1
  C  C44  1  0.75000000  0.02584000  0.27210500  1
  C  C45  1  0.25000000  0.97416000  0.72789500  1
  C  C46  1  0.25000000  0.52584000  0.22789500  1
  C  C47  1  0.75000000  0.47416000  0.77210500  1
  C  C48  1  0.75000000  0.01982300  0.48114800  1
  C  C49  1  0.25000000  0.98017700  0.51885200  1
  C  C50  1  0.25000000  0.51982300  0.01885200  1
  C  C51  1  0.75000000  0.48017700  0.98114800  1
