# generated using pymatgen
data_Cu(NiC3)4
_symmetry_space_group_name_H-M   'P 1'
_cell_length_a   7.86906600
_cell_length_b   21.08326900
_cell_length_c   11.02948000
_cell_angle_alpha   90.00000000
_cell_angle_beta   90.00000000
_cell_angle_gamma   90.00000000
_symmetry_Int_Tables_number   1
_chemical_formula_structural   Cu(NiC3)4
_chemical_formula_sum   'Cu8 Ni32 C96'
_cell_volume   1829.85288595
_cell_formula_units_Z   8
loop_
 _symmetry_equiv_pos_site_id
 _symmetry_equiv_pos_as_xyz
  1  'x, y, z'
loop_
 _atom_site_type_symbol
 _atom_site_label
 _atom_site_symmetry_multiplicity
 _atom_site_fract_x
 _atom_site_fract_y
 _atom_site_fract_z
 _atom_site_occupancy
  C  C0  1  0.14446000  0.75000000  0.92654700  1
  C  C1  1  0.64446000  0.75000000  0.57345300  1
  C  C2  1  0.85554000  0.25000000  0.07345300  1
  C  C3  1  0.35554000  0.25000000  0.42654700  1
  C  C4  1  0.67123000  0.90828100  0.77865700  1
  C  C5  1  0.17123000  0.59171900  0.72134300  1
  C  C6  1  0.32877000  0.40828100  0.22134300  1
  C  C7  1  0.82877000  0.09171900  0.27865700  1
  C  C8  1  0.32877000  0.09171900  0.22134300  1
  C  C9  1  0.82877000  0.40828100  0.27865700  1
  C  C10  1  0.67123000  0.59171900  0.77865700  1
  C  C11  1  0.17123000  0.90828100  0.72134300  1
  C  C12  1  0.58166900  0.84739600  0.86108000  1
  C  C13  1  0.08166900  0.65260400  0.63892000  1
  C  C14  1  0.41833100  0.34739600  0.13892000  1
  C  C15  1  0.91833100  0.15260400  0.36108000  1
  C  C16  1  0.41833100  0.15260400  0.13892000  1
  C  C17  1  0.91833100  0.34739600  0.36108000  1
  C  C18  1  0.58166900  0.65260400  0.86108000  1
  C  C19  1  0.08166900  0.84739600  0.63892000  1
  C  C20  1  0.54166400  0.85064300  0.05597100  1
  C  C21  1  0.04166400  0.64935700  0.44402900  1
  C  C22  1  0.45833600  0.35064300  0.94402900  1
  C  C23  1  0.95833600  0.14935700  0.55597100  1
  C  C24  1  0.45833600  0.14935700  0.94402900  1
  C  C25  1  0.95833600  0.35064300  0.55597100  1
  C  C26  1  0.54166400  0.64935700  0.05597100  1
  C  C27  1  0.04166400  0.85064300  0.44402900  1
  C  C28  1  0.69785300  0.98485000  0.29721200  1
  C  C29  1  0.19785300  0.51515000  0.20278800  1
  C  C30  1  0.30214700  0.48485000  0.70278800  1
  C  C31  1  0.80214700  0.01515000  0.79721200  1
  C  C32  1  0.30214700  0.01515000  0.70278800  1
  C  C33  1  0.80214700  0.48485000  0.79721200  1
  C  C34  1  0.69785300  0.51515000  0.29721200  1
  C  C35  1  0.19785300  0.98485000  0.20278800  1
  C  C36  1  0.72285800  0.99584600  0.13628500  1
  C  C37  1  0.22285800  0.50415400  0.36371500  1
  C  C38  1  0.27714200  0.49584600  0.86371500  1
  C  C39  1  0.77714200  0.00415400  0.63628500  1
  C  C40  1  0.27714200  0.00415400  0.86371500  1
  C  C41  1  0.77714200  0.49584600  0.63628500  1
  C  C42  1  0.72285800  0.50415400  0.13628500  1
  C  C43  1  0.22285800  0.99584600  0.36371500  1
  C  C44  1  0.57265400  0.88390400  0.36056400  1
  C  C45  1  0.07265400  0.61609600  0.13943600  1
  C  C46  1  0.42734600  0.38390400  0.63943600  1
  C  C47  1  0.92734600  0.11609600  0.86056400  1
  C  C48  1  0.42734600  0.11609600  0.63943600  1
  C  C49  1  0.92734600  0.38390400  0.86056400  1
  C  C50  1  0.57265400  0.61609600  0.36056400  1
  C  C51  1  0.07265400  0.88390400  0.13943600  1
  C  C52  1  0.50336300  0.83230700  0.24826400  1
  C  C53  1  0.00336300  0.66769300  0.25173600  1
  C  C54  1  0.49663700  0.33230700  0.75173600  1
  C  C55  1  0.99663700  0.16769300  0.74826400  1
  C  C56  1  0.49663700  0.16769300  0.75173600  1
  C  C57  1  0.99663700  0.33230700  0.74826400  1
  C  C58  1  0.50336300  0.66769300  0.24826400  1
  C  C59  1  0.00336300  0.83230700  0.25173600  1
  C  C60  1  0.65679600  0.92551300  0.96223400  1
  C  C61  1  0.15679600  0.57448700  0.53776600  1
  C  C62  1  0.34320400  0.42551300  0.03776600  1
  C  C63  1  0.84320400  0.07448700  0.46223400  1
  C  C64  1  0.34320400  0.07448700  0.03776600  1
  C  C65  1  0.84320400  0.42551300  0.46223400  1
  C  C66  1  0.65679600  0.57448700  0.96223400  1
  C  C67  1  0.15679600  0.92551300  0.53776600  1
  C  C68  1  0.61073700  0.91421600  0.18442800  1
  C  C69  1  0.11073700  0.58578400  0.31557200  1
  C  C70  1  0.38926300  0.41421600  0.81557200  1
  C  C71  1  0.88926300  0.08578400  0.68442800  1
  C  C72  1  0.38926300  0.08578400  0.81557200  1
  C  C73  1  0.88926300  0.41421600  0.68442800  1
  C  C74  1  0.61073700  0.58578400  0.18442800  1
  C  C75  1  0.11073700  0.91421600  0.31557200  1
  Ni  Ni76  1  0.63042500  0.89224800  0.86056000  1
  Ni  Ni77  1  0.13042500  0.60775200  0.63944000  1
  Ni  Ni78  1  0.36957500  0.39224800  0.13944000  1
  Ni  Ni79  1  0.86957500  0.10775200  0.36056000  1
  Ni  Ni80  1  0.36957500  0.10775200  0.13944000  1
  Ni  Ni81  1  0.86957500  0.39224800  0.36056000  1
  Ni  Ni82  1  0.63042500  0.60775200  0.86056000  1
  Ni  Ni83  1  0.13042500  0.89224800  0.63944000  1
  Ni  Ni84  1  0.59834800  0.89396000  0.06711200  1
  Ni  Ni85  1  0.09834800  0.60604000  0.43288800  1
  Ni  Ni86  1  0.40165200  0.39396000  0.93288800  1
  Ni  Ni87  1  0.90165200  0.10604000  0.56711200  1
  Ni  Ni88  1  0.40165200  0.10604000  0.93288800  1
  Ni  Ni89  1  0.90165200  0.39396000  0.56711200  1
  Ni  Ni90  1  0.59834800  0.60604000  0.06711200  1
  Ni  Ni91  1  0.09834800  0.89396000  0.43288800  1
  Ni  Ni92  1  0.68094200  0.97006700  0.20943300  1
  Ni  Ni93  1  0.18094200  0.52993300  0.29056700  1
  Ni  Ni94  1  0.31905800  0.47006700  0.79056700  1
  Ni  Ni95  1  0.81905800  0.02993300  0.70943300  1
  Ni  Ni96  1  0.31905800  0.02993300  0.79056700  1
  Ni  Ni97  1  0.81905800  0.47006700  0.70943300  1
  Ni  Ni98  1  0.68094200  0.52993300  0.20943300  1
  Ni  Ni99  1  0.18094200  0.97006700  0.29056700  1
  Ni  Ni100  1  0.54799000  0.87631500  0.27020000  1
  Ni  Ni101  1  0.04799000  0.62368500  0.22980000  1
  Ni  Ni102  1  0.45201000  0.37631500  0.72980000  1
  Ni  Ni103  1  0.95201000  0.12368500  0.77020000  1
  Ni  Ni104  1  0.45201000  0.12368500  0.72980000  1
  Ni  Ni105  1  0.95201000  0.37631500  0.77020000  1
  Ni  Ni106  1  0.54799000  0.62368500  0.27020000  1
  Ni  Ni107  1  0.04799000  0.87631500  0.22980000  1
  C  C108  1  0.13946400  0.87927800  0.93966900  1
  C  C109  1  0.63946400  0.62072200  0.56033100  1
  C  C110  1  0.86053600  0.37927800  0.06033100  1
  C  C111  1  0.36053600  0.12072200  0.43966900  1
  C  C112  1  0.86053600  0.12072200  0.06033100  1
  C  C113  1  0.36053600  0.37927800  0.43966900  1
  C  C114  1  0.13946400  0.62072200  0.93966900  1
  C  C115  1  0.63946400  0.87927800  0.56033100  1
  C  C116  1  0.46618000  0.75000000  0.79514500  1
  C  C117  1  0.96618000  0.75000000  0.70485500  1
  C  C118  1  0.53382000  0.25000000  0.20485500  1
  C  C119  1  0.03382000  0.25000000  0.29514500  1
  C  C120  1  0.88020900  0.75000000  0.06188100  1
  C  C121  1  0.38020900  0.75000000  0.43811900  1
  C  C122  1  0.11979100  0.25000000  0.93811900  1
  C  C123  1  0.61979100  0.25000000  0.56188100  1
  C  C124  1  0.36687700  0.75000000  0.11139100  1
  C  C125  1  0.86687700  0.75000000  0.38860900  1
  C  C126  1  0.63312300  0.25000000  0.88860900  1
  C  C127  1  0.13312300  0.25000000  0.61139100  1
  Cu  Cu128  1  0.72388800  0.97913900  0.96646700  1
  Cu  Cu129  1  0.22388800  0.52086100  0.53353300  1
  Cu  Cu130  1  0.27611200  0.47913900  0.03353300  1
  Cu  Cu131  1  0.77611200  0.02086100  0.46646700  1
  Cu  Cu132  1  0.27611200  0.02086100  0.03353300  1
  Cu  Cu133  1  0.77611200  0.47913900  0.46646700  1
  Cu  Cu134  1  0.72388800  0.52086100  0.96646700  1
  Cu  Cu135  1  0.22388800  0.97913900  0.53353300  1
