# generated using pymatgen
data_CuNiC3
_symmetry_space_group_name_H-M   'P 1'
_cell_length_a   8.98205500
_cell_length_b   5.25606000
_cell_length_c   18.53142194
_cell_angle_alpha   89.77495837
_cell_angle_beta   90.00000000
_cell_angle_gamma   90.00000000
_symmetry_Int_Tables_number   1
_chemical_formula_structural   CuNiC3
_chemical_formula_sum   'Cu16 Ni16 C48'
_cell_volume   874.86575853
_cell_formula_units_Z   16
loop_
 _symmetry_equiv_pos_site_id
 _symmetry_equiv_pos_as_xyz
  1  'x, y, z'
loop_
 _atom_site_type_symbol
 _atom_site_label
 _atom_site_symmetry_multiplicity
 _atom_site_fract_x
 _atom_site_fract_y
 _atom_site_fract_z
 _atom_site_occupancy
  Ni  Ni0  1  0.34876000  0.57075800  0.87426400  1
  Ni  Ni1  1  0.84876000  0.92924200  0.12573600  1
  Ni  Ni2  1  0.65124000  0.42924200  0.12573600  1
  Ni  Ni3  1  0.15124000  0.07075800  0.87426400  1
  Ni  Ni4  1  0.99096700  0.56949600  0.87423800  1
  Ni  Ni5  1  0.49096700  0.93050400  0.12576200  1
  Ni  Ni6  1  0.00903300  0.43050400  0.12576200  1
  Ni  Ni7  1  0.50903300  0.06949600  0.87423800  1
  Ni  Ni8  1  0.34872200  0.86680000  0.37461300  1
  Ni  Ni9  1  0.84872200  0.63320000  0.62538700  1
  Ni  Ni10  1  0.65127800  0.13320000  0.62538700  1
  Ni  Ni11  1  0.15127800  0.36680000  0.37461300  1
  Ni  Ni12  1  0.99097800  0.86448500  0.37940600  1
  Ni  Ni13  1  0.49097800  0.63551500  0.62059400  1
  Ni  Ni14  1  0.00902200  0.13551500  0.62059400  1
  Ni  Ni15  1  0.50902200  0.36448500  0.37940600  1
  Cu  Cu16  1  0.83962300  0.26767600  0.97716700  1
  Cu  Cu17  1  0.33962300  0.23232400  0.02283300  1
  Cu  Cu18  1  0.16037700  0.73232400  0.02283300  1
  Cu  Cu19  1  0.66037700  0.76767600  0.97716700  1
  Cu  Cu20  1  0.66131300  0.08376700  0.27374500  1
  Cu  Cu21  1  0.16131300  0.41623300  0.72625500  1
  Cu  Cu22  1  0.33868700  0.91623300  0.72625500  1
  Cu  Cu23  1  0.83868700  0.58376700  0.27374500  1
  Cu  Cu24  1  0.33874800  0.52338000  0.22755100  1
  Cu  Cu25  1  0.83874800  0.97662000  0.77244900  1
  Cu  Cu26  1  0.66125200  0.47662000  0.77244900  1
  Cu  Cu27  1  0.16125200  0.02338000  0.22755100  1
  Cu  Cu28  1  0.83640800  0.30240300  0.47394600  1
  Cu  Cu29  1  0.33640800  0.19759700  0.52605400  1
  Cu  Cu30  1  0.16359200  0.69759700  0.52605400  1
  Cu  Cu31  1  0.66359200  0.80240300  0.47394600  1
  C  C32  1  0.83993700  0.26013900  0.06519600  1
  C  C33  1  0.33993700  0.23986100  0.93480400  1
  C  C34  1  0.16006300  0.73986100  0.93480400  1
  C  C35  1  0.66006300  0.76013900  0.06519600  1
  C  C36  1  0.99714200  0.24851800  0.93658200  1
  C  C37  1  0.49714200  0.25148200  0.06341800  1
  C  C38  1  0.00285800  0.75148200  0.06341800  1
  C  C39  1  0.50285800  0.74851800  0.93658200  1
  C  C40  1  0.71801300  0.05316700  0.94690600  1
  C  C41  1  0.21801300  0.44683300  0.05309400  1
  C  C42  1  0.28198700  0.94683300  0.05309400  1
  C  C43  1  0.78198700  0.55316700  0.94690600  1
  C  C44  1  0.66200700  0.08930200  0.18550100  1
  C  C45  1  0.16200700  0.41069800  0.81449900  1
  C  C46  1  0.33799300  0.91069800  0.81449900  1
  C  C47  1  0.83799300  0.58930200  0.18550100  1
  C  C48  1  0.50534100  0.05221000  0.31443400  1
  C  C49  1  0.00534100  0.44779000  0.68556600  1
  C  C50  1  0.49465900  0.94779000  0.68556600  1
  C  C51  1  0.99465900  0.55221000  0.31443400  1
  C  C52  1  0.71341600  0.37316500  0.30306900  1
  C  C53  1  0.21341600  0.12683500  0.69693100  1
  C  C54  1  0.28658400  0.62683500  0.69693100  1
  C  C55  1  0.78658400  0.87316500  0.30306900  1
  C  C56  1  0.34170700  0.53129100  0.31608800  1
  C  C57  1  0.84170700  0.96870900  0.68391200  1
  C  C58  1  0.65829300  0.46870900  0.68391200  1
  C  C59  1  0.15829300  0.03129100  0.31608800  1
  C  C60  1  0.48799300  0.61152000  0.18551400  1
  C  C61  1  0.98799300  0.88848000  0.81448600  1
  C  C62  1  0.51200700  0.38848000  0.81448600  1
  C  C63  1  0.01200700  0.11152000  0.18551400  1
  C  C64  1  0.29297900  0.23000200  0.20052000  1
  C  C65  1  0.79297900  0.26999800  0.79948000  1
  C  C66  1  0.70702100  0.76999800  0.79948000  1
  C  C67  1  0.20702100  0.73000200  0.20052000  1
  C  C68  1  0.83881600  0.30186600  0.56241600  1
  C  C69  1  0.33881600  0.19813400  0.43758400  1
  C  C70  1  0.16118400  0.69813400  0.43758400  1
  C  C71  1  0.66118400  0.80186600  0.56241600  1
  C  C72  1  0.98162200  0.19440700  0.43335400  1
  C  C73  1  0.48162200  0.30559300  0.56664600  1
  C  C74  1  0.01837800  0.80559300  0.56664600  1
  C  C75  1  0.51837800  0.69440700  0.43335400  1
  C  C76  1  0.69627000  0.10696000  0.44825300  1
  C  C77  1  0.19627000  0.39304000  0.55174700  1
  C  C78  1  0.30373000  0.89304000  0.55174700  1
  C  C79  1  0.80373000  0.60696000  0.44825300  1
