# generated using pymatgen
data_CuNi6C
_symmetry_space_group_name_H-M   'P 1'
_cell_length_a   5.25660200
_cell_length_b   6.79034300
_cell_length_c   11.79822800
_cell_angle_alpha   90.00000000
_cell_angle_beta   90.00000000
_cell_angle_gamma   90.00000000
_symmetry_Int_Tables_number   1
_chemical_formula_structural   CuNi6C
_chemical_formula_sum   'Cu2 Ni12 C2'
_cell_volume   421.12749102
_cell_formula_units_Z   2
loop_
 _symmetry_equiv_pos_site_id
 _symmetry_equiv_pos_as_xyz
  1  'x, y, z'
loop_
 _atom_site_type_symbol
 _atom_site_label
 _atom_site_symmetry_multiplicity
 _atom_site_fract_x
 _atom_site_fract_y
 _atom_site_fract_z
 _atom_site_occupancy
  C  C0  1  0.50000000  0.50000000  0.16578300  1
  C  C1  1  0.50000000  0.00000000  0.66578300  1
  Ni  Ni2  1  0.50000000  0.25809800  0.41993700  1
  Ni  Ni3  1  0.50000000  0.74190200  0.41993700  1
  Ni  Ni4  1  0.00000000  0.77878300  0.08128700  1
  Ni  Ni5  1  0.00000000  0.22121700  0.08128700  1
  Ni  Ni6  1  0.00000000  0.00000000  0.32703200  1
  Ni  Ni7  1  0.00000000  0.50000000  0.34749800  1
  Ni  Ni8  1  0.50000000  0.75809800  0.91993700  1
  Ni  Ni9  1  0.50000000  0.24190200  0.91993700  1
  Ni  Ni10  1  0.00000000  0.27878300  0.58128700  1
  Ni  Ni11  1  0.00000000  0.72121700  0.58128700  1
  Ni  Ni12  1  0.00000000  0.50000000  0.82703200  1
  Ni  Ni13  1  0.00000000  0.00000000  0.84749800  1
  Cu  Cu14  1  0.50000000  0.00000000  0.15723500  1
  Cu  Cu15  1  0.50000000  0.50000000  0.65723500  1
