# generated using pymatgen
data_CuNiC45
_symmetry_space_group_name_H-M   'P 1'
_cell_length_a   12.90261190
_cell_length_b   12.91886308
_cell_length_c   14.47728221
_cell_angle_alpha   90.00000000
_cell_angle_beta   90.00000000
_cell_angle_gamma   101.11953779
_symmetry_Int_Tables_number   1
_chemical_formula_structural   CuNiC45
_chemical_formula_sum   'Cu4 Ni4 C180'
_cell_volume   2367.87319471
_cell_formula_units_Z   4
loop_
 _symmetry_equiv_pos_site_id
 _symmetry_equiv_pos_as_xyz
  1  'x, y, z'
loop_
 _atom_site_type_symbol
 _atom_site_label
 _atom_site_symmetry_multiplicity
 _atom_site_fract_x
 _atom_site_fract_y
 _atom_site_fract_z
 _atom_site_occupancy
  Ni  Ni0  1  0.76787502  0.88609366  0.33384386  1
  Ni  Ni1  1  0.23212498  0.11390634  0.66615614  1
  Ni  Ni2  1  0.23212498  0.61390634  0.83384386  1
  Ni  Ni3  1  0.76787502  0.38609366  0.16615614  1
  Cu  Cu4  1  0.73971374  0.62658791  0.74100885  1
  Cu  Cu5  1  0.26028626  0.37341209  0.25899115  1
  Cu  Cu6  1  0.26028626  0.87341209  0.24100885  1
  Cu  Cu7  1  0.73971374  0.12658791  0.75899115  1
  C  C8  1  0.95925576  0.57719245  0.20492540  1
  C  C9  1  0.04074424  0.42280755  0.79507460  1
  C  C10  1  0.04074424  0.92280755  0.70492540  1
  C  C11  1  0.95925576  0.07719245  0.29507460  1
  C  C12  1  0.45330415  0.57234218  0.74268820  1
  C  C13  1  0.54669585  0.42765782  0.25731180  1
  C  C14  1  0.54669585  0.92765782  0.24268820  1
  C  C15  1  0.45330415  0.07234218  0.75731180  1
  C  C16  1  0.42243500  0.80710250  0.55387093  1
  C  C17  1  0.57756500  0.19289750  0.44612907  1
  C  C18  1  0.57756500  0.69289750  0.05387093  1
  C  C19  1  0.42243500  0.30710250  0.94612907  1
  C  C20  1  0.95508063  0.56940559  0.74474818  1
  C  C21  1  0.04491937  0.43059441  0.25525182  1
  C  C22  1  0.04491937  0.93059441  0.24474818  1
  C  C23  1  0.95508063  0.06940559  0.75525182  1
  C  C24  1  0.69165595  0.83999557  0.75975647  1
  C  C25  1  0.30834405  0.16000443  0.24024353  1
  C  C26  1  0.30834405  0.66000443  0.25975647  1
  C  C27  1  0.69165595  0.33999557  0.74024353  1
  C  C28  1  0.91890113  0.79273879  0.95807414  1
  C  C29  1  0.08109887  0.20726121  0.04192586  1
  C  C30  1  0.08109887  0.70726121  0.45807414  1
  C  C31  1  0.91890113  0.29273879  0.54192586  1
  C  C32  1  0.91201363  0.90585596  0.56898600  1
  C  C33  1  0.08798637  0.09414404  0.43101400  1
  C  C34  1  0.08798637  0.59414404  0.06898600  1
  C  C35  1  0.91201363  0.40585596  0.93101400  1
  C  C36  1  0.37210633  0.88870846  0.69934805  1
  C  C37  1  0.62789367  0.11129154  0.30065195  1
  C  C38  1  0.62789367  0.61129154  0.19934805  1
  C  C39  1  0.37210633  0.38870846  0.80065195  1
  C  C40  1  0.76816002  0.52031461  0.93863201  1
  C  C41  1  0.23183998  0.47968539  0.06136799  1
  C  C42  1  0.23183998  0.97968539  0.43863201  1
  C  C43  1  0.76816002  0.02031461  0.56136799  1
  C  C44  1  0.87867074  0.89066369  0.82083167  1
  C  C45  1  0.12132926  0.10933631  0.17916833  1
  C  C46  1  0.12132926  0.60933631  0.32083167  1
  C  C47  1  0.87867074  0.39066369  0.67916833  1
  C  C48  1  0.99532784  0.74706846  0.31205642  1
  C  C49  1  0.00467216  0.25293154  0.68794358  1
  C  C50  1  0.00467216  0.75293154  0.81205642  1
  C  C51  1  0.99532784  0.24706846  0.18794358  1
  C  C52  1  0.51152110  0.75960214  0.69441733  1
  C  C53  1  0.48847890  0.24039786  0.30558267  1
  C  C54  1  0.48847890  0.74039786  0.19441733  1
  C  C55  1  0.51152110  0.25960214  0.80558267  1
  C  C56  1  0.81471955  0.66809504  0.25080146  1
  C  C57  1  0.18528045  0.33190496  0.74919854  1
  C  C58  1  0.18528045  0.83190496  0.75080146  1
  C  C59  1  0.81471955  0.16809504  0.24919854  1
  C  C60  1  0.55066684  0.93363924  0.79949872  1
  C  C61  1  0.44933316  0.06636076  0.20050128  1
  C  C62  1  0.44933316  0.56636076  0.29949872  1
  C  C63  1  0.55066684  0.43363924  0.70050128  1
  C  C64  1  0.90844549  0.54553549  0.47506061  1
  C  C65  1  0.09155451  0.45446451  0.52493939  1
  C  C66  1  0.09155451  0.95446451  0.97506061  1
  C  C67  1  0.90844549  0.04553549  0.02493939  1
  C  C68  1  0.63550250  0.75751122  0.45930290  1
  C  C69  1  0.36449750  0.24248878  0.54069710  1
  C  C70  1  0.36449750  0.74248878  0.95930290  1
  C  C71  1  0.63550250  0.25751122  0.04069710  1
  C  C72  1  0.77655187  0.66294093  0.55709778  1
  C  C73  1  0.22344813  0.33705907  0.44290222  1
  C  C74  1  0.22344813  0.83705907  0.05709778  1
  C  C75  1  0.77655187  0.16294093  0.94290222  1
  C  C76  1  0.77947622  0.88757037  0.14156090  1
  C  C77  1  0.22052378  0.11242963  0.85843910  1
  C  C78  1  0.22052378  0.61242963  0.64156090  1
  C  C79  1  0.77947622  0.38757037  0.35843910  1
  C  C80  1  0.63219089  0.48240808  0.45879849  1
  C  C81  1  0.36780911  0.51759192  0.54120151  1
  C  C82  1  0.36780911  0.01759192  0.95879849  1
  C  C83  1  0.63219089  0.98240808  0.04120151  1
  C  C84  1  0.62651368  0.99984997  0.28186282  1
  C  C85  1  0.37348632  0.00015003  0.71813718  1
  C  C86  1  0.37348632  0.50015003  0.78186282  1
  C  C87  1  0.62651368  0.49984997  0.21813718  1
  C  C88  1  0.58874931  0.70417026  0.95876755  1
  C  C89  1  0.41125069  0.29582974  0.04123245  1
  C  C90  1  0.41125069  0.79582974  0.45876755  1
  C  C91  1  0.58874931  0.20417026  0.54123245  1
  C  C92  1  0.87393375  0.86277788  0.48652550  1
  C  C93  1  0.12606625  0.13722212  0.51347450  1
  C  C94  1  0.12606625  0.63722212  0.98652550  1
  C  C95  1  0.87393375  0.36277788  0.01347450  1
  C  C96  1  0.98042173  0.86048984  0.78380348  1
  C  C97  1  0.01957827  0.13951016  0.21619652  1
  C  C98  1  0.01957827  0.63951016  0.28380348  1
  C  C99  1  0.98042173  0.36048984  0.71619652  1
  C  C100  1  0.93754278  0.67055767  0.75533320  1
  C  C101  1  0.06245722  0.32944233  0.24466680  1
  C  C102  1  0.06245722  0.82944233  0.25533320  1
  C  C103  1  0.93754278  0.17055767  0.74466680  1
  C  C104  1  0.54318508  0.54351497  0.70762707  1
  C  C105  1  0.45681492  0.45648503  0.29237293  1
  C  C106  1  0.45681492  0.95648503  0.20762707  1
  C  C107  1  0.54318508  0.04351497  0.79237293  1
  C  C108  1  0.49575357  0.75777237  0.59525694  1
  C  C109  1  0.50424643  0.24222763  0.40474306  1
  C  C110  1  0.50424643  0.74222763  0.09525694  1
  C  C111  1  0.49575357  0.25777237  0.90474306  1
  C  C112  1  0.99610766  0.88451050  0.61535524  1
  C  C113  1  0.00389234  0.11548950  0.38464476  1
  C  C114  1  0.00389234  0.61548950  0.11535524  1
  C  C115  1  0.99610766  0.38451050  0.88464476  1
  C  C116  1  0.72819797  0.59199030  0.89066484  1
  C  C117  1  0.27180203  0.40800970  0.10933516  1
  C  C118  1  0.27180203  0.90800970  0.39066484  1
  C  C119  1  0.72819797  0.09199030  0.60933516  1
  C  C120  1  0.15165112  0.91476132  0.70950503  1
  C  C121  1  0.84834888  0.08523868  0.29049497  1
  C  C122  1  0.84834888  0.58523868  0.20950503  1
  C  C123  1  0.15165112  0.41476132  0.79049497  1
  C  C124  1  0.90408295  0.27871474  0.44772378  1
  C  C125  1  0.09591705  0.72128526  0.55227622  1
  C  C126  1  0.09591705  0.22128526  0.94772378  1
  C  C127  1  0.90408295  0.77871474  0.05227622  1
  C  C128  1  0.88323408  0.74570617  0.29710299  1
  C  C129  1  0.11676592  0.25429383  0.70289701  1
  C  C130  1  0.11676592  0.75429383  0.79710299  1
  C  C131  1  0.88323408  0.24570617  0.20289701  1
  C  C132  1  0.26357439  0.01823845  0.52338000  1
  C  C133  1  0.73642561  0.98176155  0.47662000  1
  C  C134  1  0.73642561  0.48176155  0.02338000  1
  C  C135  1  0.26357439  0.51823845  0.97662000  1
  C  C136  1  0.62222878  0.75993682  0.71724356  1
  C  C137  1  0.37777122  0.24006318  0.28275644  1
  C  C138  1  0.37777122  0.74006318  0.21724356  1
  C  C139  1  0.62222878  0.25993682  0.78275644  1
  C  C140  1  0.95970484  0.96460778  0.28229804  1
  C  C141  1  0.04029516  0.03539222  0.71770196  1
  C  C142  1  0.04029516  0.53539222  0.78229804  1
  C  C143  1  0.95970484  0.46460778  0.21770196  1
  C  C144  1  0.87860878  0.50222177  0.69595445  1
  C  C145  1  0.12139122  0.49777823  0.30404555  1
  C  C146  1  0.12139122  0.99777823  0.19595445  1
  C  C147  1  0.87860878  0.00222177  0.80404555  1
  C  C148  1  0.84809677  0.97455363  0.60252648  1
  C  C149  1  0.15190323  0.02544637  0.39747352  1
  C  C150  1  0.15190323  0.52544637  0.10252648  1
  C  C151  1  0.84809677  0.47455363  0.89747352  1
  C  C152  1  0.48145724  0.86410468  0.72993105  1
  C  C153  1  0.51854276  0.13589532  0.27006895  1
  C  C154  1  0.51854276  0.63589532  0.22993105  1
  C  C155  1  0.48145724  0.36410468  0.77006895  1
  C  C156  1  0.28926848  0.82072610  0.75174129  1
  C  C157  1  0.71073152  0.17927390  0.24825871  1
  C  C158  1  0.71073152  0.67927390  0.25174129  1
  C  C159  1  0.28926848  0.32072610  0.74825871  1
  C  C160  1  0.79155520  0.82125783  0.77055698  1
  C  C161  1  0.20844480  0.17874217  0.22944302  1
  C  C162  1  0.20844480  0.67874217  0.27055698  1
  C  C163  1  0.79155520  0.32125783  0.72944302  1
  C  C164  1  0.87105361  0.86816388  0.91923599  1
  C  C165  1  0.12894639  0.13183612  0.08076401  1
  C  C166  1  0.12894639  0.63183612  0.41923599  1
  C  C167  1  0.87105361  0.36816388  0.58076401  1
  C  C168  1  0.43979895  0.67437634  0.74097696  1
  C  C169  1  0.56020105  0.32562366  0.25902304  1
  C  C170  1  0.56020105  0.82562366  0.24097696  1
  C  C171  1  0.43979895  0.17437634  0.75902304  1
  C  C172  1  0.50180069  0.88267133  0.88204622  1
  C  C173  1  0.49819931  0.11732867  0.11795378  1
  C  C174  1  0.49819931  0.61732867  0.38204622  1
  C  C175  1  0.50180069  0.38267133  0.61795378  1
  C  C176  1  0.66153309  0.93116151  0.78856648  1
  C  C177  1  0.33846691  0.06883849  0.21143352  1
  C  C178  1  0.33846691  0.56883849  0.28856648  1
  C  C179  1  0.66153309  0.43116151  0.71143352  1
  C  C180  1  0.36332312  0.86703022  0.60119681  1
  C  C181  1  0.63667688  0.13296978  0.39880319  1
  C  C182  1  0.63667688  0.63296978  0.10119681  1
  C  C183  1  0.36332312  0.36703022  0.89880319  1
  C  C184  1  0.97899204  0.73500320  0.90963222  1
  C  C185  1  0.02100796  0.26499680  0.09036778  1
  C  C186  1  0.02100796  0.76499680  0.40963222  1
  C  C187  1  0.97899204  0.23500320  0.59036778  1
