# generated using pymatgen
data_Cu2Ni4C11
_symmetry_space_group_name_H-M   'P 1'
_cell_length_a   8.69005700
_cell_length_b   9.79876000
_cell_length_c   13.21157200
_cell_angle_alpha   90.00000000
_cell_angle_beta   90.00000000
_cell_angle_gamma   90.00000000
_symmetry_Int_Tables_number   1
_chemical_formula_structural   Cu2Ni4C11
_chemical_formula_sum   'Cu8 Ni16 C44'
_cell_volume   1124.98891110
_cell_formula_units_Z   4
loop_
 _symmetry_equiv_pos_site_id
 _symmetry_equiv_pos_as_xyz
  1  'x, y, z'
loop_
 _atom_site_type_symbol
 _atom_site_label
 _atom_site_symmetry_multiplicity
 _atom_site_fract_x
 _atom_site_fract_y
 _atom_site_fract_z
 _atom_site_occupancy
  Ni  Ni0  1  0.18507100  0.93511900  0.73039400  1
  Ni  Ni1  1  0.68657400  0.06494200  0.77264900  1
  Ni  Ni2  1  0.81492900  0.06488100  0.23039400  1
  Ni  Ni3  1  0.31342600  0.93505800  0.27264900  1
  Ni  Ni4  1  0.81342600  0.56494200  0.27264900  1
  Ni  Ni5  1  0.31492900  0.43511900  0.23039400  1
  Ni  Ni6  1  0.18657400  0.43505800  0.77264900  1
  Ni  Ni7  1  0.68507100  0.56488100  0.73039400  1
  Ni  Ni8  1  0.86348600  0.82273200  0.69843200  1
  Ni  Ni9  1  0.36418100  0.17837400  0.80395000  1
  Ni  Ni10  1  0.13651400  0.17726800  0.19843200  1
  Ni  Ni11  1  0.63581900  0.82162600  0.30395000  1
  Ni  Ni12  1  0.13581900  0.67837400  0.30395000  1
  Ni  Ni13  1  0.63651400  0.32273200  0.19843200  1
  Ni  Ni14  1  0.86418100  0.32162600  0.80395000  1
  Ni  Ni15  1  0.36348600  0.67726800  0.69843200  1
  Cu  Cu16  1  0.03917700  0.94746900  0.47429600  1
  Cu  Cu17  1  0.53658600  0.05490000  0.03058500  1
  Cu  Cu18  1  0.96082300  0.05253100  0.97429600  1
  Cu  Cu19  1  0.46341400  0.94510000  0.53058500  1
  Cu  Cu20  1  0.96341400  0.55490000  0.53058500  1
  Cu  Cu21  1  0.46082300  0.44746900  0.97429600  1
  Cu  Cu22  1  0.03658600  0.44510000  0.03058500  1
  Cu  Cu23  1  0.53917700  0.55253100  0.47429600  1
  C  C24  1  0.72291700  0.93558300  0.69693900  1
  C  C25  1  0.22443100  0.06370600  0.80654700  1
  C  C26  1  0.27708300  0.06441700  0.19693900  1
  C  C27  1  0.77556900  0.93629400  0.30654700  1
  C  C28  1  0.27556900  0.56370600  0.30654700  1
  C  C29  1  0.77708300  0.43558300  0.19693900  1
  C  C30  1  0.72443100  0.43629400  0.80654700  1
  C  C31  1  0.22291700  0.56441700  0.69693900  1
  C  C32  1  0.80477100  0.68802900  0.76091500  1
  C  C33  1  0.30447800  0.31132400  0.74065300  1
  C  C34  1  0.19522900  0.31197100  0.26091500  1
  C  C35  1  0.69552200  0.68867600  0.24065300  1
  C  C36  1  0.19552200  0.81132400  0.24065300  1
  C  C37  1  0.69522900  0.18802900  0.26091500  1
  C  C38  1  0.80447800  0.18867600  0.74065300  1
  C  C39  1  0.30477100  0.81197100  0.76091500  1
  C  C40  1  0.00794100  0.89242800  0.76099300  1
  C  C41  1  0.50905300  0.10769300  0.74312100  1
  C  C42  1  0.99205900  0.10757200  0.26099300  1
  C  C43  1  0.49094700  0.89230700  0.24312100  1
  C  C44  1  0.99094700  0.60769300  0.24312100  1
  C  C45  1  0.49205900  0.39242800  0.26099300  1
  C  C46  1  0.00905300  0.39230700  0.74312100  1
  C  C47  1  0.50794100  0.60757200  0.76099300  1
  C  C48  1  0.91367300  0.78277800  0.58419900  1
  C  C49  1  0.41527000  0.21972100  0.91776500  1
  C  C50  1  0.08632700  0.21722200  0.08419900  1
  C  C51  1  0.58473000  0.78027900  0.41776500  1
  C  C52  1  0.08473000  0.71972100  0.41776500  1
  C  C53  1  0.58632700  0.28277800  0.08419900  1
  C  C54  1  0.91527000  0.28027900  0.91776500  1
  C  C55  1  0.41367300  0.71722200  0.58419900  1
  C  C56  1  0.20527500  0.97145600  0.61095800  1
  C  C57  1  0.70875400  0.02751400  0.89189200  1
  C  C58  1  0.79472500  0.02854400  0.11095800  1
  C  C59  1  0.29124600  0.97248600  0.39189200  1
  C  C60  1  0.79124600  0.52751400  0.39189200  1
  C  C61  1  0.29472500  0.47145600  0.11095800  1
  C  C62  1  0.20875400  0.47248600  0.89189200  1
  C  C63  1  0.70527500  0.52854400  0.61095800  1
  C  C64  1  0.90546600  0.14928800  0.51471100  1
  C  C65  1  0.09453400  0.85071200  0.01471100  1
  C  C66  1  0.59453400  0.64928800  0.01471100  1
  C  C67  1  0.40546600  0.35071200  0.51471100  1
