# generated using pymatgen
data_Cu2Ni4C17
_symmetry_space_group_name_H-M   'P 1'
_cell_length_a   5.59800800
_cell_length_b   6.70489246
_cell_length_c   10.97736794
_cell_angle_alpha   75.49366977
_cell_angle_beta   78.84472802
_cell_angle_gamma   71.96657858
_symmetry_Int_Tables_number   1
_chemical_formula_structural   Cu2Ni4C17
_chemical_formula_sum   'Cu2 Ni4 C17'
_cell_volume   376.27517025
_cell_formula_units_Z   1
loop_
 _symmetry_equiv_pos_site_id
 _symmetry_equiv_pos_as_xyz
  1  'x, y, z'
loop_
 _atom_site_type_symbol
 _atom_site_label
 _atom_site_symmetry_multiplicity
 _atom_site_fract_x
 _atom_site_fract_y
 _atom_site_fract_z
 _atom_site_occupancy
  C  C0  1  0.00000000  0.00000000  0.00000000  1
  Ni  Ni1  1  0.41314500  0.77119000  0.54203900  1
  Ni  Ni2  1  0.58685500  0.22881000  0.45796100  1
  Ni  Ni3  1  0.99730600  0.59453900  0.32414900  1
  Ni  Ni4  1  0.00269400  0.40546100  0.67585100  1
  Cu  Cu5  1  0.37173100  0.06954100  0.22600900  1
  Cu  Cu6  1  0.62826900  0.93045900  0.77399100  1
  C  C7  1  0.16046500  0.73064800  0.08561700  1
  C  C8  1  0.83953500  0.26935200  0.91438300  1
  C  C9  1  0.72393400  0.90411300  0.43401500  1
  C  C10  1  0.27606600  0.09588700  0.56598500  1
  C  C11  1  0.25900500  0.50031100  0.48240800  1
  C  C12  1  0.74099500  0.49968900  0.51759200  1
  C  C13  1  0.28435800  0.86978000  0.34586500  1
  C  C14  1  0.71564200  0.13022000  0.65413500  1
  C  C15  1  0.35586500  0.28800600  0.28791000  1
  C  C16  1  0.64413500  0.71199400  0.71209000  1
  C  C17  1  0.17343900  0.14315200  0.11327100  1
  C  C18  1  0.82656100  0.85684800  0.88672900  1
  C  C19  1  0.67736100  0.96701900  0.16033900  1
  C  C20  1  0.32263900  0.03298100  0.83966100  1
  C  C21  1  0.17920600  0.65064700  0.69119400  1
  C  C22  1  0.82079400  0.34935300  0.30880600  1
