# generated using pymatgen
data_Cu4NiC
_symmetry_space_group_name_H-M   'P 1'
_cell_length_a   8.96378156
_cell_length_b   10.35086822
_cell_length_c   8.35320002
_cell_angle_alpha   89.99971256
_cell_angle_beta   89.99366397
_cell_angle_gamma   90.00039506
_symmetry_Int_Tables_number   1
_chemical_formula_structural   Cu4NiC
_chemical_formula_sum   'Cu32 Ni8 C8'
_cell_volume   775.03429894
_cell_formula_units_Z   8
loop_
 _symmetry_equiv_pos_site_id
 _symmetry_equiv_pos_as_xyz
  1  'x, y, z'
loop_
 _atom_site_type_symbol
 _atom_site_label
 _atom_site_symmetry_multiplicity
 _atom_site_fract_x
 _atom_site_fract_y
 _atom_site_fract_z
 _atom_site_occupancy
  C  C0  1  0.99987600  0.49969700  0.49990300  1
  C  C1  1  0.50003100  0.74970900  0.49995400  1
  C  C2  1  0.00005400  0.99947700  0.49987300  1
  C  C3  1  0.50004200  0.24966100  0.49989600  1
  C  C4  1  0.99999100  0.50016800  0.99997800  1
  C  C5  1  0.50000800  0.24977700  0.99992800  1
  C  C6  1  0.50011900  0.74973200  0.00017700  1
  C  C7  1  0.99997500  0.00032200  0.99984500  1
  Ni  Ni8  1  0.16654900  0.25008700  0.79356000  1
  Ni  Ni9  1  0.66659900  0.50001000  0.79354800  1
  Ni  Ni10  1  0.16658700  0.75000900  0.79366400  1
  Ni  Ni11  1  0.66651900  0.99999700  0.79360200  1
  Ni  Ni12  1  0.33337100  0.49997100  0.20652200  1
  Ni  Ni13  1  0.83353700  0.75003800  0.20639600  1
  Ni  Ni14  1  0.33340900  0.00003800  0.20639500  1
  Ni  Ni15  1  0.83344300  0.25007100  0.20637900  1
  Cu  Cu16  1  0.16688200  0.24994200  0.61845100  1
  Cu  Cu17  1  0.66677600  0.49997800  0.61842400  1
  Cu  Cu18  1  0.16694100  0.74978300  0.61853500  1
  Cu  Cu19  1  0.66664400  0.99987000  0.61847900  1
  Cu  Cu20  1  0.33320400  0.49984100  0.38164900  1
  Cu  Cu21  1  0.83322500  0.74983200  0.38151900  1
  Cu  Cu22  1  0.33322000  0.99997800  0.38153100  1
  Cu  Cu23  1  0.83302100  0.24983300  0.38149400  1
  Cu  Cu24  1  0.09481700  0.12952900  0.85344800  1
  Cu  Cu25  1  0.59474300  0.37965200  0.85353100  1
  Cu  Cu26  1  0.09479900  0.62949300  0.85359300  1
  Cu  Cu27  1  0.59475800  0.87966000  0.85373800  1
  Cu  Cu28  1  0.08152100  0.36398200  0.85322300  1
  Cu  Cu29  1  0.58192700  0.61414300  0.85337000  1
  Cu  Cu30  1  0.08155200  0.86396500  0.85319200  1
  Cu  Cu31  1  0.58182600  0.11415400  0.85332400  1
  Cu  Cu32  1  0.40512800  0.37959200  0.14645600  1
  Cu  Cu33  1  0.90516000  0.62948500  0.14642300  1
  Cu  Cu34  1  0.40520900  0.87966000  0.14639000  1
  Cu  Cu35  1  0.90513600  0.12952400  0.14640900  1
  Cu  Cu36  1  0.32271900  0.25661900  0.85392300  1
  Cu  Cu37  1  0.82286700  0.50658600  0.85365000  1
  Cu  Cu38  1  0.32274600  0.75650700  0.85406800  1
  Cu  Cu39  1  0.82281100  0.00670300  0.85364300  1
  Cu  Cu40  1  0.41819100  0.61409400  0.14683000  1
  Cu  Cu41  1  0.91849900  0.86396500  0.14675100  1
  Cu  Cu42  1  0.41818700  0.11415000  0.14667100  1
  Cu  Cu43  1  0.91853300  0.36399600  0.14687900  1
  Cu  Cu44  1  0.17710400  0.50669400  0.14642800  1
  Cu  Cu45  1  0.67729200  0.75657600  0.14614600  1
  Cu  Cu46  1  0.17716000  0.00674800  0.14624500  1
  Cu  Cu47  1  0.67729000  0.25670300  0.14597100  1
