# generated using pymatgen
data_CuNiC11
_symmetry_space_group_name_H-M   'P 1'
_cell_length_a   6.64251700
_cell_length_b   8.73692181
_cell_length_c   10.24225554
_cell_angle_alpha   92.46569174
_cell_angle_beta   90.40621598
_cell_angle_gamma   91.30346701
_symmetry_Int_Tables_number   1
_chemical_formula_structural   CuNiC11
_chemical_formula_sum   'Cu4 Ni4 C44'
_cell_volume   593.68748379
_cell_formula_units_Z   4
loop_
 _symmetry_equiv_pos_site_id
 _symmetry_equiv_pos_as_xyz
  1  'x, y, z'
loop_
 _atom_site_type_symbol
 _atom_site_label
 _atom_site_symmetry_multiplicity
 _atom_site_fract_x
 _atom_site_fract_y
 _atom_site_fract_z
 _atom_site_occupancy
  C  C0  1  0.24503400  0.91599400  0.38071900  1
  C  C1  1  0.50074000  0.74260300  0.63044400  1
  C  C2  1  0.99870900  0.73989700  0.12378000  1
  C  C3  1  0.49945900  0.73770500  0.12282400  1
  C  C4  1  0.50142900  0.25834200  0.87418300  1
  C  C5  1  0.50285700  0.25820600  0.37323600  1
  C  C6  1  0.22678400  0.91859600  0.87459000  1
  C  C7  1  0.02702700  0.71925000  0.61729000  1
  C  C8  1  0.98386000  0.27133900  0.87989600  1
  C  C9  1  0.97975500  0.27579500  0.38009300  1
  C  C10  1  0.77777000  0.08937800  0.62773800  1
  C  C11  1  0.76650400  0.09473900  0.12394200  1
  C  C12  1  0.75382500  0.65097300  0.88646400  1
  C  C13  1  0.75289800  0.64891700  0.39369100  1
  C  C14  1  0.24357800  0.34545100  0.60962400  1
  C  C15  1  0.24254100  0.34493700  0.10570400  1
  Ni  Ni16  1  0.24160000  0.59187100  0.84989400  1
  Ni  Ni17  1  0.24478200  0.58050300  0.35562100  1
  Ni  Ni18  1  0.75763900  0.40949900  0.64750500  1
  Ni  Ni19  1  0.75128100  0.40506300  0.14315200  1
  Cu  Cu20  1  0.76177500  0.95771600  0.86218200  1
  Cu  Cu21  1  0.76067000  0.95618300  0.36280100  1
  Cu  Cu22  1  0.23597600  0.04983700  0.64595600  1
  Cu  Cu23  1  0.24657100  0.05042400  0.13440300  1
  C  C24  1  0.22481000  0.90281600  0.66008700  1
  C  C25  1  0.25722900  0.90628200  0.15416600  1
  C  C26  1  0.75575200  0.91964000  0.98388600  1
  C  C27  1  0.75099000  0.91899500  0.48424400  1
  C  C28  1  0.75505900  0.85077500  0.76918800  1
  C  C29  1  0.75485500  0.84756200  0.27058800  1
  C  C30  1  0.06764600  0.69821400  0.89590100  1
  C  C31  1  0.43916400  0.68311900  0.88788900  1
  C  C32  1  0.06682900  0.68284000  0.40355600  1
  C  C33  1  0.44045100  0.67109500  0.40020400  1
  C  C34  1  0.22850000  0.56895200  0.69747000  1
  C  C35  1  0.77022500  0.57031100  0.58872100  1
  C  C36  1  0.24136600  0.56263100  0.20368900  1
  C  C37  1  0.74578900  0.56167800  0.07888800  1
  C  C38  1  0.23126300  0.43332900  0.91197400  1
  C  C39  1  0.77772700  0.42895100  0.79937900  1
  C  C40  1  0.23109000  0.42024600  0.41374800  1
  C  C41  1  0.77414700  0.42974700  0.29481200  1
  C  C42  1  0.55766300  0.32149200  0.61108400  1
  C  C43  1  0.92727900  0.30287100  0.59405700  1
  C  C44  1  0.55730800  0.30643000  0.11141800  1
  C  C45  1  0.92683200  0.30443100  0.08980600  1
  C  C46  1  0.23373300  0.14298000  0.74825200  1
  C  C47  1  0.23655900  0.14874400  0.23369000  1
  C  C48  1  0.24959400  0.10684300  0.53119700  1
  C  C49  1  0.24484200  0.09905300  0.01596500  1
  C  C50  1  0.77449200  0.09936300  0.83043100  1
  C  C51  1  0.77574500  0.09739200  0.32997800  1
