# generated using pymatgen
data_Cu3NiC14
_symmetry_space_group_name_H-M   'P 1'
_cell_length_a   8.40961813
_cell_length_b   8.40961813
_cell_length_c   8.40961842
_cell_angle_alpha   63.81499783
_cell_angle_beta   63.81499783
_cell_angle_gamma   63.81499800
_symmetry_Int_Tables_number   1
_chemical_formula_structural   Cu3NiC14
_chemical_formula_sum   'Cu6 Ni2 C28'
_cell_volume   455.93445053
_cell_formula_units_Z   2
loop_
 _symmetry_equiv_pos_site_id
 _symmetry_equiv_pos_as_xyz
  1  'x, y, z'
loop_
 _atom_site_type_symbol
 _atom_site_label
 _atom_site_symmetry_multiplicity
 _atom_site_fract_x
 _atom_site_fract_y
 _atom_site_fract_z
 _atom_site_occupancy
  C  C0  1  0.84938700  0.84938700  0.84938700  1
  C  C1  1  0.34938700  0.34938700  0.34938700  1
  C  C2  1  0.00423800  0.00423800  0.00423800  1
  C  C3  1  0.50423800  0.50423800  0.50423800  1
  Ni  Ni4  1  0.66386700  0.66386700  0.66386700  1
  Ni  Ni5  1  0.16386700  0.16386700  0.16386700  1
  Cu  Cu6  1  0.24571200  0.93342900  0.56775000  1
  Cu  Cu7  1  0.93342900  0.56775000  0.24571200  1
  Cu  Cu8  1  0.56775000  0.24571200  0.93342900  1
  Cu  Cu9  1  0.43342900  0.74571200  0.06775000  1
  Cu  Cu10  1  0.06775000  0.43342900  0.74571200  1
  Cu  Cu11  1  0.74571200  0.06775000  0.43342900  1
  C  C12  1  0.67410400  0.93267800  0.43096300  1
  C  C13  1  0.43096300  0.67410400  0.93267800  1
  C  C14  1  0.09177800  0.92832700  0.76035400  1
  C  C15  1  0.93267800  0.43096300  0.67410400  1
  C  C16  1  0.17410400  0.93096300  0.43267800  1
  C  C17  1  0.41682000  0.75427600  0.58416900  1
  C  C18  1  0.92832700  0.76035400  0.09177800  1
  C  C19  1  0.75427600  0.58416900  0.41682000  1
  C  C20  1  0.61810200  0.79723100  0.99682000  1
  C  C21  1  0.58416900  0.41682000  0.75427600  1
  C  C22  1  0.25427600  0.91682000  0.08416900  1
  C  C23  1  0.99682000  0.61810200  0.79723100  1
  C  C24  1  0.93096300  0.43267800  0.17410400  1
  C  C25  1  0.76035400  0.09177800  0.92832700  1
  C  C26  1  0.42832700  0.59177800  0.26035400  1
  C  C27  1  0.43267800  0.17410400  0.93096300  1
  C  C28  1  0.26035400  0.42832700  0.59177800  1
  C  C29  1  0.08416900  0.25427600  0.91682000  1
  C  C30  1  0.59177800  0.26035400  0.42832700  1
  C  C31  1  0.79723100  0.99682000  0.61810200  1
  C  C32  1  0.11810200  0.49682000  0.29723100  1
  C  C33  1  0.91682000  0.08416900  0.25427600  1
  C  C34  1  0.49682000  0.29723100  0.11810200  1
  C  C35  1  0.29723100  0.11810200  0.49682000  1
