# generated using pymatgen
data_Cu(NiC)3
_symmetry_space_group_name_H-M   'P 1'
_cell_length_a   5.55762030
_cell_length_b   5.55762454
_cell_length_c   13.61231839
_cell_angle_alpha   78.21957858
_cell_angle_beta   78.21959074
_cell_angle_gamma   89.99807548
_symmetry_Int_Tables_number   1
_chemical_formula_structural   Cu(NiC)3
_chemical_formula_sum   'Cu4 Ni12 C12'
_cell_volume   402.54027723
_cell_formula_units_Z   4
loop_
 _symmetry_equiv_pos_site_id
 _symmetry_equiv_pos_as_xyz
  1  'x, y, z'
loop_
 _atom_site_type_symbol
 _atom_site_label
 _atom_site_symmetry_multiplicity
 _atom_site_fract_x
 _atom_site_fract_y
 _atom_site_fract_z
 _atom_site_occupancy
  C  C0  1  0.18262400  0.18262200  0.63476500  1
  C  C1  1  0.68262500  0.68262200  0.63476500  1
  C  C2  1  0.43262200  0.93262400  0.13477200  1
  C  C3  1  0.93262200  0.43262400  0.13477200  1
  C  C4  1  0.06828900  0.56828900  0.86341200  1
  C  C5  1  0.56828900  0.06828900  0.86341300  1
  C  C6  1  0.31829100  0.31829000  0.36340700  1
  C  C7  1  0.81829100  0.81829000  0.36340700  1
  C  C8  1  0.00923700  0.00923100  0.98152000  1
  C  C9  1  0.25923000  0.75923700  0.48152000  1
  C  C10  1  0.50925500  0.50924300  0.98148800  1
  C  C11  1  0.75924400  0.25925600  0.48148700  1
  Ni  Ni12  1  0.08423600  0.08423800  0.83150000  1
  Ni  Ni13  1  0.58423600  0.58423800  0.83149900  1
  Ni  Ni14  1  0.33424800  0.83424600  0.33150600  1
  Ni  Ni15  1  0.83424900  0.33424600  0.33150400  1
  Ni  Ni16  1  0.99711300  0.99710500  0.50577000  1
  Ni  Ni17  1  0.49711200  0.49710800  0.50577000  1
  Ni  Ni18  1  0.24711900  0.74712700  0.00577200  1
  Ni  Ni19  1  0.74712200  0.24712600  0.00577200  1
  Ni  Ni20  1  0.49710600  0.99710900  0.50576900  1
  Ni  Ni21  1  0.99710800  0.49711200  0.50577000  1
  Ni  Ni22  1  0.74712600  0.74712200  0.00577200  1
  Ni  Ni23  1  0.24712300  0.24712000  0.00577100  1
  Cu  Cu24  1  0.16138000  0.66137800  0.67727700  1
  Cu  Cu25  1  0.66138000  0.16137800  0.67727800  1
  Cu  Cu26  1  0.41136000  0.41136100  0.17727200  1
  Cu  Cu27  1  0.91136000  0.91136200  0.17727100  1
