# generated using pymatgen
data_Cu12Ni3C4
_symmetry_space_group_name_H-M   'P 1'
_cell_length_a   9.61281166
_cell_length_b   9.61281166
_cell_length_c   6.00284500
_cell_angle_alpha   90.00000000
_cell_angle_beta   90.00000000
_cell_angle_gamma   119.99999765
_symmetry_Int_Tables_number   1
_chemical_formula_structural   Cu12Ni3C4
_chemical_formula_sum   'Cu24 Ni6 C8'
_cell_volume   480.38411529
_cell_formula_units_Z   2
loop_
 _symmetry_equiv_pos_site_id
 _symmetry_equiv_pos_as_xyz
  1  'x, y, z'
loop_
 _atom_site_type_symbol
 _atom_site_label
 _atom_site_symmetry_multiplicity
 _atom_site_fract_x
 _atom_site_fract_y
 _atom_site_fract_z
 _atom_site_occupancy
  C  C0  1  0.66666700  0.33333300  0.74781600  1
  C  C1  1  0.33333300  0.66666700  0.24781600  1
  C  C2  1  0.93287600  0.77614300  0.86130400  1
  C  C3  1  0.84326700  0.06712400  0.86130400  1
  C  C4  1  0.22385700  0.15673300  0.86130400  1
  C  C5  1  0.06712400  0.22385700  0.36130400  1
  C  C6  1  0.15673300  0.93287600  0.36130400  1
  C  C7  1  0.77614300  0.84326700  0.36130400  1
  Ni  Ni8  1  0.09520600  0.69878900  0.75272600  1
  Ni  Ni9  1  0.60358300  0.90479400  0.75272600  1
  Ni  Ni10  1  0.30121100  0.39641700  0.75272600  1
  Ni  Ni11  1  0.90479400  0.30121100  0.25272600  1
  Ni  Ni12  1  0.39641700  0.09520600  0.25272600  1
  Ni  Ni13  1  0.69878900  0.60358300  0.25272600  1
  Cu  Cu14  1  0.01818600  0.81280300  0.74769500  1
  Cu  Cu15  1  0.79461700  0.98181400  0.74769500  1
  Cu  Cu16  1  0.18719700  0.20538300  0.74769500  1
  Cu  Cu17  1  0.98181400  0.18719700  0.24769500  1
  Cu  Cu18  1  0.20538300  0.01818600  0.24769500  1
  Cu  Cu19  1  0.81280300  0.79461700  0.24769500  1
  Cu  Cu20  1  0.96485700  0.53284000  0.75289400  1
  Cu  Cu21  1  0.56798300  0.03514300  0.75289400  1
  Cu  Cu22  1  0.46716000  0.43201700  0.75289400  1
  Cu  Cu23  1  0.03514300  0.46716000  0.25289400  1
  Cu  Cu24  1  0.43201700  0.96485700  0.25289400  1
  Cu  Cu25  1  0.53284000  0.56798300  0.25289400  1
  Cu  Cu26  1  0.44223600  0.19114900  0.04770100  1
  Cu  Cu27  1  0.74891300  0.55776400  0.04770100  1
  Cu  Cu28  1  0.80885100  0.25108700  0.04770100  1
  Cu  Cu29  1  0.55776400  0.80885100  0.54770100  1
  Cu  Cu30  1  0.25108700  0.44223600  0.54770100  1
  Cu  Cu31  1  0.19114900  0.74891300  0.54770100  1
  Cu  Cu32  1  0.54671600  0.80565000  0.95340600  1
  Cu  Cu33  1  0.25893400  0.45328400  0.95340600  1
  Cu  Cu34  1  0.19435000  0.74106600  0.95340600  1
  Cu  Cu35  1  0.45328400  0.19435000  0.45340600  1
  Cu  Cu36  1  0.74106600  0.54671600  0.45340600  1
  Cu  Cu37  1  0.80565000  0.25893400  0.45340600  1
