# generated using pymatgen
data_CuNi3C8
_symmetry_space_group_name_H-M   'P 1'
_cell_length_a   3.35673904
_cell_length_b   3.35673904
_cell_length_c   38.31488300
_cell_angle_alpha   90.00000000
_cell_angle_beta   90.00000000
_cell_angle_gamma   119.99998099
_symmetry_Int_Tables_number   1
_chemical_formula_structural   CuNi3C8
_chemical_formula_sum   'Cu1 Ni3 C8'
_cell_volume   373.88098363
_cell_formula_units_Z   1
loop_
 _symmetry_equiv_pos_site_id
 _symmetry_equiv_pos_as_xyz
  1  'x, y, z'
loop_
 _atom_site_type_symbol
 _atom_site_label
 _atom_site_symmetry_multiplicity
 _atom_site_fract_x
 _atom_site_fract_y
 _atom_site_fract_z
 _atom_site_occupancy
  C  C0  1  0.00000000  0.00000000  0.33122200  1
  C  C1  1  0.00000000  0.00000000  0.70693900  1
  C  C2  1  0.00000000  0.00000000  0.23233600  1
  C  C3  1  0.00000000  0.00000000  0.60814800  1
  Ni  Ni4  1  0.00000000  0.00000000  0.09391500  1
  Ni  Ni5  1  0.33333300  0.66666700  0.28178800  1
  Ni  Ni6  1  0.33333300  0.66666700  0.65756000  1
  Cu  Cu7  1  0.00000000  0.00000000  0.46967200  1
  C  C8  1  0.33333300  0.66666700  0.05441100  1
  C  C9  1  0.33333300  0.66666700  0.43003400  1
  C  C10  1  0.33333300  0.66666700  0.13342200  1
  C  C11  1  0.33333300  0.66666700  0.50930000  1
