# generated using pymatgen
data_Cu(NiC2)3
_symmetry_space_group_name_H-M   'P 1'
_cell_length_a   11.09644885
_cell_length_b   11.09644885
_cell_length_c   11.09644885
_cell_angle_alpha   117.85251146
_cell_angle_beta   117.85251146
_cell_angle_gamma   93.76163018
_symmetry_Int_Tables_number   1
_chemical_formula_structural   Cu(NiC2)3
_chemical_formula_sum   'Cu4 Ni12 C24'
_cell_volume   995.17319696
_cell_formula_units_Z   4
loop_
 _symmetry_equiv_pos_site_id
 _symmetry_equiv_pos_as_xyz
  1  'x, y, z'
loop_
 _atom_site_type_symbol
 _atom_site_label
 _atom_site_symmetry_multiplicity
 _atom_site_fract_x
 _atom_site_fract_y
 _atom_site_fract_z
 _atom_site_occupancy
  C  C0  1  0.16856900  0.66856900  0.83713800  1
  C  C1  1  0.83143100  0.33143100  0.16286200  1
  C  C2  1  0.66856900  0.83143100  0.50000000  1
  C  C3  1  0.33143100  0.16856900  0.50000000  1
  C  C4  1  0.83112600  0.69896900  0.26125700  1
  C  C5  1  0.16887400  0.30103100  0.73874300  1
  C  C6  1  0.43771200  0.56986900  0.73874300  1
  C  C7  1  0.69896900  0.43771200  0.86784300  1
  C  C8  1  0.06228800  0.80103100  0.13215700  1
  C  C9  1  0.56228800  0.43013100  0.26125700  1
  C  C10  1  0.30103100  0.56228800  0.13215700  1
  C  C11  1  0.93771200  0.19896900  0.86784300  1
  C  C12  1  0.56986900  0.83112600  0.13215700  1
  C  C13  1  0.66887400  0.93013100  0.86784300  1
  C  C14  1  0.43013100  0.16887400  0.86784300  1
  C  C15  1  0.33112600  0.06986900  0.13215700  1
  C  C16  1  0.93013100  0.06228800  0.26125700  1
  C  C17  1  0.06986900  0.93771200  0.73874300  1
  C  C18  1  0.80103100  0.66887400  0.73874300  1
  C  C19  1  0.19896900  0.33112600  0.26125700  1
  C  C20  1  0.14659000  0.64659000  0.50000000  1
  C  C21  1  0.85341000  0.35341000  0.50000000  1
  C  C22  1  0.64659000  0.14659000  0.50000000  1
  C  C23  1  0.35341000  0.85341000  0.50000000  1
  Ni  Ni24  1  0.62224900  0.12224900  0.74449900  1
  Ni  Ni25  1  0.37775100  0.87775100  0.25550100  1
  Ni  Ni26  1  0.12224900  0.37775100  0.50000000  1
  Ni  Ni27  1  0.87775100  0.62224900  0.50000000  1
  Ni  Ni28  1  0.38172700  0.88172700  0.85382800  1
  Ni  Ni29  1  0.61827300  0.11827300  0.14617200  1
  Ni  Ni30  1  0.02789800  0.52789800  0.14617200  1
  Ni  Ni31  1  0.88172700  0.02789800  0.50000000  1
  Ni  Ni32  1  0.47210200  0.61827300  0.50000000  1
  Ni  Ni33  1  0.97210200  0.47210200  0.85382800  1
  Ni  Ni34  1  0.11827300  0.97210200  0.50000000  1
  Ni  Ni35  1  0.52789800  0.38172700  0.50000000  1
  Cu  Cu36  1  0.50000000  0.50000000  0.00000000  1
  Cu  Cu37  1  0.00000000  0.00000000  0.00000000  1
  Cu  Cu38  1  0.75000000  0.75000000  0.00000000  1
  Cu  Cu39  1  0.25000000  0.25000000  0.00000000  1
