# generated using pymatgen
data_Cu9NiC3
_symmetry_space_group_name_H-M   'P 1'
_cell_length_a   10.27194600
_cell_length_b   7.33016400
_cell_length_c   14.41566378
_cell_angle_alpha   90.00000000
_cell_angle_beta   124.50279303
_cell_angle_gamma   90.00000000
_symmetry_Int_Tables_number   1
_chemical_formula_structural   Cu9NiC3
_chemical_formula_sum   'Cu36 Ni4 C12'
_cell_volume   894.49975825
_cell_formula_units_Z   4
loop_
 _symmetry_equiv_pos_site_id
 _symmetry_equiv_pos_as_xyz
  1  'x, y, z'
loop_
 _atom_site_type_symbol
 _atom_site_label
 _atom_site_symmetry_multiplicity
 _atom_site_fract_x
 _atom_site_fract_y
 _atom_site_fract_z
 _atom_site_occupancy
  C  C0  1  0.18414500  0.56126400  0.18415300  1
  C  C1  1  0.81585500  0.06126400  0.31584700  1
  C  C2  1  0.81585500  0.43873600  0.81584700  1
  C  C3  1  0.18414500  0.93873600  0.68415300  1
  C  C4  1  0.68297100  0.80046800  0.96091600  1
  C  C5  1  0.31702900  0.30046800  0.53908400  1
  C  C6  1  0.31702900  0.19953200  0.03908400  1
  C  C7  1  0.68297100  0.69953200  0.46091600  1
  C  C8  1  0.63120300  0.92960500  0.68433600  1
  C  C9  1  0.36879700  0.42960500  0.81566400  1
  C  C10  1  0.36879700  0.07039500  0.31566400  1
  C  C11  1  0.63120300  0.57039500  0.18433600  1
  Ni  Ni12  1  0.86571400  0.14156800  0.06891700  1
  Ni  Ni13  1  0.13428600  0.64156800  0.43108300  1
  Ni  Ni14  1  0.13428600  0.85843200  0.93108300  1
  Ni  Ni15  1  0.86571400  0.35843200  0.56891700  1
  Cu  Cu16  1  0.49602200  0.92089100  0.88853100  1
  Cu  Cu17  1  0.50397800  0.42089100  0.61146900  1
  Cu  Cu18  1  0.50397800  0.07910900  0.11146900  1
  Cu  Cu19  1  0.49602200  0.57910900  0.38853100  1
  Cu  Cu20  1  0.66874900  0.80531400  0.79599500  1
  Cu  Cu21  1  0.33125100  0.30531400  0.70400500  1
  Cu  Cu22  1  0.33125100  0.19468600  0.20400500  1
  Cu  Cu23  1  0.66874900  0.69468600  0.29599500  1
  Cu  Cu24  1  0.54943800  0.52658900  0.88039400  1
  Cu  Cu25  1  0.45056200  0.02658900  0.61960600  1
  Cu  Cu26  1  0.45056200  0.47341100  0.11960600  1
  Cu  Cu27  1  0.54943800  0.97341100  0.38039400  1
  Cu  Cu28  1  0.87167800  0.68399100  0.02608900  1
  Cu  Cu29  1  0.12832200  0.18399100  0.47391100  1
  Cu  Cu30  1  0.12832200  0.31600900  0.97391100  1
  Cu  Cu31  1  0.87167800  0.81600900  0.52608900  1
  Cu  Cu32  1  0.64377500  0.70496800  0.09518400  1
  Cu  Cu33  1  0.35622500  0.20496800  0.40481600  1
  Cu  Cu34  1  0.35622500  0.29503200  0.90481600  1
  Cu  Cu35  1  0.64377500  0.79503200  0.59518400  1
  Cu  Cu36  1  0.82407500  0.03088900  0.11739000  1
  Cu  Cu37  1  0.17592500  0.53088900  0.38261000  1
  Cu  Cu38  1  0.17592500  0.96911100  0.88261000  1
  Cu  Cu39  1  0.82407500  0.46911100  0.61739000  1
  Cu  Cu40  1  0.81554100  0.09863000  0.96694900  1
  Cu  Cu41  1  0.18445900  0.59863000  0.53305100  1
  Cu  Cu42  1  0.18445900  0.90137000  0.03305100  1
  Cu  Cu43  1  0.81554100  0.40137000  0.46694900  1
  Cu  Cu44  1  0.76085500  0.08867100  0.72885500  1
  Cu  Cu45  1  0.23914500  0.58867100  0.77114500  1
  Cu  Cu46  1  0.23914500  0.91132900  0.27114500  1
  Cu  Cu47  1  0.76085500  0.41132900  0.22885500  1
  Cu  Cu48  1  0.94677100  0.27716200  0.11638900  1
  Cu  Cu49  1  0.05322900  0.77716200  0.38361100  1
  Cu  Cu50  1  0.05322900  0.72283800  0.88361100  1
  Cu  Cu51  1  0.94677100  0.22283800  0.61638900  1
