# generated using pymatgen
data_CuNiC16
_symmetry_space_group_name_H-M   'P 1'
_cell_length_a   8.90133471
_cell_length_b   8.90133418
_cell_length_c   8.90133497
_cell_angle_alpha   59.63220990
_cell_angle_beta   59.63221420
_cell_angle_gamma   59.63221405
_symmetry_Int_Tables_number   1
_chemical_formula_structural   CuNiC16
_chemical_formula_sum   'Cu2 Ni2 C32'
_cell_volume   494.54454465
_cell_formula_units_Z   2
loop_
 _symmetry_equiv_pos_site_id
 _symmetry_equiv_pos_as_xyz
  1  'x, y, z'
loop_
 _atom_site_type_symbol
 _atom_site_label
 _atom_site_symmetry_multiplicity
 _atom_site_fract_x
 _atom_site_fract_y
 _atom_site_fract_z
 _atom_site_occupancy
  C  C0  1  0.99508600  0.99508600  0.99508600  1
  C  C1  1  0.49508600  0.49508600  0.49508600  1
  Ni  Ni2  1  0.14772400  0.14772400  0.14772400  1
  Ni  Ni3  1  0.64772400  0.64772400  0.64772400  1
  Cu  Cu4  1  0.34940900  0.34940900  0.34940900  1
  Cu  Cu5  1  0.84940900  0.84940900  0.84940900  1
  C  C6  1  0.04084300  0.45054500  0.75824500  1
  C  C7  1  0.45054500  0.75824500  0.04084300  1
  C  C8  1  0.75824500  0.04084300  0.45054500  1
  C  C9  1  0.25824500  0.95054500  0.54084300  1
  C  C10  1  0.54084300  0.25824500  0.95054500  1
  C  C11  1  0.95054500  0.54084300  0.25824500  1
  C  C12  1  0.10258400  0.53412700  0.29672300  1
  C  C13  1  0.29672300  0.10258400  0.53412700  1
  C  C14  1  0.04712300  0.26829200  0.92884900  1
  C  C15  1  0.53412700  0.29672300  0.10258400  1
  C  C16  1  0.03412700  0.60258400  0.79672300  1
  C  C17  1  0.22609300  0.42461200  0.59736800  1
  C  C18  1  0.26829200  0.92884900  0.04712300  1
  C  C19  1  0.42461200  0.59736800  0.22609300  1
  C  C20  1  0.20949000  0.00311700  0.36976700  1
  C  C21  1  0.59736800  0.22609300  0.42461200  1
  C  C22  1  0.09736800  0.92461200  0.72609300  1
  C  C23  1  0.36976700  0.20949000  0.00311700  1
  C  C24  1  0.60258400  0.79672300  0.03412700  1
  C  C25  1  0.92884900  0.04712300  0.26829200  1
  C  C26  1  0.42884900  0.76829200  0.54712300  1
  C  C27  1  0.79672300  0.03412700  0.60258400  1
  C  C28  1  0.54712300  0.42884900  0.76829200  1
  C  C29  1  0.72609300  0.09736800  0.92461200  1
  C  C30  1  0.76829200  0.54712300  0.42884900  1
  C  C31  1  0.00311700  0.36976700  0.20949000  1
  C  C32  1  0.50311700  0.70949000  0.86976700  1
  C  C33  1  0.92461200  0.72609300  0.09736800  1
  C  C34  1  0.70949000  0.86976700  0.50311700  1
  C  C35  1  0.86976700  0.50311700  0.70949000  1
