# generated using pymatgen
data_Cu6NiC13
_symmetry_space_group_name_H-M   'P 1'
_cell_length_a   7.59907900
_cell_length_b   12.59994100
_cell_length_c   13.00862223
_cell_angle_alpha   68.90009670
_cell_angle_beta   90.00000000
_cell_angle_gamma   90.00000000
_symmetry_Int_Tables_number   1
_chemical_formula_structural   Cu6NiC13
_chemical_formula_sum   'Cu24 Ni4 C52'
_cell_volume   1162.03998053
_cell_formula_units_Z   4
loop_
 _symmetry_equiv_pos_site_id
 _symmetry_equiv_pos_as_xyz
  1  'x, y, z'
loop_
 _atom_site_type_symbol
 _atom_site_label
 _atom_site_symmetry_multiplicity
 _atom_site_fract_x
 _atom_site_fract_y
 _atom_site_fract_z
 _atom_site_occupancy
  C  C0  1  0.46763700  0.38477200  0.36777600  1
  C  C1  1  0.53236300  0.61522800  0.63222400  1
  C  C2  1  0.96763700  0.11522800  0.63222400  1
  C  C3  1  0.03236300  0.88477200  0.36777600  1
  C  C4  1  0.99254300  0.64200100  0.13610300  1
  C  C5  1  0.00745700  0.35799900  0.86389700  1
  C  C6  1  0.49254300  0.85799900  0.86389700  1
  C  C7  1  0.50745700  0.14200100  0.13610300  1
  Ni  Ni8  1  0.00000000  0.50000000  0.50000000  1
  Ni  Ni9  1  0.50000000  0.00000000  0.50000000  1
  Ni  Ni10  1  0.00000000  0.00000000  0.00000000  1
  Ni  Ni11  1  0.50000000  0.50000000  0.00000000  1
  Cu  Cu12  1  0.28223100  0.89817100  0.08045000  1
  Cu  Cu13  1  0.71776900  0.10182900  0.91955000  1
  Cu  Cu14  1  0.78223100  0.60182900  0.91955000  1
  Cu  Cu15  1  0.21776900  0.39817100  0.08045000  1
  Cu  Cu16  1  0.79464700  0.65881200  0.38465300  1
  Cu  Cu17  1  0.20535300  0.34118800  0.61534700  1
  Cu  Cu18  1  0.29464700  0.84118800  0.61534700  1
  Cu  Cu19  1  0.70535300  0.15881200  0.38465300  1
  Cu  Cu20  1  0.75045000  0.87446500  0.59503300  1
  Cu  Cu21  1  0.24955000  0.12553500  0.40496700  1
  Cu  Cu22  1  0.25045000  0.62553500  0.40496700  1
  Cu  Cu23  1  0.74955000  0.37446500  0.59503300  1
  Cu  Cu24  1  0.52372800  0.87521400  0.38537200  1
  Cu  Cu25  1  0.47627200  0.12478600  0.61462800  1
  Cu  Cu26  1  0.02372800  0.62478600  0.61462800  1
  Cu  Cu27  1  0.97627200  0.37521400  0.38537200  1
  Cu  Cu28  1  0.46615400  0.60411700  0.12909200  1
  Cu  Cu29  1  0.53384600  0.39588300  0.87090800  1
  Cu  Cu30  1  0.96615400  0.89588300  0.87090800  1
  Cu  Cu31  1  0.03384600  0.10411700  0.12909200  1
  Cu  Cu32  1  0.75433600  0.89860400  0.12776100  1
  Cu  Cu33  1  0.24566400  0.10139600  0.87223900  1
  Cu  Cu34  1  0.25433600  0.60139600  0.87223900  1
  Cu  Cu35  1  0.74566400  0.39860400  0.12776100  1
  C  C36  1  0.49964900  0.74784200  0.25101500  1
  C  C37  1  0.50035100  0.25215800  0.74898500  1
  C  C38  1  0.99964900  0.75215800  0.74898500  1
  C  C39  1  0.00035100  0.24784200  0.25101500  1
  C  C40  1  0.78641800  0.77670100  0.71505700  1
  C  C41  1  0.21358200  0.22329900  0.28494300  1
  C  C42  1  0.28641800  0.72329900  0.28494300  1
  C  C43  1  0.71358200  0.27670100  0.71505700  1
  C  C44  1  0.92051100  0.63679000  0.38113000  1
  C  C45  1  0.07948900  0.36321000  0.61887000  1
  C  C46  1  0.42051100  0.86321000  0.61887000  1
  C  C47  1  0.57948900  0.13679000  0.38113000  1
  C  C48  1  0.37922200  0.57764200  0.08411500  1
  C  C49  1  0.62077800  0.42235800  0.91588500  1
  C  C50  1  0.87922200  0.92235800  0.91588500  1
  C  C51  1  0.12077800  0.07764200  0.08411500  1
  C  C52  1  0.88544300  0.89878300  0.13542700  1
  C  C53  1  0.11455700  0.10121700  0.86457300  1
  C  C54  1  0.38544300  0.60121700  0.86457300  1
  C  C55  1  0.61455700  0.39878300  0.13542700  1
  C  C56  1  0.51689400  0.87362300  0.14646100  1
  C  C57  1  0.48310600  0.12637700  0.85353900  1
  C  C58  1  0.01689400  0.62637700  0.85353900  1
  C  C59  1  0.98310600  0.37362300  0.14646100  1
  C  C60  1  0.69472400  0.60842000  0.97366700  1
  C  C61  1  0.30527600  0.39158000  0.02633300  1
  C  C62  1  0.19472400  0.89158000  0.02633300  1
  C  C63  1  0.80527600  0.10842000  0.97366700  1
  C  C64  1  0.58348600  0.64334900  0.21448900  1
  C  C65  1  0.41651400  0.35665100  0.78551100  1
  C  C66  1  0.08348600  0.85665100  0.78551100  1
  C  C67  1  0.91651400  0.14334900  0.21448900  1
  C  C68  1  0.44183100  0.93708100  0.38565400  1
  C  C69  1  0.55816900  0.06291900  0.61434600  1
  C  C70  1  0.94183100  0.56291900  0.61434600  1
  C  C71  1  0.05816900  0.43708100  0.38565400  1
  C  C72  1  0.61346000  0.75157700  0.36120300  1
  C  C73  1  0.38654000  0.24842300  0.63879700  1
  C  C74  1  0.11346000  0.74842300  0.63879700  1
  C  C75  1  0.88654000  0.25157700  0.36120300  1
  C  C76  1  0.73643700  0.93591400  0.51913700  1
  C  C77  1  0.26356300  0.06408600  0.48086300  1
  C  C78  1  0.23643700  0.56408600  0.48086300  1
  C  C79  1  0.76356300  0.43591400  0.51913700  1
