# generated using pymatgen
data_CuNi6C13
_symmetry_space_group_name_H-M   'P 1'
_cell_length_a   6.36272204
_cell_length_b   6.69932768
_cell_length_c   13.41224374
_cell_angle_alpha   102.30741613
_cell_angle_beta   90.51125644
_cell_angle_gamma   117.11871029
_symmetry_Int_Tables_number   1
_chemical_formula_structural   CuNi6C13
_chemical_formula_sum   'Cu2 Ni12 C26'
_cell_volume   493.45026475
_cell_formula_units_Z   2
loop_
 _symmetry_equiv_pos_site_id
 _symmetry_equiv_pos_as_xyz
  1  'x, y, z'
loop_
 _atom_site_type_symbol
 _atom_site_label
 _atom_site_symmetry_multiplicity
 _atom_site_fract_x
 _atom_site_fract_y
 _atom_site_fract_z
 _atom_site_occupancy
  C  C0  1  0.57716300  0.22716100  0.34850800  1
  C  C1  1  0.42283700  0.77283900  0.65149200  1
  C  C2  1  0.19594600  0.26093800  0.84957800  1
  C  C3  1  0.80405400  0.73906200  0.15042200  1
  C  C4  1  0.00000000  0.00000000  0.50000000  1
  C  C5  1  0.50000000  0.00000000  0.00000000  1
  Ni  Ni6  1  0.13552000  0.70569800  0.42911900  1
  Ni  Ni7  1  0.86448000  0.29430200  0.57088100  1
  Ni  Ni8  1  0.28788300  0.15441800  0.12273400  1
  Ni  Ni9  1  0.71211700  0.84558200  0.87726600  1
  Ni  Ni10  1  0.28580100  0.64702600  0.06718900  1
  Ni  Ni11  1  0.71419900  0.35297400  0.93281100  1
  Ni  Ni12  1  0.38612200  0.25619500  0.60735500  1
  Ni  Ni13  1  0.61387800  0.74380500  0.39264500  1
  Ni  Ni14  1  0.07345600  0.19046700  0.35571200  1
  Ni  Ni15  1  0.92654400  0.80953300  0.64428800  1
  Ni  Ni16  1  0.84696200  0.26298800  0.13424800  1
  Ni  Ni17  1  0.15303800  0.73701200  0.86575200  1
  Cu  Cu18  1  0.25178400  0.53123700  0.25131300  1
  Cu  Cu19  1  0.74821600  0.46876300  0.74868700  1
  C  C20  1  0.17621700  0.82526300  0.49479400  1
  C  C21  1  0.82378300  0.17473700  0.50520600  1
  C  C22  1  0.06190300  0.03866500  0.36016100  1
  C  C23  1  0.93809700  0.96133500  0.63983900  1
  C  C24  1  0.29137200  0.28691700  0.55801400  1
  C  C25  1  0.70862800  0.71308300  0.44198600  1
  C  C26  1  0.36121600  0.37570500  0.21839700  1
  C  C27  1  0.63878400  0.62429500  0.78160300  1
  C  C28  1  0.55275900  0.23169900  0.70433900  1
  C  C29  1  0.44724000  0.76830100  0.29566100  1
  C  C30  1  0.08881600  0.44876700  0.33026300  1
  C  C31  1  0.91118400  0.55123300  0.66973700  1
  C  C32  1  0.69901300  0.11640800  0.13328900  1
  C  C33  1  0.30098700  0.88359100  0.86671100  1
  C  C34  1  0.23515300  0.00377300  0.06983200  1
  C  C35  1  0.76484700  0.99622700  0.93016800  1
  C  C36  1  0.39220900  0.68191500  0.01171800  1
  C  C37  1  0.60779100  0.31808500  0.98828200  1
  C  C38  1  0.10971800  0.53005300  0.16096100  1
  C  C39  1  0.89028200  0.46994700  0.83903900  1
