# generated using pymatgen
data_Cu2NiC12
_symmetry_space_group_name_H-M   'P 1'
_cell_length_a   11.11616200
_cell_length_b   5.44774700
_cell_length_c   8.27075340
_cell_angle_alpha   71.63537837
_cell_angle_beta   90.00000000
_cell_angle_gamma   90.00000000
_symmetry_Int_Tables_number   1
_chemical_formula_structural   Cu2NiC12
_chemical_formula_sum   'Cu4 Ni2 C24'
_cell_volume   475.35213749
_cell_formula_units_Z   2
loop_
 _symmetry_equiv_pos_site_id
 _symmetry_equiv_pos_as_xyz
  1  'x, y, z'
loop_
 _atom_site_type_symbol
 _atom_site_label
 _atom_site_symmetry_multiplicity
 _atom_site_fract_x
 _atom_site_fract_y
 _atom_site_fract_z
 _atom_site_occupancy
  Ni  Ni0  1  0.08199000  0.88105800  0.57668800  1
  Ni  Ni1  1  0.58199000  0.11894200  0.42331200  1
  C  C2  1  0.64342800  0.44954800  0.70538700  1
  C  C3  1  0.35174500  0.04500700  0.78201600  1
  C  C4  1  0.14342800  0.55045200  0.29461300  1
  C  C5  1  0.85174500  0.95499300  0.21798400  1
  Cu  Cu6  1  0.08729300  0.13849100  0.91409800  1
  Cu  Cu7  1  0.90248800  0.38175500  0.58427100  1
  Cu  Cu8  1  0.40248800  0.61824500  0.41572900  1
  Cu  Cu9  1  0.58729300  0.86150900  0.08590200  1
  C  C10  1  0.08114600  0.72576300  0.09850500  1
  C  C11  1  0.94313100  0.19490500  0.08157700  1
  C  C12  1  0.19208100  0.75677600  0.41076800  1
  C  C13  1  0.54168100  0.49737100  0.27923400  1
  C  C14  1  0.27850200  0.42882000  0.26181500  1
  C  C15  1  0.22338200  0.91668300  0.72818700  1
  C  C16  1  0.55265400  0.71504500  0.58084500  1
  C  C17  1  0.44313100  0.80509500  0.91842300  1
  C  C18  1  0.47194700  0.98439500  0.25389900  1
  C  C19  1  0.58114600  0.27423700  0.90149500  1
  C  C20  1  0.72338200  0.08331700  0.27181300  1
  C  C21  1  0.93456300  0.78868900  0.40911300  1
  C  C22  1  0.43456300  0.21131100  0.59088700  1
  C  C23  1  0.77850200  0.57118000  0.73818500  1
  C  C24  1  0.04168100  0.50262900  0.72076600  1
  C  C25  1  0.97194700  0.01560500  0.74610100  1
  C  C26  1  0.79251500  0.74704800  0.11683300  1
  C  C27  1  0.05265400  0.28495500  0.41915500  1
  C  C28  1  0.69208100  0.24322400  0.58923200  1
  C  C29  1  0.29251500  0.25295200  0.88316700  1
