# generated using pymatgen
data_Cu7Ni2C3
_symmetry_space_group_name_H-M   'P 1'
_cell_length_a   12.81839356
_cell_length_b   12.81839356
_cell_length_c   4.28282400
_cell_angle_alpha   90.00000000
_cell_angle_beta   90.00000000
_cell_angle_gamma   160.85893415
_symmetry_Int_Tables_number   1
_chemical_formula_structural   Cu7Ni2C3
_chemical_formula_sum   'Cu7 Ni2 C3'
_cell_volume   230.74502553
_cell_formula_units_Z   1
loop_
 _symmetry_equiv_pos_site_id
 _symmetry_equiv_pos_as_xyz
  1  'x, y, z'
loop_
 _atom_site_type_symbol
 _atom_site_label
 _atom_site_symmetry_multiplicity
 _atom_site_fract_x
 _atom_site_fract_y
 _atom_site_fract_z
 _atom_site_occupancy
  C  C0  1  0.68485700  0.31514300  0.50000000  1
  C  C1  1  0.31514300  0.68485700  0.50000000  1
  C  C2  1  0.00000000  0.00000000  0.00000000  1
  Ni  Ni3  1  0.87127700  0.12872300  0.00000000  1
  Ni  Ni4  1  0.12872300  0.87127700  0.00000000  1
  Cu  Cu5  1  0.58816100  0.41183900  0.00000000  1
  Cu  Cu6  1  0.41183900  0.58816100  0.00000000  1
  Cu  Cu7  1  0.77788100  0.22211900  0.00000000  1
  Cu  Cu8  1  0.22211900  0.77788100  0.00000000  1
  Cu  Cu9  1  0.91162700  0.08837300  0.50000000  1
  Cu  Cu10  1  0.08837300  0.91162700  0.50000000  1
  Cu  Cu11  1  0.50000000  0.50000000  0.50000000  1
