# generated using pymatgen
data_Cu(NiC8)2
_symmetry_space_group_name_H-M   'P 1'
_cell_length_a   10.85520100
_cell_length_b   11.17789600
_cell_length_c   17.70500000
_cell_angle_alpha   90.00000000
_cell_angle_beta   90.00000000
_cell_angle_gamma   90.00000000
_symmetry_Int_Tables_number   1
_chemical_formula_structural   Cu(NiC8)2
_chemical_formula_sum   'Cu8 Ni16 C128'
_cell_volume   2148.29474026
_cell_formula_units_Z   8
loop_
 _symmetry_equiv_pos_site_id
 _symmetry_equiv_pos_as_xyz
  1  'x, y, z'
loop_
 _atom_site_type_symbol
 _atom_site_label
 _atom_site_symmetry_multiplicity
 _atom_site_fract_x
 _atom_site_fract_y
 _atom_site_fract_z
 _atom_site_occupancy
  C  C0  1  0.24732500  0.48229100  0.68140800  1
  C  C1  1  0.74732500  0.51770900  0.81859200  1
  C  C2  1  0.75267500  0.01770900  0.18140800  1
  C  C3  1  0.25267500  0.98229100  0.31859200  1
  C  C4  1  0.75267500  0.51770900  0.31859200  1
  C  C5  1  0.25267500  0.48229100  0.18140800  1
  C  C6  1  0.24732500  0.98229100  0.81859200  1
  C  C7  1  0.74732500  0.01770900  0.68140800  1
  C  C8  1  0.05988000  0.36934300  0.77887000  1
  C  C9  1  0.55988000  0.63065700  0.72113000  1
  C  C10  1  0.94012000  0.13065700  0.27887000  1
  C  C11  1  0.44012000  0.86934300  0.22113000  1
  C  C12  1  0.94012000  0.63065700  0.22113000  1
  C  C13  1  0.44012000  0.36934300  0.27887000  1
  C  C14  1  0.05988000  0.86934300  0.72113000  1
  C  C15  1  0.55988000  0.13065700  0.77887000  1
  C  C16  1  0.13402900  0.26505200  0.73529000  1
  C  C17  1  0.63402900  0.73494800  0.76471000  1
  C  C18  1  0.86597100  0.23494800  0.23529000  1
  C  C19  1  0.36597100  0.76505200  0.26471000  1
  C  C20  1  0.86597100  0.73494800  0.26471000  1
  C  C21  1  0.36597100  0.26505200  0.23529000  1
  C  C22  1  0.13402900  0.76505200  0.76471000  1
  C  C23  1  0.63402900  0.23494800  0.73529000  1
  C  C24  1  0.16449800  0.45771400  0.46498400  1
  C  C25  1  0.66449800  0.54228600  0.03501600  1
  C  C26  1  0.83550200  0.04228600  0.96498400  1
  C  C27  1  0.33550200  0.95771400  0.53501600  1
  C  C28  1  0.83550200  0.54228600  0.53501600  1
  C  C29  1  0.33550200  0.45771400  0.96498400  1
  C  C30  1  0.16449800  0.95771400  0.03501600  1
  C  C31  1  0.66449800  0.04228600  0.46498400  1
  C  C32  1  0.29731400  0.38135700  0.42788300  1
  C  C33  1  0.79731400  0.61864300  0.07211700  1
  C  C34  1  0.70268600  0.11864300  0.92788300  1
  C  C35  1  0.20268600  0.88135700  0.57211700  1
  C  C36  1  0.70268600  0.61864300  0.57211700  1
  C  C37  1  0.20268600  0.38135700  0.92788300  1
  C  C38  1  0.29731400  0.88135700  0.07211700  1
  C  C39  1  0.79731400  0.11864300  0.42788300  1
  C  C40  1  0.31729700  0.50940200  0.48890000  1
  C  C41  1  0.81729700  0.49059800  0.01110000  1
  C  C42  1  0.68270300  0.99059800  0.98890000  1
  C  C43  1  0.18270300  0.00940200  0.51110000  1
  C  C44  1  0.68270300  0.49059800  0.51110000  1
  C  C45  1  0.18270300  0.50940200  0.98890000  1
  C  C46  1  0.31729700  0.00940200  0.01110000  1
  C  C47  1  0.81729700  0.99059800  0.48890000  1
  C  C48  1  0.44685300  0.20904400  0.60267100  1
  C  C49  1  0.94685300  0.79095600  0.89732900  1
  C  C50  1  0.55314700  0.29095600  0.10267100  1
  C  C51  1  0.05314700  0.70904400  0.39732900  1
  C  C52  1  0.55314700  0.79095600  0.39732900  1
  C  C53  1  0.05314700  0.20904400  0.10267100  1
  C  C54  1  0.44685300  0.70904400  0.89732900  1
  C  C55  1  0.94685300  0.29095600  0.60267100  1
  C  C56  1  0.45510300  0.24848000  0.50389000  1
  C  C57  1  0.95510300  0.75152000  0.99611000  1
  C  C58  1  0.54489700  0.25152000  0.00389000  1
  C  C59  1  0.04489700  0.74848000  0.49611000  1
  C  C60  1  0.54489700  0.75152000  0.49611000  1
  C  C61  1  0.04489700  0.24848000  0.00389000  1
  C  C62  1  0.45510300  0.74848000  0.99611000  1
  C  C63  1  0.95510300  0.25152000  0.50389000  1
  C  C64  1  0.48745800  0.35997200  0.57555000  1
  C  C65  1  0.98745800  0.64002800  0.92445000  1
  C  C66  1  0.51254200  0.14002800  0.07555000  1
  C  C67  1  0.01254200  0.85997200  0.42445000  1
  C  C68  1  0.51254200  0.64002800  0.42445000  1
  C  C69  1  0.01254200  0.35997200  0.07555000  1
  C  C70  1  0.48745800  0.85997200  0.92445000  1
  C  C71  1  0.98745800  0.14002800  0.57555000  1
  C  C72  1  0.36635400  0.27356700  0.74764400  1
  C  C73  1  0.86635400  0.72643300  0.75235600  1
  C  C74  1  0.63364600  0.22643300  0.24764400  1
  C  C75  1  0.13364600  0.77356700  0.25235600  1
  C  C76  1  0.63364600  0.72643300  0.25235600  1
  C  C77  1  0.13364600  0.27356700  0.24764400  1
  C  C78  1  0.36635400  0.77356700  0.75235600  1
  C  C79  1  0.86635400  0.22643300  0.74764400  1
  C  C80  1  0.43591200  0.38299300  0.78660800  1
  C  C81  1  0.93591200  0.61700700  0.71339200  1
  C  C82  1  0.56408800  0.11700700  0.28660800  1
  C  C83  1  0.06408800  0.88299300  0.21339200  1
  C  C84  1  0.56408800  0.61700700  0.21339200  1
  C  C85  1  0.06408800  0.38299300  0.28660800  1
  C  C86  1  0.43591200  0.88299300  0.71339200  1
  C  C87  1  0.93591200  0.11700700  0.78660800  1
  Ni  Ni88  1  0.43395900  0.28030500  0.56095100  1
  Ni  Ni89  1  0.93395900  0.71969500  0.93904900  1
  Ni  Ni90  1  0.56604100  0.21969500  0.06095100  1
  Ni  Ni91  1  0.06604100  0.78030500  0.43904900  1
  Ni  Ni92  1  0.56604100  0.71969500  0.43904900  1
  Ni  Ni93  1  0.06604100  0.28030500  0.06095100  1
  Ni  Ni94  1  0.43395900  0.78030500  0.93904900  1
  Ni  Ni95  1  0.93395900  0.21969500  0.56095100  1
  Ni  Ni96  1  0.26004400  0.43155400  0.47583200  1
  Ni  Ni97  1  0.76004400  0.56844600  0.02416800  1
  Ni  Ni98  1  0.73995600  0.06844600  0.97583200  1
  Ni  Ni99  1  0.23995600  0.93155400  0.52416800  1
  Ni  Ni100  1  0.73995600  0.56844600  0.52416800  1
  Ni  Ni101  1  0.23995600  0.43155400  0.97583200  1
  Ni  Ni102  1  0.26004400  0.93155400  0.02416800  1
  Ni  Ni103  1  0.76004400  0.06844600  0.47583200  1
  Cu  Cu104  1  0.25790600  0.32030100  0.56166900  1
  Cu  Cu105  1  0.75790600  0.67969900  0.93833100  1
  Cu  Cu106  1  0.74209400  0.17969900  0.06166900  1
  Cu  Cu107  1  0.24209400  0.82030100  0.43833100  1
  Cu  Cu108  1  0.74209400  0.67969900  0.43833100  1
  Cu  Cu109  1  0.24209400  0.32030100  0.06166900  1
  Cu  Cu110  1  0.25790600  0.82030100  0.93833100  1
  Cu  Cu111  1  0.75790600  0.17969900  0.56166900  1
  C  C112  1  0.42334700  0.60323800  0.63182600  1
  C  C113  1  0.92334700  0.39676200  0.86817400  1
  C  C114  1  0.57665300  0.89676200  0.13182600  1
  C  C115  1  0.07665300  0.10323800  0.36817400  1
  C  C116  1  0.57665300  0.39676200  0.36817400  1
  C  C117  1  0.07665300  0.60323800  0.13182600  1
  C  C118  1  0.42334700  0.10323800  0.86817400  1
  C  C119  1  0.92334700  0.89676200  0.63182600  1
  C  C120  1  0.23720300  0.60630300  0.79871500  1
  C  C121  1  0.73720300  0.39369700  0.70128500  1
  C  C122  1  0.76279700  0.89369700  0.29871500  1
  C  C123  1  0.26279700  0.10630300  0.20128500  1
  C  C124  1  0.76279700  0.39369700  0.20128500  1
  C  C125  1  0.26279700  0.60630300  0.29871500  1
  C  C126  1  0.23720300  0.10630300  0.70128500  1
  C  C127  1  0.73720300  0.89369700  0.79871500  1
  C  C128  1  0.06697900  0.58447200  0.62183800  1
  C  C129  1  0.56697900  0.41552800  0.87816200  1
  C  C130  1  0.93302100  0.91552800  0.12183800  1
  C  C131  1  0.43302100  0.08447200  0.37816200  1
  C  C132  1  0.93302100  0.41552800  0.37816200  1
  C  C133  1  0.43302100  0.58447200  0.12183800  1
  C  C134  1  0.06697900  0.08447200  0.87816200  1
  C  C135  1  0.56697900  0.91552800  0.62183800  1
  C  C136  1  0.10769800  0.34979700  0.73270000  1
  C  C137  1  0.60769800  0.65020300  0.76730000  1
  C  C138  1  0.89230200  0.15020300  0.23270000  1
  C  C139  1  0.39230200  0.84979700  0.26730000  1
  C  C140  1  0.89230200  0.65020300  0.26730000  1
  C  C141  1  0.39230200  0.34979700  0.23270000  1
  C  C142  1  0.10769800  0.84979700  0.76730000  1
  C  C143  1  0.60769800  0.15020300  0.73270000  1
  C  C144  1  0.38890600  0.35807100  0.74106400  1
  C  C145  1  0.88890600  0.64192900  0.75893600  1
  C  C146  1  0.61109400  0.14192900  0.24106400  1
  C  C147  1  0.11109400  0.85807100  0.25893600  1
  C  C148  1  0.61109400  0.64192900  0.25893600  1
  C  C149  1  0.11109400  0.35807100  0.24106400  1
  C  C150  1  0.38890600  0.85807100  0.75893600  1
  C  C151  1  0.88890600  0.14192900  0.74106400  1
