# generated using pymatgen
data_Cu(NiC)6
_symmetry_space_group_name_H-M   'P 1'
_cell_length_a   4.98842544
_cell_length_b   4.98842544
_cell_length_c   15.62404800
_cell_angle_alpha   90.00000000
_cell_angle_beta   90.00000000
_cell_angle_gamma   119.99999264
_symmetry_Int_Tables_number   1
_chemical_formula_structural   Cu(NiC)6
_chemical_formula_sum   'Cu2 Ni12 C12'
_cell_volume   336.70626716
_cell_formula_units_Z   2
loop_
 _symmetry_equiv_pos_site_id
 _symmetry_equiv_pos_as_xyz
  1  'x, y, z'
loop_
 _atom_site_type_symbol
 _atom_site_label
 _atom_site_symmetry_multiplicity
 _atom_site_fract_x
 _atom_site_fract_y
 _atom_site_fract_z
 _atom_site_occupancy
  C  C0  1  0.00000000  0.00000000  0.75000000  1
  C  C1  1  0.00000000  0.00000000  0.25000000  1
  C  C2  1  0.33333300  0.66666700  0.63049100  1
  C  C3  1  0.66666700  0.33333300  0.13049100  1
  C  C4  1  0.66666700  0.33333300  0.36950900  1
  C  C5  1  0.33333300  0.66666700  0.86950900  1
  C  C6  1  0.00000000  0.00000000  0.50000000  1
  C  C7  1  0.00000000  0.00000000  0.00000000  1
  C  C8  1  0.66666700  0.33333300  0.59020200  1
  C  C9  1  0.33333300  0.66666700  0.09020200  1
  C  C10  1  0.33333300  0.66666700  0.40979800  1
  C  C11  1  0.66666700  0.33333300  0.90979800  1
  Ni  Ni12  1  0.66679100  0.59434500  0.59081700  1
  Ni  Ni13  1  0.40565500  0.07244600  0.59081700  1
  Ni  Ni14  1  0.92755400  0.33320900  0.59081700  1
  Ni  Ni15  1  0.33320900  0.40565500  0.09081700  1
  Ni  Ni16  1  0.59434500  0.92755400  0.09081700  1
  Ni  Ni17  1  0.07244600  0.66679100  0.09081700  1
  Ni  Ni18  1  0.33320900  0.40565500  0.40918300  1
  Ni  Ni19  1  0.59434500  0.92755400  0.40918300  1
  Ni  Ni20  1  0.07244600  0.66679100  0.40918300  1
  Ni  Ni21  1  0.66679100  0.59434500  0.90918300  1
  Ni  Ni22  1  0.40565500  0.07244600  0.90918300  1
  Ni  Ni23  1  0.92755400  0.33320900  0.90918300  1
  Cu  Cu24  1  0.33333300  0.66666700  0.75000000  1
  Cu  Cu25  1  0.66666700  0.33333300  0.25000000  1
