# generated using pymatgen
data_Cu5Ni2C25
_symmetry_space_group_name_H-M   'P 1'
_cell_length_a   5.86549300
_cell_length_b   4.99664000
_cell_length_c   9.82175806
_cell_angle_alpha   79.45917442
_cell_angle_beta   90.00000000
_cell_angle_gamma   90.00000000
_symmetry_Int_Tables_number   1
_chemical_formula_structural   Cu5Ni2C25
_chemical_formula_sum   'Cu5 Ni2 C25'
_cell_volume   282.99611136
_cell_formula_units_Z   1
loop_
 _symmetry_equiv_pos_site_id
 _symmetry_equiv_pos_as_xyz
  1  'x, y, z'
loop_
 _atom_site_type_symbol
 _atom_site_label
 _atom_site_symmetry_multiplicity
 _atom_site_fract_x
 _atom_site_fract_y
 _atom_site_fract_z
 _atom_site_occupancy
  C  C0  1  0.00261700  0.75580800  0.25312100  1
  C  C1  1  0.25520000  0.75460800  0.74766300  1
  C  C2  1  0.49782600  0.75532900  0.25434200  1
  C  C3  1  0.25520000  0.24539200  0.25233700  1
  C  C4  1  0.49782600  0.24467100  0.74565800  1
  C  C5  1  0.74182600  0.24543000  0.25181400  1
  C  C6  1  0.74182600  0.75457000  0.74818600  1
  C  C7  1  0.00261700  0.24419200  0.74687900  1
  C  C8  1  0.49619500  0.00000000  0.50000000  1
  Ni  Ni9  1  0.00658100  0.00000000  0.50000000  1
  Ni  Ni10  1  0.73922200  0.50000000  0.50000000  1
  Cu  Cu11  1  0.25031600  0.00000000  0.00000000  1
  Cu  Cu12  1  0.74968500  0.00000000  0.00000000  1
  Cu  Cu13  1  0.49991100  0.50000000  0.00000000  1
  Cu  Cu14  1  0.00050200  0.50000000  0.00000000  1
  Cu  Cu15  1  0.25222900  0.50000000  0.50000000  1
  C  C16  1  0.76619600  0.86250100  0.38989500  1
  C  C17  1  0.00218400  0.86052500  0.88506200  1
  C  C18  1  0.23462000  0.86576800  0.38977100  1
  C  C19  1  0.99938000  0.36748300  0.39195300  1
  C  C20  1  0.25353000  0.36483500  0.88538100  1
  C  C21  1  0.50112900  0.39862800  0.38946900  1
  C  C22  1  0.50030200  0.86644000  0.88172200  1
  C  C23  1  0.75076400  0.36114100  0.88407500  1
  C  C24  1  0.25353000  0.63516500  0.11461900  1
  C  C25  1  0.50112900  0.60137200  0.61053100  1
  C  C26  1  0.75076400  0.63885900  0.11592500  1
  C  C27  1  0.50030200  0.13356000  0.11827800  1
  C  C28  1  0.76619600  0.13749900  0.61010500  1
  C  C29  1  0.00218400  0.13947500  0.11493800  1
  C  C30  1  0.99938000  0.63251700  0.60804700  1
  C  C31  1  0.23462000  0.13423200  0.61022900  1
