# generated using pymatgen
data_Cu3NiC40
_symmetry_space_group_name_H-M   'P 1'
_cell_length_a   7.05987800
_cell_length_b   9.08960800
_cell_length_c   9.10371800
_cell_angle_alpha   90.00000000
_cell_angle_beta   90.00000000
_cell_angle_gamma   90.00000000
_symmetry_Int_Tables_number   1
_chemical_formula_structural   Cu3NiC40
_chemical_formula_sum   'Cu3 Ni1 C40'
_cell_volume   584.19945401
_cell_formula_units_Z   1
loop_
 _symmetry_equiv_pos_site_id
 _symmetry_equiv_pos_as_xyz
  1  'x, y, z'
loop_
 _atom_site_type_symbol
 _atom_site_label
 _atom_site_symmetry_multiplicity
 _atom_site_fract_x
 _atom_site_fract_y
 _atom_site_fract_z
 _atom_site_occupancy
  Ni  Ni0  1  0.50000000  0.50000000  0.00000000  1
  Cu  Cu1  1  0.50000000  0.00000000  0.50000000  1
  Cu  Cu2  1  0.00000000  0.50000000  0.00000000  1
  Cu  Cu3  1  0.00000000  0.00000000  0.50000000  1
  C  C4  1  0.21964100  0.38276500  0.38425700  1
  C  C5  1  0.72404700  0.88648900  0.88474900  1
  C  C6  1  0.21964100  0.61723500  0.61574300  1
  C  C7  1  0.72404700  0.11351100  0.11525100  1
  C  C8  1  0.78035900  0.61723500  0.38425700  1
  C  C9  1  0.27595300  0.11351100  0.88474900  1
  C  C10  1  0.27595300  0.88648900  0.11525100  1
  C  C11  1  0.78035900  0.38276500  0.61574300  1
  C  C12  1  0.76128000  0.70468100  0.70140900  1
  C  C13  1  0.25440000  0.20231700  0.20469400  1
  C  C14  1  0.76128000  0.29531900  0.29859100  1
  C  C15  1  0.25440000  0.79768300  0.79530600  1
  C  C16  1  0.74560000  0.79768300  0.20469400  1
  C  C17  1  0.23872000  0.29531900  0.70140900  1
  C  C18  1  0.74560000  0.20231700  0.79530600  1
  C  C19  1  0.23872000  0.70468100  0.29859100  1
  C  C20  1  0.74274700  0.85355500  0.66920000  1
  C  C21  1  0.23405900  0.35094100  0.17220300  1
  C  C22  1  0.74274700  0.14644500  0.33080000  1
  C  C23  1  0.23405900  0.64905900  0.82779700  1
  C  C24  1  0.25725300  0.14644500  0.66920000  1
  C  C25  1  0.76594100  0.64905900  0.17220300  1
  C  C26  1  0.25725300  0.85355500  0.33080000  1
  C  C27  1  0.76594100  0.35094100  0.82779700  1
  C  C28  1  0.75694500  0.83129500  0.35361800  1
  C  C29  1  0.24668500  0.32599800  0.85068500  1
  C  C30  1  0.75694500  0.16870500  0.64638200  1
  C  C31  1  0.24668500  0.67400200  0.14931500  1
  C  C32  1  0.24305500  0.16870500  0.35361800  1
  C  C33  1  0.75331500  0.67400200  0.85068500  1
  C  C34  1  0.24305500  0.83129500  0.64638200  1
  C  C35  1  0.75331500  0.32599800  0.14931500  1
  C  C36  1  0.78725800  0.59745400  0.59637100  1
  C  C37  1  0.28948300  0.09891700  0.09881300  1
  C  C38  1  0.78725800  0.40254600  0.40362900  1
  C  C39  1  0.28948300  0.90108300  0.90118700  1
  C  C40  1  0.71051700  0.90108300  0.09881300  1
  C  C41  1  0.21274200  0.40254600  0.59637100  1
  C  C42  1  0.71051700  0.09891700  0.90118700  1
  C  C43  1  0.21274200  0.59745400  0.40362900  1
