# generated using pymatgen
data_Cu4NiC4
_symmetry_space_group_name_H-M   'P 1'
_cell_length_a   7.93540132
_cell_length_b   7.93540132
_cell_length_c   7.40971900
_cell_angle_alpha   90.00000000
_cell_angle_beta   90.00000000
_cell_angle_gamma   106.92094728
_symmetry_Int_Tables_number   1
_chemical_formula_structural   Cu4NiC4
_chemical_formula_sum   'Cu8 Ni2 C8'
_cell_volume   446.39424728
_cell_formula_units_Z   2
loop_
 _symmetry_equiv_pos_site_id
 _symmetry_equiv_pos_as_xyz
  1  'x, y, z'
loop_
 _atom_site_type_symbol
 _atom_site_label
 _atom_site_symmetry_multiplicity
 _atom_site_fract_x
 _atom_site_fract_y
 _atom_site_fract_z
 _atom_site_occupancy
  C  C0  1  0.65035100  0.34964900  0.00043900  1
  C  C1  1  0.34964900  0.65035100  0.50043900  1
  C  C2  1  0.16081600  0.83918400  0.99573300  1
  C  C3  1  0.83918400  0.16081600  0.49573300  1
  Ni  Ni4  1  0.16769100  0.83230900  0.76750400  1
  Ni  Ni5  1  0.83230900  0.16769100  0.26750400  1
  Cu  Cu6  1  0.21359400  0.13889000  0.03706600  1
  Cu  Cu7  1  0.86111000  0.78640600  0.03706600  1
  Cu  Cu8  1  0.78640600  0.86111000  0.53706600  1
  Cu  Cu9  1  0.13889000  0.21359400  0.53706600  1
  Cu  Cu10  1  0.46870500  0.86887300  0.00969200  1
  Cu  Cu11  1  0.13112700  0.53129500  0.00969200  1
  Cu  Cu12  1  0.53129500  0.13112700  0.50969200  1
  Cu  Cu13  1  0.86887300  0.46870500  0.50969200  1
  C  C14  1  0.18313300  0.81686700  0.26479200  1
  C  C15  1  0.81686700  0.18313300  0.76479200  1
  C  C16  1  0.57922900  0.42077100  0.37201500  1
  C  C17  1  0.42077100  0.57922900  0.87201500  1
