# generated using pymatgen
data_Cu6Ni8C7
_symmetry_space_group_name_H-M   'P 1'
_cell_length_a   11.31570823
_cell_length_b   11.31570823
_cell_length_c   7.68615703
_cell_angle_alpha   80.39262294
_cell_angle_beta   80.39262294
_cell_angle_gamma   40.40117969
_symmetry_Int_Tables_number   1
_chemical_formula_structural   Cu6Ni8C7
_chemical_formula_sum   'Cu12 Ni16 C14'
_cell_volume   627.71190821
_cell_formula_units_Z   2
loop_
 _symmetry_equiv_pos_site_id
 _symmetry_equiv_pos_as_xyz
  1  'x, y, z'
loop_
 _atom_site_type_symbol
 _atom_site_label
 _atom_site_symmetry_multiplicity
 _atom_site_fract_x
 _atom_site_fract_y
 _atom_site_fract_z
 _atom_site_occupancy
  C  C0  1  0.15310500  0.84689500  0.75000000  1
  C  C1  1  0.84689500  0.15310500  0.25000000  1
  C  C2  1  0.33521800  0.38730300  0.77776000  1
  C  C3  1  0.61269700  0.66478200  0.72224000  1
  C  C4  1  0.66478200  0.61269700  0.22224000  1
  C  C5  1  0.38730300  0.33521800  0.27776000  1
  C  C6  1  0.00000000  0.50000000  0.50000000  1
  C  C7  1  0.50000000  0.00000000  0.00000000  1
  C  C8  1  0.01750600  0.64780900  0.09727400  1
  C  C9  1  0.35219100  0.98249400  0.40272600  1
  C  C10  1  0.98249400  0.35219100  0.90272600  1
  C  C11  1  0.64780900  0.01750600  0.59727400  1
  C  C12  1  0.65648200  0.34351800  0.75000000  1
  C  C13  1  0.34351800  0.65648200  0.25000000  1
  Ni  Ni14  1  0.58854200  0.51823500  0.79806900  1
  Ni  Ni15  1  0.48176500  0.41145800  0.70193100  1
  Ni  Ni16  1  0.41145800  0.48176500  0.20193100  1
  Ni  Ni17  1  0.51823500  0.58854200  0.29806900  1
  Ni  Ni18  1  0.79327200  0.25934400  0.59013800  1
  Ni  Ni19  1  0.74065600  0.20672800  0.90986200  1
  Ni  Ni20  1  0.20672800  0.74065600  0.40986200  1
  Ni  Ni21  1  0.25934400  0.79327200  0.09013800  1
  Ni  Ni22  1  0.51682200  0.10170600  0.75930700  1
  Ni  Ni23  1  0.89829400  0.48317800  0.74069300  1
  Ni  Ni24  1  0.48317800  0.89829400  0.24069300  1
  Ni  Ni25  1  0.10170600  0.51682200  0.25930700  1
  Ni  Ni26  1  0.12749700  0.59750200  0.92805800  1
  Ni  Ni27  1  0.40249800  0.87250300  0.57194200  1
  Ni  Ni28  1  0.87250300  0.40249800  0.07194200  1
  Ni  Ni29  1  0.59750200  0.12749700  0.42805800  1
  Cu  Cu30  1  0.91698600  0.83734200  0.14526100  1
  Cu  Cu31  1  0.16265800  0.08301400  0.35473900  1
  Cu  Cu32  1  0.08301400  0.16265800  0.85473900  1
  Cu  Cu33  1  0.83734200  0.91698600  0.64526100  1
  Cu  Cu34  1  0.18076500  0.44799700  0.59690900  1
  Cu  Cu35  1  0.55200300  0.81923500  0.90309100  1
  Cu  Cu36  1  0.81923500  0.55200300  0.40309100  1
  Cu  Cu37  1  0.44799700  0.18076500  0.09690900  1
  Cu  Cu38  1  0.15504400  0.29550600  0.93501000  1
  Cu  Cu39  1  0.70449400  0.84495600  0.56499000  1
  Cu  Cu40  1  0.84495600  0.70449400  0.06499000  1
  Cu  Cu41  1  0.29550600  0.15504400  0.43501000  1
