# generated using pymatgen
data_Cu2(Ni3C)3
_symmetry_space_group_name_H-M   'P 1'
_cell_length_a   8.95807475
_cell_length_b   8.95807475
_cell_length_c   10.51225863
_cell_angle_alpha   85.78404957
_cell_angle_beta   85.78404957
_cell_angle_gamma   74.27403146
_symmetry_Int_Tables_number   1
_chemical_formula_structural   Cu2(Ni3C)3
_chemical_formula_sum   'Cu4 Ni18 C6'
_cell_volume   808.54223727
_cell_formula_units_Z   2
loop_
 _symmetry_equiv_pos_site_id
 _symmetry_equiv_pos_as_xyz
  1  'x, y, z'
loop_
 _atom_site_type_symbol
 _atom_site_label
 _atom_site_symmetry_multiplicity
 _atom_site_fract_x
 _atom_site_fract_y
 _atom_site_fract_z
 _atom_site_occupancy
  C  C0  1  0.21311100  0.21311100  0.16195700  1
  C  C1  1  0.78688900  0.78688900  0.83804300  1
  C  C2  1  0.19042700  0.41324200  0.36391600  1
  C  C3  1  0.41324200  0.19042700  0.36391600  1
  C  C4  1  0.80957300  0.58675800  0.63608400  1
  C  C5  1  0.58675800  0.80957300  0.63608400  1
  Ni  Ni6  1  0.70226000  0.38487700  0.73827900  1
  Ni  Ni7  1  0.38487700  0.70226000  0.73827900  1
  Ni  Ni8  1  0.29774000  0.61512300  0.26172100  1
  Ni  Ni9  1  0.61512300  0.29774000  0.26172100  1
  Ni  Ni10  1  0.31495200  0.99817500  0.51248700  1
  Ni  Ni11  1  0.99817500  0.31495200  0.51248700  1
  Ni  Ni12  1  0.68504800  0.00182500  0.48751300  1
  Ni  Ni13  1  0.00182500  0.68504800  0.48751300  1
  Ni  Ni14  1  0.05553300  0.05553300  0.28193800  1
  Ni  Ni15  1  0.94446700  0.94446700  0.71806200  1
  Ni  Ni16  1  0.36425400  0.36425400  0.01785300  1
  Ni  Ni17  1  0.63574600  0.63574600  0.98214700  1
  Ni  Ni18  1  0.46046100  0.99404000  0.18993800  1
  Ni  Ni19  1  0.99404000  0.46046100  0.18993800  1
  Ni  Ni20  1  0.53953900  0.00596000  0.81006200  1
  Ni  Ni21  1  0.00596000  0.53953900  0.81006200  1
  Ni  Ni22  1  0.37038600  0.37038600  0.54993200  1
  Ni  Ni23  1  0.62961400  0.62961400  0.45006800  1
  Cu  Cu24  1  0.15547400  0.15547400  0.02177200  1
  Cu  Cu25  1  0.84452600  0.84452600  0.97822800  1
  Cu  Cu26  1  0.16657500  0.83342500  0.00000000  1
  Cu  Cu27  1  0.83342500  0.16657500  0.00000000  1
