# generated using pymatgen
data_CuNiC11
_symmetry_space_group_name_H-M   'P 1'
_cell_length_a   5.30326300
_cell_length_b   12.84966953
_cell_length_c   11.88868656
_cell_angle_alpha   99.34616189
_cell_angle_beta   90.00087574
_cell_angle_gamma   89.99922853
_symmetry_Int_Tables_number   1
_chemical_formula_structural   CuNiC11
_chemical_formula_sum   'Cu4 Ni4 C44'
_cell_volume   799.40197796
_cell_formula_units_Z   4
loop_
 _symmetry_equiv_pos_site_id
 _symmetry_equiv_pos_as_xyz
  1  'x, y, z'
loop_
 _atom_site_type_symbol
 _atom_site_label
 _atom_site_symmetry_multiplicity
 _atom_site_fract_x
 _atom_site_fract_y
 _atom_site_fract_z
 _atom_site_occupancy
  Ni  Ni0  1  0.78974300  0.27103600  0.15620800  1
  Ni  Ni1  1  0.28975800  0.77102900  0.15620800  1
  Ni  Ni2  1  0.28975900  0.22897300  0.34379100  1
  Ni  Ni3  1  0.78974500  0.72896900  0.34379300  1
  Cu  Cu4  1  0.20750000  0.72915700  0.84800500  1
  Cu  Cu5  1  0.20750300  0.27083700  0.65199100  1
  Cu  Cu6  1  0.70742900  0.22914300  0.84799900  1
  Cu  Cu7  1  0.70742800  0.77085700  0.65199700  1
  C  C8  1  0.85864500  0.50000000  0.74999900  1
  C  C9  1  0.35865100  0.00000100  0.75000000  1
  C  C10  1  0.63610900  0.00000000  0.25000000  1
  C  C11  1  0.13611200  0.49999600  0.25000100  1
  C  C12  1  0.19650900  0.36251500  0.94399200  1
  C  C13  1  0.69657000  0.86251000  0.94398400  1
  C  C14  1  0.69656300  0.13749300  0.55601700  1
  C  C15  1  0.19651500  0.63748200  0.55600900  1
  C  C16  1  0.30452000  0.13696300  0.05186700  1
  C  C17  1  0.80455200  0.63696500  0.05185700  1
  C  C18  1  0.80455400  0.36303600  0.44814500  1
  C  C19  1  0.30452600  0.86303900  0.44812900  1
  C  C20  1  0.91604800  0.41843000  0.14368300  1
  C  C21  1  0.41605500  0.91843100  0.14368300  1
  C  C22  1  0.41606200  0.08157200  0.35631900  1
  C  C23  1  0.91605700  0.58156900  0.35631600  1
  C  C24  1  0.57944900  0.08126800  0.85645300  1
  C  C25  1  0.07944000  0.58128800  0.85644100  1
  C  C26  1  0.07943200  0.41870200  0.64356200  1
  C  C27  1  0.57945500  0.91873800  0.64355100  1
  C  C28  1  0.48993000  0.26391900  0.03192200  1
  C  C29  1  0.98997800  0.76392700  0.03192500  1
  C  C30  1  0.98997900  0.23607400  0.46807400  1
  C  C31  1  0.48993500  0.73608100  0.46808400  1
  C  C32  1  0.01853700  0.23383000  0.96217600  1
  C  C33  1  0.51863700  0.73381000  0.96215800  1
  C  C34  1  0.51865200  0.26619500  0.53784200  1
  C  C35  1  0.01853000  0.76616600  0.53782500  1
  C  C36  1  0.38013600  0.30446400  0.80965500  1
  C  C37  1  0.88016600  0.80447000  0.80964300  1
  C  C38  1  0.88016700  0.19552700  0.69035700  1
  C  C39  1  0.38014500  0.69553400  0.69034600  1
  C  C40  1  0.12263500  0.19712600  0.18640800  1
  C  C41  1  0.62265300  0.69713200  0.18639900  1
  C  C42  1  0.62265900  0.30286900  0.31359900  1
  C  C43  1  0.12262400  0.80287800  0.31359300  1
  C  C44  1  0.88567900  0.38572300  0.85963500  1
  C  C45  1  0.38571000  0.88569700  0.85961700  1
  C  C46  1  0.38570500  0.11430700  0.64037900  1
  C  C47  1  0.88569000  0.61427400  0.64036500  1
  C  C48  1  0.61178100  0.11338400  0.13899000  1
  C  C49  1  0.11180200  0.61338800  0.13899400  1
  C  C50  1  0.11180500  0.38661300  0.36100700  1
  C  C51  1  0.61177600  0.88661200  0.36100900  1
