# generated using pymatgen
data_Cu2NiC7
_symmetry_space_group_name_H-M   'P 1'
_cell_length_a   5.17290000
_cell_length_b   5.44232400
_cell_length_c   7.52032400
_cell_angle_alpha   90.00000000
_cell_angle_beta   90.00000000
_cell_angle_gamma   90.00000000
_symmetry_Int_Tables_number   1
_chemical_formula_structural   Cu2NiC7
_chemical_formula_sum   'Cu4 Ni2 C14'
_cell_volume   211.71665705
_cell_formula_units_Z   2
loop_
 _symmetry_equiv_pos_site_id
 _symmetry_equiv_pos_as_xyz
  1  'x, y, z'
loop_
 _atom_site_type_symbol
 _atom_site_label
 _atom_site_symmetry_multiplicity
 _atom_site_fract_x
 _atom_site_fract_y
 _atom_site_fract_z
 _atom_site_occupancy
  C  C0  1  0.01809700  0.68213100  0.00000000  1
  C  C1  1  0.51809700  0.31786900  0.50000000  1
  Ni  Ni2  1  0.48294000  0.18736100  0.00000000  1
  Ni  Ni3  1  0.98294000  0.81263900  0.50000000  1
  Cu  Cu4  1  0.00002900  0.24414600  0.75080400  1
  Cu  Cu5  1  0.00002900  0.24414600  0.24919600  1
  Cu  Cu6  1  0.50002900  0.75585400  0.25080400  1
  Cu  Cu7  1  0.50002900  0.75585400  0.74919600  1
  C  C8  1  0.10633100  0.19399600  0.50000000  1
  C  C9  1  0.19967800  0.95112900  0.81095500  1
  C  C10  1  0.19967800  0.95112900  0.18904500  1
  C  C11  1  0.31117400  0.44002900  0.81144500  1
  C  C12  1  0.31117400  0.44002900  0.18855500  1
  C  C13  1  0.37106200  0.71337300  0.50000000  1
  C  C14  1  0.60633100  0.80600400  0.00000000  1
  C  C15  1  0.69967800  0.04887100  0.31095500  1
  C  C16  1  0.69967800  0.04887100  0.68904500  1
  C  C17  1  0.81117400  0.55997100  0.68855500  1
  C  C18  1  0.81117400  0.55997100  0.31144500  1
  C  C19  1  0.87106200  0.28662700  0.00000000  1
