# generated using pymatgen
data_Cu11NiC
_symmetry_space_group_name_H-M   'P 1'
_cell_length_a   6.45743956
_cell_length_b   6.45743956
_cell_length_c   12.02359737
_cell_angle_alpha   89.95452239
_cell_angle_beta   89.95452239
_cell_angle_gamma   42.73627539
_symmetry_Int_Tables_number   1
_chemical_formula_structural   Cu11NiC
_chemical_formula_sum   'Cu22 Ni2 C2'
_cell_volume   340.23948371
_cell_formula_units_Z   2
loop_
 _symmetry_equiv_pos_site_id
 _symmetry_equiv_pos_as_xyz
  1  'x, y, z'
loop_
 _atom_site_type_symbol
 _atom_site_label
 _atom_site_symmetry_multiplicity
 _atom_site_fract_x
 _atom_site_fract_y
 _atom_site_fract_z
 _atom_site_occupancy
  C  C0  1  0.49732700  0.49732700  0.49792700  1
  C  C1  1  0.99712100  0.99712100  0.99673800  1
  Ni  Ni2  1  0.68388100  0.68388100  0.68539000  1
  Ni  Ni3  1  0.18424200  0.18424200  0.18270700  1
  Cu  Cu4  1  0.60990200  0.60990200  0.89077300  1
  Cu  Cu5  1  0.11243200  0.11243200  0.38853300  1
  Cu  Cu6  1  0.88868300  0.88868300  0.61377600  1
  Cu  Cu7  1  0.39055500  0.39055500  0.10891800  1
  Cu  Cu8  1  0.11368500  0.11368500  0.61501600  1
  Cu  Cu9  1  0.61211500  0.61211500  0.11095100  1
  Cu  Cu10  1  0.38490400  0.38490400  0.88511300  1
  Cu  Cu11  1  0.88361600  0.88361600  0.38312900  1
  Cu  Cu12  1  0.74976100  0.24799300  0.75158300  1
  Cu  Cu13  1  0.24895800  0.74897100  0.24851000  1
  Cu  Cu14  1  0.24799300  0.74976100  0.75158300  1
  Cu  Cu15  1  0.74897100  0.24895800  0.24851000  1
  Cu  Cu16  1  0.49983000  0.00093700  0.49981000  1
  Cu  Cu17  1  0.99941800  0.50038400  0.99803300  1
  Cu  Cu18  1  0.00093700  0.49983000  0.49981000  1
  Cu  Cu19  1  0.50038400  0.99941800  0.99803300  1
  Cu  Cu20  1  0.32124500  0.32124500  0.67965900  1
  Cu  Cu21  1  0.82160900  0.82160900  0.17634700  1
  Cu  Cu22  1  0.17761500  0.17761500  0.82202600  1
  Cu  Cu23  1  0.67859600  0.67859600  0.32091600  1
  Cu  Cu24  1  0.82340600  0.82340600  0.82365800  1
  Cu  Cu25  1  0.32281400  0.32281400  0.32255100  1
