# generated using pymatgen
data_Cu4NiC36
_symmetry_space_group_name_H-M   'P 1'
_cell_length_a   7.58272765
_cell_length_b   7.81125757
_cell_length_c   10.88651906
_cell_angle_alpha   101.33150897
_cell_angle_beta   109.24957725
_cell_angle_gamma   92.03068971
_symmetry_Int_Tables_number   1
_chemical_formula_structural   Cu4NiC36
_chemical_formula_sum   'Cu4 Ni1 C36'
_cell_volume   593.38993042
_cell_formula_units_Z   1
loop_
 _symmetry_equiv_pos_site_id
 _symmetry_equiv_pos_as_xyz
  1  'x, y, z'
loop_
 _atom_site_type_symbol
 _atom_site_label
 _atom_site_symmetry_multiplicity
 _atom_site_fract_x
 _atom_site_fract_y
 _atom_site_fract_z
 _atom_site_occupancy
  C  C0  1  0.75014806  0.10444231  0.77951261  1
  C  C1  1  0.22375122  0.96805192  0.18580550  1
  Ni  Ni2  1  0.41028970  0.51550290  0.28308751  1
  Cu  Cu3  1  0.71062063  0.29663883  0.33874656  1
  Cu  Cu4  1  0.33632038  0.68378204  0.67747150  1
  Cu  Cu5  1  0.49889902  0.49938419  0.99228185  1
  Cu  Cu6  1  0.01196478  0.99476629  0.50898223  1
  C  C7  1  0.65065326  0.72791323  0.51775782  1
  C  C8  1  0.32180548  0.28899560  0.48286289  1
  C  C9  1  0.30705937  0.08664034  0.81812001  1
  C  C10  1  0.70037657  0.88849978  0.20381779  1
  C  C11  1  0.06160497  0.59562380  0.84345175  1
  C  C12  1  0.94085992  0.41061633  0.14816567  1
  C  C13  1  0.67547603  0.55536978  0.43419475  1
  C  C14  1  0.26058131  0.44933532  0.55385041  1
  C  C15  1  0.79746040  0.88049516  0.55405151  1
  C  C16  1  0.20245466  0.11524819  0.45403671  1
  C  C17  1  0.60262417  0.05108075  0.23324776  1
  C  C18  1  0.41019703  0.92784358  0.78854268  1
  C  C19  1  0.44391974  0.25061152  0.87641055  1
  C  C20  1  0.55985615  0.72422858  0.14688983  1
  C  C21  1  0.88059321  0.87301443  0.31574221  1
  C  C22  1  0.12669868  0.09960293  0.70557497  1
  C  C23  1  0.91970858  0.36656056  0.26900458  1
  C  C24  1  0.10695474  0.65073613  0.73244398  1
  C  C25  1  0.80054441  0.47542800  0.04228415  1
  C  C26  1  0.20494678  0.54306575  0.95687020  1
  C  C27  1  0.36036661  0.31240830  0.35691723  1
  C  C28  1  0.57098110  0.71867565  0.62599534  1
  C  C29  1  0.86398998  0.19544384  0.49515550  1
  C  C30  1  0.16740982  0.79350256  0.53289217  1
  C  C31  1  0.50551559  0.38055264  0.16260890  1
  C  C32  1  0.49088764  0.59769928  0.82606393  1
  C  C33  1  0.77708264  0.91556584  0.08700706  1
  C  C34  1  0.22999347  0.05337967  0.93397075  1
  C  C35  1  0.89009577  0.44924557  0.77953169  1
  C  C36  1  0.13107021  0.55168388  0.20276545  1
  C  C37  1  0.52216635  0.25995505  0.58250371  1
  C  C38  1  0.45961159  0.77207347  0.39478660  1
  C  C39  1  0.02875267  0.25383262  0.07977762  1
  C  C40  1  0.96070731  0.74750338  0.90306607  1
