# generated using pymatgen
data_CuNiC5
_symmetry_space_group_name_H-M   'P 1'
_cell_length_a   16.06361062
_cell_length_b   16.06361062
_cell_length_c   16.06361062
_cell_angle_alpha   166.65848160
_cell_angle_beta   166.65848160
_cell_angle_gamma   18.91088020
_symmetry_Int_Tables_number   1
_chemical_formula_structural   CuNiC5
_chemical_formula_sum   'Cu2 Ni2 C10'
_cell_volume   220.69405688
_cell_formula_units_Z   2
loop_
 _symmetry_equiv_pos_site_id
 _symmetry_equiv_pos_as_xyz
  1  'x, y, z'
loop_
 _atom_site_type_symbol
 _atom_site_label
 _atom_site_symmetry_multiplicity
 _atom_site_fract_x
 _atom_site_fract_y
 _atom_site_fract_z
 _atom_site_occupancy
  C  C0  1  0.11684400  0.11684400  0.00000000  1
  C  C1  1  0.88315600  0.88315600  0.00000000  1
  Ni  Ni2  1  0.28800300  0.28800300  0.00000000  1
  Ni  Ni3  1  0.71199700  0.71199700  0.00000000  1
  Cu  Cu4  1  0.54363900  0.54363900  0.00000000  1
  Cu  Cu5  1  0.45636100  0.45636100  0.00000000  1
  C  C6  1  0.77856300  0.77856300  0.00000000  1
  C  C7  1  0.44417500  0.94417500  0.50000000  1
  C  C8  1  0.05582500  0.55582500  0.50000000  1
  C  C9  1  0.64822200  0.64822200  0.00000000  1
  C  C10  1  0.55582500  0.05582500  0.50000000  1
  C  C11  1  0.94417500  0.44417500  0.50000000  1
  C  C12  1  0.35177800  0.35177800  0.00000000  1
  C  C13  1  0.22143700  0.22143700  0.00000000  1
