# generated using pymatgen
data_Cu2NiC39
_symmetry_space_group_name_H-M   'P 1'
_cell_length_a   8.88461619
_cell_length_b   8.88461619
_cell_length_c   13.38384790
_cell_angle_alpha   66.52977674
_cell_angle_beta   66.52977674
_cell_angle_gamma   36.88669751
_symmetry_Int_Tables_number   1
_chemical_formula_structural   Cu2NiC39
_chemical_formula_sum   'Cu2 Ni1 C39'
_cell_volume   575.53758313
_cell_formula_units_Z   1
loop_
 _symmetry_equiv_pos_site_id
 _symmetry_equiv_pos_as_xyz
  1  'x, y, z'
loop_
 _atom_site_type_symbol
 _atom_site_label
 _atom_site_symmetry_multiplicity
 _atom_site_fract_x
 _atom_site_fract_y
 _atom_site_fract_z
 _atom_site_occupancy
  C  C0  1  0.90056300  0.90056300  0.80356300  1
  C  C1  1  0.23045300  0.23045300  0.80342900  1
  C  C2  1  0.56560800  0.56560800  0.80312900  1
  C  C3  1  0.09943700  0.09943700  0.19643700  1
  C  C4  1  0.43439200  0.43439200  0.19687100  1
  C  C5  1  0.76954700  0.76954700  0.19657100  1
  C  C6  1  0.00000000  0.00000000  0.50000000  1
  C  C7  1  0.33314600  0.33314600  0.49981100  1
  C  C8  1  0.66685400  0.66685400  0.50018900  1
  Ni  Ni9  1  0.00000000  0.00000000  0.00000000  1
  C  C10  1  0.12084700  0.12084700  0.63724600  1
  C  C11  1  0.45529500  0.45529500  0.63335100  1
  C  C12  1  0.78910700  0.78910700  0.63350500  1
  C  C13  1  0.21089300  0.21089300  0.36649500  1
  C  C14  1  0.54470500  0.54470500  0.36664900  1
  C  C15  1  0.87915300  0.87915300  0.36275400  1
  Cu  Cu16  1  0.66417300  0.66417300  0.99999200  1
  Cu  Cu17  1  0.33582700  0.33582700  0.00000800  1
  C  C18  1  0.78994700  0.29223500  0.62632900  1
  C  C19  1  0.12519100  0.62453300  0.62528000  1
  C  C20  1  0.45884000  0.95730000  0.62627400  1
  C  C21  1  0.29223500  0.78994700  0.62632900  1
  C  C22  1  0.62453300  0.12519100  0.62528000  1
  C  C23  1  0.95730000  0.45884000  0.62627400  1
  C  C24  1  0.87480900  0.37546700  0.37472000  1
  C  C25  1  0.21005300  0.70776500  0.37367100  1
  C  C26  1  0.54116000  0.04270000  0.37372600  1
  C  C27  1  0.37546700  0.87480900  0.37472000  1
  C  C28  1  0.70776500  0.21005300  0.37367100  1
  C  C29  1  0.04270000  0.54116000  0.37372600  1
  C  C30  1  0.00000000  0.50000000  0.00000000  1
  C  C31  1  0.33987100  0.83020300  0.99999700  1
  C  C32  1  0.66012900  0.16979700  0.00000300  1
  C  C33  1  0.50000000  0.00000000  0.00000000  1
  C  C34  1  0.83020300  0.33987100  0.99999700  1
  C  C35  1  0.16979700  0.66012900  0.00000300  1
  C  C36  1  0.05226700  0.05226700  0.84316000  1
  C  C37  1  0.38295300  0.38295300  0.84198300  1
  C  C38  1  0.72240500  0.72240500  0.84194900  1
  C  C39  1  0.27759500  0.27759500  0.15805100  1
  C  C40  1  0.61704700  0.61704700  0.15801700  1
  C  C41  1  0.94773300  0.94773300  0.15684000  1
