# generated using pymatgen
data_CuNi2C3
_symmetry_space_group_name_H-M   'P 1'
_cell_length_a   4.75012578
_cell_length_b   4.75012578
_cell_length_c   6.58336500
_cell_angle_alpha   90.00000000
_cell_angle_beta   90.00000000
_cell_angle_gamma   90.09474111
_symmetry_Int_Tables_number   1
_chemical_formula_structural   CuNi2C3
_chemical_formula_sum   'Cu2 Ni4 C6'
_cell_volume   148.54483614
_cell_formula_units_Z   2
loop_
 _symmetry_equiv_pos_site_id
 _symmetry_equiv_pos_as_xyz
  1  'x, y, z'
loop_
 _atom_site_type_symbol
 _atom_site_label
 _atom_site_symmetry_multiplicity
 _atom_site_fract_x
 _atom_site_fract_y
 _atom_site_fract_z
 _atom_site_occupancy
  Ni  Ni0  1  0.66669800  0.66669800  0.54170900  1
  Ni  Ni1  1  0.66669800  0.66669800  0.95829100  1
  Ni  Ni2  1  0.33330200  0.33330200  0.04170900  1
  Ni  Ni3  1  0.33330200  0.33330200  0.45829100  1
  Cu  Cu4  1  0.64757100  0.64757100  0.25000000  1
  Cu  Cu5  1  0.35242900  0.35242900  0.75000000  1
  C  C6  1  0.45904900  0.45904900  0.25000000  1
  C  C7  1  0.54095100  0.54095100  0.75000000  1
  C  C8  1  0.75546600  0.75546600  0.41616100  1
  C  C9  1  0.75546600  0.75546600  0.08383900  1
  C  C10  1  0.24453400  0.24453400  0.91616100  1
  C  C11  1  0.24453400  0.24453400  0.58383900  1
