# generated using pymatgen
data_Cu8Ni3C7
_symmetry_space_group_name_H-M   'P 1'
_cell_length_a   20.31531200
_cell_length_b   6.44963200
_cell_length_c   20.15279142
_cell_angle_alpha   84.24988601
_cell_angle_beta   90.00000000
_cell_angle_gamma   90.00000000
_symmetry_Int_Tables_number   1
_chemical_formula_structural   Cu8Ni3C7
_chemical_formula_sum   'Cu32 Ni12 C28'
_cell_volume   2627.25903713
_cell_formula_units_Z   4
loop_
 _symmetry_equiv_pos_site_id
 _symmetry_equiv_pos_as_xyz
  1  'x, y, z'
loop_
 _atom_site_type_symbol
 _atom_site_label
 _atom_site_symmetry_multiplicity
 _atom_site_fract_x
 _atom_site_fract_y
 _atom_site_fract_z
 _atom_site_occupancy
  C  C0  1  0.37867000  0.95471000  0.73712100  1
  C  C1  1  0.87867000  0.04529000  0.76287900  1
  C  C2  1  0.62133000  0.04529000  0.26287900  1
  C  C3  1  0.12133000  0.95471000  0.23712100  1
  Ni  Ni4  1  0.15378700  0.36067800  0.74465500  1
  Ni  Ni5  1  0.65378700  0.63932200  0.75534500  1
  Ni  Ni6  1  0.84621300  0.63932200  0.25534500  1
  Ni  Ni7  1  0.34621300  0.36067800  0.24465500  1
  Ni  Ni8  1  0.11257900  0.58246300  0.47238700  1
  Ni  Ni9  1  0.61257900  0.41753700  0.02761300  1
  Ni  Ni10  1  0.88742100  0.41753700  0.52761300  1
  Ni  Ni11  1  0.38742100  0.58246300  0.97238700  1
  Ni  Ni12  1  0.40083200  0.30948500  0.52327600  1
  Ni  Ni13  1  0.90083200  0.69051500  0.97672400  1
  Ni  Ni14  1  0.59916800  0.69051500  0.47672400  1
  Ni  Ni15  1  0.09916800  0.30948500  0.02327600  1
  Cu  Cu16  1  0.35625300  0.40180200  0.74767700  1
  Cu  Cu17  1  0.85625300  0.59819800  0.75232300  1
  Cu  Cu18  1  0.64374700  0.59819800  0.25232300  1
  Cu  Cu19  1  0.14374700  0.40180200  0.24767700  1
  Cu  Cu20  1  0.25834200  0.91341500  0.62934000  1
  Cu  Cu21  1  0.75834200  0.08658500  0.87066000  1
  Cu  Cu22  1  0.74165800  0.08658500  0.37066000  1
  Cu  Cu23  1  0.24165800  0.91341500  0.12934000  1
  Cu  Cu24  1  0.48245100  0.94398600  0.64667400  1
  Cu  Cu25  1  0.98245100  0.05601400  0.85332600  1
  Cu  Cu26  1  0.51754900  0.05601400  0.35332600  1
  Cu  Cu27  1  0.01754900  0.94398600  0.14667400  1
  Cu  Cu28  1  0.48243500  0.96758000  0.86550200  1
  Cu  Cu29  1  0.98243500  0.03242000  0.63449800  1
  Cu  Cu30  1  0.51756500  0.03242000  0.13449800  1
  Cu  Cu31  1  0.01756500  0.96758000  0.36550200  1
  Cu  Cu32  1  0.24139900  0.95603500  0.85968000  1
  Cu  Cu33  1  0.74139900  0.04396500  0.64032000  1
  Cu  Cu34  1  0.75860100  0.04396500  0.14032000  1
  Cu  Cu35  1  0.25860100  0.95603500  0.35968000  1
  Cu  Cu36  1  0.06163000  0.72217800  0.68432000  1
  Cu  Cu37  1  0.56163000  0.27782200  0.81568000  1
  Cu  Cu38  1  0.93837000  0.27782200  0.31568000  1
  Cu  Cu39  1  0.43837000  0.72217800  0.18432000  1
  Cu  Cu40  1  0.19498800  0.22600500  0.55576100  1
  Cu  Cu41  1  0.69498800  0.77399500  0.94423900  1
  Cu  Cu42  1  0.80501200  0.77399500  0.44423900  1
  Cu  Cu43  1  0.30501200  0.22600500  0.05576100  1
  Cu  Cu44  1  0.33289000  0.65655100  0.42534200  1
  Cu  Cu45  1  0.83289000  0.34344900  0.07465800  1
  Cu  Cu46  1  0.66711000  0.34344900  0.57465800  1
  Cu  Cu47  1  0.16711000  0.65655100  0.92534200  1
  C  C48  1  0.11409300  0.21636300  0.74120200  1
  C  C49  1  0.61409300  0.78363700  0.75879800  1
  C  C50  1  0.88590700  0.78363700  0.25879800  1
  C  C51  1  0.38590700  0.21636300  0.24120200  1
  C  C52  1  0.19166100  0.51092500  0.74630100  1
  C  C53  1  0.69166100  0.48907500  0.75369900  1
  C  C54  1  0.80833900  0.48907500  0.25369900  1
  C  C55  1  0.30833900  0.51092500  0.24630100  1
  C  C56  1  0.14503800  0.70936000  0.50130800  1
  C  C57  1  0.64503800  0.29064000  0.99869200  1
  C  C58  1  0.85496200  0.29064000  0.49869200  1
  C  C59  1  0.35496200  0.70936000  0.00130800  1
  C  C60  1  0.08068900  0.45330200  0.44399800  1
  C  C61  1  0.58068900  0.54669800  0.05600200  1
  C  C62  1  0.91931100  0.54669800  0.55600200  1
  C  C63  1  0.41931100  0.45330200  0.94399800  1
  C  C64  1  0.37029300  0.19320200  0.48902300  1
  C  C65  1  0.87029300  0.80679800  0.01097700  1
  C  C66  1  0.62970700  0.80679800  0.51097700  1
  C  C67  1  0.12970700  0.19320200  0.98902300  1
  C  C68  1  0.43054900  0.43177800  0.55666100  1
  C  C69  1  0.93054900  0.56822200  0.94333900  1
  C  C70  1  0.56945100  0.56822200  0.44333900  1
  C  C71  1  0.06945100  0.43177800  0.05666100  1
