# generated using pymatgen
data_Cu8Ni4C17
_symmetry_space_group_name_H-M   'P 1'
_cell_length_a   3.35420992
_cell_length_b   10.74782879
_cell_length_c   12.15807245
_cell_angle_alpha   95.02285321
_cell_angle_beta   90.00000000
_cell_angle_gamma   90.00000000
_symmetry_Int_Tables_number   1
_chemical_formula_structural   Cu8Ni4C17
_chemical_formula_sum   'Cu8 Ni4 C17'
_cell_volume   436.62112220
_cell_formula_units_Z   1
loop_
 _symmetry_equiv_pos_site_id
 _symmetry_equiv_pos_as_xyz
  1  'x, y, z'
loop_
 _atom_site_type_symbol
 _atom_site_label
 _atom_site_symmetry_multiplicity
 _atom_site_fract_x
 _atom_site_fract_y
 _atom_site_fract_z
 _atom_site_occupancy
  Ni  Ni0  1  0.75000000  0.76243312  0.36435000  1
  Ni  Ni1  1  0.25000000  0.30024382  0.57987825  1
  Ni  Ni2  1  0.75000000  0.25656819  0.09358521  1
  Ni  Ni3  1  0.25000000  0.72514482  0.85599240  1
  Cu  Cu4  1  0.25000000  0.07231992  0.39570738  1
  Cu  Cu5  1  0.75000000  0.94475230  0.61880598  1
  Cu  Cu6  1  0.25000000  0.56783643  0.09899348  1
  Cu  Cu7  1  0.75000000  0.43734828  0.86026294  1
  Cu  Cu8  1  0.75000000  0.44051958  0.36597571  1
  Cu  Cu9  1  0.25000000  0.60613320  0.59614976  1
  Cu  Cu10  1  0.75000000  0.90645690  0.13733697  1
  Cu  Cu11  1  0.25000000  0.01003333  0.92605940  1
  C  C12  1  0.25000000  0.19169466  0.79479134  1
  C  C13  1  0.25000000  0.04981459  0.10385227  1
  C  C14  1  0.75000000  0.87946783  0.94741522  1
  C  C15  1  0.25000000  0.59304821  0.40655323  1
  C  C16  1  0.75000000  0.46540032  0.55178595  1
  C  C17  1  0.25000000  0.99852217  0.73726622  1
  C  C18  1  0.75000000  0.98557227  0.30470651  1
  C  C19  1  0.25000000  0.52091727  0.76561602  1
  C  C20  1  0.75000000  0.48811419  0.19113238  1
  C  C21  1  0.25000000  0.38507617  0.98685051  1
  C  C22  1  0.75000000  0.61057393  0.97593691  1
  C  C23  1  0.25000000  0.89473445  0.49250147  1
  C  C24  1  0.75000000  0.12260330  0.52019583  1
  C  C25  1  0.75000000  0.14590402  0.90813090  1
  C  C26  1  0.25000000  0.77350851  0.17641204  1
  C  C27  1  0.75000000  0.73533149  0.65562939  1
  C  C28  1  0.25000000  0.29867675  0.36034833  1
