# generated using pymatgen
data_Cu8Ni10C3
_symmetry_space_group_name_H-M   'P 1'
_cell_length_a   11.26599400
_cell_length_b   11.26599400
_cell_length_c   18.03156000
_cell_angle_alpha   90.00000000
_cell_angle_beta   90.00000000
_cell_angle_gamma   90.00000000
_symmetry_Int_Tables_number   1
_chemical_formula_structural   Cu8Ni10C3
_chemical_formula_sum   'Cu32 Ni40 C12'
_cell_volume   2288.61285246
_cell_formula_units_Z   4
loop_
 _symmetry_equiv_pos_site_id
 _symmetry_equiv_pos_as_xyz
  1  'x, y, z'
loop_
 _atom_site_type_symbol
 _atom_site_label
 _atom_site_symmetry_multiplicity
 _atom_site_fract_x
 _atom_site_fract_y
 _atom_site_fract_z
 _atom_site_occupancy
  C  C0  1  0.57054100  0.42945900  0.75000000  1
  C  C1  1  0.42945900  0.57054100  0.25000000  1
  C  C2  1  0.92945900  0.92945900  0.50000000  1
  C  C3  1  0.07054100  0.07054100  0.00000000  1
  C  C4  1  0.33282400  0.60212000  0.63376600  1
  C  C5  1  0.66717600  0.39788000  0.13376600  1
  C  C6  1  0.10212000  0.16717600  0.38376600  1
  C  C7  1  0.89788000  0.83282400  0.88376600  1
  C  C8  1  0.39788000  0.66717600  0.86623400  1
  C  C9  1  0.60212000  0.33282400  0.36623400  1
  C  C10  1  0.16717600  0.10212000  0.61623400  1
  C  C11  1  0.83282400  0.89788000  0.11623400  1
  Ni  Ni12  1  0.69248800  0.02300400  0.06699700  1
  Ni  Ni13  1  0.30751200  0.97699600  0.56699700  1
  Ni  Ni14  1  0.52300400  0.80751200  0.81699700  1
  Ni  Ni15  1  0.47699600  0.19248800  0.31699700  1
  Ni  Ni16  1  0.97699600  0.30751200  0.43300300  1
  Ni  Ni17  1  0.02300400  0.69248800  0.93300300  1
  Ni  Ni18  1  0.80751200  0.52300400  0.18300300  1
  Ni  Ni19  1  0.19248800  0.47699600  0.68300300  1
  Ni  Ni20  1  0.26701600  0.51008300  0.87552600  1
  Ni  Ni21  1  0.73298400  0.48991700  0.37552600  1
  Ni  Ni22  1  0.01008300  0.23298400  0.62552600  1
  Ni  Ni23  1  0.98991700  0.76701600  0.12552600  1
  Ni  Ni24  1  0.48991700  0.73298400  0.62447400  1
  Ni  Ni25  1  0.51008300  0.26701600  0.12447400  1
  Ni  Ni26  1  0.23298400  0.01008300  0.37447400  1
  Ni  Ni27  1  0.76701600  0.98991700  0.87447400  1
  Ni  Ni28  1  0.58512000  0.69224900  0.27615300  1
  Ni  Ni29  1  0.41488000  0.30775100  0.77615300  1
  Ni  Ni30  1  0.19224900  0.91488000  0.02615300  1
  Ni  Ni31  1  0.80775100  0.08512000  0.52615300  1
  Ni  Ni32  1  0.30775100  0.41488000  0.22384700  1
  Ni  Ni33  1  0.69224900  0.58512000  0.72384700  1
  Ni  Ni34  1  0.91488000  0.19224900  0.97384700  1
  Ni  Ni35  1  0.08512000  0.80775100  0.47384700  1
  Ni  Ni36  1  0.71051600  0.28948400  0.75000000  1
  Ni  Ni37  1  0.28948400  0.71051600  0.25000000  1
  Ni  Ni38  1  0.78948400  0.78948400  0.50000000  1
  Ni  Ni39  1  0.21051600  0.21051600  0.00000000  1
  Ni  Ni40  1  0.28468600  0.71531400  0.75000000  1
  Ni  Ni41  1  0.71531400  0.28468600  0.25000000  1
  Ni  Ni42  1  0.21531400  0.21531400  0.50000000  1
  Ni  Ni43  1  0.78468600  0.78468600  0.00000000  1
  Ni  Ni44  1  0.47752800  0.44875600  0.62663400  1
  Ni  Ni45  1  0.52247200  0.55124400  0.12663400  1
  Ni  Ni46  1  0.94875600  0.02247200  0.37663400  1
  Ni  Ni47  1  0.05124400  0.97752800  0.87663400  1
  Ni  Ni48  1  0.55124400  0.52247200  0.87336600  1
  Ni  Ni49  1  0.44875600  0.47752800  0.37336600  1
  Ni  Ni50  1  0.02247200  0.94875600  0.62336600  1
  Ni  Ni51  1  0.97752800  0.05124400  0.12336600  1
  Cu  Cu52  1  0.27002500  0.61494800  0.54863700  1
  Cu  Cu53  1  0.72997500  0.38505200  0.04863700  1
  Cu  Cu54  1  0.11494800  0.22997500  0.29863700  1
  Cu  Cu55  1  0.88505200  0.77002500  0.79863700  1
  Cu  Cu56  1  0.38505200  0.72997500  0.95136300  1
  Cu  Cu57  1  0.61494800  0.27002500  0.45136300  1
  Cu  Cu58  1  0.22997500  0.11494800  0.70136300  1
  Cu  Cu59  1  0.77002500  0.88505200  0.20136300  1
  Cu  Cu60  1  0.60210900  0.02156500  0.68264100  1
  Cu  Cu61  1  0.39789100  0.97843500  0.18264100  1
  Cu  Cu62  1  0.52156500  0.89789100  0.43264100  1
  Cu  Cu63  1  0.47843500  0.10210900  0.93264100  1
  Cu  Cu64  1  0.97843500  0.39789100  0.81735900  1
  Cu  Cu65  1  0.02156500  0.60210900  0.31735900  1
  Cu  Cu66  1  0.89789100  0.52156500  0.56735900  1
  Cu  Cu67  1  0.10210900  0.47843500  0.06735900  1
  Cu  Cu68  1  0.04308900  0.42556600  0.45277000  1
  Cu  Cu69  1  0.95691100  0.57443400  0.95277000  1
  Cu  Cu70  1  0.92556600  0.45691100  0.20277000  1
  Cu  Cu71  1  0.07443400  0.54308900  0.70277000  1
  Cu  Cu72  1  0.57443400  0.95691100  0.04723000  1
  Cu  Cu73  1  0.42556600  0.04308900  0.54723000  1
  Cu  Cu74  1  0.45691100  0.92556600  0.79723000  1
  Cu  Cu75  1  0.54308900  0.07443400  0.29723000  1
  Cu  Cu76  1  0.95453900  0.68876100  0.31692500  1
  Cu  Cu77  1  0.04546100  0.31123900  0.81692500  1
  Cu  Cu78  1  0.18876100  0.54546100  0.06692500  1
  Cu  Cu79  1  0.81123900  0.45453900  0.56692500  1
  Cu  Cu80  1  0.31123900  0.04546100  0.18307500  1
  Cu  Cu81  1  0.68876100  0.95453900  0.68307500  1
  Cu  Cu82  1  0.54546100  0.18876100  0.93307500  1
  Cu  Cu83  1  0.45453900  0.81123900  0.43307500  1
