# generated using pymatgen
data_Cu(NiC4)3
_symmetry_space_group_name_H-M   'P 1'
_cell_length_a   5.30271900
_cell_length_b   11.75589800
_cell_length_c   14.62990900
_cell_angle_alpha   90.00000000
_cell_angle_beta   90.00000000
_cell_angle_gamma   90.00000000
_symmetry_Int_Tables_number   1
_chemical_formula_structural   Cu(NiC4)3
_chemical_formula_sum   'Cu4 Ni12 C48'
_cell_volume   912.00253976
_cell_formula_units_Z   4
loop_
 _symmetry_equiv_pos_site_id
 _symmetry_equiv_pos_as_xyz
  1  'x, y, z'
loop_
 _atom_site_type_symbol
 _atom_site_label
 _atom_site_symmetry_multiplicity
 _atom_site_fract_x
 _atom_site_fract_y
 _atom_site_fract_z
 _atom_site_occupancy
  C  C0  1  0.25000000  0.25000000  0.90983400  1
  C  C1  1  0.25000000  0.75000000  0.59016600  1
  C  C2  1  0.75000000  0.75000000  0.09016600  1
  C  C3  1  0.75000000  0.25000000  0.40983400  1
  Ni  Ni4  1  0.25000000  0.25000000  0.56699600  1
  Ni  Ni5  1  0.25000000  0.75000000  0.93300400  1
  Ni  Ni6  1  0.75000000  0.75000000  0.43300400  1
  Ni  Ni7  1  0.75000000  0.25000000  0.06699600  1
  Ni  Ni8  1  0.50051900  0.47011900  0.64240600  1
  Ni  Ni9  1  0.50051900  0.52988100  0.85759400  1
  Ni  Ni10  1  0.99948100  0.02988100  0.64240600  1
  Ni  Ni11  1  0.99948100  0.97011900  0.85759400  1
  Ni  Ni12  1  0.49948100  0.52988100  0.35759400  1
  Ni  Ni13  1  0.49948100  0.47011900  0.14240600  1
  Ni  Ni14  1  0.00051900  0.97011900  0.35759400  1
  Ni  Ni15  1  0.00051900  0.02988100  0.14240600  1
  Cu  Cu16  1  0.00000000  0.50000000  0.50000000  1
  Cu  Cu17  1  0.00000000  0.50000000  0.00000000  1
  Cu  Cu18  1  0.50000000  0.00000000  0.50000000  1
  Cu  Cu19  1  0.50000000  0.00000000  0.00000000  1
  C  C20  1  0.79482900  0.48811200  0.61663900  1
  C  C21  1  0.79482900  0.51188800  0.88336100  1
  C  C22  1  0.70517100  0.01188800  0.61663900  1
  C  C23  1  0.70517100  0.98811200  0.88336100  1
  C  C24  1  0.20517100  0.51188800  0.38336100  1
  C  C25  1  0.20517100  0.48811200  0.11663900  1
  C  C26  1  0.29482900  0.98811200  0.38336100  1
  C  C27  1  0.29482900  0.01188800  0.11663900  1
  C  C28  1  0.41118100  0.33681500  0.63081400  1
  C  C29  1  0.41118100  0.66318500  0.86918600  1
  C  C30  1  0.08881900  0.16318500  0.63081400  1
  C  C31  1  0.08881900  0.83681500  0.86918600  1
  C  C32  1  0.58881900  0.66318500  0.36918600  1
  C  C33  1  0.58881900  0.33681500  0.13081400  1
  C  C34  1  0.91118100  0.83681500  0.36918600  1
  C  C35  1  0.91118100  0.16318500  0.13081400  1
  C  C36  1  0.31396400  0.44763600  0.91963700  1
  C  C37  1  0.31396400  0.55236400  0.58036300  1
  C  C38  1  0.18603600  0.05236400  0.91963700  1
  C  C39  1  0.18603600  0.94763600  0.58036300  1
  C  C40  1  0.68603600  0.55236400  0.08036300  1
  C  C41  1  0.68603600  0.44763600  0.41963700  1
  C  C42  1  0.81396400  0.94763600  0.08036300  1
  C  C43  1  0.81396400  0.05236400  0.41963700  1
  C  C44  1  0.05869900  0.32281200  0.50105700  1
  C  C45  1  0.05869900  0.67718800  0.99894300  1
  C  C46  1  0.44130100  0.17718800  0.50105700  1
  C  C47  1  0.44130100  0.82281200  0.99894300  1
  C  C48  1  0.94130100  0.67718800  0.49894300  1
  C  C49  1  0.94130100  0.32281200  0.00105700  1
  C  C50  1  0.55869900  0.82281200  0.49894300  1
  C  C51  1  0.55869900  0.17718800  0.00105700  1
  C  C52  1  0.83640000  0.28537400  0.78897900  1
  C  C53  1  0.83640000  0.71462600  0.71102100  1
  C  C54  1  0.66360000  0.21462600  0.78897900  1
  C  C55  1  0.66360000  0.78537400  0.71102100  1
  C  C56  1  0.16360000  0.71462600  0.21102100  1
  C  C57  1  0.16360000  0.28537400  0.28897900  1
  C  C58  1  0.33640000  0.78537400  0.21102100  1
  C  C59  1  0.33640000  0.21462600  0.28897900  1
  C  C60  1  0.45633600  0.50000000  0.75000000  1
  C  C61  1  0.04366400  0.00000000  0.75000000  1
  C  C62  1  0.54366400  0.50000000  0.25000000  1
  C  C63  1  0.95633600  0.00000000  0.25000000  1
