# generated using pymatgen
data_CuNi14C
_symmetry_space_group_name_H-M   'P 1'
_cell_length_a   6.63155419
_cell_length_b   6.58656702
_cell_length_c   10.46971270
_cell_angle_alpha   90.00000000
_cell_angle_beta   90.00000000
_cell_angle_gamma   119.77585190
_symmetry_Int_Tables_number   1
_chemical_formula_structural   CuNi14C
_chemical_formula_sum   'Cu1 Ni14 C1'
_cell_volume   396.93220382
_cell_formula_units_Z   1
loop_
 _symmetry_equiv_pos_site_id
 _symmetry_equiv_pos_as_xyz
  1  'x, y, z'
loop_
 _atom_site_type_symbol
 _atom_site_label
 _atom_site_symmetry_multiplicity
 _atom_site_fract_x
 _atom_site_fract_y
 _atom_site_fract_z
 _atom_site_occupancy
  C  C0  1  0.15751453  0.82875677  0.12500000  1
  Ni  Ni1  1  0.16135189  0.33067544  0.62500000  1
  Ni  Ni2  1  0.16810605  0.83405253  0.62500000  1
  Ni  Ni3  1  0.65157116  0.33589110  0.12500000  1
  Ni  Ni4  1  0.66687169  0.32838246  0.62500000  1
  Ni  Ni5  1  0.65157116  0.81567905  0.12500000  1
  Ni  Ni6  1  0.66687169  0.83848823  0.62500000  1
  Ni  Ni7  1  0.33793376  0.18004136  0.38609210  1
  Ni  Ni8  1  0.33793376  0.18004136  0.86390790  1
  Ni  Ni9  1  0.33793376  0.65789341  0.38609210  1
  Ni  Ni10  1  0.33793376  0.65789341  0.86390790  1
  Ni  Ni11  1  0.83985748  0.16992924  0.36251001  1
  Ni  Ni12  1  0.83985748  0.16992924  0.88748999  1
  Ni  Ni13  1  0.82003173  0.66001636  0.39147935  1
  Ni  Ni14  1  0.82003173  0.66001636  0.85852065  1
  Cu  Cu15  1  0.20462837  0.35231368  0.12500000  1
