# generated using pymatgen
data_Cu4NiC8
_symmetry_space_group_name_H-M   'P 1'
_cell_length_a   7.34981492
_cell_length_b   7.34981492
_cell_length_c   9.55237272
_cell_angle_alpha   50.90945752
_cell_angle_beta   50.90945752
_cell_angle_gamma   23.47671559
_symmetry_Int_Tables_number   1
_chemical_formula_structural   Cu4NiC8
_chemical_formula_sum   'Cu4 Ni1 C8'
_cell_volume   157.26273299
_cell_formula_units_Z   1
loop_
 _symmetry_equiv_pos_site_id
 _symmetry_equiv_pos_as_xyz
  1  'x, y, z'
loop_
 _atom_site_type_symbol
 _atom_site_label
 _atom_site_symmetry_multiplicity
 _atom_site_fract_x
 _atom_site_fract_y
 _atom_site_fract_z
 _atom_site_occupancy
  Ni  Ni0  1  0.67025700  0.67025700  0.79744100  1
  Cu  Cu1  1  0.37230100  0.37230100  0.43317700  1
  Cu  Cu2  1  0.86479300  0.86479300  0.78885000  1
  Cu  Cu3  1  0.16182700  0.16182700  0.15898500  1
  Cu  Cu4  1  0.64862200  0.64862200  0.50708500  1
  C  C5  1  0.14792500  0.14792500  0.38077300  1
  C  C6  1  0.54914400  0.54914400  0.23849800  1
  C  C7  1  0.46952700  0.46952700  0.71573500  1
  C  C8  1  0.86796000  0.86796000  0.57641000  1
  C  C9  1  0.83349600  0.83349600  0.34881200  1
  C  C10  1  0.21396200  0.21396200  0.89660500  1
  C  C11  1  0.16560300  0.16560300  0.65277200  1
  C  C12  1  0.77934500  0.77934500  0.05040100  1
