# generated using pymatgen
data_CuNi2C7
_symmetry_space_group_name_H-M   'P 1'
_cell_length_a   6.11176300
_cell_length_b   6.21414800
_cell_length_c   8.71594700
_cell_angle_alpha   90.00000000
_cell_angle_beta   90.00000000
_cell_angle_gamma   90.00000000
_symmetry_Int_Tables_number   1
_chemical_formula_structural   CuNi2C7
_chemical_formula_sum   'Cu2 Ni4 C14'
_cell_volume   331.02643595
_cell_formula_units_Z   2
loop_
 _symmetry_equiv_pos_site_id
 _symmetry_equiv_pos_as_xyz
  1  'x, y, z'
loop_
 _atom_site_type_symbol
 _atom_site_label
 _atom_site_symmetry_multiplicity
 _atom_site_fract_x
 _atom_site_fract_y
 _atom_site_fract_z
 _atom_site_occupancy
  Ni  Ni0  1  0.00000000  0.48935400  0.25778100  1
  Ni  Ni1  1  0.00000000  0.51064600  0.74221900  1
  Ni  Ni2  1  0.50000000  0.98935400  0.24221900  1
  Ni  Ni3  1  0.50000000  0.01064600  0.75778100  1
  Cu  Cu4  1  0.00000000  0.00000000  0.00000000  1
  Cu  Cu5  1  0.50000000  0.50000000  0.50000000  1
  C  C6  1  0.00000000  0.00000000  0.50000000  1
  C  C7  1  0.50000000  0.50000000  0.00000000  1
  C  C8  1  0.50000000  0.52796300  0.23514300  1
  C  C9  1  0.50000000  0.47203700  0.76485700  1
  C  C10  1  0.00000000  0.02796300  0.26485700  1
  C  C11  1  0.00000000  0.97203700  0.73514300  1
  C  C12  1  0.23613400  0.23705000  0.51094800  1
  C  C13  1  0.23613400  0.76295000  0.48905200  1
  C  C14  1  0.73613400  0.73705000  0.98905200  1
  C  C15  1  0.73613400  0.26295000  0.01094800  1
  C  C16  1  0.26386600  0.26295000  0.01094800  1
  C  C17  1  0.26386600  0.73705000  0.98905200  1
  C  C18  1  0.76386600  0.76295000  0.48905200  1
  C  C19  1  0.76386600  0.23705000  0.51094800  1
