# generated using pymatgen
data_Cu2NiC4
_symmetry_space_group_name_H-M   'P 1'
_cell_length_a   6.66595445
_cell_length_b   6.66595445
_cell_length_c   6.66595445
_cell_angle_alpha   131.50722411
_cell_angle_beta   131.50722411
_cell_angle_gamma   71.00843522
_symmetry_Int_Tables_number   1
_chemical_formula_structural   Cu2NiC4
_chemical_formula_sum   'Cu4 Ni2 C8'
_cell_volume   162.65894527
_cell_formula_units_Z   2
loop_
 _symmetry_equiv_pos_site_id
 _symmetry_equiv_pos_as_xyz
  1  'x, y, z'
loop_
 _atom_site_type_symbol
 _atom_site_label
 _atom_site_symmetry_multiplicity
 _atom_site_fract_x
 _atom_site_fract_y
 _atom_site_fract_z
 _atom_site_occupancy
  Ni  Ni0  1  0.00000000  0.00000000  0.00000000  1
  Ni  Ni1  1  0.75000000  0.25000000  0.50000000  1
  Cu  Cu2  1  0.37500000  0.62500000  0.25000000  1
  Cu  Cu3  1  0.87500000  0.62500000  0.25000000  1
  Cu  Cu4  1  0.37500000  0.12500000  0.75000000  1
  Cu  Cu5  1  0.37500000  0.62500000  0.75000000  1
  C  C6  1  0.14383600  0.37143000  0.77240500  1
  C  C7  1  0.62857000  0.40097500  0.77240500  1
  C  C8  1  0.62857000  0.85616400  0.22759500  1
  C  C9  1  0.60616400  0.87857000  0.72759500  1
  C  C10  1  0.15097500  0.87857000  0.27240500  1
  C  C11  1  0.12143000  0.84902500  0.72759500  1
  C  C12  1  0.59902500  0.37143000  0.22759500  1
  C  C13  1  0.12143000  0.39383600  0.27240500  1
