# generated using pymatgen
data_Cu13(Ni2C5)2
_symmetry_space_group_name_H-M   'P 1'
_cell_length_a   13.28114468
_cell_length_b   13.28114468
_cell_length_c   13.28114468
_cell_angle_alpha   70.85290730
_cell_angle_beta   70.56478273
_cell_angle_gamma   109.83208250
_symmetry_Int_Tables_number   1
_chemical_formula_structural   Cu13(Ni2C5)2
_chemical_formula_sum   'Cu39 Ni12 C30'
_cell_volume   1803.30411866
_cell_formula_units_Z   3
loop_
 _symmetry_equiv_pos_site_id
 _symmetry_equiv_pos_as_xyz
  1  'x, y, z'
loop_
 _atom_site_type_symbol
 _atom_site_label
 _atom_site_symmetry_multiplicity
 _atom_site_fract_x
 _atom_site_fract_y
 _atom_site_fract_z
 _atom_site_occupancy
  C  C0  1  0.99950140  0.62060282  0.00008043  1
  C  C1  1  0.37931675  0.37939718  0.62110142  1
  C  C2  1  0.62068325  0.99958183  0.99991957  1
  C  C3  1  0.00049860  0.00041817  0.37889858  1
  C  C4  1  0.00049860  0.37939718  0.99991957  1
  C  C5  1  0.62068325  0.62060282  0.37889858  1
  C  C6  1  0.37931675  0.00041817  0.00008043  1
  C  C7  1  0.99950140  0.99958183  0.62110142  1
  C  C8  1  0.69638592  0.57672276  0.11966316  1
  C  C9  1  0.30361408  0.42327724  0.88033684  1
  C  C10  1  0.69638592  0.81604908  0.88033684  1
  C  C11  1  0.30361408  0.18395092  0.11966316  1
  C  C12  1  0.87696721  0.29812462  0.82490817  1
  C  C13  1  0.12303279  0.70187538  0.17509183  1
  C  C14  1  0.12303279  0.29812462  0.57884259  1
  C  C15  1  0.87696721  0.70187538  0.42115741  1
  C  C16  1  0.42136841  0.12333460  0.70196619  1
  C  C17  1  0.57863159  0.87666540  0.29803381  1
  C  C18  1  0.17469920  0.87666540  0.70196619  1
  C  C19  1  0.82530080  0.12333460  0.29803381  1
  C  C20  1  0.20705803  0.50000000  0.29294197  1
  C  C21  1  0.79294197  0.50000000  0.70705803  1
  C  C22  1  0.29920898  0.79920898  0.50000000  1
  C  C23  1  0.70079102  0.20079102  0.50000000  1
  C  C24  1  0.50000000  0.68691194  0.81308806  1
  C  C25  1  0.50000000  0.31308806  0.18691194  1
  C  C26  1  0.10208596  0.60208596  0.50000000  1
  C  C27  1  0.89791404  0.39791404  0.50000000  1
  C  C28  1  0.50000000  0.89610078  0.60389922  1
  C  C29  1  0.50000000  0.10389922  0.39610078  1
  Ni  Ni30  1  0.81315971  0.50356090  0.30959881  1
  Ni  Ni31  1  0.18684029  0.49643910  0.69040119  1
  Ni  Ni32  1  0.81315971  0.12275852  0.69040119  1
  Ni  Ni33  1  0.18684029  0.87724148  0.30959881  1
  Ni  Ni34  1  0.68927556  0.18642729  0.12429715  1
  Ni  Ni35  1  0.31072444  0.81357271  0.87570285  1
  Ni  Ni36  1  0.31072444  0.18642729  0.50284827  1
  Ni  Ni37  1  0.68927556  0.81357271  0.49715173  1
  Ni  Ni38  1  0.50084903  0.31621746  0.81536843  1
  Ni  Ni39  1  0.49915097  0.68378254  0.18463157  1
  Ni  Ni40  1  0.86841411  0.68378254  0.81536843  1
  Ni  Ni41  1  0.13158589  0.31621746  0.18463157  1
  Cu  Cu42  1  0.96939280  0.41004273  0.24893858  1
  Cu  Cu43  1  0.34101869  0.58995727  0.44064993  1
  Cu  Cu44  1  0.65898131  0.21833138  0.75106142  1
  Cu  Cu45  1  0.03060720  0.78166862  0.55935007  1
  Cu  Cu46  1  0.44138875  0.03195382  0.21722483  1
  Cu  Cu47  1  0.24917865  0.65861358  0.78277517  1
  Cu  Cu48  1  0.55861125  0.34138642  0.40943494  1
  Cu  Cu49  1  0.75082135  0.96804618  0.59056506  1
  Cu  Cu50  1  0.59206750  0.56018999  0.65736102  1
  Cu  Cu51  1  0.40793250  0.75057149  0.03187750  1
  Cu  Cu52  1  0.78244899  0.43981001  0.96812250  1
  Cu  Cu53  1  0.21755101  0.24942851  0.34263898  1
  Cu  Cu54  1  0.03060720  0.58995727  0.75106142  1
  Cu  Cu55  1  0.65898131  0.41004273  0.55935007  1
  Cu  Cu56  1  0.34101869  0.78166862  0.24893858  1
  Cu  Cu57  1  0.96939280  0.21833138  0.44064993  1
  Cu  Cu58  1  0.55861125  0.96804618  0.78277517  1
  Cu  Cu59  1  0.75082135  0.34138642  0.21722483  1
  Cu  Cu60  1  0.44138875  0.65861358  0.59056506  1
  Cu  Cu61  1  0.24917865  0.03195382  0.40943494  1
  Cu  Cu62  1  0.40793250  0.43981001  0.34263898  1
  Cu  Cu63  1  0.59206750  0.24942851  0.96812250  1
  Cu  Cu64  1  0.21755101  0.56018999  0.03187750  1
  Cu  Cu65  1  0.78244899  0.75057149  0.65736102  1
  Cu  Cu66  1  0.00000000  0.00000000  0.00000000  1
  Cu  Cu67  1  0.90202464  0.74297370  0.15905094  1
  Cu  Cu68  1  0.09797536  0.25702630  0.84094906  1
  Cu  Cu69  1  0.90202464  0.06107558  0.84094906  1
  Cu  Cu70  1  0.09797536  0.93892442  0.15905094  1
  Cu  Cu71  1  0.84029888  0.09638590  0.06331522  1
  Cu  Cu72  1  0.15970112  0.90361410  0.93668478  1
  Cu  Cu73  1  0.15970112  0.09638590  0.74391297  1
  Cu  Cu74  1  0.84029888  0.90361410  0.25608703  1
  Cu  Cu75  1  0.25920275  0.16237212  0.90316937  1
  Cu  Cu76  1  0.74079725  0.83762788  0.09683063  1
  Cu  Cu77  1  0.93445850  0.83762788  0.90316937  1
  Cu  Cu78  1  0.06554150  0.16237212  0.09683063  1
  Cu  Cu79  1  0.40889931  0.50000000  0.09110069  1
  Cu  Cu80  1  0.59110069  0.50000000  0.90889931  1
