# generated using pymatgen
data_Cu8NiC26
_symmetry_space_group_name_H-M   'P 1'
_cell_length_a   12.09100700
_cell_length_b   12.09100700
_cell_length_c   12.09100700
_cell_angle_alpha   90.00000000
_cell_angle_beta   90.00000000
_cell_angle_gamma   90.00000000
_symmetry_Int_Tables_number   1
_chemical_formula_structural   Cu8NiC26
_chemical_formula_sum   'Cu32 Ni4 C104'
_cell_volume   1767.61393961
_cell_formula_units_Z   4
loop_
 _symmetry_equiv_pos_site_id
 _symmetry_equiv_pos_as_xyz
  1  'x, y, z'
loop_
 _atom_site_type_symbol
 _atom_site_label
 _atom_site_symmetry_multiplicity
 _atom_site_fract_x
 _atom_site_fract_y
 _atom_site_fract_z
 _atom_site_occupancy
  C  C0  1  0.37500000  0.95607600  0.79392400  1
  C  C1  1  0.29392400  0.12500000  0.04392400  1
  C  C2  1  0.45607600  0.70607600  0.62500000  1
  C  C3  1  0.54392400  0.20607600  0.87500000  1
  C  C4  1  0.87500000  0.54392400  0.20607600  1
  C  C5  1  0.12500000  0.04392400  0.29392400  1
  C  C6  1  0.62500000  0.45607600  0.70607600  1
  C  C7  1  0.95607600  0.79392400  0.37500000  1
  C  C8  1  0.04392400  0.29392400  0.12500000  1
  C  C9  1  0.70607600  0.62500000  0.45607600  1
  C  C10  1  0.79392400  0.37500000  0.95607600  1
  C  C11  1  0.20607600  0.87500000  0.54392400  1
  Ni  Ni12  1  0.12500000  0.62500000  0.87500000  1
  Ni  Ni13  1  0.37500000  0.37500000  0.37500000  1
  Ni  Ni14  1  0.87500000  0.12500000  0.62500000  1
  Ni  Ni15  1  0.62500000  0.87500000  0.12500000  1
  Cu  Cu16  1  0.63537400  0.35449200  0.43084400  1
  Cu  Cu17  1  0.64550800  0.93084400  0.86462600  1
  Cu  Cu18  1  0.43084400  0.63537400  0.35449200  1
  Cu  Cu19  1  0.93084400  0.86462600  0.64550800  1
  Cu  Cu20  1  0.85449200  0.06915600  0.36462600  1
  Cu  Cu21  1  0.06915600  0.36462600  0.85449200  1
  Cu  Cu22  1  0.35449200  0.43084400  0.63537400  1
  Cu  Cu23  1  0.14550800  0.56915600  0.13537400  1
  Cu  Cu24  1  0.56915600  0.13537400  0.14550800  1
  Cu  Cu25  1  0.39550800  0.11462600  0.31915600  1
  Cu  Cu26  1  0.10449200  0.88537400  0.81915600  1
  Cu  Cu27  1  0.68084400  0.89550800  0.38537400  1
  Cu  Cu28  1  0.31915600  0.39550800  0.11462600  1
  Cu  Cu29  1  0.88537400  0.81915600  0.10449200  1
  Cu  Cu30  1  0.38537400  0.68084400  0.89550800  1
  Cu  Cu31  1  0.13537400  0.14550800  0.56915600  1
  Cu  Cu32  1  0.86462600  0.64550800  0.93084400  1
  Cu  Cu33  1  0.36462600  0.85449200  0.06915600  1
  Cu  Cu34  1  0.89550800  0.38537400  0.68084400  1
  Cu  Cu35  1  0.60449200  0.61462600  0.18084400  1
  Cu  Cu36  1  0.81915600  0.10449200  0.88537400  1
  Cu  Cu37  1  0.18084400  0.60449200  0.61462600  1
  Cu  Cu38  1  0.11462600  0.31915600  0.39550800  1
  Cu  Cu39  1  0.61462600  0.18084400  0.60449200  1
  Cu  Cu40  1  0.01774900  0.01774900  0.01774900  1
  Cu  Cu41  1  0.26774900  0.23225100  0.76774900  1
  Cu  Cu42  1  0.76774900  0.26774900  0.23225100  1
  Cu  Cu43  1  0.23225100  0.76774900  0.26774900  1
  Cu  Cu44  1  0.48225100  0.98225100  0.51774900  1
  Cu  Cu45  1  0.51774900  0.48225100  0.98225100  1
  Cu  Cu46  1  0.98225100  0.51774900  0.48225100  1
  Cu  Cu47  1  0.73225100  0.73225100  0.73225100  1
  C  C48  1  0.66146700  0.66146700  0.66146700  1
  C  C49  1  0.91146700  0.58853300  0.41146700  1
  C  C50  1  0.58853300  0.41146700  0.91146700  1
  C  C51  1  0.41146700  0.91146700  0.58853300  1
  C  C52  1  0.16146700  0.83853300  0.33853300  1
  C  C53  1  0.83853300  0.33853300  0.16146700  1
  C  C54  1  0.33853300  0.16146700  0.83853300  1
  C  C55  1  0.08853300  0.08853300  0.08853300  1
  C  C56  1  0.43738800  0.51107800  0.67748800  1
  C  C57  1  0.93738800  0.98892200  0.32251200  1
  C  C58  1  0.51107800  0.67748800  0.43738800  1
  C  C59  1  0.48892200  0.17748800  0.06261200  1
  C  C60  1  0.67748800  0.43738800  0.51107800  1
  C  C61  1  0.82251200  0.56261200  0.01107800  1
  C  C62  1  0.18738800  0.92748800  0.73892200  1
  C  C63  1  0.68738800  0.57251200  0.26107800  1
  C  C64  1  0.81261200  0.42748800  0.76107800  1
  C  C65  1  0.57251200  0.26107800  0.68738800  1
  C  C66  1  0.76107800  0.81261200  0.42748800  1
  C  C67  1  0.26107800  0.68738800  0.57251200  1
  C  C68  1  0.92748800  0.73892200  0.18738800  1
  C  C69  1  0.73892200  0.18738800  0.92748800  1
  C  C70  1  0.42748800  0.76107800  0.81261200  1
  C  C71  1  0.07251200  0.23892200  0.31261200  1
  C  C72  1  0.23892200  0.31261200  0.07251200  1
  C  C73  1  0.32251200  0.93738800  0.98892200  1
  C  C74  1  0.17748800  0.06261200  0.48892200  1
  C  C75  1  0.01107800  0.82251200  0.56261200  1
  C  C76  1  0.98892200  0.32251200  0.93738800  1
  C  C77  1  0.06261200  0.48892200  0.17748800  1
  C  C78  1  0.56261200  0.01107800  0.82251200  1
  C  C79  1  0.31261200  0.07251200  0.23892200  1
  C  C80  1  0.37500000  0.73242000  0.01758000  1
  C  C81  1  0.51758000  0.12500000  0.26758000  1
  C  C82  1  0.73434300  0.32978100  0.34188400  1
  C  C83  1  0.23242000  0.48242000  0.62500000  1
  C  C84  1  0.98242000  0.87500000  0.76758000  1
  C  C85  1  0.01758000  0.37500000  0.73242000  1
  C  C86  1  0.48242000  0.62500000  0.23242000  1
  C  C87  1  0.26758000  0.51758000  0.12500000  1
  C  C88  1  0.73242000  0.01758000  0.37500000  1
  C  C89  1  0.62500000  0.23242000  0.48242000  1
  C  C90  1  0.12500000  0.26758000  0.51758000  1
  C  C91  1  0.87500000  0.76758000  0.98242000  1
  C  C92  1  0.32978100  0.34188400  0.73434300  1
  C  C93  1  0.82978100  0.15811600  0.26565700  1
  C  C94  1  0.34188400  0.73434300  0.32978100  1
  C  C95  1  0.65811600  0.23434300  0.17021900  1
  C  C96  1  0.03185900  0.12246000  0.63345500  1
  C  C97  1  0.28185900  0.61654500  0.87246000  1
  C  C98  1  0.78185900  0.88345500  0.12754000  1
  C  C99  1  0.38345500  0.37246000  0.21814100  1
  C  C100  1  0.61654500  0.87246000  0.28185900  1
  C  C101  1  0.12754000  0.78185900  0.88345500  1
  C  C102  1  0.37246000  0.21814100  0.38345500  1
  C  C103  1  0.63345500  0.03185900  0.12246000  1
  C  C104  1  0.12246000  0.63345500  0.03185900  1
  C  C105  1  0.37754000  0.36654500  0.53185900  1
  C  C106  1  0.13345500  0.46814100  0.87754000  1
  C  C107  1  0.87754000  0.13345500  0.46814100  1
  C  C108  1  0.86654500  0.96814100  0.62246000  1
  C  C109  1  0.36654500  0.53185900  0.37754000  1
  C  C110  1  0.62246000  0.86654500  0.96814100  1
  C  C111  1  0.53185900  0.37754000  0.36654500  1
  C  C112  1  0.96814100  0.62246000  0.86654500  1
  C  C113  1  0.46814100  0.87754000  0.13345500  1
  C  C114  1  0.87246000  0.28185900  0.61654500  1
  C  C115  1  0.62754000  0.71814100  0.11654500  1
  C  C116  1  0.88345500  0.12754000  0.78185900  1
  C  C117  1  0.11654500  0.62754000  0.71814100  1
  C  C118  1  0.21814100  0.38345500  0.37246000  1
  C  C119  1  0.71814100  0.11654500  0.62754000  1
  C  C120  1  0.42021900  0.01565700  0.40811600  1
  C  C121  1  0.67021900  0.84188400  0.76565700  1
  C  C122  1  0.17021900  0.65811600  0.23434300  1
  C  C123  1  0.15811600  0.26565700  0.82978100  1
  C  C124  1  0.84188400  0.76565700  0.67021900  1
  C  C125  1  0.23434300  0.17021900  0.65811600  1
  C  C126  1  0.26565700  0.82978100  0.15811600  1
  C  C127  1  0.40811600  0.42021900  0.01565700  1
  C  C128  1  0.01565700  0.40811600  0.42021900  1
  C  C129  1  0.48434300  0.59188400  0.92021900  1
  C  C130  1  0.90811600  0.07978100  0.98434300  1
  C  C131  1  0.98434300  0.90811600  0.07978100  1
  C  C132  1  0.09188400  0.57978100  0.51565700  1
  C  C133  1  0.59188400  0.92021900  0.48434300  1
  C  C134  1  0.51565700  0.09188400  0.57978100  1
  C  C135  1  0.92021900  0.48434300  0.59188400  1
  C  C136  1  0.57978100  0.51565700  0.09188400  1
  C  C137  1  0.07978100  0.98434300  0.90811600  1
  C  C138  1  0.76565700  0.67021900  0.84188400  1
  C  C139  1  0.76758000  0.98242000  0.87500000  1
