# generated using pymatgen
data_Cu9NiC4
_symmetry_space_group_name_H-M   'P 1'
_cell_length_a   6.87969700
_cell_length_b   7.54368600
_cell_length_c   13.72575200
_cell_angle_alpha   90.00000000
_cell_angle_beta   90.00000000
_cell_angle_gamma   90.00000000
_symmetry_Int_Tables_number   1
_chemical_formula_structural   Cu9NiC4
_chemical_formula_sum   'Cu36 Ni4 C16'
_cell_volume   712.34283737
_cell_formula_units_Z   4
loop_
 _symmetry_equiv_pos_site_id
 _symmetry_equiv_pos_as_xyz
  1  'x, y, z'
loop_
 _atom_site_type_symbol
 _atom_site_label
 _atom_site_symmetry_multiplicity
 _atom_site_fract_x
 _atom_site_fract_y
 _atom_site_fract_z
 _atom_site_occupancy
  C  C0  1  0.25000000  0.32626600  0.05359700  1
  C  C1  1  0.75000000  0.67373400  0.94640300  1
  C  C2  1  0.75000000  0.17373400  0.55359700  1
  C  C3  1  0.25000000  0.82626600  0.44640300  1
  C  C4  1  0.25000000  0.65658600  0.65899200  1
  C  C5  1  0.75000000  0.34341400  0.34100800  1
  C  C6  1  0.75000000  0.84341400  0.15899200  1
  C  C7  1  0.25000000  0.15658600  0.84100800  1
  C  C8  1  0.00000000  0.50000000  0.50000000  1
  C  C9  1  0.00000000  0.00000000  0.00000000  1
  C  C10  1  0.50000000  0.50000000  0.50000000  1
  C  C11  1  0.50000000  0.00000000  0.00000000  1
  C  C12  1  0.25000000  0.74753400  0.18534000  1
  C  C13  1  0.75000000  0.25246600  0.81466000  1
  C  C14  1  0.75000000  0.75246600  0.68534000  1
  C  C15  1  0.25000000  0.24753400  0.31466000  1
  Ni  Ni16  1  0.25000000  0.66770500  0.89979800  1
  Ni  Ni17  1  0.75000000  0.33229500  0.10020200  1
  Ni  Ni18  1  0.75000000  0.83229500  0.39979800  1
  Ni  Ni19  1  0.25000000  0.16770500  0.60020200  1
  Cu  Cu20  1  0.25000000  0.60383900  0.51824400  1
  Cu  Cu21  1  0.75000000  0.39616100  0.48175600  1
  Cu  Cu22  1  0.75000000  0.89616100  0.01824400  1
  Cu  Cu23  1  0.25000000  0.10383900  0.98175600  1
  Cu  Cu24  1  0.53081800  0.62959100  0.65152500  1
  Cu  Cu25  1  0.46918200  0.37040900  0.34847500  1
  Cu  Cu26  1  0.46918200  0.87040900  0.15152500  1
  Cu  Cu27  1  0.03081800  0.37040900  0.34847500  1
  Cu  Cu28  1  0.53081800  0.12959100  0.84847500  1
  Cu  Cu29  1  0.96918200  0.62959100  0.65152500  1
  Cu  Cu30  1  0.96918200  0.12959100  0.84847500  1
  Cu  Cu31  1  0.03081800  0.87040900  0.15152500  1
  Cu  Cu32  1  0.25000000  0.70121600  0.31120100  1
  Cu  Cu33  1  0.75000000  0.29878400  0.68879900  1
  Cu  Cu34  1  0.75000000  0.79878400  0.81120100  1
  Cu  Cu35  1  0.25000000  0.20121600  0.18879900  1
  Cu  Cu36  1  0.25000000  0.72564100  0.79649700  1
  Cu  Cu37  1  0.75000000  0.27435900  0.20350300  1
  Cu  Cu38  1  0.75000000  0.77435900  0.29649700  1
  Cu  Cu39  1  0.25000000  0.22564100  0.70350300  1
  Cu  Cu40  1  0.25000000  0.53905000  0.12473900  1
  Cu  Cu41  1  0.75000000  0.46095000  0.87526100  1
  Cu  Cu42  1  0.75000000  0.96095000  0.62473900  1
  Cu  Cu43  1  0.25000000  0.03905000  0.37526100  1
  Cu  Cu44  1  0.25000000  0.97192300  0.59045800  1
  Cu  Cu45  1  0.75000000  0.02807700  0.40954200  1
  Cu  Cu46  1  0.75000000  0.52807700  0.09045800  1
  Cu  Cu47  1  0.25000000  0.47192300  0.90954200  1
  Cu  Cu48  1  0.07409400  0.74260400  0.94969100  1
  Cu  Cu49  1  0.92590600  0.25739600  0.05030900  1
  Cu  Cu50  1  0.92590600  0.75739600  0.44969100  1
  Cu  Cu51  1  0.57409400  0.25739600  0.05030900  1
  Cu  Cu52  1  0.07409400  0.24260400  0.55030900  1
  Cu  Cu53  1  0.42590600  0.74260400  0.94969100  1
  Cu  Cu54  1  0.42590600  0.24260400  0.55030900  1
  Cu  Cu55  1  0.57409400  0.75739600  0.44969100  1
