# generated using pymatgen
data_Cu3NiC6
_symmetry_space_group_name_H-M   'P 1'
_cell_length_a   3.97897500
_cell_length_b   11.08754000
_cell_length_c   11.32079426
_cell_angle_alpha   71.15724327
_cell_angle_beta   90.00000000
_cell_angle_gamma   90.00000000
_symmetry_Int_Tables_number   1
_chemical_formula_structural   Cu3NiC6
_chemical_formula_sum   'Cu6 Ni2 C12'
_cell_volume   472.67424970
_cell_formula_units_Z   2
loop_
 _symmetry_equiv_pos_site_id
 _symmetry_equiv_pos_as_xyz
  1  'x, y, z'
loop_
 _atom_site_type_symbol
 _atom_site_label
 _atom_site_symmetry_multiplicity
 _atom_site_fract_x
 _atom_site_fract_y
 _atom_site_fract_z
 _atom_site_occupancy
  Ni  Ni0  1  0.75000000  0.54956300  0.80596800  1
  Ni  Ni1  1  0.25000000  0.45043700  0.19403200  1
  Cu  Cu2  1  0.75000000  0.17983400  0.99970300  1
  Cu  Cu3  1  0.25000000  0.82016600  0.00029700  1
  Cu  Cu4  1  0.75000000  0.94278800  0.66671800  1
  Cu  Cu5  1  0.25000000  0.05721200  0.33328200  1
  Cu  Cu6  1  0.75000000  0.66018300  0.41375200  1
  Cu  Cu7  1  0.25000000  0.33981700  0.58624800  1
  C  C8  1  0.75000000  0.97903800  0.88811000  1
  C  C9  1  0.25000000  0.02096200  0.11189000  1
  C  C10  1  0.75000000  0.30424700  0.74989100  1
  C  C11  1  0.25000000  0.69575300  0.25010900  1
  C  C12  1  0.75000000  0.89292500  0.44269400  1
  C  C13  1  0.25000000  0.10707500  0.55730600  1
  C  C14  1  0.75000000  0.41858500  0.40460400  1
  C  C15  1  0.25000000  0.58141500  0.59539600  1
  C  C16  1  0.75000000  0.23366800  0.22978500  1
  C  C17  1  0.25000000  0.76633200  0.77021500  1
  C  C18  1  0.75000000  0.61770100  0.03694600  1
  C  C19  1  0.25000000  0.38229900  0.96305400  1
