# generated using pymatgen
data_CuNiC3
_symmetry_space_group_name_H-M   'P 1'
_cell_length_a   5.38486300
_cell_length_b   5.39596500
_cell_length_c   9.42456800
_cell_angle_alpha   90.00000000
_cell_angle_beta   90.00000000
_cell_angle_gamma   90.00000000
_symmetry_Int_Tables_number   1
_chemical_formula_structural   CuNiC3
_chemical_formula_sum   'Cu4 Ni4 C12'
_cell_volume   273.84526430
_cell_formula_units_Z   4
loop_
 _symmetry_equiv_pos_site_id
 _symmetry_equiv_pos_as_xyz
  1  'x, y, z'
loop_
 _atom_site_type_symbol
 _atom_site_label
 _atom_site_symmetry_multiplicity
 _atom_site_fract_x
 _atom_site_fract_y
 _atom_site_fract_z
 _atom_site_occupancy
  Ni  Ni0  1  0.95829300  0.03055200  0.25000000  1
  Ni  Ni1  1  0.45829300  0.46944800  0.75000000  1
  Ni  Ni2  1  0.54170700  0.53055200  0.25000000  1
  Ni  Ni3  1  0.04170700  0.96944800  0.75000000  1
  Cu  Cu4  1  0.00000000  0.50000000  0.00000000  1
  Cu  Cu5  1  0.50000000  0.00000000  0.00000000  1
  Cu  Cu6  1  0.50000000  0.00000000  0.50000000  1
  Cu  Cu7  1  0.00000000  0.50000000  0.50000000  1
  C  C8  1  0.62649000  0.36883000  0.89910800  1
  C  C9  1  0.12649000  0.13117000  0.10089200  1
  C  C10  1  0.87351000  0.86883000  0.60089200  1
  C  C11  1  0.37351000  0.63117000  0.39910800  1
  C  C12  1  0.37351000  0.63117000  0.10089200  1
  C  C13  1  0.87351000  0.86883000  0.89910800  1
  C  C14  1  0.12649000  0.13117000  0.39910800  1
  C  C15  1  0.62649000  0.36883000  0.60089200  1
  C  C16  1  0.16805100  0.28489600  0.75000000  1
  C  C17  1  0.66805100  0.21510400  0.25000000  1
  C  C18  1  0.33194900  0.78489600  0.75000000  1
  C  C19  1  0.83194900  0.71510400  0.25000000  1
