# generated using pymatgen
data_Cu2NiC22
_symmetry_space_group_name_H-M   'P 1'
_cell_length_a   11.04516813
_cell_length_b   11.04516813
_cell_length_c   14.03740660
_cell_angle_alpha   61.50643681
_cell_angle_beta   61.50643681
_cell_angle_gamma   27.82308493
_symmetry_Int_Tables_number   1
_chemical_formula_structural   Cu2NiC22
_chemical_formula_sum   'Cu4 Ni2 C44'
_cell_volume   696.10256334
_cell_formula_units_Z   2
loop_
 _symmetry_equiv_pos_site_id
 _symmetry_equiv_pos_as_xyz
  1  'x, y, z'
loop_
 _atom_site_type_symbol
 _atom_site_label
 _atom_site_symmetry_multiplicity
 _atom_site_fract_x
 _atom_site_fract_y
 _atom_site_fract_z
 _atom_site_occupancy
  Ni  Ni0  1  0.50000000  0.50000000  0.00000000  1
  Ni  Ni1  1  0.50000000  0.50000000  0.50000000  1
  Cu  Cu2  1  0.25434300  0.30477700  0.15326400  1
  Cu  Cu3  1  0.69522300  0.74565700  0.34673600  1
  Cu  Cu4  1  0.74565700  0.69522300  0.84673600  1
  Cu  Cu5  1  0.30477700  0.25434300  0.65326400  1
  C  C6  1  0.67088200  0.64255600  0.15527500  1
  C  C7  1  0.35744400  0.32911800  0.34472500  1
  C  C8  1  0.32911800  0.35744400  0.84472500  1
  C  C9  1  0.64255600  0.67088200  0.65527500  1
  C  C10  1  0.94757800  0.05242200  0.25000000  1
  C  C11  1  0.05242100  0.94757800  0.75000000  1
  C  C12  1  0.17357200  0.14137300  0.00700600  1
  C  C13  1  0.85862700  0.82642800  0.49299400  1
  C  C14  1  0.82642800  0.85862700  0.99299400  1
  C  C15  1  0.14137300  0.17357200  0.50700600  1
  C  C16  1  0.87675300  0.88640500  0.17075700  1
  C  C17  1  0.11359500  0.12324700  0.32924300  1
  C  C18  1  0.12324700  0.11359500  0.82924300  1
  C  C19  1  0.88640500  0.87675300  0.67075700  1
  C  C20  1  0.45812900  0.54187100  0.25000000  1
  C  C21  1  0.54187100  0.45812900  0.75000000  1
  C  C22  1  0.95457900  0.96379600  0.14579100  1
  C  C23  1  0.03620400  0.04542100  0.35420900  1
  C  C24  1  0.04542100  0.03620400  0.85420900  1
  C  C25  1  0.96379600  0.95457900  0.64579100  1
  C  C26  1  0.06138700  0.15429100  0.95126700  1
  C  C27  1  0.84570900  0.93861300  0.54873300  1
  C  C28  1  0.93861300  0.84570900  0.04873300  1
  C  C29  1  0.15429100  0.06138700  0.45126700  1
  C  C30  1  0.89628900  0.41603200  0.29018900  1
  C  C31  1  0.58396800  0.10371100  0.20981100  1
  C  C32  1  0.10371100  0.58396800  0.70981100  1
  C  C33  1  0.41603200  0.89628900  0.79018900  1
  C  C34  1  0.98858700  0.24794500  0.11591400  1
  C  C35  1  0.75205500  0.01141300  0.38408600  1
  C  C36  1  0.01141300  0.75205500  0.88408600  1
  C  C37  1  0.24794500  0.98858700  0.61591400  1
  C  C38  1  0.45879400  0.85483600  0.02293400  1
  C  C39  1  0.14516400  0.54120600  0.47706600  1
  C  C40  1  0.54120600  0.14516400  0.97706600  1
  C  C41  1  0.85483600  0.45879400  0.52293400  1
  C  C42  1  0.04813800  0.62256800  0.24356500  1
  C  C43  1  0.37743200  0.95186200  0.25643500  1
  C  C44  1  0.95186200  0.37743200  0.75643500  1
  C  C45  1  0.62256800  0.04813800  0.74356500  1
  C  C46  1  0.85945400  0.67827600  0.07235000  1
  C  C47  1  0.32172400  0.14054600  0.42765000  1
  C  C48  1  0.14054600  0.32172400  0.92765000  1
  C  C49  1  0.67827600  0.85945400  0.57235000  1
