# generated using pymatgen
data_CuNi2C11
_symmetry_space_group_name_H-M   'P 1'
_cell_length_a   7.92868035
_cell_length_b   7.81053376
_cell_length_c   7.92873202
_cell_angle_alpha   59.49851990
_cell_angle_beta   60.00052556
_cell_angle_gamma   59.49736524
_symmetry_Int_Tables_number   1
_chemical_formula_structural   CuNi2C11
_chemical_formula_sum   'Cu1 Ni2 C11'
_cell_volume   344.53579844
_cell_formula_units_Z   1
loop_
 _symmetry_equiv_pos_site_id
 _symmetry_equiv_pos_as_xyz
  1  'x, y, z'
loop_
 _atom_site_type_symbol
 _atom_site_label
 _atom_site_symmetry_multiplicity
 _atom_site_fract_x
 _atom_site_fract_y
 _atom_site_fract_z
 _atom_site_occupancy
  C  C0  1  0.50000181  0.50001769  0.49998139  1
  C  C1  1  0.49999590  0.49999276  0.99999905  1
  C  C2  1  0.00000055  0.49999265  0.50001088  1
  Ni  Ni3  1  0.87514817  0.87454378  0.87516447  1
  Ni  Ni4  1  0.12485165  0.12546349  0.12483394  1
  Cu  Cu5  1  0.49999725  -0.00000298  0.50001097  1
  C  C6  1  0.73141107  0.77145276  0.73141549  1
  C  C7  1  0.26860313  0.22855060  0.73426285  1
  C  C8  1  0.25304400  0.74085497  0.25304720  1
  C  C9  1  0.73427932  0.22855404  0.26857943  1
  C  C10  1  0.74694204  0.25914713  0.74693808  1
  C  C11  1  0.26572070  0.77144530  0.73141547  1
  C  C12  1  0.26858799  0.22853003  0.26860499  1
  C  C13  1  0.73142041  0.77145278  0.26573679  1
