# generated using pymatgen
data_Cu18NiC4
_symmetry_space_group_name_H-M   'P 1'
_cell_length_a   5.89923757
_cell_length_b   5.89923757
_cell_length_c   20.19629370
_cell_angle_alpha   91.07680102
_cell_angle_beta   91.07680102
_cell_angle_gamma   100.94078236
_symmetry_Int_Tables_number   1
_chemical_formula_structural   Cu18NiC4
_chemical_formula_sum   'Cu36 Ni2 C8'
_cell_volume   689.77531252
_cell_formula_units_Z   2
loop_
 _symmetry_equiv_pos_site_id
 _symmetry_equiv_pos_as_xyz
  1  'x, y, z'
loop_
 _atom_site_type_symbol
 _atom_site_label
 _atom_site_symmetry_multiplicity
 _atom_site_fract_x
 _atom_site_fract_y
 _atom_site_fract_z
 _atom_site_occupancy
  C  C0  1  0.45065200  0.31651800  0.94608200  1
  C  C1  1  0.68348200  0.54934800  0.55391800  1
  C  C2  1  0.54934800  0.68348200  0.05391800  1
  C  C3  1  0.31651800  0.45065200  0.44608200  1
  C  C4  1  0.95977800  0.23096500  0.01695500  1
  C  C5  1  0.76903500  0.04022200  0.48304500  1
  C  C6  1  0.04022200  0.76903500  0.98304500  1
  C  C7  1  0.23096500  0.95977800  0.51695500  1
  Ni  Ni8  1  0.82718900  0.17281100  0.25000000  1
  Ni  Ni9  1  0.17281100  0.82718900  0.75000000  1
  Cu  Cu10  1  0.07876600  0.24198700  0.26412400  1
  Cu  Cu11  1  0.75801300  0.92123400  0.23587600  1
  Cu  Cu12  1  0.92123400  0.75801300  0.73587600  1
  Cu  Cu13  1  0.24198700  0.07876600  0.76412400  1
  Cu  Cu14  1  0.77024000  0.29532700  0.19000900  1
  Cu  Cu15  1  0.70467300  0.22976000  0.30999100  1
  Cu  Cu16  1  0.22976000  0.70467300  0.80999100  1
  Cu  Cu17  1  0.29532700  0.77024000  0.69000900  1
  Cu  Cu18  1  0.89496900  0.31789600  0.82196500  1
  Cu  Cu19  1  0.68210400  0.10503100  0.67803500  1
  Cu  Cu20  1  0.10503100  0.68210400  0.17803500  1
  Cu  Cu21  1  0.31789600  0.89496900  0.32196500  1
  Cu  Cu22  1  0.69758000  0.35606800  0.82234900  1
  Cu  Cu23  1  0.64393200  0.30242000  0.67765100  1
  Cu  Cu24  1  0.30242000  0.64393200  0.17765100  1
  Cu  Cu25  1  0.35606800  0.69758000  0.32234900  1
  Cu  Cu26  1  0.34988800  0.01710100  0.08347900  1
  Cu  Cu27  1  0.98289900  0.65011200  0.41652100  1
  Cu  Cu28  1  0.65011200  0.98289900  0.91652100  1
  Cu  Cu29  1  0.01710100  0.34988800  0.58347900  1
  Cu  Cu30  1  0.68209800  0.39730000  0.02725300  1
  Cu  Cu31  1  0.60270000  0.31790200  0.47274700  1
  Cu  Cu32  1  0.31790200  0.60270000  0.97274700  1
  Cu  Cu33  1  0.39730000  0.68209800  0.52725300  1
  Cu  Cu34  1  0.81506100  0.91054300  0.03641900  1
  Cu  Cu35  1  0.08945700  0.18493900  0.46358100  1
  Cu  Cu36  1  0.18493900  0.08945700  0.96358100  1
  Cu  Cu37  1  0.91054300  0.81506100  0.53641900  1
  Cu  Cu38  1  0.79171100  0.46373400  0.96005900  1
  Cu  Cu39  1  0.53626600  0.20828900  0.53994100  1
  Cu  Cu40  1  0.20828900  0.53626600  0.03994100  1
  Cu  Cu41  1  0.46373400  0.79171100  0.46005900  1
  Cu  Cu42  1  0.15932000  0.31569300  0.62611600  1
  Cu  Cu43  1  0.68430700  0.84068000  0.87388400  1
  Cu  Cu44  1  0.84068000  0.68430700  0.37388400  1
  Cu  Cu45  1  0.31569300  0.15932000  0.12611600  1
