# generated using pymatgen
data_Cu6Ni21C
_symmetry_space_group_name_H-M   'P 1'
_cell_length_a   11.86586200
_cell_length_b   10.75160300
_cell_length_c   18.58394584
_cell_angle_alpha   55.08767251
_cell_angle_beta   90.00000000
_cell_angle_gamma   90.00000000
_symmetry_Int_Tables_number   1
_chemical_formula_structural   Cu6Ni21C
_chemical_formula_sum   'Cu24 Ni84 C4'
_cell_volume   1944.19367761
_cell_formula_units_Z   4
loop_
 _symmetry_equiv_pos_site_id
 _symmetry_equiv_pos_as_xyz
  1  'x, y, z'
loop_
 _atom_site_type_symbol
 _atom_site_label
 _atom_site_symmetry_multiplicity
 _atom_site_fract_x
 _atom_site_fract_y
 _atom_site_fract_z
 _atom_site_occupancy
  C  C0  1  0.37658600  0.05121500  0.97409600  1
  C  C1  1  0.12341400  0.05121500  0.47409600  1
  C  C2  1  0.62341400  0.94878500  0.02590400  1
  C  C3  1  0.87658600  0.94878500  0.52590400  1
  Ni  Ni4  1  0.56068600  0.10853400  0.75697600  1
  Ni  Ni5  1  0.93931400  0.10853400  0.25697600  1
  Ni  Ni6  1  0.43931400  0.89146600  0.24302400  1
  Ni  Ni7  1  0.06068600  0.89146600  0.74302400  1
  Ni  Ni8  1  0.66100200  0.09993100  0.72099500  1
  Ni  Ni9  1  0.83899800  0.09993100  0.22099500  1
  Ni  Ni10  1  0.33899800  0.90006900  0.27900500  1
  Ni  Ni11  1  0.16100200  0.90006900  0.77900500  1
  Ni  Ni12  1  0.69825000  0.11545700  0.64861500  1
  Ni  Ni13  1  0.80175000  0.11545700  0.14861500  1
  Ni  Ni14  1  0.30175000  0.88454300  0.35138500  1
  Ni  Ni15  1  0.19825000  0.88454300  0.85138500  1
  Ni  Ni16  1  0.59419200  0.14626700  0.61435700  1
  Ni  Ni17  1  0.90580800  0.14626700  0.11435700  1
  Ni  Ni18  1  0.40580800  0.85373300  0.38564300  1
  Ni  Ni19  1  0.09419200  0.85373300  0.88564300  1
  Ni  Ni20  1  0.48264900  0.16921700  0.61165300  1
  Ni  Ni21  1  0.01735100  0.16921700  0.11165300  1
  Ni  Ni22  1  0.51735100  0.83078300  0.38834700  1
  Ni  Ni23  1  0.98264900  0.83078300  0.88834700  1
  Ni  Ni24  1  0.48513200  0.14495600  0.69038400  1
  Ni  Ni25  1  0.01486800  0.14495600  0.19038400  1
  Ni  Ni26  1  0.51486800  0.85504400  0.30961600  1
  Ni  Ni27  1  0.98513200  0.85504400  0.80961600  1
  Ni  Ni28  1  0.41583700  0.58349900  0.07007000  1
  Ni  Ni29  1  0.08416300  0.58349900  0.57007000  1
  Ni  Ni30  1  0.58416300  0.41650100  0.92993000  1
  Ni  Ni31  1  0.91583700  0.41650100  0.42993000  1
  Ni  Ni32  1  0.31641800  0.53782200  0.05204000  1
  Ni  Ni33  1  0.18358200  0.53782200  0.55204000  1
  Ni  Ni34  1  0.68358200  0.46217800  0.94796000  1
  Ni  Ni35  1  0.81641800  0.46217800  0.44796000  1
  Ni  Ni36  1  0.27032900  0.41529900  0.06347200  1
  Ni  Ni37  1  0.22967100  0.41529900  0.56347200  1
  Ni  Ni38  1  0.72967100  0.58470100  0.93652800  1
  Ni  Ni39  1  0.77032900  0.58470100  0.43652800  1
  Ni  Ni40  1  0.36161200  0.33207400  0.10625200  1
  Ni  Ni41  1  0.13838800  0.33207400  0.60625200  1
  Ni  Ni42  1  0.63838800  0.66792600  0.89374800  1
  Ni  Ni43  1  0.86161200  0.66792600  0.39374800  1
  Ni  Ni44  1  0.46547200  0.30492800  0.14085700  1
  Ni  Ni45  1  0.03452800  0.30492800  0.64085700  1
  Ni  Ni46  1  0.53452800  0.69507200  0.85914300  1
  Ni  Ni47  1  0.96547200  0.69507200  0.35914300  1
  Ni  Ni48  1  0.47728200  0.44854100  0.11452200  1
  Ni  Ni49  1  0.02271800  0.44854100  0.61452200  1
  Ni  Ni50  1  0.52271800  0.55145900  0.88547800  1
  Ni  Ni51  1  0.97728200  0.55145900  0.38547800  1
  Ni  Ni52  1  0.06950300  0.29393400  0.87565800  1
  Ni  Ni53  1  0.43049700  0.29393400  0.37565800  1
  Ni  Ni54  1  0.93049700  0.70606600  0.12434200  1
  Ni  Ni55  1  0.56950300  0.70606600  0.62434200  1
  Ni  Ni56  1  0.01372800  0.43254300  0.83459400  1
  Ni  Ni57  1  0.48627200  0.43254300  0.33459400  1
  Ni  Ni58  1  0.98627200  0.56745700  0.16540600  1
  Ni  Ni59  1  0.51372800  0.56745700  0.66540600  1
  Ni  Ni60  1  0.91414900  0.49886600  0.80165100  1
  Ni  Ni61  1  0.58585100  0.49886600  0.30165100  1
  Ni  Ni62  1  0.08585100  0.50113400  0.19834900  1
  Ni  Ni63  1  0.41414900  0.50113400  0.69834900  1
  Ni  Ni64  1  0.87197700  0.36545400  0.82382000  1
  Ni  Ni65  1  0.62802300  0.36545400  0.32382000  1
  Ni  Ni66  1  0.12802300  0.63454600  0.17618000  1
  Ni  Ni67  1  0.37197700  0.63454600  0.67618000  1
  Ni  Ni68  1  0.87393400  0.21704800  0.85765400  1
  Ni  Ni69  1  0.62606600  0.21704800  0.35765400  1
  Ni  Ni70  1  0.12606600  0.78295200  0.14234600  1
  Ni  Ni71  1  0.37393400  0.78295200  0.64234600  1
  Ni  Ni72  1  0.98241700  0.20380000  0.88006800  1
  Ni  Ni73  1  0.51758300  0.20380000  0.38006800  1
  Ni  Ni74  1  0.01758300  0.79620000  0.11993200  1
  Ni  Ni75  1  0.48241700  0.79620000  0.61993200  1
  Ni  Ni76  1  0.53863400  0.07470200  0.84456900  1
  Ni  Ni77  1  0.96136600  0.07470200  0.34456900  1
  Ni  Ni78  1  0.46136600  0.92529800  0.15543100  1
  Ni  Ni79  1  0.03863400  0.92529800  0.65543100  1
  Ni  Ni80  1  0.44577100  0.73617400  0.04502600  1
  Ni  Ni81  1  0.05422900  0.73617400  0.54502600  1
  Ni  Ni82  1  0.55422900  0.26382600  0.95497400  1
  Ni  Ni83  1  0.94577100  0.26382600  0.45497400  1
  Ni  Ni84  1  0.19040600  0.27087800  0.90252700  1
  Ni  Ni85  1  0.30959400  0.27087800  0.40252700  1
  Ni  Ni86  1  0.80959400  0.72912200  0.09747300  1
  Ni  Ni87  1  0.69040600  0.72912200  0.59747300  1
  Cu  Cu88  1  0.43798000  0.09661000  0.85966000  1
  Cu  Cu89  1  0.06202000  0.09661000  0.35966000  1
  Cu  Cu90  1  0.56202000  0.90339000  0.14034000  1
  Cu  Cu91  1  0.93798000  0.90339000  0.64034000  1
  Cu  Cu92  1  0.62189300  0.02423600  0.89790600  1
  Cu  Cu93  1  0.87810700  0.02423600  0.39790600  1
  Cu  Cu94  1  0.37810700  0.97576400  0.10209400  1
  Cu  Cu95  1  0.12189300  0.97576400  0.60209400  1
  Cu  Cu96  1  0.36578700  0.83348000  0.01526800  1
  Cu  Cu97  1  0.13421300  0.83348000  0.51526800  1
  Cu  Cu98  1  0.63421300  0.16652000  0.98473200  1
  Cu  Cu99  1  0.86578700  0.16652000  0.48473200  1
  Cu  Cu100  1  0.54808900  0.75933000  0.05424900  1
  Cu  Cu101  1  0.95191100  0.75933000  0.55424900  1
  Cu  Cu102  1  0.45191100  0.24067000  0.94575100  1
  Cu  Cu103  1  0.04808900  0.24067000  0.44575100  1
  Cu  Cu104  1  0.22682000  0.12996000  0.93816500  1
  Cu  Cu105  1  0.27318000  0.12996000  0.43816500  1
  Cu  Cu106  1  0.77318000  0.87004000  0.06183500  1
  Cu  Cu107  1  0.72682000  0.87004000  0.56183500  1
  Cu  Cu108  1  0.24473200  0.37823700  0.88981900  1
  Cu  Cu109  1  0.25526800  0.37823700  0.38981900  1
  Cu  Cu110  1  0.75526800  0.62176300  0.11018100  1
  Cu  Cu111  1  0.74473200  0.62176300  0.61018100  1
