# generated using pymatgen
data_CuNiC5
_symmetry_space_group_name_H-M   'P 1'
_cell_length_a   5.31436885
_cell_length_b   6.78861041
_cell_length_c   10.90515114
_cell_angle_alpha   89.95244643
_cell_angle_beta   89.91998544
_cell_angle_gamma   66.88946736
_symmetry_Int_Tables_number   1
_chemical_formula_structural   CuNiC5
_chemical_formula_sum   'Cu4 Ni4 C20'
_cell_volume   361.85395042
_cell_formula_units_Z   4
loop_
 _symmetry_equiv_pos_site_id
 _symmetry_equiv_pos_as_xyz
  1  'x, y, z'
loop_
 _atom_site_type_symbol
 _atom_site_label
 _atom_site_symmetry_multiplicity
 _atom_site_fract_x
 _atom_site_fract_y
 _atom_site_fract_z
 _atom_site_occupancy
  Ni  Ni0  1  0.85601800  0.29179700  0.25489700  1
  Ni  Ni1  1  0.36083900  0.29137200  0.49582500  1
  Ni  Ni2  1  0.85174600  0.29406100  0.75040400  1
  Ni  Ni3  1  0.34609500  0.29408300  0.99921700  1
  Cu  Cu4  1  0.65767200  0.71861800  0.51272800  1
  Cu  Cu5  1  0.15411800  0.71771700  0.73715100  1
  Cu  Cu6  1  0.62025600  0.71613100  0.01188700  1
  Cu  Cu7  1  0.12497600  0.71659300  0.23864500  1
  C  C8  1  0.99396600  0.00098300  0.00091700  1
  C  C9  1  0.50262500  0.99683900  0.25158200  1
  C  C10  1  0.00677300  0.99552600  0.49843300  1
  C  C11  1  0.49609700  0.00402800  0.75049200  1
  C  C12  1  0.71067200  0.66366600  0.21202000  1
  C  C13  1  0.14438100  0.66387500  0.53620000  1
  C  C14  1  0.62824700  0.67290600  0.72000300  1
  C  C15  1  0.19420300  0.67292500  0.03044000  1
  C  C16  1  0.81823600  0.37027500  0.48386700  1
  C  C17  1  0.31906000  0.35858900  0.76544300  1
  C  C18  1  0.81475900  0.36165100  0.98337600  1
  C  C19  1  0.32059400  0.36868300  0.26671500  1
  C  C20  1  0.28981600  0.92517900  0.37626200  1
  C  C21  1  0.75678700  0.00957900  0.62434200  1
  C  C22  1  0.24865400  0.96818900  0.87659000  1
  C  C23  1  0.74275900  0.01552000  0.12194800  1
  C  C24  1  0.77474200  0.95369800  0.37342700  1
  C  C25  1  0.24784900  0.01370400  0.62344200  1
  C  C26  1  0.76473500  0.93558300  0.87309600  1
  C  C27  1  0.25332000  0.00823000  0.13064900  1
