# generated using pymatgen
data_Cu(NiC4)3
_symmetry_space_group_name_H-M   'P 1'
_cell_length_a   7.92929020
_cell_length_b   7.92929020
_cell_length_c   7.92928994
_cell_angle_alpha   105.02345659
_cell_angle_beta   105.02345659
_cell_angle_gamma   105.02346090
_symmetry_Int_Tables_number   1
_chemical_formula_structural   Cu(NiC4)3
_chemical_formula_sum   'Cu2 Ni6 C24'
_cell_volume   435.64507315
_cell_formula_units_Z   2
loop_
 _symmetry_equiv_pos_site_id
 _symmetry_equiv_pos_as_xyz
  1  'x, y, z'
loop_
 _atom_site_type_symbol
 _atom_site_label
 _atom_site_symmetry_multiplicity
 _atom_site_fract_x
 _atom_site_fract_y
 _atom_site_fract_z
 _atom_site_occupancy
  Ni  Ni0  1  0.36010900  0.73517700  0.86109200  1
  Ni  Ni1  1  0.86109200  0.36010900  0.73517700  1
  Ni  Ni2  1  0.73517700  0.86109200  0.36010900  1
  Ni  Ni3  1  0.63989100  0.26482300  0.13890800  1
  Ni  Ni4  1  0.13890800  0.63989100  0.26482300  1
  Ni  Ni5  1  0.26482300  0.13890800  0.63989100  1
  Cu  Cu6  1  0.50000000  0.50000000  0.50000000  1
  Cu  Cu7  1  0.00000000  0.00000000  0.00000000  1
  C  C8  1  0.70741300  0.61093800  0.95993300  1
  C  C9  1  0.95993300  0.70741300  0.61093800  1
  C  C10  1  0.61093800  0.95993300  0.70741300  1
  C  C11  1  0.04006700  0.29258700  0.38906200  1
  C  C12  1  0.38906200  0.04006700  0.29258700  1
  C  C13  1  0.29258700  0.38906200  0.04006700  1
  C  C14  1  0.04495600  0.81181900  0.52228100  1
  C  C15  1  0.52228100  0.04495600  0.81181900  1
  C  C16  1  0.44552800  0.49315200  0.20485500  1
  C  C17  1  0.49315200  0.20485500  0.44552800  1
  C  C18  1  0.20485500  0.44552800  0.49315200  1
  C  C19  1  0.79514500  0.55447200  0.50684800  1
  C  C20  1  0.55447200  0.50684800  0.79514500  1
  C  C21  1  0.50684800  0.79514500  0.55447200  1
  C  C22  1  0.25229900  0.19721200  0.96796100  1
  C  C23  1  0.19721200  0.96796100  0.25229900  1
  C  C24  1  0.96796100  0.25229900  0.19721200  1
  C  C25  1  0.74770100  0.80278800  0.03203900  1
  C  C26  1  0.80278800  0.03203900  0.74770100  1
  C  C27  1  0.03203900  0.74770100  0.80278800  1
  C  C28  1  0.18818100  0.47771900  0.95504400  1
  C  C29  1  0.47771900  0.95504400  0.18818100  1
  C  C30  1  0.95504400  0.18818100  0.47771900  1
  C  C31  1  0.81181900  0.52228100  0.04495600  1
