# generated using pymatgen
data_Cu2Ni2C15
_symmetry_space_group_name_H-M   'P 1'
_cell_length_a   6.11533701
_cell_length_b   7.28105276
_cell_length_c   5.75093941
_cell_angle_alpha   88.71001690
_cell_angle_beta   101.26451275
_cell_angle_gamma   110.52497386
_symmetry_Int_Tables_number   1
_chemical_formula_structural   Cu2Ni2C15
_chemical_formula_sum   'Cu2 Ni2 C15'
_cell_volume   234.89697436
_cell_formula_units_Z   1
loop_
 _symmetry_equiv_pos_site_id
 _symmetry_equiv_pos_as_xyz
  1  'x, y, z'
loop_
 _atom_site_type_symbol
 _atom_site_label
 _atom_site_symmetry_multiplicity
 _atom_site_fract_x
 _atom_site_fract_y
 _atom_site_fract_z
 _atom_site_occupancy
  C  C0  1  0.09945500  0.64232400  0.59235300  1
  Ni  Ni1  1  0.18903100  0.67104700  0.11600100  1
  Ni  Ni2  1  0.80533800  0.32551600  0.83188400  1
  C  C3  1  0.25569300  0.40044300  0.88859100  1
  C  C4  1  0.76194000  0.50211700  0.18590100  1
  C  C5  1  0.25442100  0.97145100  0.87255300  1
  C  C6  1  0.75501400  0.10428100  0.16999000  1
  Cu  Cu7  1  0.73455100  0.83210500  0.80291400  1
  Cu  Cu8  1  0.25316700  0.19351000  0.36973300  1
  C  C9  1  0.14730700  0.47372600  0.87611500  1
  C  C10  1  0.84517000  0.53571900  0.05337700  1
  C  C11  1  0.13456300  0.83885000  0.86972500  1
  C  C12  1  0.86373600  0.13840900  0.05833500  1
  C  C13  1  0.16565000  0.83186000  0.34398500  1
  C  C14  1  0.78644900  0.14883200  0.60229100  1
  C  C15  1  0.22809100  0.52216600  0.37330700  1
  C  C16  1  0.76907900  0.49599400  0.59147900  1
  C  C17  1  0.50673500  0.77875600  0.14272700  1
  C  C18  1  0.48627600  0.22252700  0.82123900  1
