# generated using pymatgen
data_Cu2Ni2C5
_symmetry_space_group_name_H-M   'P 1'
_cell_length_a   7.86723900
_cell_length_b   7.79891700
_cell_length_c   9.55755663
_cell_angle_alpha   66.77332212
_cell_angle_beta   90.00000000
_cell_angle_gamma   90.00000000
_symmetry_Int_Tables_number   1
_chemical_formula_structural   Cu2Ni2C5
_chemical_formula_sum   'Cu4 Ni4 C10'
_cell_volume   538.88520649
_cell_formula_units_Z   2
loop_
 _symmetry_equiv_pos_site_id
 _symmetry_equiv_pos_as_xyz
  1  'x, y, z'
loop_
 _atom_site_type_symbol
 _atom_site_label
 _atom_site_symmetry_multiplicity
 _atom_site_fract_x
 _atom_site_fract_y
 _atom_site_fract_z
 _atom_site_occupancy
  C  C0  1  0.50000000  0.50000000  0.00000000  1
  C  C1  1  0.00000000  0.00000000  0.00000000  1
  Ni  Ni2  1  0.52492200  0.81252900  0.37311100  1
  Ni  Ni3  1  0.02492200  0.68747100  0.62688900  1
  Ni  Ni4  1  0.47507800  0.18747100  0.62688900  1
  Ni  Ni5  1  0.97507800  0.31252900  0.37311100  1
  Cu  Cu6  1  0.48444600  0.88069300  0.24419900  1
  Cu  Cu7  1  0.98444600  0.61930700  0.75580100  1
  Cu  Cu8  1  0.51555400  0.11930700  0.75580100  1
  Cu  Cu9  1  0.01555400  0.38069300  0.24419900  1
  C  C10  1  0.47707400  0.37449200  0.24226400  1
  C  C11  1  0.97707400  0.12550800  0.75773600  1
  C  C12  1  0.52292600  0.62550800  0.75773600  1
  C  C13  1  0.02292600  0.87449200  0.24226400  1
  C  C14  1  0.31102500  0.31736700  0.97869700  1
  C  C15  1  0.81102500  0.18263300  0.02130300  1
  C  C16  1  0.68897500  0.68263300  0.02130300  1
  C  C17  1  0.18897500  0.81736700  0.97869700  1
