# generated using pymatgen
data_CuNiC8
_symmetry_space_group_name_H-M   'P 1'
_cell_length_a   5.50737700
_cell_length_b   9.53969408
_cell_length_c   5.50848026
_cell_angle_alpha   73.23978264
_cell_angle_beta   119.99338091
_cell_angle_gamma   106.77750395
_symmetry_Int_Tables_number   1
_chemical_formula_structural   CuNiC8
_chemical_formula_sum   'Cu2 Ni2 C16'
_cell_volume   236.33243217
_cell_formula_units_Z   2
loop_
 _symmetry_equiv_pos_site_id
 _symmetry_equiv_pos_as_xyz
  1  'x, y, z'
loop_
 _atom_site_type_symbol
 _atom_site_label
 _atom_site_symmetry_multiplicity
 _atom_site_fract_x
 _atom_site_fract_y
 _atom_site_fract_z
 _atom_site_occupancy
  C  C0  1  0.37500000  0.12500000  0.62500000  1
  C  C1  1  0.87500000  0.62500000  0.12500000  1
  C  C2  1  0.12500000  0.37500000  0.87500000  1
  C  C3  1  0.62500000  0.87500000  0.37500000  1
  Ni  Ni4  1  0.75000000  0.25000000  0.25000000  1
  Ni  Ni5  1  0.25000000  0.75000000  0.75000000  1
  Cu  Cu6  1  0.50000000  0.50000000  0.50000000  1
  Cu  Cu7  1  0.00000000  0.00000000  0.00000000  1
  C  C8  1  0.62371000  0.37629000  0.87113100  1
  C  C9  1  0.12371000  0.87629000  0.37113100  1
  C  C10  1  0.87629000  0.12371000  0.62886900  1
  C  C11  1  0.37629000  0.62371000  0.12886900  1
  C  C12  1  0.13236000  0.37272700  0.37272700  1
  C  C13  1  0.63236000  0.87272700  0.87272700  1
  C  C14  1  0.36764000  0.12727300  0.12727300  1
  C  C15  1  0.86764000  0.62727300  0.62727300  1
  C  C16  1  0.63436200  0.37981600  0.37981600  1
  C  C17  1  0.13436200  0.87981600  0.87981600  1
  C  C18  1  0.86563800  0.12018400  0.12018400  1
  C  C19  1  0.36563800  0.62018400  0.62018400  1
