# generated using pymatgen
data_CuNi8C17
_symmetry_space_group_name_H-M   'P 1'
_cell_length_a   5.42190300
_cell_length_b   8.97382500
_cell_length_c   28.29008500
_cell_angle_alpha   90.00000000
_cell_angle_beta   90.00000000
_cell_angle_gamma   90.00000000
_symmetry_Int_Tables_number   1
_chemical_formula_structural   CuNi8C17
_chemical_formula_sum   'Cu4 Ni32 C68'
_cell_volume   1376.45998950
_cell_formula_units_Z   4
loop_
 _symmetry_equiv_pos_site_id
 _symmetry_equiv_pos_as_xyz
  1  'x, y, z'
loop_
 _atom_site_type_symbol
 _atom_site_label
 _atom_site_symmetry_multiplicity
 _atom_site_fract_x
 _atom_site_fract_y
 _atom_site_fract_z
 _atom_site_occupancy
  C  C0  1  0.56035200  0.93344000  0.61065300  1
  C  C1  1  0.06035200  0.56656000  0.88934700  1
  C  C2  1  0.43964800  0.06656000  0.11065300  1
  C  C3  1  0.93964800  0.43344000  0.38934700  1
  C  C4  1  0.43964800  0.06656000  0.38934700  1
  C  C5  1  0.93964800  0.43344000  0.11065300  1
  C  C6  1  0.56035200  0.93344000  0.88934700  1
  C  C7  1  0.06035200  0.56656000  0.61065300  1
  Ni  Ni8  1  0.62617700  0.66318300  0.53899500  1
  Ni  Ni9  1  0.12617700  0.83681700  0.96100500  1
  Ni  Ni10  1  0.37382300  0.33681700  0.03899500  1
  Ni  Ni11  1  0.87382300  0.16318300  0.46100500  1
  Ni  Ni12  1  0.37382300  0.33681700  0.46100500  1
  Ni  Ni13  1  0.87382300  0.16318300  0.03899500  1
  Ni  Ni14  1  0.62617700  0.66318300  0.96100500  1
  Ni  Ni15  1  0.12617700  0.83681700  0.53899500  1
  Ni  Ni16  1  0.51865000  0.65283200  0.68936500  1
  Ni  Ni17  1  0.01865000  0.84716800  0.81063500  1
  Ni  Ni18  1  0.48135000  0.34716800  0.18936500  1
  Ni  Ni19  1  0.98135000  0.15283200  0.31063500  1
  Ni  Ni20  1  0.48135000  0.34716800  0.31063500  1
  Ni  Ni21  1  0.98135000  0.15283200  0.18936500  1
  Ni  Ni22  1  0.51865000  0.65283200  0.81063500  1
  Ni  Ni23  1  0.01865000  0.84716800  0.68936500  1
  Ni  Ni24  1  0.47319900  0.31229100  0.66167300  1
  Ni  Ni25  1  0.97319900  0.18770900  0.83832700  1
  Ni  Ni26  1  0.52680100  0.68770900  0.16167300  1
  Ni  Ni27  1  0.02680100  0.81229100  0.33832700  1
  Ni  Ni28  1  0.52680100  0.68770900  0.33832700  1
  Ni  Ni29  1  0.02680100  0.81229100  0.16167300  1
  Ni  Ni30  1  0.47319900  0.31229100  0.83832700  1
  Ni  Ni31  1  0.97319900  0.18770900  0.66167300  1
  Ni  Ni32  1  0.69018300  0.30635200  0.55871900  1
  Ni  Ni33  1  0.19018300  0.19364800  0.94128100  1
  Ni  Ni34  1  0.30981700  0.69364800  0.05871900  1
  Ni  Ni35  1  0.80981700  0.80635200  0.44128100  1
  Ni  Ni36  1  0.30981700  0.69364800  0.44128100  1
  Ni  Ni37  1  0.80981700  0.80635200  0.05871900  1
  Ni  Ni38  1  0.69018300  0.30635200  0.94128100  1
  Ni  Ni39  1  0.19018300  0.19364800  0.55871900  1
  Cu  Cu40  1  0.92956300  0.45679100  0.75000000  1
  Cu  Cu41  1  0.42956300  0.04320900  0.75000000  1
  Cu  Cu42  1  0.07043700  0.54320900  0.25000000  1
  Cu  Cu43  1  0.57043700  0.95679100  0.25000000  1
  C  C44  1  0.89813400  0.19624300  0.52338800  1
  C  C45  1  0.39813400  0.30375700  0.97661200  1
  C  C46  1  0.10186600  0.80375700  0.02338800  1
  C  C47  1  0.60186600  0.69624300  0.47661200  1
  C  C48  1  0.10186600  0.80375700  0.47661200  1
  C  C49  1  0.60186600  0.69624300  0.02338800  1
  C  C50  1  0.89813400  0.19624300  0.97661200  1
  C  C51  1  0.39813400  0.30375700  0.52338800  1
  C  C52  1  0.54138100  0.60259100  0.75000000  1
  C  C53  1  0.04138100  0.89740900  0.75000000  1
  C  C54  1  0.45861900  0.39740900  0.25000000  1
  C  C55  1  0.95861900  0.10259100  0.25000000  1
  C  C56  1  0.38729300  0.49969600  0.65907000  1
  C  C57  1  0.88729300  0.00030400  0.84093000  1
  C  C58  1  0.61270700  0.50030400  0.15907000  1
  C  C59  1  0.11270700  0.99969600  0.34093000  1
  C  C60  1  0.61270700  0.50030400  0.34093000  1
  C  C61  1  0.11270700  0.99969600  0.15907000  1
  C  C62  1  0.38729300  0.49969600  0.84093000  1
  C  C63  1  0.88729300  0.00030400  0.65907000  1
  C  C64  1  0.33304400  0.80974900  0.67336200  1
  C  C65  1  0.83304400  0.69025100  0.82663800  1
  C  C66  1  0.66695600  0.19025100  0.17336200  1
  C  C67  1  0.16695600  0.30974900  0.32663800  1
  C  C68  1  0.66695600  0.19025100  0.32663800  1
  C  C69  1  0.16695600  0.30974900  0.17336200  1
  C  C70  1  0.33304400  0.80974900  0.82663800  1
  C  C71  1  0.83304400  0.69025100  0.67336200  1
  C  C72  1  0.53006100  0.21709100  0.60688700  1
  C  C73  1  0.03006100  0.28290900  0.89311300  1
  C  C74  1  0.46993900  0.78290900  0.10688700  1
  C  C75  1  0.96993900  0.71709100  0.39311300  1
  C  C76  1  0.46993900  0.78290900  0.39311300  1
  C  C77  1  0.96993900  0.71709100  0.10688700  1
  C  C78  1  0.53006100  0.21709100  0.89311300  1
  C  C79  1  0.03006100  0.28290900  0.60688700  1
  C  C80  1  0.75540700  0.49634700  0.55835700  1
  C  C81  1  0.25540700  0.00365300  0.94164300  1
  C  C82  1  0.24459300  0.50365300  0.05835700  1
  C  C83  1  0.74459300  0.99634700  0.44164300  1
  C  C84  1  0.24459300  0.50365300  0.44164300  1
  C  C85  1  0.74459300  0.99634700  0.05835700  1
  C  C86  1  0.75540700  0.49634700  0.94164300  1
  C  C87  1  0.25540700  0.00365300  0.55835700  1
  C  C88  1  0.25721300  0.20114300  0.69338400  1
  C  C89  1  0.75721300  0.29885700  0.80661600  1
  C  C90  1  0.74278700  0.79885700  0.19338400  1
  C  C91  1  0.24278700  0.70114300  0.30661600  1
  C  C92  1  0.74278700  0.79885700  0.30661600  1
  C  C93  1  0.24278700  0.70114300  0.19338400  1
  C  C94  1  0.25721300  0.20114300  0.80661600  1
  C  C95  1  0.75721300  0.29885700  0.69338400  1
  C  C96  1  0.83437100  0.79592500  0.56369800  1
  C  C97  1  0.33437100  0.70407500  0.93630200  1
  C  C98  1  0.16562900  0.20407500  0.06369800  1
  C  C99  1  0.66562900  0.29592500  0.43630200  1
  C  C100  1  0.16562900  0.20407500  0.43630200  1
  C  C101  1  0.66562900  0.29592500  0.06369800  1
  C  C102  1  0.83437100  0.79592500  0.93630200  1
  C  C103  1  0.33437100  0.70407500  0.56369800  1
