# generated using pymatgen
data_Cu2NiC10
_symmetry_space_group_name_H-M   'P 1'
_cell_length_a   3.93280900
_cell_length_b   3.96142800
_cell_length_c   12.00692100
_cell_angle_alpha   90.00000000
_cell_angle_beta   90.00000000
_cell_angle_gamma   90.00000000
_symmetry_Int_Tables_number   1
_chemical_formula_structural   Cu2NiC10
_chemical_formula_sum   'Cu2 Ni1 C10'
_cell_volume   187.06230229
_cell_formula_units_Z   1
loop_
 _symmetry_equiv_pos_site_id
 _symmetry_equiv_pos_as_xyz
  1  'x, y, z'
loop_
 _atom_site_type_symbol
 _atom_site_label
 _atom_site_symmetry_multiplicity
 _atom_site_fract_x
 _atom_site_fract_y
 _atom_site_fract_z
 _atom_site_occupancy
  C  C0  1  0.50000000  0.50000000  0.18327400  1
  C  C1  1  0.50000000  0.50000000  0.81672600  1
  C  C2  1  0.50000000  0.50000000  0.50000000  1
  Ni  Ni3  1  0.00000000  0.00000000  0.00000000  1
  Cu  Cu4  1  0.00000000  0.00000000  0.35366800  1
  Cu  Cu5  1  0.00000000  0.00000000  0.64633200  1
  C  C6  1  0.50000000  0.00000000  0.36852400  1
  C  C7  1  0.50000000  0.00000000  0.63147600  1
  C  C8  1  0.00000000  0.00000000  0.15014600  1
  C  C9  1  0.00000000  0.00000000  0.84985400  1
  C  C10  1  0.00000000  0.50000000  0.36945300  1
  C  C11  1  0.00000000  0.50000000  0.63054700  1
  C  C12  1  0.00000000  0.50000000  0.00000000  1
