# generated using pymatgen
data_Cu3Ni9C2
_symmetry_space_group_name_H-M   'P 1'
_cell_length_a   7.52308629
_cell_length_b   7.52308629
_cell_length_c   9.41241200
_cell_angle_alpha   90.00000000
_cell_angle_beta   90.00000000
_cell_angle_gamma   119.56470415
_symmetry_Int_Tables_number   1
_chemical_formula_structural   Cu3Ni9C2
_chemical_formula_sum   'Cu6 Ni18 C4'
_cell_volume   463.35296143
_cell_formula_units_Z   2
loop_
 _symmetry_equiv_pos_site_id
 _symmetry_equiv_pos_as_xyz
  1  'x, y, z'
loop_
 _atom_site_type_symbol
 _atom_site_label
 _atom_site_symmetry_multiplicity
 _atom_site_fract_x
 _atom_site_fract_y
 _atom_site_fract_z
 _atom_site_occupancy
  C  C0  1  0.99551900  0.66940500  0.25000000  1
  C  C1  1  0.00448100  0.33059500  0.75000000  1
  C  C2  1  0.66940500  0.99551900  0.25000000  1
  C  C3  1  0.33059500  0.00448100  0.75000000  1
  Ni  Ni4  1  0.12506700  0.12506700  0.25000000  1
  Ni  Ni5  1  0.87493300  0.87493300  0.75000000  1
  Ni  Ni6  1  0.00042300  0.33457100  0.07437700  1
  Ni  Ni7  1  0.99957700  0.66542900  0.92562300  1
  Ni  Ni8  1  0.99957700  0.66542900  0.57437700  1
  Ni  Ni9  1  0.33457100  0.00042300  0.42562300  1
  Ni  Ni10  1  0.00042300  0.33457100  0.42562300  1
  Ni  Ni11  1  0.66542900  0.99957700  0.57437700  1
  Ni  Ni12  1  0.66542900  0.99957700  0.92562300  1
  Ni  Ni13  1  0.33457100  0.00042300  0.07437700  1
  Ni  Ni14  1  0.33299700  0.33299700  0.55493900  1
  Ni  Ni15  1  0.66700300  0.66700300  0.44506100  1
  Ni  Ni16  1  0.66700300  0.66700300  0.05493900  1
  Ni  Ni17  1  0.33299700  0.33299700  0.94506100  1
  Ni  Ni18  1  0.33755100  0.54854300  0.25000000  1
  Ni  Ni19  1  0.66244900  0.45145700  0.75000000  1
  Ni  Ni20  1  0.54854300  0.33755100  0.25000000  1
  Ni  Ni21  1  0.45145700  0.66244900  0.75000000  1
  Cu  Cu22  1  0.67232000  0.32768000  0.00000000  1
  Cu  Cu23  1  0.32768000  0.67232000  0.00000000  1
  Cu  Cu24  1  0.32768000  0.67232000  0.50000000  1
  Cu  Cu25  1  0.67232000  0.32768000  0.50000000  1
  Cu  Cu26  1  0.00000000  0.00000000  0.00000000  1
  Cu  Cu27  1  0.00000000  0.00000000  0.50000000  1
