# generated using pymatgen
data_Cu5NiC3
_symmetry_space_group_name_H-M   'P 1'
_cell_length_a   9.11595000
_cell_length_b   9.52132400
_cell_length_c   9.70440700
_cell_angle_alpha   90.00000000
_cell_angle_beta   90.00000000
_cell_angle_gamma   90.00000000
_symmetry_Int_Tables_number   1
_chemical_formula_structural   Cu5NiC3
_chemical_formula_sum   'Cu20 Ni4 C12'
_cell_volume   842.30287071
_cell_formula_units_Z   4
loop_
 _symmetry_equiv_pos_site_id
 _symmetry_equiv_pos_as_xyz
  1  'x, y, z'
loop_
 _atom_site_type_symbol
 _atom_site_label
 _atom_site_symmetry_multiplicity
 _atom_site_fract_x
 _atom_site_fract_y
 _atom_site_fract_z
 _atom_site_occupancy
  C  C0  1  0.25000000  0.00000000  0.47928900  1
  C  C1  1  0.75000000  0.00000000  0.52071100  1
  C  C2  1  0.25000000  0.50000000  0.02071100  1
  C  C3  1  0.75000000  0.50000000  0.97928900  1
  C  C4  1  0.25000000  0.00000000  0.01718500  1
  C  C5  1  0.75000000  0.00000000  0.98281500  1
  C  C6  1  0.25000000  0.50000000  0.48281500  1
  C  C7  1  0.75000000  0.50000000  0.51718500  1
  C  C8  1  0.53620600  0.25000000  0.25000000  1
  C  C9  1  0.46379400  0.75000000  0.75000000  1
  C  C10  1  0.96379400  0.75000000  0.25000000  1
  C  C11  1  0.03620600  0.25000000  0.75000000  1
  Ni  Ni12  1  0.01241100  0.25000000  0.25000000  1
  Ni  Ni13  1  0.98758900  0.75000000  0.75000000  1
  Ni  Ni14  1  0.48758900  0.75000000  0.25000000  1
  Ni  Ni15  1  0.51241100  0.25000000  0.75000000  1
  Cu  Cu16  1  0.21441400  0.25000000  0.25000000  1
  Cu  Cu17  1  0.78558600  0.75000000  0.75000000  1
  Cu  Cu18  1  0.28558600  0.75000000  0.25000000  1
  Cu  Cu19  1  0.71441400  0.25000000  0.75000000  1
  Cu  Cu20  1  0.53770500  0.55888400  0.23500300  1
  Cu  Cu21  1  0.46229500  0.44111600  0.76499700  1
  Cu  Cu22  1  0.96229500  0.44111600  0.23500300  1
  Cu  Cu23  1  0.96229500  0.05888400  0.26499700  1
  Cu  Cu24  1  0.03770500  0.55888400  0.76499700  1
  Cu  Cu25  1  0.03770500  0.94111600  0.73500300  1
  Cu  Cu26  1  0.53770500  0.94111600  0.26499700  1
  Cu  Cu27  1  0.46229500  0.05888400  0.73500300  1
  Cu  Cu28  1  0.48175700  0.26563600  0.55854500  1
  Cu  Cu29  1  0.51824300  0.73436400  0.44145500  1
  Cu  Cu30  1  0.01824300  0.73436400  0.55854500  1
  Cu  Cu31  1  0.01824300  0.76563600  0.94145500  1
  Cu  Cu32  1  0.98175700  0.26563600  0.44145500  1
  Cu  Cu33  1  0.98175700  0.23436400  0.05854500  1
  Cu  Cu34  1  0.48175700  0.23436400  0.94145500  1
  Cu  Cu35  1  0.51824300  0.76563600  0.05854500  1
