# generated using pymatgen
data_Cu3Ni2C
_symmetry_space_group_name_H-M   'P 1'
_cell_length_a   3.97350600
_cell_length_b   4.90313200
_cell_length_c   8.48001700
_cell_angle_alpha   90.00000000
_cell_angle_beta   90.00000000
_cell_angle_gamma   90.00000000
_symmetry_Int_Tables_number   1
_chemical_formula_structural   Cu3Ni2C
_chemical_formula_sum   'Cu6 Ni4 C2'
_cell_volume   165.21298629
_cell_formula_units_Z   2
loop_
 _symmetry_equiv_pos_site_id
 _symmetry_equiv_pos_as_xyz
  1  'x, y, z'
loop_
 _atom_site_type_symbol
 _atom_site_label
 _atom_site_symmetry_multiplicity
 _atom_site_fract_x
 _atom_site_fract_y
 _atom_site_fract_z
 _atom_site_occupancy
  C  C0  1  0.00000000  0.50000000  0.00000000  1
  C  C1  1  0.00000000  0.00000000  0.50000000  1
  Ni  Ni2  1  0.00000000  0.50000000  0.33410800  1
  Ni  Ni3  1  0.00000000  0.00000000  0.83323100  1
  Ni  Ni4  1  0.00000000  0.00000000  0.16676900  1
  Ni  Ni5  1  0.00000000  0.50000000  0.66589200  1
  Cu  Cu6  1  0.50000000  0.00000000  0.00000000  1
  Cu  Cu7  1  0.50000000  0.50000000  0.50000000  1
  Cu  Cu8  1  0.50000000  0.75045400  0.25057500  1
  Cu  Cu9  1  0.50000000  0.24954600  0.74942500  1
  Cu  Cu10  1  0.50000000  0.24954600  0.25057500  1
  Cu  Cu11  1  0.50000000  0.75045400  0.74942500  1
