# generated using pymatgen
data_Cu3(NiC2)2
_symmetry_space_group_name_H-M   'P 1'
_cell_length_a   7.15922200
_cell_length_b   7.57725000
_cell_length_c   8.61891000
_cell_angle_alpha   90.00000000
_cell_angle_beta   90.00000000
_cell_angle_gamma   90.00000000
_symmetry_Int_Tables_number   1
_chemical_formula_structural   Cu3(NiC2)2
_chemical_formula_sum   'Cu12 Ni8 C16'
_cell_volume   467.55186297
_cell_formula_units_Z   4
loop_
 _symmetry_equiv_pos_site_id
 _symmetry_equiv_pos_as_xyz
  1  'x, y, z'
loop_
 _atom_site_type_symbol
 _atom_site_label
 _atom_site_symmetry_multiplicity
 _atom_site_fract_x
 _atom_site_fract_y
 _atom_site_fract_z
 _atom_site_occupancy
  C  C0  1  0.02881700  0.47769600  0.23407400  1
  C  C1  1  0.62657900  0.15702400  0.82644400  1
  C  C2  1  0.48215900  0.01250500  0.78620100  1
  C  C3  1  0.52881700  0.52230400  0.76592600  1
  C  C4  1  0.98215900  0.98749500  0.21379900  1
  C  C5  1  0.12657900  0.84297600  0.17355600  1
  C  C6  1  0.98215900  0.51250500  0.71379900  1
  C  C7  1  0.12657900  0.65702400  0.67355600  1
  C  C8  1  0.52881700  0.97769600  0.26592600  1
  C  C9  1  0.62657900  0.34297600  0.32644400  1
  C  C10  1  0.48215900  0.48749500  0.28620100  1
  C  C11  1  0.02881700  0.02230400  0.73407400  1
  C  C12  1  0.14996400  0.91297400  0.44503200  1
  C  C13  1  0.14996400  0.58702600  0.94503200  1
  C  C14  1  0.64996400  0.08702600  0.55496800  1
  C  C15  1  0.64996400  0.41297400  0.05496800  1
  Ni  Ni16  1  0.20738000  0.36772000  0.36203400  1
  Ni  Ni17  1  0.20738000  0.13228000  0.86203400  1
  Ni  Ni18  1  0.70738000  0.63228000  0.63796600  1
  Ni  Ni19  1  0.70738000  0.86772000  0.13796600  1
  Ni  Ni20  1  0.63390800  0.11165200  0.43502500  1
  Ni  Ni21  1  0.63390800  0.38834800  0.93502500  1
  Ni  Ni22  1  0.13390800  0.88834800  0.56497500  1
  Ni  Ni23  1  0.13390800  0.61165200  0.06497500  1
  Cu  Cu24  1  0.02020100  0.38343300  0.31484400  1
  Cu  Cu25  1  0.61327200  0.04422400  0.77119800  1
  Cu  Cu26  1  0.52020100  0.61656700  0.68515600  1
  Cu  Cu27  1  0.11327200  0.95577600  0.22880200  1
  Cu  Cu28  1  0.11327200  0.54422400  0.72880200  1
  Cu  Cu29  1  0.52020100  0.88343300  0.18515600  1
  Cu  Cu30  1  0.61327200  0.45577600  0.27119800  1
  Cu  Cu31  1  0.02020100  0.11656700  0.81484400  1
  Cu  Cu32  1  0.22740900  0.25569000  0.45830300  1
  Cu  Cu33  1  0.22740900  0.24431000  0.95830300  1
  Cu  Cu34  1  0.72740900  0.74431000  0.54169700  1
  Cu  Cu35  1  0.72740900  0.75569000  0.04169700  1
