# generated using pymatgen
data_Cu2NiC7
_symmetry_space_group_name_H-M   'P 1'
_cell_length_a   9.21989200
_cell_length_b   5.48633400
_cell_length_c   9.77907122
_cell_angle_alpha   77.98794342
_cell_angle_beta   90.00000000
_cell_angle_gamma   90.00000000
_symmetry_Int_Tables_number   1
_chemical_formula_structural   Cu2NiC7
_chemical_formula_sum   'Cu8 Ni4 C28'
_cell_volume   483.82760661
_cell_formula_units_Z   4
loop_
 _symmetry_equiv_pos_site_id
 _symmetry_equiv_pos_as_xyz
  1  'x, y, z'
loop_
 _atom_site_type_symbol
 _atom_site_label
 _atom_site_symmetry_multiplicity
 _atom_site_fract_x
 _atom_site_fract_y
 _atom_site_fract_z
 _atom_site_occupancy
  Ni  Ni0  1  0.50068100  0.54496800  0.24685100  1
  Ni  Ni1  1  0.00068100  0.95503200  0.75314900  1
  Ni  Ni2  1  0.49931900  0.45503200  0.75314900  1
  Ni  Ni3  1  0.99931900  0.04496800  0.24685100  1
  C  C4  1  0.65299300  0.03986100  0.24570900  1
  C  C5  1  0.15299300  0.46013900  0.75429100  1
  C  C6  1  0.34700700  0.96013900  0.75429100  1
  C  C7  1  0.84700700  0.53986100  0.24570900  1
  Cu  Cu8  1  0.33699600  0.18984900  0.05544600  1
  Cu  Cu9  1  0.83699600  0.31015100  0.94455400  1
  Cu  Cu10  1  0.66300400  0.81015100  0.94455400  1
  Cu  Cu11  1  0.16300400  0.68984900  0.05544600  1
  Cu  Cu12  1  0.34137600  0.75788000  0.45376500  1
  Cu  Cu13  1  0.84137600  0.74212000  0.54623500  1
  Cu  Cu14  1  0.65862400  0.24212000  0.54623500  1
  Cu  Cu15  1  0.15862400  0.25788000  0.45376500  1
  C  C16  1  0.28343400  0.49832700  0.38264300  1
  C  C17  1  0.78343400  0.00167300  0.61735700  1
  C  C18  1  0.71656600  0.50167300  0.61735700  1
  C  C19  1  0.21656600  0.99832700  0.38264300  1
  C  C20  1  0.31441400  0.85668000  0.10860600  1
  C  C21  1  0.81441400  0.64332000  0.89139400  1
  C  C22  1  0.68558600  0.14332000  0.89139400  1
  C  C23  1  0.18558600  0.35668000  0.10860600  1
  C  C24  1  0.98990700  0.29705300  0.37242600  1
  C  C25  1  0.48990700  0.20294700  0.62757400  1
  C  C26  1  0.01009300  0.70294700  0.62757400  1
  C  C27  1  0.51009300  0.79705300  0.37242600  1
  C  C28  1  0.01011100  0.77402200  0.13918900  1
  C  C29  1  0.51011100  0.72597800  0.86081100  1
  C  C30  1  0.98988900  0.22597800  0.86081100  1
  C  C31  1  0.48988900  0.27402200  0.13918900  1
  C  C32  1  0.33462600  0.24742100  0.86940200  1
  C  C33  1  0.83462600  0.25257900  0.13059800  1
  C  C34  1  0.66537400  0.75257900  0.13059800  1
  C  C35  1  0.16537400  0.74742100  0.86940200  1
  C  C36  1  0.33557100  0.68516000  0.63818700  1
  C  C37  1  0.83557100  0.81484000  0.36181300  1
  C  C38  1  0.66442900  0.31484000  0.36181300  1
  C  C39  1  0.16442900  0.18516000  0.63818700  1
