# generated using pymatgen
data_Cu(Ni3C17)2
_symmetry_space_group_name_H-M   'P 1'
_cell_length_a   9.60492384
_cell_length_b   9.60492384
_cell_length_c   6.89718800
_cell_angle_alpha   90.00000000
_cell_angle_beta   90.00000000
_cell_angle_gamma   119.99999889
_symmetry_Int_Tables_number   1
_chemical_formula_structural   Cu(Ni3C17)2
_chemical_formula_sum   'Cu1 Ni6 C34'
_cell_volume   551.04942247
_cell_formula_units_Z   1
loop_
 _symmetry_equiv_pos_site_id
 _symmetry_equiv_pos_as_xyz
  1  'x, y, z'
loop_
 _atom_site_type_symbol
 _atom_site_label
 _atom_site_symmetry_multiplicity
 _atom_site_fract_x
 _atom_site_fract_y
 _atom_site_fract_z
 _atom_site_occupancy
  C  C0  1  0.73809600  0.74914200  0.25008000  1
  C  C1  1  0.74914200  0.01104500  0.74992000  1
  C  C2  1  0.98895500  0.73809600  0.74992000  1
  C  C3  1  0.26190400  0.25085800  0.74992000  1
  C  C4  1  0.25085800  0.98895500  0.25008000  1
  C  C5  1  0.66666700  0.33333300  0.48881200  1
  C  C6  1  0.33333300  0.66666700  0.51118800  1
  C  C7  1  0.66666700  0.33333300  0.98017700  1
  C  C8  1  0.33333300  0.66666700  0.01982300  1
  C  C9  1  0.01104500  0.26190400  0.25008000  1
  Ni  Ni10  1  0.37104200  0.97176800  0.75093400  1
  Ni  Ni11  1  0.60072600  0.62895800  0.75093400  1
  Ni  Ni12  1  0.97176800  0.60072600  0.24906600  1
  Ni  Ni13  1  0.62895800  0.02823200  0.24906600  1
  Ni  Ni14  1  0.39927400  0.37104200  0.24906600  1
  Ni  Ni15  1  0.02823200  0.39927400  0.75093400  1
  Cu  Cu16  1  0.00000000  0.00000000  0.50000000  1
  C  C17  1  0.32611700  0.48337800  0.25479600  1
  C  C18  1  0.51662200  0.84273900  0.25479600  1
  C  C19  1  0.15726100  0.67388300  0.25479600  1
  C  C20  1  0.67388300  0.51662200  0.74520400  1
  C  C21  1  0.48337800  0.15726100  0.74520400  1
  C  C22  1  0.84273900  0.32611700  0.74520400  1
  C  C23  1  0.58233000  0.46718000  0.19721200  1
  C  C24  1  0.53282000  0.11515000  0.19721200  1
  C  C25  1  0.88485000  0.41767000  0.19721200  1
  C  C26  1  0.41767000  0.53282000  0.80278800  1
  C  C27  1  0.46718000  0.88485000  0.80278800  1
  C  C28  1  0.11515000  0.58233000  0.80278800  1
  C  C29  1  0.30531800  0.23605400  0.09706600  1
  C  C30  1  0.76394600  0.06926500  0.09706600  1
  C  C31  1  0.93073500  0.69468200  0.09706600  1
  C  C32  1  0.69468200  0.76394600  0.90293400  1
  C  C33  1  0.23605400  0.93073500  0.90293400  1
  C  C34  1  0.06926500  0.30531800  0.90293400  1
  C  C35  1  0.38998700  0.29156500  0.44773000  1
  C  C36  1  0.70843500  0.09842200  0.44773000  1
  C  C37  1  0.90157800  0.61001300  0.44773000  1
  C  C38  1  0.61001300  0.70843500  0.55227000  1
  C  C39  1  0.29156500  0.90157800  0.55227000  1
  C  C40  1  0.09842200  0.38998700  0.55227000  1
