# generated using pymatgen
data_Cu3NiC2
_symmetry_space_group_name_H-M   'P 1'
_cell_length_a   7.00548300
_cell_length_b   7.29510300
_cell_length_c   9.83511600
_cell_angle_alpha   90.00000000
_cell_angle_beta   90.00000000
_cell_angle_gamma   90.00000000
_symmetry_Int_Tables_number   1
_chemical_formula_structural   Cu3NiC2
_chemical_formula_sum   'Cu12 Ni4 C8'
_cell_volume   502.63068495
_cell_formula_units_Z   4
loop_
 _symmetry_equiv_pos_site_id
 _symmetry_equiv_pos_as_xyz
  1  'x, y, z'
loop_
 _atom_site_type_symbol
 _atom_site_label
 _atom_site_symmetry_multiplicity
 _atom_site_fract_x
 _atom_site_fract_y
 _atom_site_fract_z
 _atom_site_occupancy
  C  C0  1  0.19080900  0.25000000  0.72094700  1
  C  C1  1  0.80919100  0.75000000  0.27905300  1
  C  C2  1  0.30919100  0.75000000  0.22094700  1
  C  C3  1  0.69080900  0.25000000  0.77905300  1
  C  C4  1  0.00000000  0.00000000  0.00000000  1
  C  C5  1  0.50000000  0.00000000  0.50000000  1
  C  C6  1  0.00000000  0.50000000  0.00000000  1
  C  C7  1  0.50000000  0.50000000  0.50000000  1
  Ni  Ni8  1  0.19106300  0.25000000  0.45669400  1
  Ni  Ni9  1  0.80893700  0.75000000  0.54330600  1
  Ni  Ni10  1  0.30893700  0.75000000  0.95669400  1
  Ni  Ni11  1  0.69106300  0.25000000  0.04330600  1
  Cu  Cu12  1  0.05052600  0.56274900  0.21713500  1
  Cu  Cu13  1  0.94947400  0.43725100  0.78286500  1
  Cu  Cu14  1  0.44947400  0.43725100  0.71713500  1
  Cu  Cu15  1  0.94947400  0.06274900  0.78286500  1
  Cu  Cu16  1  0.55052600  0.56274900  0.28286500  1
  Cu  Cu17  1  0.05052600  0.93725100  0.21713500  1
  Cu  Cu18  1  0.55052600  0.93725100  0.28286500  1
  Cu  Cu19  1  0.44947400  0.06274900  0.71713500  1
  Cu  Cu20  1  0.16354400  0.25000000  0.95445600  1
  Cu  Cu21  1  0.83645600  0.75000000  0.04554400  1
  Cu  Cu22  1  0.33645600  0.75000000  0.45445600  1
  Cu  Cu23  1  0.66354400  0.25000000  0.54554400  1
