# generated using pymatgen
data_Cu4Ni3
_symmetry_space_group_name_H-M   'P 1'
_cell_length_a   7.19833800
_cell_length_b   7.22525976
_cell_length_c   8.97635997
_cell_angle_alpha   107.92190208
_cell_angle_beta   108.11078191
_cell_angle_gamma   103.21781933
_symmetry_Int_Tables_number   1
_chemical_formula_structural   Cu4Ni3
_chemical_formula_sum   'Cu12 Ni9'
_cell_volume   394.11610843
_cell_formula_units_Z   3
loop_
 _symmetry_equiv_pos_site_id
 _symmetry_equiv_pos_as_xyz
  1  'x, y, z'
loop_
 _atom_site_type_symbol
 _atom_site_label
 _atom_site_symmetry_multiplicity
 _atom_site_fract_x
 _atom_site_fract_y
 _atom_site_fract_z
 _atom_site_occupancy
  Ni  Ni0  1  0.50679600  0.74047800  0.67627100  1
  Ni  Ni1  1  0.94223800  0.17752800  0.69162700  1
  Ni  Ni2  1  0.47884600  0.25651000  0.30947400  1
  Ni  Ni3  1  0.06353500  0.82188000  0.30791600  1
  Ni  Ni4  1  0.44646600  0.69184200  0.18210700  1
  Ni  Ni5  1  0.53677200  0.29453800  0.83099000  1
  Ni  Ni6  1  0.95681300  0.18838400  0.12874100  1
  Ni  Ni7  1  0.05722200  0.82385000  0.88120100  1
  Ni  Ni8  1  0.99989600  0.49678800  0.49928400  1
  Cu  Cu9  1  0.72632400  0.45288500  0.17789600  1
  Cu  Cu10  1  0.28343300  0.54915700  0.82927300  1
  Cu  Cu11  1  0.74694200  0.75374800  0.99959200  1
  Cu  Cu12  1  0.25259300  0.25118400  0.00051400  1
  Cu  Cu13  1  0.50204700  0.99990000  0.00171600  1
  Cu  Cu14  1  0.00354400  0.50508700  0.00378200  1
  Cu  Cu15  1  0.24613600  0.25781000  0.50246100  1
  Cu  Cu16  1  0.75484900  0.75070200  0.49377000  1
  Cu  Cu17  1  0.49707900  0.99755600  0.49410500  1
  Cu  Cu18  1  0.79409600  0.05516400  0.33656200  1
  Cu  Cu19  1  0.71631300  0.46201200  0.65652300  1
  Cu  Cu20  1  0.20816100  0.92779800  0.65709500  1
