# generated using pymatgen
data_Cu33Ni3C8
_symmetry_space_group_name_H-M   'P 1'
_cell_length_a   8.38699400
_cell_length_b   13.81823200
_cell_length_c   14.85590800
_cell_angle_alpha   90.00000000
_cell_angle_beta   90.00000000
_cell_angle_gamma   90.00000000
_symmetry_Int_Tables_number   1
_chemical_formula_structural   Cu33Ni3C8
_chemical_formula_sum   'Cu132 Ni12 C32'
_cell_volume   1721.70211717
_cell_formula_units_Z   4
loop_
 _symmetry_equiv_pos_site_id
 _symmetry_equiv_pos_as_xyz
  1  'x, y, z'
loop_
 _atom_site_type_symbol
 _atom_site_label
 _atom_site_symmetry_multiplicity
 _atom_site_fract_x
 _atom_site_fract_y
 _atom_site_fract_z
 _atom_site_occupancy
  C  C0  1  0.24858900  0.71642800  0.58386400  1
  C  C1  1  0.75141100  0.21642800  0.41613600  1
  C  C2  1  0.24858900  0.21642800  0.91613600  1
  C  C3  1  0.75141100  0.71642800  0.08386400  1
  Ni  Ni4  1  0.81337700  0.40787900  0.08507200  1
  Ni  Ni5  1  0.18662300  0.90787900  0.91492800  1
  Ni  Ni6  1  0.81337700  0.90787900  0.41492800  1
  Ni  Ni7  1  0.18662300  0.40787900  0.58507200  1
  Ni  Ni8  1  0.76802500  0.72671400  0.74607700  1
  Ni  Ni9  1  0.23197500  0.22671400  0.25392300  1
  Ni  Ni10  1  0.76802500  0.22671400  0.75392300  1
  Ni  Ni11  1  0.23197500  0.72671400  0.24607700  1
  Ni  Ni12  1  0.67919400  0.55265200  0.41436800  1
  Ni  Ni13  1  0.32080600  0.05265200  0.58563200  1
  Ni  Ni14  1  0.67919400  0.05265200  0.08563200  1
  Ni  Ni15  1  0.32080600  0.55265200  0.91436800  1
  Cu  Cu16  1  0.78703600  0.61818000  0.26854400  1
  Cu  Cu17  1  0.21296400  0.11818000  0.73145600  1
  Cu  Cu18  1  0.78703600  0.11818000  0.23145600  1
  Cu  Cu19  1  0.21296400  0.61818000  0.76854400  1
  Cu  Cu20  1  0.75876400  0.04390100  0.53450000  1
  Cu  Cu21  1  0.24123600  0.54390100  0.46550000  1
  Cu  Cu22  1  0.75876400  0.54390100  0.96550000  1
  Cu  Cu23  1  0.24123600  0.04390100  0.03450000  1
  Cu  Cu24  1  0.18024000  0.35378400  0.75800500  1
  Cu  Cu25  1  0.81976000  0.85378400  0.24199500  1
  Cu  Cu26  1  0.18024000  0.85378400  0.74199500  1
  Cu  Cu27  1  0.81976000  0.35378400  0.25800500  1
  Cu  Cu28  1  0.44491000  0.80269100  0.15909700  1
  Cu  Cu29  1  0.55509000  0.30269100  0.84090300  1
  Cu  Cu30  1  0.44491000  0.30269100  0.34090300  1
  Cu  Cu31  1  0.55509000  0.80269100  0.65909700  1
  Cu  Cu32  1  0.72566800  0.31834000  0.59649400  1
  Cu  Cu33  1  0.27433200  0.81834000  0.40350600  1
  Cu  Cu34  1  0.72566800  0.81834000  0.90350600  1
  Cu  Cu35  1  0.27433200  0.31834000  0.09649400  1
  Cu  Cu36  1  0.52918100  0.61874600  0.67793300  1
  Cu  Cu37  1  0.47081900  0.11874600  0.32206700  1
  Cu  Cu38  1  0.52918100  0.11874600  0.82206700  1
  Cu  Cu39  1  0.47081900  0.61874600  0.17793300  1
  Cu  Cu40  1  0.89089000  0.19798100  0.90216300  1
  Cu  Cu41  1  0.10911000  0.69798100  0.09783700  1
  Cu  Cu42  1  0.89089000  0.69798100  0.59783700  1
  Cu  Cu43  1  0.10911000  0.19798100  0.40216300  1
  Cu  Cu44  1  0.53735500  0.58842500  0.57120300  1
  Cu  Cu45  1  0.46264500  0.08842500  0.42879700  1
  Cu  Cu46  1  0.53735500  0.08842500  0.92879700  1
  Cu  Cu47  1  0.46264500  0.58842500  0.07120300  1
  Cu  Cu48  1  0.87744000  0.55651700  0.18896600  1
  Cu  Cu49  1  0.12256000  0.05651700  0.81103400  1
  Cu  Cu50  1  0.87744000  0.05651700  0.31103400  1
  Cu  Cu51  1  0.12256000  0.55651700  0.68896600  1
  Cu  Cu52  1  0.01339300  0.33730600  0.81242900  1
  Cu  Cu53  1  0.98660700  0.83730600  0.18757100  1
  Cu  Cu54  1  0.01339300  0.83730600  0.68757100  1
  Cu  Cu55  1  0.98660700  0.33730600  0.31242900  1
  Cu  Cu56  1  0.89521900  0.35534700  0.55576300  1
  Cu  Cu57  1  0.10478100  0.85534700  0.44423700  1
  Cu  Cu58  1  0.89521900  0.85534700  0.94423700  1
  Cu  Cu59  1  0.10478100  0.35534700  0.05576300  1
  Cu  Cu60  1  0.77773000  0.13621300  0.60629200  1
  Cu  Cu61  1  0.22227000  0.63621300  0.39370800  1
  Cu  Cu62  1  0.77773000  0.63621300  0.89370800  1
  Cu  Cu63  1  0.22227000  0.13621300  0.10629200  1
  Cu  Cu64  1  0.43960700  0.82403300  0.05116800  1
  Cu  Cu65  1  0.56039300  0.32403300  0.94883200  1
  Cu  Cu66  1  0.43960700  0.32403300  0.44883200  1
  Cu  Cu67  1  0.56039300  0.82403300  0.55116800  1
  Cu  Cu68  1  0.92071800  0.24937800  0.00017700  1
  Cu  Cu69  1  0.07928200  0.74937800  0.99982300  1
  Cu  Cu70  1  0.92071800  0.74937800  0.49982300  1
  Cu  Cu71  1  0.07928200  0.24937800  0.50017700  1
  Cu  Cu72  1  0.93365600  0.13230400  0.99066400  1
  Cu  Cu73  1  0.06634400  0.63230400  0.00933600  1
  Cu  Cu74  1  0.93365600  0.63230400  0.50933600  1
  Cu  Cu75  1  0.06634400  0.13230400  0.49066400  1
  Cu  Cu76  1  0.40897300  0.53368400  0.63687600  1
  Cu  Cu77  1  0.59102700  0.03368400  0.36312400  1
  Cu  Cu78  1  0.40897300  0.03368400  0.86312400  1
  Cu  Cu79  1  0.59102700  0.53368400  0.13687600  1
  Cu  Cu80  1  0.60133000  0.10463700  0.56879400  1
  Cu  Cu81  1  0.39867000  0.60463700  0.43120600  1
  Cu  Cu82  1  0.60133000  0.60463700  0.93120600  1
  Cu  Cu83  1  0.39867000  0.10463700  0.06879400  1
  Cu  Cu84  1  0.14814900  0.41524000  0.85063700  1
  Cu  Cu85  1  0.85185100  0.91524000  0.14936300  1
  Cu  Cu86  1  0.14814900  0.91524000  0.64936300  1
  Cu  Cu87  1  0.85185100  0.41524000  0.35063700  1
  Cu  Cu88  1  0.96720900  0.65046100  0.23603700  1
  Cu  Cu89  1  0.03279100  0.15046100  0.76396300  1
  Cu  Cu90  1  0.96720900  0.15046100  0.26396300  1
  Cu  Cu91  1  0.03279100  0.65046100  0.73603700  1
  Cu  Cu92  1  0.54931000  0.89257900  0.11534800  1
  Cu  Cu93  1  0.45069000  0.39257900  0.88465200  1
  Cu  Cu94  1  0.54931000  0.39257900  0.38465200  1
  Cu  Cu95  1  0.45069000  0.89257900  0.61534800  1
  Cu  Cu96  1  0.72968300  0.40552400  0.51977000  1
  Cu  Cu97  1  0.27031700  0.90552400  0.48023000  1
  Cu  Cu98  1  0.72968300  0.90552400  0.98023000  1
  Cu  Cu99  1  0.27031700  0.40552400  0.01977000  1
  Cu  Cu100  1  0.90820100  0.47577100  0.07802100  1
  Cu  Cu101  1  0.09179900  0.97577100  0.92197900  1
  Cu  Cu102  1  0.90820100  0.97577100  0.42197900  1
  Cu  Cu103  1  0.09179900  0.47577100  0.57802100  1
  Cu  Cu104  1  0.87191500  0.72163500  0.80440800  1
  Cu  Cu105  1  0.12808500  0.22163500  0.19559200  1
  Cu  Cu106  1  0.87191500  0.22163500  0.69559200  1
  Cu  Cu107  1  0.12808500  0.72163500  0.30440800  1
  Cu  Cu108  1  0.61490700  0.51000300  0.47761500  1
  Cu  Cu109  1  0.38509300  0.01000300  0.52238500  1
  Cu  Cu110  1  0.61490700  0.01000300  0.02238500  1
  Cu  Cu111  1  0.38509300  0.51000300  0.97761500  1
  Cu  Cu112  1  0.65067500  0.63960200  0.41913800  1
  Cu  Cu113  1  0.34932500  0.13960200  0.58086200  1
  Cu  Cu114  1  0.65067500  0.13960200  0.08086200  1
  Cu  Cu115  1  0.34932500  0.63960200  0.91913800  1
  Cu  Cu116  1  0.73812000  0.39888200  0.01445600  1
  Cu  Cu117  1  0.26188000  0.89888200  0.98554400  1
  Cu  Cu118  1  0.73812000  0.89888200  0.48554400  1
  Cu  Cu119  1  0.26188000  0.39888200  0.51445600  1
  Cu  Cu120  1  0.76574600  0.65062100  0.70299900  1
  Cu  Cu121  1  0.23425400  0.15062100  0.29700100  1
  Cu  Cu122  1  0.76574600  0.15062100  0.79700100  1
  Cu  Cu123  1  0.23425400  0.65062100  0.20299900  1
  Cu  Cu124  1  0.82435600  0.53887000  0.41804800  1
  Cu  Cu125  1  0.17564400  0.03887000  0.58195200  1
  Cu  Cu126  1  0.82435600  0.03887000  0.08195200  1
  Cu  Cu127  1  0.17564400  0.53887000  0.91804800  1
  Cu  Cu128  1  0.63705700  0.74000200  0.78147400  1
  Cu  Cu129  1  0.36294300  0.24000200  0.21852600  1
  Cu  Cu130  1  0.63705700  0.24000200  0.71852600  1
  Cu  Cu131  1  0.36294300  0.74000200  0.28147400  1
  Cu  Cu132  1  0.71955700  0.42274700  0.14765000  1
  Cu  Cu133  1  0.28044300  0.92274700  0.85235000  1
  Cu  Cu134  1  0.71955700  0.92274700  0.35235000  1
  Cu  Cu135  1  0.28044300  0.42274700  0.64765000  1
  Cu  Cu136  1  0.62550700  0.51981500  0.34339400  1
  Cu  Cu137  1  0.37449300  0.01981500  0.65660600  1
  Cu  Cu138  1  0.62550700  0.01981500  0.15660600  1
  Cu  Cu139  1  0.37449300  0.51981500  0.84339400  1
  Cu  Cu140  1  0.79861400  0.79549600  0.69628000  1
  Cu  Cu141  1  0.20138600  0.29549600  0.30372000  1
  Cu  Cu142  1  0.79861400  0.29549600  0.80372000  1
  Cu  Cu143  1  0.20138600  0.79549600  0.19628000  1
  Cu  Cu144  1  0.88695400  0.33302200  0.10187600  1
  Cu  Cu145  1  0.11304600  0.83302200  0.89812400  1
  Cu  Cu146  1  0.88695400  0.83302200  0.39812400  1
  Cu  Cu147  1  0.11304600  0.33302200  0.60187600  1
  C  C148  1  0.71877400  0.11239400  0.54985100  1
  C  C149  1  0.28122600  0.61239400  0.45014900  1
  C  C150  1  0.71877400  0.61239400  0.95014900  1
  C  C151  1  0.28122600  0.11239400  0.04985100  1
  C  C152  1  0.96285600  0.19565900  0.95834900  1
  C  C153  1  0.03714400  0.69565900  0.04165100  1
  C  C154  1  0.96285600  0.69565900  0.54165100  1
  C  C155  1  0.03714400  0.19565900  0.45834900  1
  C  C156  1  0.85900900  0.62562000  0.21296300  1
  C  C157  1  0.14099100  0.12562000  0.78703700  1
  C  C158  1  0.85900900  0.12562000  0.28703700  1
  C  C159  1  0.14099100  0.62562000  0.71296300  1
  C  C160  1  0.51605700  0.82157900  0.10536200  1
  C  C161  1  0.48394300  0.32157900  0.89463800  1
  C  C162  1  0.51605700  0.32157900  0.39463800  1
  C  C163  1  0.48394300  0.82157900  0.60536200  1
  C  C164  1  0.45958000  0.60018600  0.62372700  1
  C  C165  1  0.54042000  0.10018600  0.37627300  1
  C  C166  1  0.45958000  0.10018600  0.87627300  1
  C  C167  1  0.54042000  0.60018600  0.12372700  1
  C  C168  1  0.13364600  0.34798600  0.82195500  1
  C  C169  1  0.86635400  0.84798600  0.17804500  1
  C  C170  1  0.13364600  0.84798600  0.67804500  1
  C  C171  1  0.86635400  0.34798600  0.32195500  1
  C  C172  1  0.77925900  0.34016800  0.53772700  1
  C  C173  1  0.22074100  0.84016800  0.46227300  1
  C  C174  1  0.77925900  0.84016800  0.96227300  1
  C  C175  1  0.22074100  0.34016800  0.03772700  1
