# generated using pymatgen
data_CuNiC6
_symmetry_space_group_name_H-M   'P 1'
_cell_length_a   3.26021900
_cell_length_b   11.05502900
_cell_length_c   12.01846322
_cell_angle_alpha   80.94415931
_cell_angle_beta   90.00000000
_cell_angle_gamma   90.00000000
_symmetry_Int_Tables_number   1
_chemical_formula_structural   CuNiC6
_chemical_formula_sum   'Cu4 Ni4 C24'
_cell_volume   427.76798295
_cell_formula_units_Z   4
loop_
 _symmetry_equiv_pos_site_id
 _symmetry_equiv_pos_as_xyz
  1  'x, y, z'
loop_
 _atom_site_type_symbol
 _atom_site_label
 _atom_site_symmetry_multiplicity
 _atom_site_fract_x
 _atom_site_fract_y
 _atom_site_fract_z
 _atom_site_occupancy
  Ni  Ni0  1  0.50000000  0.69655900  0.07686200  1
  Ni  Ni1  1  0.50000000  0.30344100  0.92313800  1
  Ni  Ni2  1  0.00000000  0.61829000  0.32884700  1
  Ni  Ni3  1  0.00000000  0.38171000  0.67115300  1
  Cu  Cu4  1  0.50000000  0.91481400  0.26325200  1
  Cu  Cu5  1  0.50000000  0.08518600  0.73674800  1
  Cu  Cu6  1  0.00000000  0.40029100  0.15166300  1
  Cu  Cu7  1  0.00000000  0.59970900  0.84833700  1
  C  C8  1  0.00000000  0.00000000  0.00000000  1
  C  C9  1  0.00000000  0.00000000  0.50000000  1
  C  C10  1  0.50000000  0.68866300  0.59291900  1
  C  C11  1  0.50000000  0.31133700  0.40708100  1
  C  C12  1  0.00000000  0.68652900  0.48573800  1
  C  C13  1  0.00000000  0.31347100  0.51426200  1
  C  C14  1  0.50000000  0.88364800  0.54702600  1
  C  C15  1  0.50000000  0.11635200  0.45297400  1
  C  C16  1  0.00000000  0.57254400  0.14879100  1
  C  C17  1  0.00000000  0.42745600  0.85120900  1
  C  C18  1  0.50000000  0.99910600  0.11562200  1
  C  C19  1  0.50000000  0.00089400  0.88437800  1
  C  C20  1  0.50000000  0.74583000  0.25692900  1
  C  C21  1  0.50000000  0.25417000  0.74307100  1
  C  C22  1  0.50000000  0.49662800  0.36064800  1
  C  C23  1  0.50000000  0.50337200  0.63935200  1
  C  C24  1  0.00000000  0.81498400  0.03076800  1
  C  C25  1  0.00000000  0.18501600  0.96923200  1
  C  C26  1  0.00000000  0.30119300  0.29375100  1
  C  C27  1  0.00000000  0.69880700  0.70624900  1
  C  C28  1  0.00000000  0.95105700  0.33345700  1
  C  C29  1  0.00000000  0.04894300  0.66654300  1
  C  C30  1  0.50000000  0.37034700  0.08414700  1
  C  C31  1  0.50000000  0.62965300  0.91585300  1
