# generated using pymatgen
data_Cu6Ni3C
_symmetry_space_group_name_H-M   'P 1'
_cell_length_a   12.98735444
_cell_length_b   12.37812820
_cell_length_c   69.92066845
_cell_angle_alpha   90.00000000
_cell_angle_beta   90.00000000
_cell_angle_gamma   121.64192263
_symmetry_Int_Tables_number   1
_chemical_formula_structural   Cu6Ni3C
_chemical_formula_sum   'Cu6 Ni3 C1'
_cell_volume   9569.42778975
_cell_formula_units_Z   1
loop_
 _symmetry_equiv_pos_site_id
 _symmetry_equiv_pos_as_xyz
  1  'x, y, z'
loop_
 _atom_site_type_symbol
 _atom_site_label
 _atom_site_symmetry_multiplicity
 _atom_site_fract_x
 _atom_site_fract_y
 _atom_site_fract_z
 _atom_site_occupancy
  C  C0  1  0.00000000  0.00000000  0.00000000  1
  Ni  Ni1  1  0.00000000  0.00000000  0.50000000  1
  Ni  Ni2  1  0.50000000  0.50000000  0.00000000  1
  Ni  Ni3  1  -0.00000000  0.50000000  0.00000000  1
  Cu  Cu4  1  0.00000000  0.00000000  0.76595877  1
  Cu  Cu5  1  0.00000000  0.00000000  0.23404123  1
  Cu  Cu6  1  0.76548984  0.76141579  -0.00000000  1
  Cu  Cu7  1  0.23451016  0.23858421  -0.00000000  1
  Cu  Cu8  1  0.00407405  0.23858421  -0.00000000  1
  Cu  Cu9  1  0.99592595  0.76141579  0.00000000  1
