# generated using pymatgen
data_Cu2(NiC5)3
_symmetry_space_group_name_H-M   'P 1'
_cell_length_a   7.49301500
_cell_length_b   8.04748200
_cell_length_c   16.00928605
_cell_angle_alpha   60.14089107
_cell_angle_beta   90.00000000
_cell_angle_gamma   90.00000000
_symmetry_Int_Tables_number   1
_chemical_formula_structural   Cu2(NiC5)3
_chemical_formula_sum   'Cu8 Ni12 C60'
_cell_volume   837.20928494
_cell_formula_units_Z   4
loop_
 _symmetry_equiv_pos_site_id
 _symmetry_equiv_pos_as_xyz
  1  'x, y, z'
loop_
 _atom_site_type_symbol
 _atom_site_label
 _atom_site_symmetry_multiplicity
 _atom_site_fract_x
 _atom_site_fract_y
 _atom_site_fract_z
 _atom_site_occupancy
  Ni  Ni0  1  0.83765800  0.80567200  0.76833600  1
  Ni  Ni1  1  0.65964700  0.16191400  0.40244100  1
  Ni  Ni2  1  0.15964700  0.83808600  0.09755900  1
  Ni  Ni3  1  0.34035300  0.83808600  0.59755900  1
  Ni  Ni4  1  0.84035300  0.16191400  0.90244100  1
  Ni  Ni5  1  0.15835600  0.47253000  0.41727900  1
  Ni  Ni6  1  0.65835600  0.52747000  0.08272100  1
  Ni  Ni7  1  0.84164400  0.52747000  0.58272100  1
  Ni  Ni8  1  0.34164400  0.47253000  0.91727900  1
  Ni  Ni9  1  0.66234200  0.80567200  0.26833600  1
  Ni  Ni10  1  0.16234200  0.19432800  0.23166400  1
  Ni  Ni11  1  0.33765800  0.19432800  0.73166400  1
  Cu  Cu12  1  0.46695100  0.15352400  0.09395100  1
  Cu  Cu13  1  0.03304900  0.15352400  0.59395100  1
  Cu  Cu14  1  0.53304900  0.84647600  0.90604900  1
  Cu  Cu15  1  0.96695100  0.84647600  0.40604900  1
  Cu  Cu16  1  0.54836800  0.81168000  0.43304300  1
  Cu  Cu17  1  0.04836800  0.18832000  0.06695700  1
  Cu  Cu18  1  0.45163200  0.18832000  0.56695700  1
  Cu  Cu19  1  0.95163200  0.81168000  0.93304300  1
  C  C20  1  0.22284000  0.80875400  0.76633300  1
  C  C21  1  0.72284000  0.19124600  0.73366700  1
  C  C22  1  0.77716000  0.19124600  0.23366700  1
  C  C23  1  0.27716000  0.80875400  0.26633300  1
  C  C24  1  0.72977900  0.46646900  0.92087400  1
  C  C25  1  0.22977900  0.53353100  0.57912600  1
  C  C26  1  0.27022100  0.53353100  0.07912600  1
  C  C27  1  0.77022100  0.46646900  0.42087400  1
  C  C28  1  0.23191400  0.15978100  0.90337900  1
  C  C29  1  0.73191400  0.84021900  0.59662100  1
  C  C30  1  0.76808600  0.84021900  0.09662100  1
  C  C31  1  0.26808600  0.15978100  0.40337900  1
  C  C32  1  0.13004700  0.71749500  0.03768200  1
  C  C33  1  0.03129700  0.77900200  0.82476300  1
  C  C34  1  0.53129700  0.22099800  0.67523700  1
  C  C35  1  0.96870300  0.22099800  0.17523700  1
  C  C36  1  0.46870300  0.77900200  0.32476300  1
  C  C37  1  0.53314900  0.36136000  0.96334900  1
  C  C38  1  0.03314900  0.63864000  0.53665100  1
  C  C39  1  0.46685100  0.63864000  0.03665100  1
  C  C40  1  0.96685100  0.36136000  0.46334900  1
  C  C41  1  0.03487900  0.07679500  0.89298700  1
  C  C42  1  0.53487900  0.92320500  0.60701300  1
  C  C43  1  0.96512100  0.92320500  0.10701300  1
  C  C44  1  0.12709200  0.07221000  0.35304700  1
  C  C45  1  0.62709200  0.92779000  0.14695300  1
  C  C46  1  0.87290800  0.92779000  0.64695300  1
  C  C47  1  0.37290800  0.07221000  0.85304700  1
  C  C48  1  0.63004700  0.28250500  0.46231800  1
  C  C49  1  0.46512100  0.07679500  0.39298700  1
  C  C50  1  0.36995300  0.71749500  0.53768200  1
  C  C51  1  0.86995300  0.28250500  0.96231800  1
  C  C52  1  0.76605100  0.94431200  0.47547200  1
  C  C53  1  0.62751900  0.28478100  0.14490000  1
  C  C54  1  0.87248100  0.28478100  0.64490000  1
  C  C55  1  0.37248100  0.71521900  0.85510000  1
  C  C56  1  0.73304300  0.26535600  0.80849900  1
  C  C57  1  0.23304300  0.73464400  0.69150100  1
  C  C58  1  0.26695700  0.73464400  0.19150100  1
  C  C59  1  0.76695700  0.26535600  0.30849900  1
  C  C60  1  0.73323600  0.61758300  0.80918900  1
  C  C61  1  0.23323600  0.38241700  0.69081100  1
  C  C62  1  0.26676400  0.38241700  0.19081100  1
  C  C63  1  0.76676400  0.61758300  0.30918900  1
  C  C64  1  0.23868400  0.38209800  0.86648000  1
  C  C65  1  0.73868400  0.61790200  0.63352000  1
  C  C66  1  0.76131600  0.61790200  0.13352000  1
  C  C67  1  0.26131600  0.38209800  0.36648000  1
  C  C68  1  0.73351500  0.94815900  0.80301500  1
  C  C69  1  0.23351500  0.05184100  0.69698500  1
  C  C70  1  0.26648500  0.05184100  0.19698500  1
  C  C71  1  0.76648500  0.94815900  0.30301500  1
  C  C72  1  0.77246400  0.59113400  0.97823600  1
  C  C73  1  0.27246400  0.40886600  0.52176400  1
  C  C74  1  0.22753600  0.40886600  0.02176400  1
  C  C75  1  0.72753600  0.59113400  0.47823600  1
  C  C76  1  0.73394900  0.94431200  0.97547200  1
  C  C77  1  0.23394900  0.05568800  0.52452800  1
  C  C78  1  0.26605100  0.05568800  0.02452800  1
  C  C79  1  0.12751900  0.71521900  0.35510000  1
