# generated using pymatgen
data_Cu2NiC5
_symmetry_space_group_name_H-M   'P 1'
_cell_length_a   6.68390516
_cell_length_b   6.68390516
_cell_length_c   9.03175529
_cell_angle_alpha   65.16699831
_cell_angle_beta   65.16699831
_cell_angle_gamma   34.35550192
_symmetry_Int_Tables_number   1
_chemical_formula_structural   Cu2NiC5
_chemical_formula_sum   'Cu2 Ni1 C5'
_cell_volume   204.52044213
_cell_formula_units_Z   1
loop_
 _symmetry_equiv_pos_site_id
 _symmetry_equiv_pos_as_xyz
  1  'x, y, z'
loop_
 _atom_site_type_symbol
 _atom_site_label
 _atom_site_symmetry_multiplicity
 _atom_site_fract_x
 _atom_site_fract_y
 _atom_site_fract_z
 _atom_site_occupancy
  Ni  Ni0  1  0.00000000  0.00000000  0.00000000  1
  Cu  Cu1  1  0.79094300  0.79094300  0.74250300  1
  Cu  Cu2  1  0.20905700  0.20905700  0.25749700  1
  C  C3  1  0.83602500  0.83602500  0.30424500  1
  C  C4  1  0.16397500  0.16397500  0.69575500  1
  C  C5  1  0.62223300  0.62223300  0.05636400  1
  C  C6  1  0.37776700  0.37776700  0.94363600  1
  C  C7  1  0.50000000  0.50000000  0.50000000  1
