# generated using pymatgen
data_Cu4NiC4
_symmetry_space_group_name_H-M   'P 1'
_cell_length_a   8.79234500
_cell_length_b   11.29506900
_cell_length_c   14.81239778
_cell_angle_alpha   50.11724723
_cell_angle_beta   90.00000000
_cell_angle_gamma   90.00000000
_symmetry_Int_Tables_number   1
_chemical_formula_structural   Cu4NiC4
_chemical_formula_sum   'Cu32 Ni8 C32'
_cell_volume   1128.80030413
_cell_formula_units_Z   8
loop_
 _symmetry_equiv_pos_site_id
 _symmetry_equiv_pos_as_xyz
  1  'x, y, z'
loop_
 _atom_site_type_symbol
 _atom_site_label
 _atom_site_symmetry_multiplicity
 _atom_site_fract_x
 _atom_site_fract_y
 _atom_site_fract_z
 _atom_site_occupancy
  C  C0  1  0.50000000  0.00000000  0.50000000  1
  C  C1  1  0.00000000  0.00000000  0.00000000  1
  C  C2  1  0.00000000  0.00000000  0.50000000  1
  C  C3  1  0.50000000  0.00000000  0.00000000  1
  C  C4  1  0.49621700  0.50418700  0.25234100  1
  C  C5  1  0.00378300  0.50418700  0.75234100  1
  C  C6  1  0.50378300  0.49581300  0.74765900  1
  C  C7  1  0.99621700  0.49581300  0.24765900  1
  C  C8  1  0.25038400  0.75202000  0.60013200  1
  C  C9  1  0.24961600  0.75202000  0.10013200  1
  C  C10  1  0.74961600  0.24798000  0.39986800  1
  C  C11  1  0.75038400  0.24798000  0.89986800  1
  C  C12  1  0.25143300  0.26157900  0.38301600  1
  C  C13  1  0.24856700  0.26157900  0.88301600  1
  C  C14  1  0.74856700  0.73842100  0.61698400  1
  C  C15  1  0.75143300  0.73842100  0.11698400  1
  C  C16  1  0.50455700  0.25005400  0.57795700  1
  C  C17  1  0.99544300  0.25005400  0.07795700  1
  C  C18  1  0.49544300  0.74994600  0.42204300  1
  C  C19  1  0.00455700  0.74994600  0.92204300  1
  C  C20  1  0.52139200  0.74280300  0.92684600  1
  C  C21  1  0.97860800  0.74280300  0.42684600  1
  C  C22  1  0.47860800  0.25719700  0.07315400  1
  C  C23  1  0.02139200  0.25719700  0.57315400  1
  C  C24  1  0.74867800  0.95268200  0.67611300  1
  C  C25  1  0.75132200  0.95268200  0.17611300  1
  C  C26  1  0.25132200  0.04731800  0.32388700  1
  C  C27  1  0.24867800  0.04731800  0.82388700  1
  C  C28  1  0.26637600  0.55433800  0.87400100  1
  C  C29  1  0.23362400  0.55433800  0.37400100  1
  C  C30  1  0.73362400  0.44566200  0.12599900  1
  C  C31  1  0.76637600  0.44566200  0.62599900  1
  Ni  Ni32  1  0.25426400  0.51289900  0.78434500  1
  Ni  Ni33  1  0.24573600  0.51289900  0.28434500  1
  Ni  Ni34  1  0.74573600  0.48710100  0.21565500  1
  Ni  Ni35  1  0.75426400  0.48710100  0.71565500  1
  Ni  Ni36  1  0.74939300  0.98049400  0.55000700  1
  Ni  Ni37  1  0.75060700  0.98049400  0.05000700  1
  Ni  Ni38  1  0.25060700  0.01950600  0.44999300  1
  Ni  Ni39  1  0.24939300  0.01950600  0.94999300  1
  Cu  Cu40  1  0.15348800  0.67637100  0.83101300  1
  Cu  Cu41  1  0.34651200  0.67637100  0.33101300  1
  Cu  Cu42  1  0.84651200  0.32362900  0.16898700  1
  Cu  Cu43  1  0.65348800  0.32362900  0.66898700  1
  Cu  Cu44  1  0.42572400  0.60367000  0.86525500  1
  Cu  Cu45  1  0.07427600  0.60367000  0.36525500  1
  Cu  Cu46  1  0.57427600  0.39633000  0.13474500  1
  Cu  Cu47  1  0.92572400  0.39633000  0.63474500  1
  Cu  Cu48  1  0.26632600  0.41083300  0.49620100  1
  Cu  Cu49  1  0.23367400  0.41083300  0.99620100  1
  Cu  Cu50  1  0.73367400  0.58916700  0.50379900  1
  Cu  Cu51  1  0.76632600  0.58916700  0.00379900  1
  Cu  Cu52  1  0.85696800  0.82612600  0.75475700  1
  Cu  Cu53  1  0.64303200  0.82612600  0.25475700  1
  Cu  Cu54  1  0.14303200  0.17387400  0.24524300  1
  Cu  Cu55  1  0.35696800  0.17387400  0.74524300  1
  Cu  Cu56  1  0.79294700  0.10042100  0.64682400  1
  Cu  Cu57  1  0.70705300  0.10042100  0.14682400  1
  Cu  Cu58  1  0.20705300  0.89957900  0.35317600  1
  Cu  Cu59  1  0.29294700  0.89957900  0.85317600  1
  Cu  Cu60  1  0.08966800  0.08718600  0.78031600  1
  Cu  Cu61  1  0.41033200  0.08718600  0.28031600  1
  Cu  Cu62  1  0.91033200  0.91281400  0.21968400  1
  Cu  Cu63  1  0.58966800  0.91281400  0.71968400  1
  Cu  Cu64  1  0.50356100  0.76018900  0.07355600  1
  Cu  Cu65  1  0.99643900  0.76018900  0.57355600  1
  Cu  Cu66  1  0.49643900  0.23981100  0.92644400  1
  Cu  Cu67  1  0.00356100  0.23981100  0.42644400  1
  Cu  Cu68  1  0.50133100  0.75596700  0.57268500  1
  Cu  Cu69  1  0.99866900  0.75596700  0.07268500  1
  Cu  Cu70  1  0.49866900  0.24403300  0.42731500  1
  Cu  Cu71  1  0.00133100  0.24403300  0.92731500  1
