# generated using pymatgen
data_Cu6Ni10C19
_symmetry_space_group_name_H-M   'P 1'
_cell_length_a   17.09362800
_cell_length_b   9.07297500
_cell_length_c   10.12666567
_cell_angle_alpha   74.48177238
_cell_angle_beta   90.00000000
_cell_angle_gamma   90.00000000
_symmetry_Int_Tables_number   1
_chemical_formula_structural   Cu6Ni10C19
_chemical_formula_sum   'Cu24 Ni40 C76'
_cell_volume   1513.29156578
_cell_formula_units_Z   4
loop_
 _symmetry_equiv_pos_site_id
 _symmetry_equiv_pos_as_xyz
  1  'x, y, z'
loop_
 _atom_site_type_symbol
 _atom_site_label
 _atom_site_symmetry_multiplicity
 _atom_site_fract_x
 _atom_site_fract_y
 _atom_site_fract_z
 _atom_site_occupancy
  C  C0  1  0.40522100  0.80328000  0.89300000  1
  C  C1  1  0.90522100  0.19672000  0.60700000  1
  C  C2  1  0.59477900  0.19672000  0.10700000  1
  C  C3  1  0.09477900  0.80328000  0.39300000  1
  C  C4  1  0.37681200  0.43874900  0.48249800  1
  C  C5  1  0.87681200  0.56125100  0.01750200  1
  C  C6  1  0.62318800  0.56125100  0.51750200  1
  C  C7  1  0.12318800  0.43874900  0.98249800  1
  Ni  Ni8  1  0.44435500  0.11564800  0.01668900  1
  Ni  Ni9  1  0.94435500  0.88435200  0.48331100  1
  Ni  Ni10  1  0.55564500  0.88435200  0.98331100  1
  Ni  Ni11  1  0.05564500  0.11564800  0.51668900  1
  Ni  Ni12  1  0.43604700  0.10991400  0.17747700  1
  Ni  Ni13  1  0.93604700  0.89008600  0.32252300  1
  Ni  Ni14  1  0.56395300  0.89008600  0.82252300  1
  Ni  Ni15  1  0.06395300  0.10991400  0.67747700  1
  Ni  Ni16  1  0.19305000  0.40717300  0.50866000  1
  Ni  Ni17  1  0.69305000  0.59282700  0.99134000  1
  Ni  Ni18  1  0.80695000  0.59282700  0.49134000  1
  Ni  Ni19  1  0.30695000  0.40717300  0.00866000  1
  Ni  Ni20  1  0.21053500  0.33926500  0.38526300  1
  Ni  Ni21  1  0.71053500  0.66073500  0.11473700  1
  Ni  Ni22  1  0.78946500  0.66073500  0.61473700  1
  Ni  Ni23  1  0.28946500  0.33926500  0.88526300  1
  Ni  Ni24  1  0.24959600  0.76174500  0.99326700  1
  Ni  Ni25  1  0.74959600  0.23825500  0.50673300  1
  Ni  Ni26  1  0.75040400  0.23825500  0.00673300  1
  Ni  Ni27  1  0.25040400  0.76174500  0.49326700  1
  Ni  Ni28  1  0.27742000  0.92237500  0.01984700  1
  Ni  Ni29  1  0.77742000  0.07762500  0.48015300  1
  Ni  Ni30  1  0.72258000  0.07762500  0.98015300  1
  Ni  Ni31  1  0.22258000  0.92237500  0.51984700  1
  Ni  Ni32  1  0.29437500  0.01679500  0.19959400  1
  Ni  Ni33  1  0.79437500  0.98320500  0.30040600  1
  Ni  Ni34  1  0.70562500  0.98320500  0.80040600  1
  Ni  Ni35  1  0.20562500  0.01679500  0.69959400  1
  Ni  Ni36  1  0.26830800  0.14305200  0.06864200  1
  Ni  Ni37  1  0.76830800  0.85694800  0.43135800  1
  Ni  Ni38  1  0.73169200  0.85694800  0.93135800  1
  Ni  Ni39  1  0.23169200  0.14305200  0.56864200  1
  Ni  Ni40  1  0.60398100  0.92290800  0.61201900  1
  Ni  Ni41  1  0.10398100  0.07709200  0.88798100  1
  Ni  Ni42  1  0.39601900  0.07709200  0.38798100  1
  Ni  Ni43  1  0.89601900  0.92290800  0.11201900  1
  Ni  Ni44  1  0.59917600  0.08092400  0.65166200  1
  Ni  Ni45  1  0.09917600  0.91907600  0.84833800  1
  Ni  Ni46  1  0.40082400  0.91907600  0.34833800  1
  Ni  Ni47  1  0.90082400  0.08092400  0.15166200  1
  Cu  Cu48  1  0.56417800  0.39276000  0.30206600  1
  Cu  Cu49  1  0.06417800  0.60724000  0.19793400  1
  Cu  Cu50  1  0.43582200  0.60724000  0.69793400  1
  Cu  Cu51  1  0.93582200  0.39276000  0.80206600  1
  Cu  Cu52  1  0.65306300  0.35891600  0.31497100  1
  Cu  Cu53  1  0.15306300  0.64108400  0.18502900  1
  Cu  Cu54  1  0.34693700  0.64108400  0.68502900  1
  Cu  Cu55  1  0.84693700  0.35891600  0.81497100  1
  Cu  Cu56  1  0.40492100  0.69831300  0.20647000  1
  Cu  Cu57  1  0.90492100  0.30168700  0.29353000  1
  Cu  Cu58  1  0.59507900  0.30168700  0.79353000  1
  Cu  Cu59  1  0.09507900  0.69831300  0.70647000  1
  Cu  Cu60  1  0.37792000  0.55387200  0.16451500  1
  Cu  Cu61  1  0.87792000  0.44612800  0.33548500  1
  Cu  Cu62  1  0.62208000  0.44612800  0.83548500  1
  Cu  Cu63  1  0.12208000  0.55387200  0.66451500  1
  Cu  Cu64  1  0.88675600  0.84761300  0.73614700  1
  Cu  Cu65  1  0.38675600  0.15238700  0.76385300  1
  Cu  Cu66  1  0.11324400  0.15238700  0.26385300  1
  Cu  Cu67  1  0.61324400  0.84761300  0.23614700  1
  Cu  Cu68  1  0.40678200  0.08686400  0.64180300  1
  Cu  Cu69  1  0.90678200  0.91313600  0.85819700  1
  Cu  Cu70  1  0.59321800  0.91313600  0.35819700  1
  Cu  Cu71  1  0.09321800  0.08686400  0.14180300  1
  C  C72  1  0.53081900  0.45767800  0.38126300  1
  C  C73  1  0.03081900  0.54232200  0.11873700  1
  C  C74  1  0.46918100  0.54232200  0.61873700  1
  C  C75  1  0.96918100  0.45767800  0.88126300  1
  C  C76  1  0.46932400  0.65313200  0.79258100  1
  C  C77  1  0.96932400  0.34686800  0.70741900  1
  C  C78  1  0.53067600  0.34686800  0.20741900  1
  C  C79  1  0.03067600  0.65313200  0.29258100  1
  C  C80  1  0.31990300  0.70719100  0.77189200  1
  C  C81  1  0.81990300  0.29280900  0.72810800  1
  C  C82  1  0.68009700  0.29280900  0.22810800  1
  C  C83  1  0.18009700  0.70719100  0.27189200  1
  C  C84  1  0.30711300  0.60721600  0.59285000  1
  C  C85  1  0.80711300  0.39278400  0.90715000  1
  C  C86  1  0.69288700  0.39278400  0.40715000  1
  C  C87  1  0.19288700  0.60721600  0.09285000  1
  C  C88  1  0.92670000  0.19055200  0.39475000  1
  C  C89  1  0.42670000  0.80944800  0.10525000  1
  C  C90  1  0.07330000  0.80944800  0.60525000  1
  C  C91  1  0.57330000  0.19055200  0.89475000  1
  C  C92  1  0.90257300  0.29702800  0.17159200  1
  C  C93  1  0.40257300  0.70297200  0.32840800  1
  C  C94  1  0.09742700  0.70297200  0.82840800  1
  C  C95  1  0.59742700  0.29702800  0.67159200  1
  C  C96  1  0.37733000  0.57098400  0.03391600  1
  C  C97  1  0.87733000  0.42901600  0.46608400  1
  C  C98  1  0.62267000  0.42901600  0.96608400  1
  C  C99  1  0.12267000  0.57098400  0.53391600  1
  C  C100  1  0.85639900  0.56448600  0.24857400  1
  C  C101  1  0.35639900  0.43551400  0.25142600  1
  C  C102  1  0.14360100  0.43551400  0.75142600  1
  C  C103  1  0.64360100  0.56448600  0.74857400  1
  C  C104  1  0.89663200  0.94581300  0.61836000  1
  C  C105  1  0.39663200  0.05418700  0.88164000  1
  C  C106  1  0.10336800  0.05418700  0.38164000  1
  C  C107  1  0.60336800  0.94581300  0.11836000  1
  C  C108  1  0.36311400  0.28594600  0.74495900  1
  C  C109  1  0.86311500  0.71405400  0.75504100  1
  C  C110  1  0.63688600  0.71405400  0.25504100  1
  C  C111  1  0.13688600  0.28594600  0.24495900  1
  C  C112  1  0.40903000  0.17207500  0.52103200  1
  C  C113  1  0.90903000  0.82792500  0.97896800  1
  C  C114  1  0.59097000  0.82792500  0.47896800  1
  C  C115  1  0.09097000  0.17207500  0.02103200  1
  C  C116  1  0.57911200  0.05634600  0.32501600  1
  C  C117  1  0.07911200  0.94365400  0.17498400  1
  C  C118  1  0.42088800  0.94365400  0.67498400  1
  C  C119  1  0.92088800  0.05634600  0.82501600  1
  C  C120  1  0.46789900  0.15338000  0.09087700  1
  C  C121  1  0.96789900  0.84662000  0.40912300  1
  C  C122  1  0.53210100  0.84662000  0.90912300  1
  C  C123  1  0.03210100  0.15338000  0.59087700  1
  C  C124  1  0.22999000  0.34064300  0.47642200  1
  C  C125  1  0.72999000  0.65935700  0.02357800  1
  C  C126  1  0.77001000  0.65935700  0.52357800  1
  C  C127  1  0.27001000  0.34064300  0.97642200  1
  C  C128  1  0.28468800  0.85067400  0.95803000  1
  C  C129  1  0.78468800  0.14932600  0.54197000  1
  C  C130  1  0.71531200  0.14932600  0.04197000  1
  C  C131  1  0.21531200  0.85067400  0.45803000  1
  C  C132  1  0.26135200  0.03319300  0.11729100  1
  C  C133  1  0.76135200  0.96680700  0.38270900  1
  C  C134  1  0.73864800  0.96680700  0.88270900  1
  C  C135  1  0.23864800  0.03319300  0.61729100  1
  C  C136  1  0.61343200  0.97247600  0.68691900  1
  C  C137  1  0.11343200  0.02752400  0.81308100  1
  C  C138  1  0.38656800  0.02752400  0.31308100  1
  C  C139  1  0.88656800  0.97247600  0.18691900  1
