# generated using pymatgen
data_Cu4Ni6C11
_symmetry_space_group_name_H-M   'P 1'
_cell_length_a   11.75326623
_cell_length_b   11.75326623
_cell_length_c   11.75326623
_cell_angle_alpha   119.63850181
_cell_angle_beta   119.63850181
_cell_angle_gamma   90.62728202
_symmetry_Int_Tables_number   1
_chemical_formula_structural   Cu4Ni6C11
_chemical_formula_sum   'Cu8 Ni12 C22'
_cell_volume   1154.24788320
_cell_formula_units_Z   2
loop_
 _symmetry_equiv_pos_site_id
 _symmetry_equiv_pos_as_xyz
  1  'x, y, z'
loop_
 _atom_site_type_symbol
 _atom_site_label
 _atom_site_symmetry_multiplicity
 _atom_site_fract_x
 _atom_site_fract_y
 _atom_site_fract_z
 _atom_site_occupancy
  C  C0  1  0.16419900  0.16419900  0.00000000  1
  C  C1  1  0.83580100  0.83580100  0.00000000  1
  C  C2  1  0.56382500  0.31292000  0.25090500  1
  C  C3  1  0.43617500  0.68708000  0.74909500  1
  C  C4  1  0.06201500  0.31292000  0.74909500  1
  C  C5  1  0.31292000  0.06201500  0.74909500  1
  C  C6  1  0.93798500  0.68708000  0.25090500  1
  C  C7  1  0.68708000  0.93798500  0.25090500  1
  C  C8  1  0.31292000  0.56382500  0.25090500  1
  C  C9  1  0.68708000  0.43617500  0.74909500  1
  C  C10  1  0.44469700  0.09946700  0.34523000  1
  C  C11  1  0.55530300  0.90053300  0.65477000  1
  C  C12  1  0.75423700  0.09946700  0.65477000  1
  C  C13  1  0.09946700  0.75423700  0.65477000  1
  C  C14  1  0.24576300  0.90053300  0.34523000  1
  C  C15  1  0.90053300  0.24576300  0.34523000  1
  C  C16  1  0.09946700  0.44469700  0.34523000  1
  C  C17  1  0.90053300  0.55530300  0.65477000  1
  C  C18  1  0.33173800  0.33173800  0.66347500  1
  C  C19  1  0.66826200  0.66826200  0.33652500  1
  C  C20  1  0.33173800  0.66826200  0.00000000  1
  C  C21  1  0.66826200  0.33173800  0.00000000  1
  Ni  Ni22  1  0.37785700  0.37785700  0.41382900  1
  Ni  Ni23  1  0.62214300  0.62214300  0.58617100  1
  Ni  Ni24  1  0.96402700  0.96402700  0.58617100  1
  Ni  Ni25  1  0.37785700  0.96402700  0.00000000  1
  Ni  Ni26  1  0.03597300  0.62214300  0.00000000  1
  Ni  Ni27  1  0.03597300  0.03597300  0.41382900  1
  Ni  Ni28  1  0.62214300  0.03597300  0.00000000  1
  Ni  Ni29  1  0.96402700  0.37785700  0.00000000  1
  Ni  Ni30  1  0.12872500  0.12872500  0.25744900  1
  Ni  Ni31  1  0.87127500  0.87127500  0.74255100  1
  Ni  Ni32  1  0.12872500  0.87127500  0.00000000  1
  Ni  Ni33  1  0.87127500  0.12872500  0.00000000  1
  Cu  Cu34  1  0.50000000  0.15398500  0.65398500  1
  Cu  Cu35  1  0.50000000  0.84601500  0.34601500  1
  Cu  Cu36  1  0.15398500  0.50000000  0.65398500  1
  Cu  Cu37  1  0.84601500  0.50000000  0.34601500  1
  Cu  Cu38  1  0.37920300  0.37920300  0.00000000  1
  Cu  Cu39  1  0.62079700  0.62079700  0.00000000  1
  Cu  Cu40  1  0.75000000  0.25000000  0.50000000  1
  Cu  Cu41  1  0.25000000  0.75000000  0.50000000  1
