# generated using pymatgen
data_Cu23Ni6C7
_symmetry_space_group_name_H-M   'P 1'
_cell_length_a   9.72087638
_cell_length_b   9.72087638
_cell_length_c   9.97702100
_cell_angle_alpha   90.00000000
_cell_angle_beta   90.00000000
_cell_angle_gamma   120.00000258
_symmetry_Int_Tables_number   1
_chemical_formula_structural   Cu23Ni6C7
_chemical_formula_sum   'Cu23 Ni6 C7'
_cell_volume   816.47397674
_cell_formula_units_Z   1
loop_
 _symmetry_equiv_pos_site_id
 _symmetry_equiv_pos_as_xyz
  1  'x, y, z'
loop_
 _atom_site_type_symbol
 _atom_site_label
 _atom_site_symmetry_multiplicity
 _atom_site_fract_x
 _atom_site_fract_y
 _atom_site_fract_z
 _atom_site_occupancy
  C  C0  1  0.00000000  0.00000000  0.00000000  1
  C  C1  1  0.04372000  0.52186000  0.30599900  1
  C  C2  1  0.47814000  0.95628000  0.30599900  1
  C  C3  1  0.47814000  0.52186000  0.30599900  1
  C  C4  1  0.95628000  0.47814000  0.69400100  1
  C  C5  1  0.52186000  0.04372000  0.69400100  1
  C  C6  1  0.52186000  0.47814000  0.69400100  1
  Ni  Ni7  1  0.16743400  0.83256600  0.80278000  1
  Ni  Ni8  1  0.66513200  0.83256600  0.80278000  1
  Ni  Ni9  1  0.16743400  0.33486800  0.80278000  1
  Ni  Ni10  1  0.83256600  0.16743400  0.19722000  1
  Ni  Ni11  1  0.33486800  0.16743400  0.19722000  1
  Ni  Ni12  1  0.83256600  0.66513200  0.19722000  1
  Cu  Cu13  1  0.00000000  0.00000000  0.50000000  1
  Cu  Cu14  1  0.11749900  0.88250100  0.27450900  1
  Cu  Cu15  1  0.76500100  0.88250100  0.27450900  1
  Cu  Cu16  1  0.11749900  0.23499900  0.27450900  1
  Cu  Cu17  1  0.88250100  0.11749900  0.72549100  1
  Cu  Cu18  1  0.23499900  0.11749900  0.72549100  1
  Cu  Cu19  1  0.88250100  0.76500100  0.72549100  1
  Cu  Cu20  1  0.34569700  0.00000000  0.00000000  1
  Cu  Cu21  1  0.65430300  0.65430300  0.00000000  1
  Cu  Cu22  1  0.00000000  0.34569700  0.00000000  1
  Cu  Cu23  1  0.34569700  0.34569700  0.00000000  1
  Cu  Cu24  1  0.00000000  0.65430300  0.00000000  1
  Cu  Cu25  1  0.65430300  0.00000000  0.00000000  1
  Cu  Cu26  1  0.78110200  0.56220400  0.45167500  1
  Cu  Cu27  1  0.78110200  0.21889800  0.45167500  1
  Cu  Cu28  1  0.43779600  0.21889800  0.45167500  1
  Cu  Cu29  1  0.21889800  0.43779600  0.54832500  1
  Cu  Cu30  1  0.21889800  0.78110200  0.54832500  1
  Cu  Cu31  1  0.56220400  0.78110200  0.54832500  1
  Cu  Cu32  1  0.66666700  0.33333300  0.18265500  1
  Cu  Cu33  1  0.33333300  0.66666700  0.81734500  1
  Cu  Cu34  1  0.66666700  0.33333300  0.88455200  1
  Cu  Cu35  1  0.33333300  0.66666700  0.11544800  1
