# generated using pymatgen
data_Cu6NiC5
_symmetry_space_group_name_H-M   'P 1'
_cell_length_a   7.52329063
_cell_length_b   6.60115995
_cell_length_c   6.56302128
_cell_angle_alpha   69.70867979
_cell_angle_beta   55.38401115
_cell_angle_gamma   54.90730907
_symmetry_Int_Tables_number   1
_chemical_formula_structural   Cu6NiC5
_chemical_formula_sum   'Cu12 Ni2 C10'
_cell_volume   219.37955043
_cell_formula_units_Z   2
loop_
 _symmetry_equiv_pos_site_id
 _symmetry_equiv_pos_as_xyz
  1  'x, y, z'
loop_
 _atom_site_type_symbol
 _atom_site_label
 _atom_site_symmetry_multiplicity
 _atom_site_fract_x
 _atom_site_fract_y
 _atom_site_fract_z
 _atom_site_occupancy
  Ni  Ni0  1  0.24085600  0.25914400  0.25914400  1
  Ni  Ni1  1  0.99085600  0.00914400  0.00914400  1
  Cu  Cu2  1  0.84409000  0.56009800  0.78652900  1
  Cu  Cu3  1  0.40867800  0.46339700  0.68707100  1
  Cu  Cu4  1  0.80928200  0.78652900  0.56009800  1
  Cu  Cu5  1  0.44085400  0.68707100  0.46339700  1
  Cu  Cu6  1  0.56292900  0.80914600  0.84132200  1
  Cu  Cu7  1  0.68990200  0.40591000  0.44071800  1
  Cu  Cu8  1  0.78660300  0.84132200  0.80914600  1
  Cu  Cu9  1  0.46347100  0.44071800  0.40591000  1
  Cu  Cu10  1  0.59703800  0.98598600  0.26997200  1
  Cu  Cu11  1  0.14700400  0.26997200  0.98598600  1
  Cu  Cu12  1  0.26401400  0.65296200  0.10299600  1
  Cu  Cu13  1  0.98002800  0.10299600  0.65296200  1
  C  C14  1  0.75138100  0.74861900  0.74861900  1
  C  C15  1  0.50138100  0.49861900  0.49861900  1
  C  C16  1  0.44708400  0.98901700  0.28529900  1
  C  C17  1  0.80113500  0.96370000  0.26236600  1
  C  C18  1  0.27860000  0.28529900  0.98901700  1
  C  C19  1  0.97279800  0.26236600  0.96370000  1
  C  C20  1  0.98763400  0.27720200  0.44886500  1
  C  C21  1  0.26098300  0.80291600  0.97140000  1
  C  C22  1  0.28630000  0.44886500  0.27720200  1
  C  C23  1  0.96470100  0.97140000  0.80291600  1
