# generated using pymatgen
data_CuNiC3
_symmetry_space_group_name_H-M   'P 1'
_cell_length_a   6.02576293
_cell_length_b   6.00854868
_cell_length_c   10.61448202
_cell_angle_alpha   89.99296131
_cell_angle_beta   90.00154707
_cell_angle_gamma   127.36064077
_symmetry_Int_Tables_number   1
_chemical_formula_structural   CuNiC3
_chemical_formula_sum   'Cu6 Ni6 C18'
_cell_volume   305.46087391
_cell_formula_units_Z   6
loop_
 _symmetry_equiv_pos_site_id
 _symmetry_equiv_pos_as_xyz
  1  'x, y, z'
loop_
 _atom_site_type_symbol
 _atom_site_label
 _atom_site_symmetry_multiplicity
 _atom_site_fract_x
 _atom_site_fract_y
 _atom_site_fract_z
 _atom_site_occupancy
  Ni  Ni0  1  0.65507400  0.98715500  0.49150200  1
  Ni  Ni1  1  0.68240500  0.68140400  0.01637100  1
  Ni  Ni2  1  0.01401100  0.34414000  0.99189700  1
  Ni  Ni3  1  0.98583800  0.65573000  0.49187200  1
  Ni  Ni4  1  0.31748000  0.31857700  0.51628300  1
  Ni  Ni5  1  0.34583200  0.01365500  0.99159700  1
  Cu  Cu6  1  0.64322500  0.33385200  0.23880800  1
  Cu  Cu7  1  0.35717000  0.66596700  0.73896000  1
  Cu  Cu8  1  0.66683500  0.35792800  0.73927600  1
  Cu  Cu9  1  0.33308300  0.64166000  0.23932600  1
  Cu  Cu10  1  0.96885300  0.97022800  0.75903100  1
  Cu  Cu11  1  0.03116500  0.02973600  0.25894400  1
  C  C12  1  0.74022500  0.39659200  0.04890900  1
  C  C13  1  0.26007500  0.60363700  0.54899900  1
  C  C14  1  0.60219300  0.26169100  0.54926600  1
  C  C15  1  0.39823800  0.73875700  0.04990400  1
  C  C16  1  0.06279300  0.06163600  0.93211600  1
  C  C17  1  0.93715800  0.93821500  0.43208300  1
  C  C18  1  0.44144400  0.00845500  0.82131600  1
  C  C19  1  0.37346500  0.37460200  0.34012100  1
  C  C20  1  0.99141200  0.55970800  0.32147500  1
  C  C21  1  0.00869000  0.44006600  0.82139900  1
  C  C22  1  0.62557400  0.62534400  0.84038200  1
  C  C23  1  0.55839800  0.99148100  0.32130500  1
  C  C24  1  0.29246600  0.04795100  0.16474500  1
  C  C25  1  0.29096600  0.29250000  0.69414000  1
  C  C26  1  0.95323600  0.70888700  0.66551100  1
  C  C27  1  0.04566300  0.29043600  0.16541800  1
  C  C28  1  0.70928700  0.70736500  0.19415800  1
  C  C29  1  0.70774700  0.95264200  0.66488800  1
