# generated using pymatgen
data_Cu3(NiC10)2
_symmetry_space_group_name_H-M   'P 1'
_cell_length_a   8.46607067
_cell_length_b   8.46607067
_cell_length_c   8.89631456
_cell_angle_alpha   76.25126434
_cell_angle_beta   76.25126434
_cell_angle_gamma   74.80014001
_symmetry_Int_Tables_number   1
_chemical_formula_structural   Cu3(NiC10)2
_chemical_formula_sum   'Cu6 Ni4 C40'
_cell_volume   587.14900518
_cell_formula_units_Z   2
loop_
 _symmetry_equiv_pos_site_id
 _symmetry_equiv_pos_as_xyz
  1  'x, y, z'
loop_
 _atom_site_type_symbol
 _atom_site_label
 _atom_site_symmetry_multiplicity
 _atom_site_fract_x
 _atom_site_fract_y
 _atom_site_fract_z
 _atom_site_occupancy
  C  C0  1  0.36616500  0.63383500  0.25000000  1
  C  C1  1  0.63383500  0.36616500  0.75000000  1
  Ni  Ni2  1  0.09777800  0.24728000  0.43063800  1
  Ni  Ni3  1  0.75272000  0.90222200  0.06936200  1
  Ni  Ni4  1  0.90222200  0.75272000  0.56936200  1
  Ni  Ni5  1  0.24728000  0.09777800  0.93063800  1
  C  C6  1  0.72780800  0.27219200  0.25000000  1
  C  C7  1  0.27219200  0.72780800  0.75000000  1
  Cu  Cu8  1  0.99819100  0.00180900  0.25000000  1
  Cu  Cu9  1  0.00180900  0.99819100  0.75000000  1
  Cu  Cu10  1  0.83593800  0.58020200  0.32012300  1
  Cu  Cu11  1  0.41979800  0.16406200  0.17987700  1
  Cu  Cu12  1  0.16406200  0.41979800  0.67987700  1
  Cu  Cu13  1  0.58020200  0.83593800  0.82012300  1
  C  C14  1  0.91338600  0.36315800  0.95242500  1
  C  C15  1  0.63684200  0.08661400  0.54757500  1
  C  C16  1  0.08661400  0.63684200  0.04757500  1
  C  C17  1  0.36315800  0.91338600  0.45242500  1
  C  C18  1  0.77148500  0.51042400  0.01478200  1
  C  C19  1  0.48957600  0.22851500  0.48521800  1
  C  C20  1  0.22851500  0.48957600  0.98521800  1
  C  C21  1  0.51042400  0.77148500  0.51478200  1
  C  C22  1  0.96860300  0.14943400  0.61599900  1
  C  C23  1  0.85056600  0.03139700  0.88400100  1
  C  C24  1  0.03139700  0.85056600  0.38400100  1
  C  C25  1  0.14943400  0.96860300  0.11599900  1
  C  C26  1  0.70134000  0.49556700  0.30998000  1
  C  C27  1  0.50443300  0.29866000  0.19002000  1
  C  C28  1  0.29866000  0.50443300  0.69002000  1
  C  C29  1  0.49556700  0.70134000  0.80998000  1
  C  C30  1  0.97257300  0.17113900  0.30256900  1
  C  C31  1  0.82886100  0.02742700  0.19743100  1
  C  C32  1  0.02742700  0.82886100  0.69743100  1
  C  C33  1  0.17113900  0.97257300  0.80256900  1
  C  C34  1  0.79866800  0.39014800  0.01384700  1
  C  C35  1  0.60985200  0.20133200  0.48615300  1
  C  C36  1  0.20133200  0.60985200  0.98615300  1
  C  C37  1  0.39014800  0.79866800  0.51384700  1
  C  C38  1  0.29700300  0.11607500  0.33848600  1
  C  C39  1  0.88392500  0.70299700  0.16151400  1
  C  C40  1  0.70299700  0.88392500  0.66151400  1
  C  C41  1  0.11607500  0.29700300  0.83848600  1
  C  C42  1  0.23229700  0.32377400  0.54062700  1
  C  C43  1  0.67622600  0.76770300  0.95937300  1
  C  C44  1  0.76770300  0.67622600  0.45937300  1
  C  C45  1  0.32377400  0.23229700  0.04062700  1
  C  C46  1  0.00880500  0.46388900  0.33819900  1
  C  C47  1  0.53611100  0.99119500  0.16180100  1
  C  C48  1  0.99119500  0.53611100  0.66180100  1
  C  C49  1  0.46388900  0.00880500  0.83819900  1
