# generated using pymatgen
data_Cu4Ni11
_symmetry_space_group_name_H-M   'P 1'
_cell_length_a   3.49226100
_cell_length_b   3.60841900
_cell_length_c   7.35138400
_cell_angle_alpha   90.00000000
_cell_angle_beta   90.00000000
_cell_angle_gamma   90.00000000
_symmetry_Int_Tables_number   1
_chemical_formula_structural   Cu4Ni11
_chemical_formula_sum   'Cu4 Ni11'
_cell_volume   92.63876648
_cell_formula_units_Z   1
loop_
 _symmetry_equiv_pos_site_id
 _symmetry_equiv_pos_as_xyz
  1  'x, y, z'
loop_
 _atom_site_type_symbol
 _atom_site_label
 _atom_site_symmetry_multiplicity
 _atom_site_fract_x
 _atom_site_fract_y
 _atom_site_fract_z
 _atom_site_occupancy
  Ni  Ni0  1  0.50000000  0.50000000  0.74485500  1
  Ni  Ni1  1  0.50000000  0.50000000  0.25514500  1
  Ni  Ni2  1  0.00000000  0.50000000  0.50000000  1
  Ni  Ni3  1  0.00000000  0.00000000  0.72156200  1
  Ni  Ni4  1  0.00000000  0.00000000  0.27843800  1
  Ni  Ni5  1  0.76851900  0.23562900  0.86070300  1
  Ni  Ni6  1  0.23148100  0.76437100  0.86070300  1
  Ni  Ni7  1  0.76851900  0.76437100  0.13929700  1
  Ni  Ni8  1  0.23148100  0.23562900  0.13929700  1
  Ni  Ni9  1  0.00000000  0.50000000  0.00000000  1
  Ni  Ni10  1  0.00000000  0.00000000  0.00000000  1
  Cu  Cu11  1  0.24460000  0.26722200  0.61906200  1
  Cu  Cu12  1  0.75540000  0.73277800  0.61906200  1
  Cu  Cu13  1  0.24460000  0.73277800  0.38093800  1
  Cu  Cu14  1  0.75540000  0.26722200  0.38093800  1
