# generated using pymatgen
data_Cu4Ni8C13
_symmetry_space_group_name_H-M   'P 1'
_cell_length_a   8.13386400
_cell_length_b   10.05654558
_cell_length_c   10.31828641
_cell_angle_alpha   103.95130140
_cell_angle_beta   98.79021368
_cell_angle_gamma   100.51083646
_symmetry_Int_Tables_number   1
_chemical_formula_structural   Cu4Ni8C13
_chemical_formula_sum   'Cu8 Ni16 C26'
_cell_volume   788.06417272
_cell_formula_units_Z   2
loop_
 _symmetry_equiv_pos_site_id
 _symmetry_equiv_pos_as_xyz
  1  'x, y, z'
loop_
 _atom_site_type_symbol
 _atom_site_label
 _atom_site_symmetry_multiplicity
 _atom_site_fract_x
 _atom_site_fract_y
 _atom_site_fract_z
 _atom_site_occupancy
  C  C0  1  0.36893600  0.40238200  0.52718500  1
  C  C1  1  0.63106400  0.59761800  0.47281500  1
  Ni  Ni2  1  0.08370400  0.13908100  0.36683500  1
  Ni  Ni3  1  0.91629600  0.86091900  0.63316500  1
  Ni  Ni4  1  0.23401800  0.09353900  0.34972800  1
  Ni  Ni5  1  0.76598200  0.90646100  0.65027200  1
  Ni  Ni6  1  0.90245800  0.05071100  0.30263100  1
  Ni  Ni7  1  0.09754200  0.94928900  0.69736900  1
  Ni  Ni8  1  0.24073200  0.94595700  0.26870300  1
  Ni  Ni9  1  0.75926800  0.05404300  0.73129700  1
  Ni  Ni10  1  0.63351400  0.57063800  0.79445000  1
  Ni  Ni11  1  0.36648600  0.42936200  0.20555000  1
  Ni  Ni12  1  0.48349300  0.61298600  0.81586900  1
  Ni  Ni13  1  0.51650700  0.38701400  0.18413100  1
  Ni  Ni14  1  0.80515100  0.61878400  0.89483400  1
  Ni  Ni15  1  0.19484900  0.38121600  0.10516600  1
  Ni  Ni16  1  0.46844700  0.71990000  0.94495600  1
  Ni  Ni17  1  0.53155300  0.28010000  0.05504400  1
  Cu  Cu18  1  0.09918700  0.30384300  0.46492600  1
  Cu  Cu19  1  0.90081300  0.69615700  0.53507400  1
  Cu  Cu20  1  0.42477200  0.20554600  0.42532100  1
  Cu  Cu21  1  0.57522800  0.79445400  0.57467900  1
  Cu  Cu22  1  0.63201000  0.46254300  0.63698600  1
  Cu  Cu23  1  0.36799000  0.53745700  0.36301400  1
  Cu  Cu24  1  0.30403600  0.55331900  0.69170500  1
  Cu  Cu25  1  0.69596400  0.44668100  0.30829500  1
  C  C26  1  0.86997700  0.02550000  0.16514600  1
  C  C27  1  0.13002300  0.97450000  0.83485400  1
  C  C28  1  0.87562100  0.92377900  0.33140300  1
  C  C29  1  0.12437900  0.07622100  0.66859700  1
  C  C30  1  0.78288800  0.11717300  0.34999900  1
  C  C31  1  0.21711200  0.88282700  0.65000100  1
  C  C32  1  0.15142200  0.91294700  0.13887800  1
  C  C33  1  0.84857800  0.08705300  0.86112200  1
  C  C34  1  0.17527400  0.84538800  0.32718400  1
  C  C35  1  0.82472600  0.15461200  0.67281600  1
  C  C36  1  0.40397400  0.93537900  0.26240600  1
  C  C37  1  0.59602600  0.06462100  0.73759400  1
  C  C38  1  0.92139200  0.54835400  0.84674600  1
  C  C39  1  0.07860800  0.45164600  0.15325400  1
  C  C40  1  0.79556000  0.59834500  0.01922800  1
  C  C41  1  0.20444000  0.40165500  0.98077200  1
  C  C42  1  0.87252600  0.75872100  0.91498700  1
  C  C43  1  0.12747400  0.24127900  0.08501300  1
  C  C44  1  0.51625600  0.68107500  0.06008900  1
  C  C45  1  0.48374400  0.31892500  0.93991100  1
  C  C46  1  0.56857200  0.84898500  0.95908600  1
  C  C47  1  0.43142800  0.15101500  0.04091400  1
  C  C48  1  0.30556100  0.73534300  0.94058300  1
  C  C49  1  0.69443900  0.26465700  0.05941700  1
