# generated using pymatgen
data_Cu2NiC4
_symmetry_space_group_name_H-M   'P 1'
_cell_length_a   2.93722900
_cell_length_b   8.94315700
_cell_length_c   10.52144800
_cell_angle_alpha   90.00000000
_cell_angle_beta   90.00000000
_cell_angle_gamma   90.00000000
_symmetry_Int_Tables_number   1
_chemical_formula_structural   Cu2NiC4
_chemical_formula_sum   'Cu8 Ni4 C16'
_cell_volume   276.37844918
_cell_formula_units_Z   4
loop_
 _symmetry_equiv_pos_site_id
 _symmetry_equiv_pos_as_xyz
  1  'x, y, z'
loop_
 _atom_site_type_symbol
 _atom_site_label
 _atom_site_symmetry_multiplicity
 _atom_site_fract_x
 _atom_site_fract_y
 _atom_site_fract_z
 _atom_site_occupancy
  Ni  Ni0  1  0.25000000  0.73788600  0.84443000  1
  Ni  Ni1  1  0.75000000  0.26211400  0.15557000  1
  Ni  Ni2  1  0.25000000  0.23788600  0.65557000  1
  Ni  Ni3  1  0.75000000  0.76211400  0.34443000  1
  Cu  Cu4  1  0.75000000  0.91313100  0.60120800  1
  Cu  Cu5  1  0.25000000  0.58686900  0.10120800  1
  Cu  Cu6  1  0.75000000  0.41313100  0.89879200  1
  Cu  Cu7  1  0.25000000  0.08686900  0.39879200  1
  Cu  Cu8  1  0.25000000  0.05908500  0.88270200  1
  Cu  Cu9  1  0.75000000  0.94091500  0.11729800  1
  Cu  Cu10  1  0.25000000  0.55908500  0.61729800  1
  Cu  Cu11  1  0.75000000  0.44091500  0.38270200  1
  C  C12  1  0.75000000  0.40946300  0.57496700  1
  C  C13  1  0.25000000  0.59053700  0.42503300  1
  C  C14  1  0.75000000  0.90946300  0.92503300  1
  C  C15  1  0.25000000  0.09053700  0.07496700  1
  C  C16  1  0.75000000  0.52906100  0.21289300  1
  C  C17  1  0.25000000  0.47093900  0.78710700  1
  C  C18  1  0.75000000  0.02906100  0.28710700  1
  C  C19  1  0.25000000  0.97093900  0.71289300  1
  C  C20  1  0.75000000  0.12462500  0.53277400  1
  C  C21  1  0.25000000  0.87537500  0.46722600  1
  C  C22  1  0.75000000  0.62462500  0.96722600  1
  C  C23  1  0.25000000  0.37537500  0.03277400  1
  C  C24  1  0.25000000  0.29607300  0.32118200  1
  C  C25  1  0.75000000  0.70392700  0.67881800  1
  C  C26  1  0.75000000  0.20392700  0.82118200  1
  C  C27  1  0.25000000  0.79607300  0.17881800  1
