# generated using pymatgen
data_CuNiC4
_symmetry_space_group_name_H-M   'P 1'
_cell_length_a   3.30636828
_cell_length_b   3.30636828
_cell_length_c   37.71000000
_cell_angle_alpha   90.00000000
_cell_angle_beta   90.00000000
_cell_angle_gamma   120.00000551
_symmetry_Int_Tables_number   1
_chemical_formula_structural   CuNiC4
_chemical_formula_sum   'Cu2 Ni2 C8'
_cell_volume   357.01757060
_cell_formula_units_Z   2
loop_
 _symmetry_equiv_pos_site_id
 _symmetry_equiv_pos_as_xyz
  1  'x, y, z'
loop_
 _atom_site_type_symbol
 _atom_site_label
 _atom_site_symmetry_multiplicity
 _atom_site_fract_x
 _atom_site_fract_y
 _atom_site_fract_z
 _atom_site_occupancy
  Ni  Ni0  1  0.33333300  0.66666700  0.70859500  1
  Ni  Ni1  1  0.33333300  0.66666700  0.60658900  1
  C  C2  1  0.33333300  0.66666700  0.09392800  1
  C  C3  1  0.33333300  0.66666700  0.46958600  1
  C  C4  1  0.66666700  0.33333300  0.28180000  1
  C  C5  1  0.66666700  0.33333300  0.65760000  1
  Cu  Cu6  1  0.66666700  0.33333300  0.42482500  1
  Cu  Cu7  1  0.66666700  0.33333300  0.51438300  1
  C  C8  1  0.33333300  0.66666700  0.32247700  1
  C  C9  1  0.66666700  0.33333300  0.05324000  1
  C  C10  1  0.66666700  0.33333300  0.13460500  1
  C  C11  1  0.33333300  0.66666700  0.24112000  1
