# generated using pymatgen
data_CuNiC6
_symmetry_space_group_name_H-M   'P 1'
_cell_length_a   5.75920900
_cell_length_b   7.39335500
_cell_length_c   8.55636700
_cell_angle_alpha   90.00000000
_cell_angle_beta   90.00000000
_cell_angle_gamma   90.00000000
_symmetry_Int_Tables_number   1
_chemical_formula_structural   CuNiC6
_chemical_formula_sum   'Cu4 Ni4 C24'
_cell_volume   364.32905149
_cell_formula_units_Z   4
loop_
 _symmetry_equiv_pos_site_id
 _symmetry_equiv_pos_as_xyz
  1  'x, y, z'
loop_
 _atom_site_type_symbol
 _atom_site_label
 _atom_site_symmetry_multiplicity
 _atom_site_fract_x
 _atom_site_fract_y
 _atom_site_fract_z
 _atom_site_occupancy
  C  C0  1  0.50000000  0.36649700  0.33161600  1
  C  C1  1  0.50000000  0.63350300  0.66838400  1
  C  C2  1  0.50000000  0.13350300  0.83161600  1
  C  C3  1  0.50000000  0.86649700  0.16838400  1
  Ni  Ni4  1  0.24861300  0.00000000  0.50000000  1
  Ni  Ni5  1  0.75138700  0.00000000  0.50000000  1
  Ni  Ni6  1  0.75138700  0.50000000  0.00000000  1
  Ni  Ni7  1  0.24861300  0.50000000  0.00000000  1
  Cu  Cu8  1  0.00000000  0.10956300  0.14608200  1
  Cu  Cu9  1  0.00000000  0.89043700  0.85391800  1
  Cu  Cu10  1  0.00000000  0.39043700  0.64608200  1
  Cu  Cu11  1  0.00000000  0.60956300  0.35391800  1
  C  C12  1  0.50000000  0.33992200  0.05821300  1
  C  C13  1  0.50000000  0.66007800  0.94178700  1
  C  C14  1  0.50000000  0.16007800  0.55821300  1
  C  C15  1  0.50000000  0.83992200  0.44178700  1
  C  C16  1  0.22832300  0.00000000  0.00000000  1
  C  C17  1  0.77167700  0.00000000  0.00000000  1
  C  C18  1  0.77167700  0.50000000  0.50000000  1
  C  C19  1  0.22832300  0.50000000  0.50000000  1
  C  C20  1  0.25824700  0.10803600  0.29384300  1
  C  C21  1  0.74175300  0.89196400  0.70615700  1
  C  C22  1  0.25824700  0.89196400  0.70615700  1
  C  C23  1  0.74175300  0.39196400  0.79384300  1
  C  C24  1  0.74175300  0.10803600  0.29384300  1
  C  C25  1  0.25824700  0.60803600  0.20615700  1
  C  C26  1  0.74175300  0.60803600  0.20615700  1
  C  C27  1  0.25824700  0.39196400  0.79384300  1
  C  C28  1  0.00000000  0.35047500  0.07198400  1
  C  C29  1  0.00000000  0.64952500  0.92801600  1
  C  C30  1  0.00000000  0.14952500  0.57198400  1
  C  C31  1  0.00000000  0.85047500  0.42801600  1
