# generated using pymatgen
data_CuNiC11
_symmetry_space_group_name_H-M   'P 1'
_cell_length_a   6.56649794
_cell_length_b   6.56649794
_cell_length_c   10.63045200
_cell_angle_alpha   90.00000000
_cell_angle_beta   90.00000000
_cell_angle_gamma   120.86020663
_symmetry_Int_Tables_number   1
_chemical_formula_structural   CuNiC11
_chemical_formula_sum   'Cu2 Ni2 C22'
_cell_volume   393.47747360
_cell_formula_units_Z   2
loop_
 _symmetry_equiv_pos_site_id
 _symmetry_equiv_pos_as_xyz
  1  'x, y, z'
loop_
 _atom_site_type_symbol
 _atom_site_label
 _atom_site_symmetry_multiplicity
 _atom_site_fract_x
 _atom_site_fract_y
 _atom_site_fract_z
 _atom_site_occupancy
  Ni  Ni0  1  0.69320000  0.30680000  0.97971100  1
  Ni  Ni1  1  0.30680000  0.69320000  0.47971100  1
  Cu  Cu2  1  0.66066900  0.33933100  0.37305300  1
  Cu  Cu3  1  0.33933100  0.66066900  0.87305300  1
  C  C4  1  0.16670100  0.83329900  0.17949200  1
  C  C5  1  0.17548900  0.34684500  0.18619600  1
  C  C6  1  0.65315500  0.82451100  0.18619600  1
  C  C7  1  0.83329900  0.16670100  0.67949200  1
  C  C8  1  0.82451100  0.65315500  0.68619600  1
  C  C9  1  0.34684500  0.17548900  0.68619600  1
  C  C10  1  0.99468500  0.00531500  0.94040500  1
  C  C11  1  0.00531500  0.99468500  0.44040500  1
  C  C12  1  0.47874600  0.52125400  0.28320900  1
  C  C13  1  0.48166700  0.99802800  0.24544300  1
  C  C14  1  0.00197200  0.51833300  0.24544300  1
  C  C15  1  0.52125400  0.47874600  0.78320900  1
  C  C16  1  0.51833300  0.00197200  0.74544300  1
  C  C17  1  0.99802800  0.48166700  0.74544300  1
  C  C18  1  0.16478200  0.83521800  0.00043500  1
  C  C19  1  0.13220800  0.33945600  0.00080200  1
  C  C20  1  0.66054400  0.86779200  0.00080200  1
  C  C21  1  0.83521800  0.16478200  0.50043500  1
  C  C22  1  0.86779200  0.66054400  0.50080200  1
  C  C23  1  0.33945600  0.13220800  0.50080200  1
  C  C24  1  0.99232900  0.00767100  0.74201300  1
  C  C25  1  0.00767100  0.99232900  0.24201300  1
