# generated using pymatgen
data_Cu5(NiC)2
_symmetry_space_group_name_H-M   'P 1'
_cell_length_a   3.96887600
_cell_length_b   11.52423800
_cell_length_c   20.60156400
_cell_angle_alpha   90.00000000
_cell_angle_beta   90.00000000
_cell_angle_gamma   90.00000000
_symmetry_Int_Tables_number   1
_chemical_formula_structural   Cu5(NiC)2
_chemical_formula_sum   'Cu20 Ni8 C8'
_cell_volume   942.27992996
_cell_formula_units_Z   4
loop_
 _symmetry_equiv_pos_site_id
 _symmetry_equiv_pos_as_xyz
  1  'x, y, z'
loop_
 _atom_site_type_symbol
 _atom_site_label
 _atom_site_symmetry_multiplicity
 _atom_site_fract_x
 _atom_site_fract_y
 _atom_site_fract_z
 _atom_site_occupancy
  C  C0  1  0.25000000  0.16322100  0.20040600  1
  C  C1  1  0.75000000  0.83677900  0.79959400  1
  C  C2  1  0.75000000  0.66322100  0.29959400  1
  C  C3  1  0.25000000  0.33677900  0.70040600  1
  C  C4  1  0.25000000  0.49671000  0.08873400  1
  C  C5  1  0.75000000  0.50329000  0.91126600  1
  C  C6  1  0.75000000  0.99671000  0.41126600  1
  C  C7  1  0.25000000  0.00329000  0.58873400  1
  Ni  Ni8  1  0.25000000  0.37563900  0.36824800  1
  Ni  Ni9  1  0.75000000  0.62436100  0.63175200  1
  Ni  Ni10  1  0.75000000  0.87563900  0.13175200  1
  Ni  Ni11  1  0.25000000  0.12436100  0.86824800  1
  Ni  Ni12  1  0.25000000  0.70914500  0.47002600  1
  Ni  Ni13  1  0.75000000  0.29085500  0.52997400  1
  Ni  Ni14  1  0.75000000  0.20914500  0.02997400  1
  Ni  Ni15  1  0.25000000  0.79085500  0.97002600  1
  Cu  Cu16  1  0.25000000  0.42490700  0.57791500  1
  Cu  Cu17  1  0.75000000  0.57509300  0.42208500  1
  Cu  Cu18  1  0.75000000  0.92490700  0.92208500  1
  Cu  Cu19  1  0.25000000  0.07509300  0.07791500  1
  Cu  Cu20  1  0.25000000  0.36910700  0.98046700  1
  Cu  Cu21  1  0.75000000  0.63089300  0.01953300  1
  Cu  Cu22  1  0.75000000  0.86910700  0.51953300  1
  Cu  Cu23  1  0.25000000  0.13089300  0.48046700  1
  Cu  Cu24  1  0.25000000  0.74674800  0.67172000  1
  Cu  Cu25  1  0.75000000  0.25325200  0.32828000  1
  Cu  Cu26  1  0.75000000  0.24674800  0.82828000  1
  Cu  Cu27  1  0.25000000  0.75325200  0.17172000  1
  Cu  Cu28  1  0.25000000  0.82446100  0.37059900  1
  Cu  Cu29  1  0.75000000  0.17553900  0.62940100  1
  Cu  Cu30  1  0.75000000  0.32446100  0.12940100  1
  Cu  Cu31  1  0.25000000  0.67553900  0.87059900  1
  Cu  Cu32  1  0.25000000  0.50334900  0.27287600  1
  Cu  Cu33  1  0.75000000  0.49665100  0.72712400  1
  Cu  Cu34  1  0.75000000  0.00334900  0.22712400  1
  Cu  Cu35  1  0.25000000  0.99665100  0.77287600  1
