# generated using pymatgen
data_Cu(NiC6)2
_symmetry_space_group_name_H-M   'P 1'
_cell_length_a   5.43580100
_cell_length_b   7.73036300
_cell_length_c   16.36513900
_cell_angle_alpha   90.00000000
_cell_angle_beta   90.00000000
_cell_angle_gamma   90.00000000
_symmetry_Int_Tables_number   1
_chemical_formula_structural   Cu(NiC6)2
_chemical_formula_sum   'Cu4 Ni8 C48'
_cell_volume   687.67484064
_cell_formula_units_Z   4
loop_
 _symmetry_equiv_pos_site_id
 _symmetry_equiv_pos_as_xyz
  1  'x, y, z'
loop_
 _atom_site_type_symbol
 _atom_site_label
 _atom_site_symmetry_multiplicity
 _atom_site_fract_x
 _atom_site_fract_y
 _atom_site_fract_z
 _atom_site_occupancy
  Ni  Ni0  1  0.51082900  0.75000000  0.51350700  1
  Ni  Ni1  1  0.50503700  0.75000000  0.17789200  1
  Ni  Ni2  1  0.99496300  0.75000000  0.67789200  1
  Ni  Ni3  1  0.98917100  0.75000000  0.01350700  1
  Ni  Ni4  1  0.49496300  0.25000000  0.82210800  1
  Ni  Ni5  1  0.48917100  0.25000000  0.48649300  1
  Ni  Ni6  1  0.01082900  0.25000000  0.98649300  1
  Ni  Ni7  1  0.00503700  0.25000000  0.32210800  1
  Cu  Cu8  1  0.50425700  0.75000000  0.84071900  1
  Cu  Cu9  1  0.99574300  0.75000000  0.34071900  1
  Cu  Cu10  1  0.49574300  0.25000000  0.15928100  1
  Cu  Cu11  1  0.00425700  0.25000000  0.65928100  1
  C  C12  1  0.00076500  0.00118800  0.83519500  1
  C  C13  1  0.00000000  0.00000000  0.50000000  1
  C  C14  1  0.99923500  0.99881200  0.16480500  1
  C  C15  1  0.50000000  0.50000000  0.00000000  1
  C  C16  1  0.50076500  0.50118800  0.66480500  1
  C  C17  1  0.49923500  0.49881200  0.33519500  1
  C  C18  1  0.00076500  0.49881200  0.83519500  1
  C  C19  1  0.00000000  0.50000000  0.50000000  1
  C  C20  1  0.99923500  0.50118800  0.16480500  1
  C  C21  1  0.50000000  0.00000000  0.00000000  1
  C  C22  1  0.50076500  0.99881200  0.66480500  1
  C  C23  1  0.49923500  0.00118800  0.33519500  1
  C  C24  1  0.41798800  0.75000000  0.99363500  1
  C  C25  1  0.42713100  0.75000000  0.66356200  1
  C  C26  1  0.43775400  0.75000000  0.32827600  1
  C  C27  1  0.06224600  0.75000000  0.82827600  1
  C  C28  1  0.08201200  0.75000000  0.49363500  1
  C  C29  1  0.07286900  0.75000000  0.16356200  1
  C  C30  1  0.56224600  0.25000000  0.67172400  1
  C  C31  1  0.57286900  0.25000000  0.33643800  1
  C  C32  1  0.58201200  0.25000000  0.00636500  1
  C  C33  1  0.92713100  0.25000000  0.83643800  1
  C  C34  1  0.91798800  0.25000000  0.50636500  1
  C  C35  1  0.93775400  0.25000000  0.17172400  1
  C  C36  1  0.78471200  0.95621900  0.92857500  1
  C  C37  1  0.79175000  0.96050600  0.59592600  1
  C  C38  1  0.77704800  0.96738900  0.25988200  1
  C  C39  1  0.72295200  0.53261100  0.75988200  1
  C  C40  1  0.71528800  0.54378100  0.42857500  1
  C  C41  1  0.70825000  0.53949400  0.09592600  1
  C  C42  1  0.22295200  0.46738900  0.74011800  1
  C  C43  1  0.20825000  0.46050600  0.40407400  1
  C  C44  1  0.21528800  0.45621900  0.07142500  1
  C  C45  1  0.29175000  0.03949400  0.90407400  1
  C  C46  1  0.28471200  0.04378100  0.57142500  1
  C  C47  1  0.27704800  0.03261100  0.24011800  1
  C  C48  1  0.22295200  0.03261100  0.74011800  1
  C  C49  1  0.20825000  0.03949400  0.40407400  1
  C  C50  1  0.21528800  0.04378100  0.07142500  1
  C  C51  1  0.29175000  0.46050600  0.90407400  1
  C  C52  1  0.28471200  0.45621900  0.57142500  1
  C  C53  1  0.27704800  0.46738900  0.24011800  1
  C  C54  1  0.78471200  0.54378100  0.92857500  1
  C  C55  1  0.79175000  0.53949400  0.59592600  1
  C  C56  1  0.77704800  0.53261100  0.25988200  1
  C  C57  1  0.72295200  0.96738900  0.75988200  1
  C  C58  1  0.71528800  0.95621900  0.42857500  1
  C  C59  1  0.70825000  0.96050600  0.09592600  1
