# generated using pymatgen
data_CuNiC29
_symmetry_space_group_name_H-M   'P 1'
_cell_length_a   4.20504300
_cell_length_b   8.38365300
_cell_length_c   10.38118700
_cell_angle_alpha   90.00000000
_cell_angle_beta   90.00000000
_cell_angle_gamma   90.00000000
_symmetry_Int_Tables_number   1
_chemical_formula_structural   CuNiC29
_chemical_formula_sum   'Cu1 Ni1 C29'
_cell_volume   365.97443579
_cell_formula_units_Z   1
loop_
 _symmetry_equiv_pos_site_id
 _symmetry_equiv_pos_as_xyz
  1  'x, y, z'
loop_
 _atom_site_type_symbol
 _atom_site_label
 _atom_site_symmetry_multiplicity
 _atom_site_fract_x
 _atom_site_fract_y
 _atom_site_fract_z
 _atom_site_occupancy
  Ni  Ni0  1  0.00000000  0.50000000  0.05313400  1
  Cu  Cu1  1  0.00000000  0.00000000  0.03597600  1
  C  C2  1  0.00000000  0.00000000  0.47674200  1
  C  C3  1  0.00000000  0.50000000  0.51330400  1
  C  C4  1  0.50000000  0.74611400  0.94090300  1
  C  C5  1  0.50000000  0.25388600  0.94090300  1
  C  C6  1  0.50000000  0.76345300  0.51763300  1
  C  C7  1  0.50000000  0.23654700  0.51763300  1
  C  C8  1  0.50000000  0.00000000  0.79708700  1
  C  C9  1  0.50000000  0.50000000  0.73012000  1
  C  C10  1  0.50000000  0.00000000  0.26786400  1
  C  C11  1  0.50000000  0.50000000  0.31719000  1
  C  C12  1  0.00000000  0.72986200  0.73436600  1
  C  C13  1  0.00000000  0.27013800  0.73436600  1
  C  C14  1  0.00000000  0.74688900  0.30321400  1
  C  C15  1  0.00000000  0.25311100  0.30321400  1
  C  C16  1  0.00000000  0.50000000  0.70385500  1
  C  C17  1  0.00000000  0.00000000  0.27533700  1
  C  C18  1  0.00000000  0.50000000  0.31546100  1
  C  C19  1  0.50000000  0.77920200  0.72173600  1
  C  C20  1  0.50000000  0.22079800  0.72173600  1
  C  C21  1  0.50000000  0.74256100  0.28365100  1
  C  C22  1  0.50000000  0.25743900  0.28365100  1
  C  C23  1  0.50000000  0.00000000  0.98604600  1
  C  C24  1  0.50000000  0.50000000  0.92013500  1
  C  C25  1  0.50000000  0.00000000  0.47858600  1
  C  C26  1  0.50000000  0.50000000  0.51654400  1
  C  C27  1  0.00000000  0.77464600  0.91783500  1
  C  C28  1  0.00000000  0.22535400  0.91783500  1
  C  C29  1  0.00000000  0.76183400  0.51197200  1
  C  C30  1  0.00000000  0.23816600  0.51197200  1
