# generated using pymatgen
data_Cu13Ni4C47
_symmetry_space_group_name_H-M   'P 1'
_cell_length_a   12.95729981
_cell_length_b   16.68643552
_cell_length_c   16.66397594
_cell_angle_alpha   90.00000000
_cell_angle_beta   90.00000000
_cell_angle_gamma   90.26577390
_symmetry_Int_Tables_number   1
_chemical_formula_structural   Cu13Ni4C47
_chemical_formula_sum   'Cu52 Ni16 C188'
_cell_volume   3602.89860222
_cell_formula_units_Z   4
loop_
 _symmetry_equiv_pos_site_id
 _symmetry_equiv_pos_as_xyz
  1  'x, y, z'
loop_
 _atom_site_type_symbol
 _atom_site_label
 _atom_site_symmetry_multiplicity
 _atom_site_fract_x
 _atom_site_fract_y
 _atom_site_fract_z
 _atom_site_occupancy
  C  C0  1  0.75623341  0.42494328  0.75119493  1
  C  C1  1  0.24376659  0.07505672  0.25119493  1
  C  C2  1  0.24376659  0.57505672  0.24880507  1
  C  C3  1  0.75623341  0.92494328  0.74880507  1
  Ni  Ni4  1  0.75208680  0.62960887  0.73688276  1
  Ni  Ni5  1  0.24791320  0.87039113  0.23688276  1
  Ni  Ni6  1  0.24791320  0.37039113  0.26311724  1
  Ni  Ni7  1  0.75208680  0.12960887  0.76311724  1
  Ni  Ni8  1  0.81344275  0.39884989  0.94308524  1
  Ni  Ni9  1  0.18655725  0.10115011  0.44308524  1
  Ni  Ni10  1  0.18655725  0.60115011  0.05691476  1
  Ni  Ni11  1  0.81344275  0.89884989  0.55691476  1
  Ni  Ni12  1  0.56344442  0.38228174  0.62947308  1
  Ni  Ni13  1  0.43655558  0.11771826  0.12947308  1
  Ni  Ni14  1  0.43655558  0.61771826  0.37052692  1
  Ni  Ni15  1  0.56344442  0.88228174  0.87052692  1
  Ni  Ni16  1  0.98097196  0.39375010  0.65671307  1
  Ni  Ni17  1  0.01902804  0.10624990  0.15671307  1
  Ni  Ni18  1  0.01902804  0.60624990  0.34328693  1
  Ni  Ni19  1  0.98097196  0.89375010  0.84328693  1
  C  C20  1  0.69374166  0.64489530  0.87282329  1
  C  C21  1  0.30625834  0.85510470  0.37282329  1
  C  C22  1  0.30625834  0.35510470  0.12717671  1
  C  C23  1  0.69374166  0.14489530  0.62717671  1
  C  C24  1  0.83240424  0.65066398  0.86328615  1
  C  C25  1  0.16759576  0.84933602  0.36328615  1
  C  C26  1  0.16759576  0.34933602  0.13671385  1
  C  C27  1  0.83240424  0.15066398  0.63671385  1
  C  C28  1  0.75371375  0.73493299  0.83513540  1
  C  C29  1  0.24628625  0.76506701  0.33513540  1
  C  C30  1  0.24628625  0.26506701  0.16486460  1
  C  C31  1  0.75371375  0.23493299  0.66486460  1
  C  C32  1  0.85561360  0.65175053  0.62074734  1
  C  C33  1  0.14438640  0.84824947  0.12074734  1
  C  C34  1  0.14438640  0.34824947  0.37925266  1
  C  C35  1  0.85561360  0.15175053  0.87925266  1
  C  C36  1  0.85090711  0.73809804  0.68612972  1
  C  C37  1  0.14909289  0.76190196  0.18612972  1
  C  C38  1  0.14909289  0.26190196  0.31387028  1
  C  C39  1  0.85090711  0.23809804  0.81387028  1
  C  C40  1  0.93095747  0.65465932  0.71327672  1
  C  C41  1  0.06904253  0.84534068  0.21327672  1
  C  C42  1  0.06904253  0.34534068  0.28672328  1
  C  C43  1  0.93095747  0.15465932  0.78672328  1
  C  C44  1  0.56845359  0.64573379  0.71996858  1
  C  C45  1  0.43154641  0.85426621  0.21996858  1
  C  C46  1  0.43154641  0.35426621  0.28003142  1
  C  C47  1  0.56845359  0.14573379  0.78003142  1
  C  C48  1  0.63953446  0.73500081  0.69521392  1
  C  C49  1  0.36046554  0.76499919  0.19521392  1
  C  C50  1  0.36046554  0.26499919  0.30478608  1
  C  C51  1  0.63953446  0.23500081  0.80478608  1
  C  C52  1  0.63842724  0.65132050  0.62673550  1
  C  C53  1  0.36157276  0.84867950  0.12673550  1
  C  C54  1  0.36157276  0.34867950  0.37326450  1
  C  C55  1  0.63842724  0.15132050  0.87326450  1
  C  C56  1  0.76396000  0.26578539  0.98796747  1
  C  C57  1  0.23604000  0.23421461  0.48796747  1
  C  C58  1  0.23604000  0.73421461  0.01203253  1
  C  C59  1  0.76396000  0.76578539  0.51203253  1
  C  C60  1  0.80639281  0.33097629  0.06784749  1
  C  C61  1  0.19360719  0.16902371  0.56784749  1
  C  C62  1  0.19360719  0.66902371  0.93215251  1
  C  C63  1  0.80639281  0.83097629  0.43215251  1
  C  C64  1  0.67973711  0.34189492  0.02542534  1
  C  C65  1  0.32026289  0.15810508  0.52542534  1
  C  C66  1  0.32026289  0.65810508  0.97457466  1
  C  C67  1  0.67973711  0.84189492  0.47457466  1
  C  C68  1  0.96041966  0.31815832  0.90801457  1
  C  C69  1  0.03958034  0.18184168  0.40801457  1
  C  C70  1  0.03958034  0.68184168  0.09198543  1
  C  C71  1  0.96041966  0.81815832  0.59198543  1
  C  C72  1  0.98628738  0.42401971  0.89858113  1
  C  C73  1  0.01371262  0.07598029  0.39858113  1
  C  C74  1  0.01371262  0.57598029  0.10141887  1
  C  C75  1  0.98628738  0.92401971  0.60141887  1
  C  C76  1  0.98129842  0.37824509  0.99663221  1
  C  C77  1  0.01870158  0.12175491  0.49663221  1
  C  C78  1  0.01870158  0.62175491  0.00336779  1
  C  C79  1  0.98129842  0.87824509  0.50336779  1
  C  C80  1  0.84085139  0.54010257  0.95396457  1
  C  C81  1  0.15914861  0.95989743  0.45396457  1
  C  C82  1  0.15914861  0.45989743  0.04603543  1
  C  C83  1  0.84085139  0.04010257  0.54603543  1
  C  C84  1  0.72526880  0.50889699  0.00576284  1
  C  C85  1  0.27473120  0.99110301  0.50576284  1
  C  C86  1  0.27473120  0.49110301  0.99423716  1
  C  C87  1  0.72526880  0.00889699  0.49423716  1
  C  C88  1  0.85005544  0.48971968  0.04954145  1
  C  C89  1  0.14994456  0.01028032  0.54954145  1
  C  C90  1  0.14994456  0.51028032  0.95045855  1
  C  C91  1  0.85005544  0.98971968  0.45045855  1
  C  C92  1  0.56820870  0.52333885  0.60684792  1
  C  C93  1  0.43179130  0.97666115  0.10684792  1
  C  C94  1  0.43179130  0.47666115  0.39315208  1
  C  C95  1  0.56820870  0.02333885  0.89315208  1
  C  C96  1  0.45144970  0.47772260  0.56764461  1
  C  C97  1  0.54855030  0.02227740  0.06764461  1
  C  C98  1  0.54855030  0.52227740  0.43235539  1
  C  C99  1  0.45144970  0.97772260  0.93235539  1
  C  C100  1  0.46375156  0.49514194  0.67286574  1
  C  C101  1  0.53624844  0.00485806  0.17286574  1
  C  C102  1  0.53624844  0.50485806  0.32713426  1
  C  C103  1  0.46375156  0.99514194  0.82713426  1
  C  C104  1  0.48552605  0.25169553  0.64484172  1
  C  C105  1  0.51447395  0.24830447  0.14484172  1
  C  C106  1  0.51447395  0.74830447  0.35515828  1
  C  C107  1  0.48552605  0.75169553  0.85515828  1
  C  C108  1  0.41343895  0.32758293  0.69533664  1
  C  C109  1  0.58656105  0.17241707  0.19533664  1
  C  C110  1  0.58656105  0.67241707  0.30466336  1
  C  C111  1  0.41343895  0.82758293  0.80466336  1
  C  C112  1  0.40555369  0.32042443  0.58862179  1
  C  C113  1  0.59444631  0.17957557  0.08862179  1
  C  C114  1  0.59444631  0.67957557  0.41137821  1
  C  C115  1  0.40555369  0.82042443  0.91137821  1
  C  C116  1  0.65530595  0.29955538  0.53456557  1
  C  C117  1  0.34469405  0.20044462  0.03456557  1
  C  C118  1  0.34469405  0.70044462  0.46543443  1
  C  C119  1  0.65530595  0.79955538  0.96543443  1
  C  C120  1  0.56157436  0.36192733  0.48671997  1
  C  C121  1  0.43842564  0.13807267  0.98671997  1
  C  C122  1  0.43842564  0.63807267  0.51328003  1
  C  C123  1  0.56157436  0.86192733  0.01328003  1
  C  C124  1  0.68109076  0.40477768  0.52021129  1
  C  C125  1  0.31890924  0.09522232  0.02021129  1
  C  C126  1  0.31890924  0.59522232  0.47978871  1
  C  C127  1  0.68109076  0.90477768  0.97978871  1
  C  C128  1  0.92984133  0.50595979  0.57575968  1
  C  C129  1  0.07015867  0.99404021  0.07575968  1
  C  C130  1  0.07015867  0.49404021  0.42424032  1
  C  C131  1  0.92984133  0.00595979  0.92424032  1
  C  C132  1  0.99991419  0.53448998  0.66456053  1
  C  C133  1  0.00008581  0.96551002  0.16456053  1
  C  C134  1  0.00008581  0.46551002  0.33543947  1
  C  C135  1  0.99991419  0.03448998  0.83543947  1
  C  C136  1  0.06872926  0.49363004  0.57964990  1
  C  C137  1  0.93127074  0.00636996  0.07964990  1
  C  C138  1  0.93127074  0.50636996  0.42035010  1
  C  C139  1  0.06872926  0.99363004  0.92035010  1
  C  C140  1  0.92144178  0.32952014  0.53602156  1
  C  C141  1  0.07855822  0.17047986  0.03602156  1
  C  C142  1  0.07855822  0.67047986  0.46397844  1
  C  C143  1  0.92144178  0.82952014  0.96397844  1
  C  C144  1  0.05994243  0.33383959  0.54332684  1
  C  C145  1  0.94005757  0.16616041  0.04332684  1
  C  C146  1  0.94005757  0.66616041  0.45667316  1
  C  C147  1  0.05994243  0.83383959  0.95667316  1
  C  C148  1  0.98845386  0.26098226  0.60117747  1
  C  C149  1  0.01154614  0.23901774  0.10117747  1
  C  C150  1  0.01154614  0.73901774  0.39882253  1
  C  C151  1  0.98845386  0.76098226  0.89882253  1
  C  C152  1  0.09450610  0.41941119  0.76757973  1
  C  C153  1  0.90549390  0.08058881  0.26757973  1
  C  C154  1  0.90549390  0.58058881  0.23242027  1
  C  C155  1  0.09450610  0.91941119  0.73242027  1
  C  C156  1  0.09205736  0.31453671  0.74102362  1
  C  C157  1  0.90794264  0.18546329  0.24102362  1
  C  C158  1  0.90794264  0.68546329  0.25897638  1
  C  C159  1  0.09205736  0.81453671  0.75897638  1
  C  C160  1  0.16130203  0.38483528  0.67922267  1
  C  C161  1  0.83869797  0.11516472  0.17922267  1
  C  C162  1  0.83869797  0.61516472  0.32077733  1
  C  C163  1  0.16130203  0.88483528  0.82077733  1
  C  C164  1  0.24300521  0.56811831  0.63804590  1
  C  C165  1  0.75699479  0.93188169  0.13804590  1
  C  C166  1  0.75699479  0.43188169  0.36195410  1
  C  C167  1  0.24300521  0.06811831  0.86195410  1
  C  C168  1  0.16586232  0.59815353  0.72584514  1
  C  C169  1  0.83413768  0.90184647  0.22584514  1
  C  C170  1  0.83413768  0.40184647  0.27415486  1
  C  C171  1  0.16586232  0.09815353  0.77415486  1
  Cu  Cu172  1  0.22297068  0.61597808  0.68025833  1
  Cu  Cu173  1  0.77702932  0.88402192  0.18025833  1
  Cu  Cu174  1  0.77702932  0.38402192  0.31974167  1
  Cu  Cu175  1  0.22297068  0.11597808  0.81974167  1
  Cu  Cu176  1  0.75812543  0.66917841  0.83749870  1
  Cu  Cu177  1  0.24187457  0.83082159  0.33749870  1
  Cu  Cu178  1  0.24187457  0.33082159  0.16250130  1
  Cu  Cu179  1  0.75812543  0.16917841  0.66250130  1
  Cu  Cu180  1  0.85907837  0.67253947  0.68329165  1
  Cu  Cu181  1  0.14092163  0.82746053  0.18329165  1
  Cu  Cu182  1  0.14092163  0.32746053  0.31670835  1
  Cu  Cu183  1  0.85907837  0.17253947  0.81670835  1
  Cu  Cu184  1  0.63770194  0.66927533  0.69020976  1
  Cu  Cu185  1  0.36229806  0.83072467  0.19020976  1
  Cu  Cu186  1  0.36229806  0.33072467  0.30979024  1
  Cu  Cu187  1  0.63770194  0.16927533  0.80979024  1
  Cu  Cu188  1  0.76036364  0.32681807  0.01246461  1
  Cu  Cu189  1  0.23963636  0.17318193  0.51246461  1
  Cu  Cu190  1  0.23963636  0.67318193  0.98753539  1
  Cu  Cu191  1  0.76036364  0.82681807  0.48753539  1
  Cu  Cu192  1  0.94929983  0.37729537  0.93535545  1
  Cu  Cu193  1  0.05070017  0.12270463  0.43535545  1
  Cu  Cu194  1  0.05070017  0.62270463  0.06464455  1
  Cu  Cu195  1  0.94929983  0.87729537  0.56464455  1
  Cu  Cu196  1  0.80616546  0.49442516  0.99306353  1
  Cu  Cu197  1  0.19383454  0.00557484  0.49306353  1
  Cu  Cu198  1  0.19383454  0.50557484  0.00693647  1
  Cu  Cu199  1  0.80616546  0.99442516  0.50693647  1
  Cu  Cu200  1  0.50627508  0.47964629  0.61812837  1
  Cu  Cu201  1  0.49372492  0.02035371  0.11812837  1
  Cu  Cu202  1  0.49372492  0.52035371  0.38187163  1
  Cu  Cu203  1  0.50627508  0.97964629  0.88187163  1
  Cu  Cu204  1  0.45685770  0.31331596  0.64072194  1
  Cu  Cu205  1  0.54314230  0.18668404  0.14072194  1
  Cu  Cu206  1  0.54314230  0.68668404  0.35927806  1
  Cu  Cu207  1  0.45685770  0.81331596  0.85927806  1
  Cu  Cu208  1  0.62131427  0.35963109  0.53344415  1
  Cu  Cu209  1  0.37868573  0.14036891  0.03344415  1
  Cu  Cu210  1  0.37868573  0.64036891  0.46655585  1
  Cu  Cu211  1  0.62131427  0.85963109  0.96655585  1
  Cu  Cu212  1  0.99630564  0.49198086  0.61429729  1
  Cu  Cu213  1  0.00369436  0.00801914  0.11429729  1
  Cu  Cu214  1  0.00369436  0.50801914  0.38570271  1
  Cu  Cu215  1  0.99630564  0.99198086  0.88570271  1
  Cu  Cu216  1  0.98774512  0.32196546  0.57619030  1
  Cu  Cu217  1  0.01225488  0.17803454  0.07619030  1
  Cu  Cu218  1  0.01225488  0.67803454  0.42380970  1
  Cu  Cu219  1  0.98774512  0.82196546  0.92380970  1
  Cu  Cu220  1  0.09327077  0.37612525  0.71793041  1
  Cu  Cu221  1  0.90672923  0.12387475  0.21793041  1
  Cu  Cu222  1  0.90672923  0.62387475  0.28206959  1
  Cu  Cu223  1  0.09327077  0.87612525  0.78206959  1
  C  C224  1  0.75086854  0.53340562  0.73709702  1
  C  C225  1  0.24913146  0.96659438  0.23709702  1
  C  C226  1  0.24913146  0.46659438  0.26290298  1
  C  C227  1  0.75086854  0.03340562  0.76290298  1
  C  C228  1  0.75291408  0.39744259  0.85910684  1
  C  C229  1  0.24708592  0.10255741  0.35910684  1
  C  C230  1  0.24708592  0.60255741  0.14089316  1
  C  C231  1  0.75291408  0.89744259  0.64089316  1
  C  C232  1  0.64223515  0.37534396  0.70295984  1
  C  C233  1  0.35776485  0.12465604  0.20295984  1
  C  C234  1  0.35776485  0.62465604  0.29704016  1
  C  C235  1  0.64223515  0.87534396  0.79704016  1
  C  C236  1  0.87494571  0.38499978  0.70615610  1
  C  C237  1  0.12505429  0.11500022  0.20615610  1
  C  C238  1  0.12505429  0.61500022  0.29384390  1
  C  C239  1  0.87494571  0.88499978  0.79384390  1
  C  C240  1  0.25219955  0.42818489  0.51069913  1
  C  C241  1  0.74780045  0.07181511  0.01069913  1
  C  C242  1  0.74780045  0.57181511  0.48930087  1
  C  C243  1  0.25219955  0.92818489  0.98930087  1
  C  C244  1  0.03253131  0.58621867  0.83774822  1
  C  C245  1  0.96746869  0.91378133  0.33774822  1
  C  C246  1  0.96746869  0.41378133  0.16225178  1
  C  C247  1  0.03253131  0.08621867  0.66225178  1
  C  C248  1  0.33743113  0.64569654  0.73188308  1
  C  C249  1  0.66256887  0.85430346  0.23188308  1
  C  C250  1  0.66256887  0.35430346  0.26811692  1
  C  C251  1  0.33743113  0.14569654  0.76811692  1
  C  C252  1  0.16977649  0.69658894  0.62391976  1
  C  C253  1  0.83022351  0.80341106  0.12391976  1
  C  C254  1  0.83022351  0.30341106  0.37608024  1
  C  C255  1  0.16977649  0.19658894  0.87608024  1
