# generated using pymatgen
data_Cu4NiC3
_symmetry_space_group_name_H-M   'P 1'
_cell_length_a   6.45078497
_cell_length_b   6.45078497
_cell_length_c   13.04794264
_cell_angle_alpha   75.68838285
_cell_angle_beta   75.68838285
_cell_angle_gamma   60.00000031
_symmetry_Int_Tables_number   1
_chemical_formula_structural   Cu4NiC3
_chemical_formula_sum   'Cu8 Ni2 C6'
_cell_volume   450.65427563
_cell_formula_units_Z   2
loop_
 _symmetry_equiv_pos_site_id
 _symmetry_equiv_pos_as_xyz
  1  'x, y, z'
loop_
 _atom_site_type_symbol
 _atom_site_label
 _atom_site_symmetry_multiplicity
 _atom_site_fract_x
 _atom_site_fract_y
 _atom_site_fract_z
 _atom_site_occupancy
  C  C0  1  0.35493624  0.35493624  0.93519027  1
  C  C1  1  0.64506376  0.64506376  0.06480973  1
  C  C2  1  0.22639424  0.22639424  0.32081828  1
  C  C3  1  0.77360576  0.77360576  0.67918172  1
  C  C4  1  0.06065191  0.06065191  0.81804527  1
  C  C5  1  0.93934809  0.93934809  0.18195473  1
  Ni  Ni6  1  0.12182980  0.12182980  0.63450960  1
  Ni  Ni7  1  0.87817020  0.87817020  0.36549040  1
  Cu  Cu8  1  0.34946753  0.89251019  0.86551309  1
  Cu  Cu9  1  0.89251019  0.89251019  0.86551309  1
  Cu  Cu10  1  0.89251019  0.34946753  0.86551309  1
  Cu  Cu11  1  0.65053247  0.10748981  0.13448691  1
  Cu  Cu12  1  0.10748981  0.10748981  0.13448691  1
  Cu  Cu13  1  0.10748981  0.65053247  0.13448691  1
  Cu  Cu14  1  0.44842399  0.44842399  0.65472703  1
  Cu  Cu15  1  0.55157601  0.55157601  0.34527297  1
