# generated using pymatgen
data_Cu(NiC)3
_symmetry_space_group_name_H-M   'P 1'
_cell_length_a   4.10209100
_cell_length_b   12.69021400
_cell_length_c   13.24458000
_cell_angle_alpha   90.00000000
_cell_angle_beta   90.00000000
_cell_angle_gamma   90.00000000
_symmetry_Int_Tables_number   1
_chemical_formula_structural   Cu(NiC)3
_chemical_formula_sum   'Cu4 Ni12 C12'
_cell_volume   689.46532169
_cell_formula_units_Z   4
loop_
 _symmetry_equiv_pos_site_id
 _symmetry_equiv_pos_as_xyz
  1  'x, y, z'
loop_
 _atom_site_type_symbol
 _atom_site_label
 _atom_site_symmetry_multiplicity
 _atom_site_fract_x
 _atom_site_fract_y
 _atom_site_fract_z
 _atom_site_occupancy
  C  C0  1  0.75000000  0.42017300  0.12815200  1
  C  C1  1  0.75000000  0.92017300  0.37184800  1
  C  C2  1  0.25000000  0.57982700  0.87184800  1
  C  C3  1  0.25000000  0.07982700  0.62815200  1
  C  C4  1  0.75000000  0.77882000  0.13390300  1
  C  C5  1  0.75000000  0.27882000  0.36609700  1
  C  C6  1  0.25000000  0.22118000  0.86609700  1
  C  C7  1  0.25000000  0.72118000  0.63390300  1
  C  C8  1  0.75000000  0.96637500  0.84480900  1
  C  C9  1  0.75000000  0.46637500  0.65519100  1
  C  C10  1  0.25000000  0.03362500  0.15519100  1
  C  C11  1  0.25000000  0.53362500  0.34480900  1
  Ni  Ni12  1  0.75000000  0.63350700  0.49569800  1
  Ni  Ni13  1  0.75000000  0.13350700  0.00430200  1
  Ni  Ni14  1  0.25000000  0.36649300  0.50430200  1
  Ni  Ni15  1  0.25000000  0.86649300  0.99569800  1
  Ni  Ni16  1  0.75000000  0.41283200  0.89218700  1
  Ni  Ni17  1  0.75000000  0.91283200  0.60781300  1
  Ni  Ni18  1  0.25000000  0.58716800  0.10781300  1
  Ni  Ni19  1  0.25000000  0.08716800  0.39218700  1
  Ni  Ni20  1  0.75000000  0.73054200  0.80278100  1
  Ni  Ni21  1  0.75000000  0.23054200  0.69721900  1
  Ni  Ni22  1  0.25000000  0.26945800  0.19721900  1
  Ni  Ni23  1  0.25000000  0.76945800  0.30278100  1
  Cu  Cu24  1  0.75000000  0.44938800  0.29648400  1
  Cu  Cu25  1  0.75000000  0.94938800  0.20351600  1
  Cu  Cu26  1  0.25000000  0.55061200  0.70351600  1
  Cu  Cu27  1  0.25000000  0.05061200  0.79648400  1
