# generated using pymatgen
data_Cu3NiC18
_symmetry_space_group_name_H-M   'P 1'
_cell_length_a   13.25745644
_cell_length_b   13.25745644
_cell_length_c   14.40776925
_cell_angle_alpha   62.42908333
_cell_angle_beta   62.42908333
_cell_angle_gamma   33.27542737
_symmetry_Int_Tables_number   1
_chemical_formula_structural   Cu3NiC18
_chemical_formula_sum   'Cu12 Ni4 C72'
_cell_volume   1216.52352902
_cell_formula_units_Z   4
loop_
 _symmetry_equiv_pos_site_id
 _symmetry_equiv_pos_as_xyz
  1  'x, y, z'
loop_
 _atom_site_type_symbol
 _atom_site_label
 _atom_site_symmetry_multiplicity
 _atom_site_fract_x
 _atom_site_fract_y
 _atom_site_fract_z
 _atom_site_occupancy
  C  C0  1  0.72569000  0.73908900  0.58836500  1
  C  C1  1  0.26091100  0.27431000  0.91163500  1
  C  C2  1  0.27431000  0.26091100  0.41163500  1
  C  C3  1  0.73908900  0.72569000  0.08836500  1
  C  C4  1  0.99882200  0.90452600  0.15532500  1
  C  C5  1  0.09547400  0.00117800  0.34467500  1
  C  C6  1  0.00117800  0.09547400  0.84467500  1
  C  C7  1  0.90452600  0.99882200  0.65532500  1
  C  C8  1  0.79083900  0.42120200  0.03863100  1
  C  C9  1  0.57879800  0.20916100  0.46136900  1
  C  C10  1  0.20916100  0.57879800  0.96136900  1
  C  C11  1  0.42120200  0.79083900  0.53863100  1
  Ni  Ni12  1  0.10049900  0.56031700  0.66072800  1
  Ni  Ni13  1  0.43968300  0.89950100  0.83927200  1
  Ni  Ni14  1  0.89950100  0.43968300  0.33927200  1
  Ni  Ni15  1  0.56031700  0.10049900  0.16072800  1
  Cu  Cu16  1  0.73422800  0.78063500  0.31165800  1
  Cu  Cu17  1  0.21936500  0.26577200  0.18834200  1
  Cu  Cu18  1  0.26577200  0.21936500  0.68834200  1
  Cu  Cu19  1  0.78063500  0.73422800  0.81165800  1
  Cu  Cu20  1  0.02550500  0.76106900  0.45814400  1
  Cu  Cu21  1  0.23893100  0.97449500  0.04185600  1
  Cu  Cu22  1  0.97449500  0.23893100  0.54185600  1
  Cu  Cu23  1  0.76106900  0.02550500  0.95814400  1
  Cu  Cu24  1  0.67510400  0.47702100  0.30452900  1
  Cu  Cu25  1  0.52297900  0.32489600  0.19547100  1
  Cu  Cu26  1  0.32489600  0.52297900  0.69547100  1
  Cu  Cu27  1  0.47702100  0.67510400  0.80452900  1
  C  C28  1  0.52832000  0.56158800  0.96514800  1
  C  C29  1  0.43841200  0.47168000  0.53485200  1
  C  C30  1  0.47168000  0.43841200  0.03485200  1
  C  C31  1  0.56158800  0.52832000  0.46514800  1
  C  C32  1  0.90893800  0.73126100  0.36631200  1
  C  C33  1  0.26873900  0.09106200  0.13368800  1
  C  C34  1  0.09106200  0.26873900  0.63368800  1
  C  C35  1  0.73126100  0.90893800  0.86631200  1
  C  C36  1  0.26966600  0.58062700  0.33425300  1
  C  C37  1  0.41937300  0.73033400  0.16574700  1
  C  C38  1  0.73033400  0.41937300  0.66574700  1
  C  C39  1  0.58062700  0.26966600  0.83425300  1
  C  C40  1  0.61096200  0.51925600  0.89744200  1
  C  C41  1  0.48074400  0.38903800  0.60255800  1
  C  C42  1  0.38903800  0.48074400  0.10255800  1
  C  C43  1  0.51925600  0.61096200  0.39744200  1
  C  C44  1  0.91959100  0.93479900  0.99186700  1
  C  C45  1  0.06520100  0.08040900  0.50813300  1
  C  C46  1  0.08040900  0.06520100  0.00813300  1
  C  C47  1  0.93479900  0.91959100  0.49186700  1
  C  C48  1  0.92256500  0.66916200  0.32729800  1
  C  C49  1  0.33083800  0.07743500  0.17270200  1
  C  C50  1  0.07743500  0.33083800  0.67270200  1
  C  C51  1  0.66916200  0.92256500  0.82729800  1
  C  C52  1  0.88770500  0.57950400  0.90098400  1
  C  C53  1  0.42049600  0.11229500  0.59901600  1
  C  C54  1  0.11229500  0.42049600  0.09901600  1
  C  C55  1  0.57950400  0.88770500  0.40098400  1
  C  C56  1  0.18751100  0.69649000  0.36082700  1
  C  C57  1  0.30351000  0.81248900  0.13917300  1
  C  C58  1  0.81248900  0.30351000  0.63917300  1
  C  C59  1  0.69649000  0.18751100  0.86082700  1
  C  C60  1  0.71824700  0.31930900  0.33789900  1
  C  C61  1  0.68069100  0.28175300  0.16210100  1
  C  C62  1  0.28175300  0.68069100  0.66210100  1
  C  C63  1  0.31930900  0.71824700  0.83789900  1
  C  C64  1  0.90004200  0.69133500  0.69759900  1
  C  C65  1  0.30866500  0.09995800  0.80240100  1
  C  C66  1  0.09995800  0.30866500  0.30240100  1
  C  C67  1  0.69133500  0.90004200  0.19759900  1
  C  C68  1  0.78067800  0.63529300  0.29498300  1
  C  C69  1  0.36470700  0.21932200  0.20501700  1
  C  C70  1  0.21932200  0.36470700  0.70501700  1
  C  C71  1  0.63529300  0.78067800  0.79498300  1
  C  C72  1  0.13729700  0.57731400  0.54452800  1
  C  C73  1  0.42268600  0.86270300  0.95547200  1
  C  C74  1  0.86270300  0.42268600  0.45547200  1
  C  C75  1  0.57731400  0.13729700  0.04452800  1
  C  C76  1  0.85799300  0.39160800  0.30191900  1
  C  C77  1  0.60839200  0.14200700  0.19808100  1
  C  C78  1  0.14200700  0.60839200  0.69808100  1
  C  C79  1  0.39160800  0.85799300  0.80191900  1
  C  C80  1  0.60949700  0.59790000  0.70186500  1
  C  C81  1  0.40210000  0.39050300  0.79813500  1
  C  C82  1  0.39050300  0.40210000  0.29813500  1
  C  C83  1  0.59790000  0.60949700  0.20186500  1
  C  C84  1  0.81089800  0.89037900  0.92643200  1
  C  C85  1  0.10962100  0.18910200  0.57356800  1
  C  C86  1  0.18910200  0.10962100  0.07356800  1
  C  C87  1  0.89037900  0.81089800  0.42643200  1
