# generated using pymatgen
data_Cu(NiC7)2
_symmetry_space_group_name_H-M   'P 1'
_cell_length_a   3.88290329
_cell_length_b   7.59865929
_cell_length_c   8.56245889
_cell_angle_alpha   83.12915037
_cell_angle_beta   89.22100839
_cell_angle_gamma   94.81782201
_symmetry_Int_Tables_number   1
_chemical_formula_structural   Cu(NiC7)2
_chemical_formula_sum   'Cu1 Ni2 C14'
_cell_volume   249.86222476
_cell_formula_units_Z   1
loop_
 _symmetry_equiv_pos_site_id
 _symmetry_equiv_pos_as_xyz
  1  'x, y, z'
loop_
 _atom_site_type_symbol
 _atom_site_label
 _atom_site_symmetry_multiplicity
 _atom_site_fract_x
 _atom_site_fract_y
 _atom_site_fract_z
 _atom_site_occupancy
  Ni  Ni0  1  0.99532600  0.79851700  0.68249100  1
  Ni  Ni1  1  0.01622000  0.19605300  0.13433600  1
  Cu  Cu2  1  0.58983400  0.50408200  0.39249600  1
  C  C3  1  0.23787900  0.11975500  0.78832400  1
  C  C4  1  0.82536200  0.11893700  0.78658700  1
  C  C5  1  0.73579900  0.86940200  0.31339100  1
  C  C6  1  0.14423300  0.85153400  0.31263700  1
  C  C7  1  0.54157600  0.10251400  0.58461800  1
  C  C8  1  0.46767200  0.88659100  0.11404700  1
  C  C9  1  0.42025100  0.48584800  0.70587800  1
  C  C10  1  0.55336800  0.50776400  0.06925200  1
  C  C11  1  0.03415000  0.15055700  0.85152600  1
  C  C12  1  0.92471100  0.80358700  0.37575100  1
  C  C13  1  0.52425900  0.01922600  0.68299200  1
  C  C14  1  0.47101100  0.96178500  0.20051000  1
  C  C15  1  0.47155200  0.59550200  0.63431000  1
  C  C16  1  0.54679800  0.40334400  0.15005900  1
