# generated using pymatgen
data_Cu2NiC12
_symmetry_space_group_name_H-M   'P 1'
_cell_length_a   10.59928442
_cell_length_b   10.59928442
_cell_length_c   13.89486155
_cell_angle_alpha   49.53650574
_cell_angle_beta   49.53650574
_cell_angle_gamma   37.42997077
_symmetry_Int_Tables_number   1
_chemical_formula_structural   Cu2NiC12
_chemical_formula_sum   'Cu4 Ni2 C24'
_cell_volume   691.04984416
_cell_formula_units_Z   2
loop_
 _symmetry_equiv_pos_site_id
 _symmetry_equiv_pos_as_xyz
  1  'x, y, z'
loop_
 _atom_site_type_symbol
 _atom_site_label
 _atom_site_symmetry_multiplicity
 _atom_site_fract_x
 _atom_site_fract_y
 _atom_site_fract_z
 _atom_site_occupancy
  Ni  Ni0  1  0.16074000  0.83926000  0.25000000  1
  Ni  Ni1  1  0.83926000  0.16074000  0.75000000  1
  Cu  Cu2  1  0.23333400  0.55469100  0.89969500  1
  Cu  Cu3  1  0.44530900  0.76666600  0.60030500  1
  Cu  Cu4  1  0.76666600  0.44530900  0.10030500  1
  Cu  Cu5  1  0.55469100  0.23333400  0.39969500  1
  C  C6  1  0.04916900  0.38777000  0.41103700  1
  C  C7  1  0.61223000  0.95083100  0.08896300  1
  C  C8  1  0.95083100  0.61223000  0.58896300  1
  C  C9  1  0.38777000  0.04916900  0.91103700  1
  C  C10  1  0.74338400  0.28621600  0.49091300  1
  C  C11  1  0.71378400  0.25661600  0.00908700  1
  C  C12  1  0.25661600  0.71378400  0.50908700  1
  C  C13  1  0.28621600  0.74338400  0.99091300  1
  C  C14  1  0.58019000  0.92289100  0.36037600  1
  C  C15  1  0.07710900  0.41981000  0.13962400  1
  C  C16  1  0.41981000  0.07710900  0.63962400  1
  C  C17  1  0.92289100  0.58019000  0.86037600  1
  C  C18  1  0.32492400  0.97223900  0.08171500  1
  C  C19  1  0.02776100  0.67507600  0.41828500  1
  C  C20  1  0.67507600  0.02776100  0.91828500  1
  C  C21  1  0.97223900  0.32492400  0.58171500  1
  C  C22  1  0.86883700  0.13116300  0.25000000  1
  C  C23  1  0.13116300  0.86883700  0.75000000  1
  C  C24  1  0.09877000  0.82904300  0.13355200  1
  C  C25  1  0.17095700  0.90123000  0.36644800  1
  C  C26  1  0.90123000  0.17095700  0.86644800  1
  C  C27  1  0.82904300  0.09877000  0.63355200  1
  C  C28  1  0.45401400  0.54598600  0.25000000  1
  C  C29  1  0.54598600  0.45401400  0.75000000  1
