# generated using pymatgen
data_CuNi14C17
_symmetry_space_group_name_H-M   'P 1'
_cell_length_a   8.52232342
_cell_length_b   8.55497308
_cell_length_c   4.24792759
_cell_angle_alpha   90.00000000
_cell_angle_beta   90.00000000
_cell_angle_gamma   90.00000000
_symmetry_Int_Tables_number   1
_chemical_formula_structural   CuNi14C17
_chemical_formula_sum   'Cu1 Ni14 C17'
_cell_volume   309.70895583
_cell_formula_units_Z   1
loop_
 _symmetry_equiv_pos_site_id
 _symmetry_equiv_pos_as_xyz
  1  'x, y, z'
loop_
 _atom_site_type_symbol
 _atom_site_label
 _atom_site_symmetry_multiplicity
 _atom_site_fract_x
 _atom_site_fract_y
 _atom_site_fract_z
 _atom_site_occupancy
  Ni  Ni0  1  0.50000000  0.00000000  -0.00000000  1
  Ni  Ni1  1  0.50000000  0.50000000  -0.00000000  1
  Ni  Ni2  1  -0.00000000  0.25603387  0.50000000  1
  Ni  Ni3  1  -0.00000000  0.74396613  0.50000000  1
  Ni  Ni4  1  0.50000000  0.25124028  0.50000000  1
  Ni  Ni5  1  0.50000000  0.74875972  0.50000000  1
  Ni  Ni6  1  0.25031103  0.00000000  0.50000000  1
  Ni  Ni7  1  0.24742144  0.50000000  0.50000000  1
  Ni  Ni8  1  0.74968897  0.00000000  0.50000000  1
  Ni  Ni9  1  0.75257856  0.50000000  0.50000000  1
  Ni  Ni10  1  0.24815817  0.25508162  -0.00000000  1
  Ni  Ni11  1  0.24815817  0.74491838  -0.00000000  1
  Ni  Ni12  1  0.75184183  0.25508162  0.00000000  1
  Ni  Ni13  1  0.75184183  0.74491838  -0.00000000  1
  Cu  Cu14  1  -0.00000000  0.00000000  -0.00000000  1
  C  C15  1  -0.00000000  0.50000000  -0.00000000  1
  C  C16  1  0.24623804  0.00000000  -0.00000000  1
  C  C17  1  0.25782932  0.50000000  -0.00000000  1
  C  C18  1  0.75376196  0.00000000  0.00000000  1
  C  C19  1  0.74217068  0.50000000  -0.00000000  1
  C  C20  1  0.24873910  0.24993638  0.50000000  1
  C  C21  1  0.24873910  0.75006362  0.50000000  1
  C  C22  1  0.75126090  0.24993638  0.50000000  1
  C  C23  1  0.75126090  0.75006362  0.50000000  1
  C  C24  1  -0.00000000  0.00000000  0.50000000  1
  C  C25  1  -0.00000000  0.50000000  0.50000000  1
  C  C26  1  0.50000000  0.00000000  0.50000000  1
  C  C27  1  0.50000000  0.50000000  0.50000000  1
  C  C28  1  -0.00000000  0.24501046  -0.00000000  1
  C  C29  1  -0.00000000  0.75498954  -0.00000000  1
  C  C30  1  0.50000000  0.24705962  -0.00000000  1
  C  C31  1  0.50000000  0.75294038  0.00000000  1
