# generated using pymatgen
data_CuNiC11
_symmetry_space_group_name_H-M   'P 1'
_cell_length_a   6.39368557
_cell_length_b   6.39368557
_cell_length_c   10.42344900
_cell_angle_alpha   90.00000000
_cell_angle_beta   90.00000000
_cell_angle_gamma   119.99999552
_symmetry_Int_Tables_number   1
_chemical_formula_structural   CuNiC11
_chemical_formula_sum   'Cu2 Ni2 C22'
_cell_volume   369.01553186
_cell_formula_units_Z   2
loop_
 _symmetry_equiv_pos_site_id
 _symmetry_equiv_pos_as_xyz
  1  'x, y, z'
loop_
 _atom_site_type_symbol
 _atom_site_label
 _atom_site_symmetry_multiplicity
 _atom_site_fract_x
 _atom_site_fract_y
 _atom_site_fract_z
 _atom_site_occupancy
  Ni  Ni0  1  0.33333300  0.66666700  0.97894200  1
  Ni  Ni1  1  0.66666700  0.33333300  0.47894200  1
  Cu  Cu2  1  0.33333300  0.66666700  0.37581300  1
  Cu  Cu3  1  0.66666700  0.33333300  0.87581300  1
  C  C4  1  0.83063600  0.16936400  0.18618600  1
  C  C5  1  0.66127200  0.83063600  0.68618600  1
  C  C6  1  0.16936400  0.33872800  0.68618600  1
  C  C7  1  0.83063600  0.66127200  0.18618600  1
  C  C8  1  0.33872800  0.16936400  0.18618600  1
  C  C9  1  0.16936400  0.83063600  0.68618600  1
  C  C10  1  0.00000000  0.00000000  0.94128800  1
  C  C11  1  0.00000000  0.00000000  0.44128800  1
  C  C12  1  0.83270700  0.16729300  0.00204800  1
  C  C13  1  0.66541300  0.83270700  0.50204800  1
  C  C14  1  0.16729300  0.33458700  0.50204800  1
  C  C15  1  0.83270700  0.66541300  0.00204800  1
  C  C16  1  0.33458700  0.16729300  0.00204800  1
  C  C17  1  0.16729300  0.83270700  0.50204800  1
  C  C18  1  0.00000000  0.00000000  0.74321200  1
  C  C19  1  0.00000000  0.00000000  0.24321200  1
  C  C20  1  0.50864000  0.49136000  0.25871400  1
  C  C21  1  0.01727900  0.50864000  0.75871400  1
  C  C22  1  0.49136000  0.98272100  0.75871400  1
  C  C23  1  0.50864000  0.01727900  0.25871400  1
  C  C24  1  0.49136000  0.50864000  0.75871400  1
  C  C25  1  0.98272100  0.49136000  0.25871400  1
