# generated using pymatgen
data_Cu(NiC5)3
_symmetry_space_group_name_H-M   'P 1'
_cell_length_a   10.82444028
_cell_length_b   15.22823835
_cell_length_c   10.76077842
_cell_angle_alpha   89.65482230
_cell_angle_beta   90.63937729
_cell_angle_gamma   90.17249684
_symmetry_Int_Tables_number   1
_chemical_formula_structural   Cu(NiC5)3
_chemical_formula_sum   'Cu8 Ni24 C120'
_cell_volume   1773.62580408
_cell_formula_units_Z   8
loop_
 _symmetry_equiv_pos_site_id
 _symmetry_equiv_pos_as_xyz
  1  'x, y, z'
loop_
 _atom_site_type_symbol
 _atom_site_label
 _atom_site_symmetry_multiplicity
 _atom_site_fract_x
 _atom_site_fract_y
 _atom_site_fract_z
 _atom_site_occupancy
  C  C0  1  0.01027586  0.11263540  0.50050150  1
  C  C1  1  0.02133907  0.12076352  0.99192042  1
  C  C2  1  0.02104961  0.62784237  0.50166736  1
  C  C3  1  0.02359972  0.62614246  0.99556851  1
  C  C4  1  0.52213111  0.12740028  0.50543159  1
  C  C5  1  0.52535245  0.12164893  0.97528362  1
  C  C6  1  0.52084396  0.62530514  0.49939008  1
  C  C7  1  0.52705201  0.62940443  0.99600911  1
  C  C8  1  0.49607620  0.36572885  0.00576840  1
  C  C9  1  0.47671685  0.38250039  0.50906358  1
  C  C10  1  0.49943879  0.87458742  0.97850173  1
  C  C11  1  0.48175743  0.87248379  0.50824734  1
  C  C12  1  0.97019463  0.37972368  0.00162884  1
  C  C13  1  0.97429826  0.38702657  0.50862872  1
  C  C14  1  0.98278036  0.87480445  0.01106809  1
  C  C15  1  0.97301841  0.87308115  0.50715071  1
  C  C16  1  0.22960379  0.38501806  0.25716981  1
  C  C17  1  0.23978479  0.37863728  0.74425582  1
  C  C18  1  0.22785961  0.88124386  0.24249035  1
  C  C19  1  0.23955434  0.87770325  0.75878040  1
  C  C20  1  0.72970504  0.38524926  0.24967696  1
  C  C21  1  0.72776517  0.37490600  0.75204025  1
  C  C22  1  0.73956399  0.86681428  0.24217657  1
  C  C23  1  0.72668778  0.87491302  0.74217667  1
  C  C24  1  0.24806804  0.12009972  0.25195541  1
  C  C25  1  0.27378907  0.11962140  0.73593685  1
  C  C26  1  0.26580547  0.62093562  0.25765290  1
  C  C27  1  0.25637790  0.63089662  0.74728111  1
  C  C28  1  0.75572098  0.11947894  0.25539345  1
  C  C29  1  0.76511491  0.11925834  0.75423162  1
  C  C30  1  0.77734033  0.62636542  0.25550244  1
  C  C31  1  0.77708745  0.62432105  0.75755202  1
  Ni  Ni32  1  0.99709563  0.99372238  0.25433696  1
  Ni  Ni33  1  0.99867530  0.99792089  0.75431642  1
  Ni  Ni34  1  0.99838295  0.50197645  0.25238961  1
  Ni  Ni35  1  0.00676084  0.49907297  0.75386493  1
  Ni  Ni36  1  0.49647074  0.50172103  0.24700711  1
  Ni  Ni37  1  0.50537063  0.50054781  0.74282257  1
  Ni  Ni38  1  0.25889354  0.00420909  0.00368841  1
  Ni  Ni39  1  0.24894700  0.50025413  0.50147133  1
  Ni  Ni40  1  0.75106238  0.99752905  0.99480146  1
  Ni  Ni41  1  0.74291883  0.00003583  0.50032165  1
  Ni  Ni42  1  0.74868777  0.50116608  0.00420061  1
  Ni  Ni43  1  0.75112797  0.50117749  0.49875194  1
  Ni  Ni44  1  0.25314011  0.74520354  0.99823621  1
  Ni  Ni45  1  0.25064469  0.75391519  0.49687188  1
  Ni  Ni46  1  0.75328579  0.24337130  0.00423443  1
  Ni  Ni47  1  0.75262762  0.25118307  0.50478713  1
  Ni  Ni48  1  0.75294704  0.74941502  0.99842556  1
  Ni  Ni49  1  0.75195861  0.74787148  0.50082697  1
  Ni  Ni50  1  0.99230606  0.24909893  0.75546365  1
  Ni  Ni51  1  0.00490082  0.74739795  0.25283937  1
  Ni  Ni52  1  0.00147359  0.75221671  0.75038709  1
  Ni  Ni53  1  0.49931839  0.24889022  0.74367508  1
  Ni  Ni54  1  0.50656396  0.74698130  0.25449118  1
  Ni  Ni55  1  0.49916987  0.74905913  0.74793119  1
  Cu  Cu56  1  0.51035274  0.98153553  0.22713356  1
  Cu  Cu57  1  0.49780678  0.99905934  0.74145569  1
  Cu  Cu58  1  0.23006588  0.99570544  0.51434906  1
  Cu  Cu59  1  0.23297530  0.49377817  0.01695622  1
  Cu  Cu60  1  0.25164676  0.25379256  0.95491400  1
  Cu  Cu61  1  0.27054547  0.24079615  0.46992576  1
  Cu  Cu62  1  0.98576687  0.26534006  0.28378462  1
  Cu  Cu63  1  0.51830026  0.26147512  0.27232826  1
  C  C64  1  0.11674804  0.76732651  0.11357614  1
  C  C65  1  0.10397912  0.77039599  0.60041861  1
  C  C66  1  0.56124118  0.24237411  0.11794242  1
  C  C67  1  0.60594631  0.27597490  0.60335199  1
  C  C68  1  0.60217097  0.76889744  0.10216195  1
  C  C69  1  0.59935719  0.76298279  0.60014604  1
  C  C70  1  0.39248855  0.21665007  0.35608157  1
  C  C71  1  0.39587164  0.22937341  0.88689528  1
  C  C72  1  0.39092447  0.72748306  0.38980951  1
  C  C73  1  0.40154852  0.73328325  0.89928754  1
  C  C74  1  0.89920322  0.22812633  0.41153947  1
  C  C75  1  0.90053429  0.23356245  0.90084536  1
  C  C76  1  0.89744869  0.72918570  0.39739742  1
  C  C77  1  0.89702684  0.72789255  0.89642170  1
  C  C78  1  0.13634547  0.23206892  0.33731857  1
  C  C79  1  0.15331779  0.23458547  0.82335529  1
  C  C80  1  0.14839452  0.72815093  0.35420506  1
  C  C81  1  0.14434736  0.73582726  0.85169537  1
  C  C82  1  0.65347960  0.23340578  0.35687927  1
  C  C83  1  0.64654300  0.23232451  0.85325225  1
  C  C84  1  0.65321583  0.72772690  0.35778084  1
  C  C85  1  0.64644615  0.73090260  0.85050664  1
  C  C86  1  0.35937308  0.26351213  0.62560345  1
  C  C87  1  0.34971682  0.76987203  0.64620793  1
  C  C88  1  0.89330319  0.24394125  0.14918987  1
  C  C89  1  0.86103704  0.27871755  0.64419223  1
  C  C90  1  0.85928537  0.76813282  0.14274987  1
  C  C91  1  0.85507412  0.77238362  0.64690033  1
  C  C92  1  0.36024712  0.47727191  0.13355694  1
  C  C93  1  0.35714698  0.47958588  0.64273549  1
  C  C94  1  0.36602071  0.01409947  0.16323812  1
  C  C95  1  0.35963108  0.98955133  0.62702182  1
  C  C96  1  0.85437215  0.48002630  0.14825224  1
  C  C97  1  0.85818872  0.47948646  0.64971611  1
  C  C98  1  0.85595577  0.98395476  0.14508200  1
  C  C99  1  0.85878196  0.97964691  0.64613232  1
  C  C100  1  0.13910997  0.01561307  0.36383235  1
  C  C101  1  0.14947764  0.02518771  0.86304427  1
  C  C102  1  0.14877921  0.51562097  0.35275596  1
  C  C103  1  0.16316902  0.51262134  0.85916691  1
  C  C104  1  0.59002684  0.03757282  0.34565226  1
  C  C105  1  0.64315646  0.01288120  0.85246356  1
  C  C106  1  0.64607731  0.52135553  0.34990526  1
  C  C107  1  0.63733231  0.52089503  0.86208646  1
  C  C108  1  0.39427518  0.01554843  0.88838077  1
  C  C109  1  0.39262103  0.51723199  0.39484641  1
  C  C110  1  0.88126442  0.02555602  0.38387650  1
  C  C111  1  0.89490538  0.02168665  0.89543876  1
  C  C112  1  0.90007392  0.52305185  0.39683452  1
  C  C113  1  0.89969310  0.51319972  0.89856184  1
  C  C114  1  0.10025890  0.47556270  0.11137736  1
  C  C115  1  0.10985604  0.47978159  0.60697622  1
  C  C116  1  0.10840737  0.99800016  0.11340247  1
  C  C117  1  0.10166960  0.98002744  0.61383192  1
  C  C118  1  0.60268945  0.47954241  0.10774669  1
  C  C119  1  0.61244447  0.48146141  0.59957392  1
  C  C120  1  0.60988465  0.97728939  0.09892933  1
  C  C121  1  0.60353106  0.98361088  0.60239164  1
  C  C122  1  0.00497732  0.37904792  0.29081762  1
  C  C123  1  0.02116914  0.37344435  0.78364426  1
  C  C124  1  0.00890182  0.86811485  0.28713095  1
  C  C125  1  0.01729597  0.87639246  0.79750480  1
  C  C126  1  0.50004430  0.37635229  0.28770178  1
  C  C127  1  0.49701732  0.37758148  0.79041699  1
  C  C128  1  0.48881298  0.87142581  0.27824198  1
  C  C129  1  0.50291466  0.87440084  0.76969927  1
  C  C130  1  0.49921853  0.12553098  0.71729982  1
  C  C131  1  0.48079722  0.62614404  0.20598913  1
  C  C132  1  0.47573487  0.62323350  0.72246878  1
  C  C133  1  0.98870327  0.12868063  0.71010378  1
  C  C134  1  0.99605097  0.62223306  0.20902539  1
  C  C135  1  0.99919795  0.62446977  0.71727832  1
  C  C136  1  0.21089531  0.17601867  0.06476573  1
  C  C137  1  0.23841638  0.12607301  0.51745175  1
  C  C138  1  0.25361550  0.61796095  0.03229130  1
  C  C139  1  0.23968900  0.62385792  0.53605956  1
  C  C140  1  0.73754655  0.12078083  0.03713894  1
  C  C141  1  0.73825265  0.12819179  0.54138326  1
  C  C142  1  0.74198832  0.62579911  0.03885069  1
  C  C143  1  0.74380833  0.62429419  0.54348628  1
  C  C144  1  0.24672638  0.36321637  0.46925029  1
  C  C145  1  0.25703791  0.36796245  0.98590628  1
  C  C146  1  0.26296382  0.87989894  0.45756965  1
  C  C147  1  0.28237357  0.86819223  0.00520608  1
  C  C148  1  0.76358605  0.37716793  0.45821614  1
  C  C149  1  0.74849792  0.36965593  0.98276683  1
  C  C150  1  0.75132610  0.87551200  0.45758539  1
  C  C151  1  0.76354113  0.87413971  0.95888543  1
