# generated using pymatgen
data_Cu2NiC3
_symmetry_space_group_name_H-M   'P 1'
_cell_length_a   3.30624734
_cell_length_b   3.30624734
_cell_length_c   38.64139800
_cell_angle_alpha   90.00000000
_cell_angle_beta   90.00000000
_cell_angle_gamma   119.99998684
_symmetry_Int_Tables_number   1
_chemical_formula_structural   Cu2NiC3
_chemical_formula_sum   'Cu4 Ni2 C6'
_cell_volume   365.80884328
_cell_formula_units_Z   2
loop_
 _symmetry_equiv_pos_site_id
 _symmetry_equiv_pos_as_xyz
  1  'x, y, z'
loop_
 _atom_site_type_symbol
 _atom_site_label
 _atom_site_symmetry_multiplicity
 _atom_site_fract_x
 _atom_site_fract_y
 _atom_site_fract_z
 _atom_site_occupancy
  C  C0  1  0.33333300  0.66666700  0.33209000  1
  C  C1  1  0.33333300  0.66666700  0.23248100  1
  C  C2  1  0.33333300  0.66666700  0.09305900  1
  C  C3  1  0.33333300  0.66666700  0.47000100  1
  C  C4  1  0.66666700  0.33333300  0.28230400  1
  C  C5  1  0.66666700  0.33333300  0.65759600  1
  Ni  Ni6  1  0.66666700  0.33333300  0.04954500  1
  Ni  Ni7  1  0.66666700  0.33333300  0.13656500  1
  Cu  Cu8  1  0.33333300  0.66666700  0.69728900  1
  Cu  Cu9  1  0.66666700  0.33333300  0.43046300  1
  Cu  Cu10  1  0.66666700  0.33333300  0.50947400  1
  Cu  Cu11  1  0.33333300  0.66666700  0.61788100  1
