# generated using pymatgen
data_Cu9Ni5
_symmetry_space_group_name_H-M   'P 1'
_cell_length_a   10.54069400
_cell_length_b   10.54069400
_cell_length_c   10.38275200
_cell_angle_alpha   90.00000000
_cell_angle_beta   90.00000000
_cell_angle_gamma   90.00000000
_symmetry_Int_Tables_number   1
_chemical_formula_structural   Cu9Ni5
_chemical_formula_sum   'Cu72 Ni40'
_cell_volume   1153.58843176
_cell_formula_units_Z   8
loop_
 _symmetry_equiv_pos_site_id
 _symmetry_equiv_pos_as_xyz
  1  'x, y, z'
loop_
 _atom_site_type_symbol
 _atom_site_label
 _atom_site_symmetry_multiplicity
 _atom_site_fract_x
 _atom_site_fract_y
 _atom_site_fract_z
 _atom_site_occupancy
  Ni  Ni0  1  0.82190000  0.37516400  0.06999700  1
  Ni  Ni1  1  0.37516400  0.17810000  0.31999700  1
  Ni  Ni2  1  0.62483600  0.82190000  0.81999700  1
  Ni  Ni3  1  0.17810000  0.62483600  0.56999700  1
  Ni  Ni4  1  0.33686400  0.64742100  0.51391100  1
  Ni  Ni5  1  0.64742100  0.66313600  0.76391100  1
  Ni  Ni6  1  0.35257900  0.33686400  0.26391100  1
  Ni  Ni7  1  0.66313600  0.35257900  0.01391100  1
  Ni  Ni8  1  0.29819900  0.80561300  0.46616500  1
  Ni  Ni9  1  0.80561300  0.70180100  0.71616500  1
  Ni  Ni10  1  0.19438700  0.29819900  0.21616500  1
  Ni  Ni11  1  0.70180100  0.19438700  0.96616500  1
  Ni  Ni12  1  0.13930600  0.78341600  0.52204400  1
  Ni  Ni13  1  0.78341600  0.86069400  0.77204400  1
  Ni  Ni14  1  0.21658400  0.13930600  0.27204400  1
  Ni  Ni15  1  0.86069400  0.21658400  0.02204400  1
  Ni  Ni16  1  0.26653700  0.75110400  0.61628300  1
  Ni  Ni17  1  0.75110400  0.73346300  0.86628300  1
  Ni  Ni18  1  0.24889600  0.26653700  0.36628300  1
  Ni  Ni19  1  0.73346300  0.24889600  0.11628300  1
  Ni  Ni20  1  0.72324900  0.21862200  0.56692700  1
  Ni  Ni21  1  0.21862200  0.27675100  0.81692700  1
  Ni  Ni22  1  0.78137800  0.72324900  0.31692700  1
  Ni  Ni23  1  0.27675100  0.78137800  0.06692700  1
  Ni  Ni24  1  0.88521000  0.19935100  0.51960900  1
  Ni  Ni25  1  0.19935100  0.11479000  0.76960900  1
  Ni  Ni26  1  0.80064900  0.88521000  0.26960900  1
  Ni  Ni27  1  0.11479000  0.80064900  0.01960900  1
  Ni  Ni28  1  0.88592000  0.35693600  0.45599500  1
  Ni  Ni29  1  0.35693600  0.11408000  0.70599500  1
  Ni  Ni30  1  0.64306400  0.88592000  0.20599500  1
  Ni  Ni31  1  0.11408000  0.64306400  0.95599500  1
  Ni  Ni32  1  0.72402700  0.37622300  0.50279800  1
  Ni  Ni33  1  0.37622300  0.27597300  0.75279800  1
  Ni  Ni34  1  0.62377700  0.72402700  0.25279800  1
  Ni  Ni35  1  0.27597300  0.62377700  0.00279800  1
  Ni  Ni36  1  0.83632200  0.32564100  0.60794400  1
  Ni  Ni37  1  0.32564100  0.16367800  0.85794400  1
  Ni  Ni38  1  0.67435900  0.83632200  0.35794400  1
  Ni  Ni39  1  0.16367800  0.67435900  0.10794400  1
  Cu  Cu40  1  0.09461000  0.66973100  0.48222600  1
  Cu  Cu41  1  0.66973100  0.90539000  0.73222600  1
  Cu  Cu42  1  0.33026900  0.09461000  0.23222600  1
  Cu  Cu43  1  0.90539000  0.33026900  0.98222600  1
  Cu  Cu44  1  0.24453500  0.56659100  0.47575100  1
  Cu  Cu45  1  0.56659100  0.75546500  0.72575100  1
  Cu  Cu46  1  0.43340900  0.24453500  0.22575100  1
  Cu  Cu47  1  0.75546500  0.43340900  0.97575100  1
  Cu  Cu48  1  0.33575900  0.70374600  0.39706400  1
  Cu  Cu49  1  0.70374600  0.66424100  0.64706400  1
  Cu  Cu50  1  0.29625400  0.33575900  0.14706400  1
  Cu  Cu51  1  0.66424100  0.29625400  0.89706400  1
  Cu  Cu52  1  0.18586200  0.80628200  0.40313600  1
  Cu  Cu53  1  0.80628200  0.81413800  0.65313600  1
  Cu  Cu54  1  0.19371800  0.18586200  0.15313600  1
  Cu  Cu55  1  0.81413800  0.19371800  0.90313600  1
  Cu  Cu56  1  0.12528200  0.54448800  0.63021500  1
  Cu  Cu57  1  0.54448800  0.87471800  0.88021500  1
  Cu  Cu58  1  0.45551200  0.12528200  0.38021500  1
  Cu  Cu59  1  0.87471800  0.45551200  0.13021500  1
  Cu  Cu60  1  0.12978200  0.63416700  0.20947900  1
  Cu  Cu61  1  0.63416700  0.87021800  0.45947900  1
  Cu  Cu62  1  0.36583300  0.12978200  0.95947900  1
  Cu  Cu63  1  0.87021800  0.36583300  0.70947900  1
  Cu  Cu64  1  0.34816300  0.53688800  0.00594200  1
  Cu  Cu65  1  0.53688800  0.65183700  0.25594200  1
  Cu  Cu66  1  0.46311200  0.34816300  0.75594200  1
  Cu  Cu67  1  0.65183700  0.46311200  0.50594200  1
  Cu  Cu68  1  0.03451600  0.57415800  0.91470900  1
  Cu  Cu69  1  0.57415800  0.96548400  0.16470900  1
  Cu  Cu70  1  0.42584200  0.03451600  0.66470900  1
  Cu  Cu71  1  0.96548400  0.42584200  0.41470900  1
  Cu  Cu72  1  0.03591900  0.87923800  0.03907600  1
  Cu  Cu73  1  0.87923800  0.96408100  0.28907600  1
  Cu  Cu74  1  0.12076200  0.03591900  0.78907600  1
  Cu  Cu75  1  0.96408100  0.12076200  0.53907600  1
  Cu  Cu76  1  0.34894500  0.84124100  0.13085600  1
  Cu  Cu77  1  0.84124100  0.65105500  0.38085600  1
  Cu  Cu78  1  0.15875900  0.34894500  0.88085600  1
  Cu  Cu79  1  0.65105500  0.15875900  0.63085600  1
  Cu  Cu80  1  0.22050700  0.62374800  0.88579400  1
  Cu  Cu81  1  0.62374800  0.77949300  0.13579400  1
  Cu  Cu82  1  0.37625200  0.22050700  0.63579400  1
  Cu  Cu83  1  0.77949300  0.37625200  0.38579400  1
  Cu  Cu84  1  0.09821000  0.75725700  0.89853000  1
  Cu  Cu85  1  0.75725700  0.90179000  0.14853000  1
  Cu  Cu86  1  0.24274300  0.09821000  0.64853000  1
  Cu  Cu87  1  0.90179000  0.24274300  0.39853000  1
  Cu  Cu88  1  0.22170300  0.86197300  0.98273600  1
  Cu  Cu89  1  0.86197300  0.77829700  0.23273600  1
  Cu  Cu90  1  0.13802700  0.22170300  0.73273600  1
  Cu  Cu91  1  0.77829700  0.13802700  0.48273600  1
  Cu  Cu92  1  0.34362900  0.72803200  0.97013900  1
  Cu  Cu93  1  0.72803200  0.65637100  0.22013900  1
  Cu  Cu94  1  0.27196800  0.34362900  0.72013900  1
  Cu  Cu95  1  0.65637100  0.27196800  0.47013900  1
  Cu  Cu96  1  0.43252200  0.58789500  0.52195600  1
  Cu  Cu97  1  0.58789500  0.56747800  0.77195600  1
  Cu  Cu98  1  0.41210500  0.43252200  0.27195600  1
  Cu  Cu99  1  0.56747800  0.41210500  0.02195600  1
  Cu  Cu100  1  0.35789000  0.89438800  0.42978100  1
  Cu  Cu101  1  0.89438800  0.64211000  0.67978100  1
  Cu  Cu102  1  0.10561200  0.35789000  0.17978100  1
  Cu  Cu103  1  0.64211000  0.10561200  0.92978100  1
  Cu  Cu104  1  0.05061900  0.85175600  0.53772300  1
  Cu  Cu105  1  0.85175600  0.94938100  0.78772300  1
  Cu  Cu106  1  0.14824400  0.05061900  0.28772300  1
  Cu  Cu107  1  0.94938100  0.14824400  0.03772300  1
  Cu  Cu108  1  0.29715300  0.78982400  0.71941300  1
  Cu  Cu109  1  0.78982400  0.70284700  0.96941300  1
  Cu  Cu110  1  0.21017600  0.29715300  0.46941300  1
  Cu  Cu111  1  0.70284700  0.21017600  0.21941300  1
