# generated using pymatgen
data_Cu4Ni2C17
_symmetry_space_group_name_H-M   'P 1'
_cell_length_a   5.72514200
_cell_length_b   11.35890779
_cell_length_c   12.56998643
_cell_angle_alpha   115.73247488
_cell_angle_beta   103.16350150
_cell_angle_gamma   90.00000000
_symmetry_Int_Tables_number   1
_chemical_formula_structural   Cu4Ni2C17
_chemical_formula_sum   'Cu8 Ni4 C34'
_cell_volume   712.45959876
_cell_formula_units_Z   2
loop_
 _symmetry_equiv_pos_site_id
 _symmetry_equiv_pos_as_xyz
  1  'x, y, z'
loop_
 _atom_site_type_symbol
 _atom_site_label
 _atom_site_symmetry_multiplicity
 _atom_site_fract_x
 _atom_site_fract_y
 _atom_site_fract_z
 _atom_site_occupancy
  C  C0  1  0.19938700  0.86720200  0.50125800  1
  C  C1  1  0.69812900  0.63279800  0.49874200  1
  C  C2  1  0.80061300  0.13279800  0.49874200  1
  C  C3  1  0.30187100  0.36720200  0.50125800  1
  Ni  Ni4  1  0.12192800  0.52373800  0.31798800  1
  Ni  Ni5  1  0.80394100  0.97626200  0.68201200  1
  Ni  Ni6  1  0.87807200  0.47626200  0.68201200  1
  Ni  Ni7  1  0.19605900  0.02373800  0.31798800  1
  Cu  Cu8  1  0.39561200  0.05197700  0.87445100  1
  Cu  Cu9  1  0.52116100  0.44802300  0.12554900  1
  Cu  Cu10  1  0.60438800  0.94802300  0.12554900  1
  Cu  Cu11  1  0.47883900  0.55197700  0.87445100  1
  Cu  Cu12  1  0.02913200  0.67448300  0.12509200  1
  Cu  Cu13  1  0.90404000  0.82551700  0.87490800  1
  Cu  Cu14  1  0.97086800  0.32551700  0.87490800  1
  Cu  Cu15  1  0.09596000  0.17448300  0.12509200  1
  C  C16  1  0.31685800  0.71932300  0.69989800  1
  C  C17  1  0.61696000  0.78067700  0.30010200  1
  C  C18  1  0.68314200  0.28067700  0.30010200  1
  C  C19  1  0.38304000  0.21932300  0.69989800  1
  C  C20  1  0.09315500  0.85792800  0.73686700  1
  C  C21  1  0.35628800  0.64207200  0.26313300  1
  C  C22  1  0.90684500  0.14207200  0.26313300  1
  C  C23  1  0.64371200  0.35792800  0.73686700  1
  C  C24  1  0.14052700  0.12393300  0.73169800  1
  C  C25  1  0.40882900  0.37606700  0.26830200  1
  C  C26  1  0.85947300  0.87606700  0.26830200  1
  C  C27  1  0.59117100  0.62393300  0.73169800  1
  C  C28  1  0.81840400  0.63745300  0.25956500  1
  C  C29  1  0.55883900  0.86254700  0.74043500  1
  C  C30  1  0.18159600  0.36254700  0.74043500  1
  C  C31  1  0.44116100  0.13745300  0.25956500  1
  C  C32  1  0.20349100  0.62534000  0.53115500  1
  C  C33  1  0.67233600  0.87466000  0.46884500  1
  C  C34  1  0.79650900  0.37466000  0.46884500  1
  C  C35  1  0.32766400  0.12534000  0.53115500  1
  C  C36  1  0.75803800  0.75000000  0.00000000  1
  C  C37  1  0.24196200  0.25000000  0.00000000  1
  C  C38  1  0.62808200  0.15951000  0.79722300  1
  C  C39  1  0.83085900  0.34049000  0.20277700  1
  C  C40  1  0.37191800  0.84049000  0.20277700  1
  C  C41  1  0.16914100  0.65951000  0.79722300  1
  C  C42  1  0.24980300  0.97891600  0.00177700  1
  C  C43  1  0.24802600  0.52108400  0.99822300  1
  C  C44  1  0.75019700  0.02108400  0.99822300  1
  C  C45  1  0.75197400  0.47891600  0.00177700  1
