# generated using pymatgen
data_CuNi3C16
_symmetry_space_group_name_H-M   'P 1'
_cell_length_a   7.77973206
_cell_length_b   7.77973206
_cell_length_c   7.82267400
_cell_angle_alpha   90.00000000
_cell_angle_beta   90.00000000
_cell_angle_gamma   90.11551643
_symmetry_Int_Tables_number   1
_chemical_formula_structural   CuNi3C16
_chemical_formula_sum   'Cu2 Ni6 C32'
_cell_volume   473.46036531
_cell_formula_units_Z   2
loop_
 _symmetry_equiv_pos_site_id
 _symmetry_equiv_pos_as_xyz
  1  'x, y, z'
loop_
 _atom_site_type_symbol
 _atom_site_label
 _atom_site_symmetry_multiplicity
 _atom_site_fract_x
 _atom_site_fract_y
 _atom_site_fract_z
 _atom_site_occupancy
  C  C0  1  0.74802800  0.25182300  0.00000000  1
  C  C1  1  0.74812000  0.74812000  0.00000000  1
  C  C2  1  0.25182300  0.74802800  0.00000000  1
  C  C3  1  0.74809000  0.25188200  0.50000000  1
  C  C4  1  0.74816100  0.74816100  0.50000000  1
  C  C5  1  0.25187100  0.25187100  0.50000000  1
  C  C6  1  0.25188200  0.74809000  0.50000000  1
  C  C7  1  0.25192800  0.25192800  0.00000000  1
  Ni  Ni8  1  0.00051800  0.00051800  0.75053300  1
  Ni  Ni9  1  0.00081000  0.49950200  0.75053000  1
  Ni  Ni10  1  0.49950200  0.00081000  0.75053000  1
  Ni  Ni11  1  0.00051800  0.00051800  0.24946700  1
  Ni  Ni12  1  0.00081000  0.49950200  0.24947000  1
  Ni  Ni13  1  0.49950200  0.00081000  0.24947000  1
  Cu  Cu14  1  0.49970700  0.49970700  0.75074500  1
  Cu  Cu15  1  0.49970700  0.49970700  0.24925500  1
  C  C16  1  0.00232600  0.00232600  0.00000000  1
  C  C17  1  0.00242900  0.49769800  0.00000000  1
  C  C18  1  0.49769800  0.00242900  0.00000000  1
  C  C19  1  0.49641400  0.49641400  0.00000000  1
  C  C20  1  0.00050600  0.00050600  0.50000000  1
  C  C21  1  0.00048900  0.49947400  0.50000000  1
  C  C22  1  0.49947400  0.00048900  0.50000000  1
  C  C23  1  0.49970000  0.49970000  0.50000000  1
  C  C24  1  0.74886700  0.00029700  0.75052400  1
  C  C25  1  0.74262500  0.49866700  0.75045100  1
  C  C26  1  0.25113600  0.00252000  0.75225800  1
  C  C27  1  0.25731500  0.49856500  0.75242800  1
  C  C28  1  0.74886700  0.00029700  0.24947600  1
  C  C29  1  0.74262500  0.49866700  0.24954900  1
  C  C30  1  0.25113600  0.00252000  0.24774200  1
  C  C31  1  0.25731500  0.49856500  0.24757200  1
  C  C32  1  0.00252000  0.25113600  0.75225800  1
  C  C33  1  0.00029700  0.74886700  0.75052400  1
  C  C34  1  0.49856500  0.25731500  0.75242800  1
  C  C35  1  0.49866700  0.74262500  0.75045100  1
  C  C36  1  0.00252000  0.25113600  0.24774200  1
  C  C37  1  0.00029700  0.74886700  0.24947600  1
  C  C38  1  0.49856500  0.25731500  0.24757200  1
  C  C39  1  0.49866700  0.74262500  0.24954900  1
