# generated using pymatgen
data_Cu(NiC)2
_symmetry_space_group_name_H-M   'P 1'
_cell_length_a   5.80115700
_cell_length_b   6.38308100
_cell_length_c   6.80262229
_cell_angle_alpha   84.62071271
_cell_angle_beta   90.00000000
_cell_angle_gamma   90.00000000
_symmetry_Int_Tables_number   1
_chemical_formula_structural   Cu(NiC)2
_chemical_formula_sum   'Cu2 Ni4 C4'
_cell_volume   250.78666542
_cell_formula_units_Z   2
loop_
 _symmetry_equiv_pos_site_id
 _symmetry_equiv_pos_as_xyz
  1  'x, y, z'
loop_
 _atom_site_type_symbol
 _atom_site_label
 _atom_site_symmetry_multiplicity
 _atom_site_fract_x
 _atom_site_fract_y
 _atom_site_fract_z
 _atom_site_occupancy
  C  C0  1  0.50635600  0.60090400  0.78305800  1
  C  C1  1  0.00635600  0.39909600  0.21694200  1
  C  C2  1  0.49604900  0.96901600  0.37421500  1
  C  C3  1  0.99604900  0.03098400  0.62578500  1
  Ni  Ni4  1  0.00393100  0.84317900  0.91493700  1
  Ni  Ni5  1  0.50393100  0.15682100  0.08506300  1
  Ni  Ni6  1  0.00348900  0.36762000  0.70209700  1
  Ni  Ni7  1  0.50348900  0.63238000  0.29790300  1
  Cu  Cu8  1  0.24017500  0.99972200  0.49131100  1
  Cu  Cu9  1  0.74017500  0.00027800  0.50868900  1
