# generated using pymatgen
data_CuNi2C7
_symmetry_space_group_name_H-M   'P 1'
_cell_length_a   6.10770423
_cell_length_b   6.10770423
_cell_length_c   6.15762099
_cell_angle_alpha   59.95999647
_cell_angle_beta   59.95999647
_cell_angle_gamma   60.05719947
_symmetry_Int_Tables_number   1
_chemical_formula_structural   CuNi2C7
_chemical_formula_sum   'Cu1 Ni2 C7'
_cell_volume   162.39709203
_cell_formula_units_Z   1
loop_
 _symmetry_equiv_pos_site_id
 _symmetry_equiv_pos_as_xyz
  1  'x, y, z'
loop_
 _atom_site_type_symbol
 _atom_site_label
 _atom_site_symmetry_multiplicity
 _atom_site_fract_x
 _atom_site_fract_y
 _atom_site_fract_z
 _atom_site_occupancy
  Ni  Ni0  1  0.75117900  0.75117900  0.74496600  1
  Ni  Ni1  1  0.24882100  0.24882100  0.25503400  1
  Cu  Cu2  1  0.00000000  0.00000000  0.00000000  1
  C  C3  1  0.50000000  0.50000000  0.50000000  1
  C  C4  1  0.70080700  0.23634300  0.30277700  1
  C  C5  1  0.29919300  0.76365700  0.69722300  1
  C  C6  1  0.76365700  0.29919300  0.69722300  1
  C  C7  1  0.23634300  0.70080700  0.30277700  1
  C  C8  1  0.72966200  0.72966200  0.21094700  1
  C  C9  1  0.27033800  0.27033800  0.78905300  1
