# generated using pymatgen
data_CuNiC5
_symmetry_space_group_name_H-M   'P 1'
_cell_length_a   9.58871100
_cell_length_b   5.09558200
_cell_length_c   7.81173524
_cell_angle_alpha   70.02407597
_cell_angle_beta   90.00000000
_cell_angle_gamma   90.00000000
_symmetry_Int_Tables_number   1
_chemical_formula_structural   CuNiC5
_chemical_formula_sum   'Cu4 Ni4 C20'
_cell_volume   358.71846653
_cell_formula_units_Z   4
loop_
 _symmetry_equiv_pos_site_id
 _symmetry_equiv_pos_as_xyz
  1  'x, y, z'
loop_
 _atom_site_type_symbol
 _atom_site_label
 _atom_site_symmetry_multiplicity
 _atom_site_fract_x
 _atom_site_fract_y
 _atom_site_fract_z
 _atom_site_occupancy
  Ni  Ni0  1  0.01065600  0.52310200  0.77163300  1
  Ni  Ni1  1  0.51065600  0.47689800  0.72836700  1
  Ni  Ni2  1  0.98934400  0.47689800  0.22836700  1
  Ni  Ni3  1  0.48934400  0.52310200  0.27163300  1
  Cu  Cu4  1  0.75621600  0.11229900  0.61394300  1
  Cu  Cu5  1  0.25621600  0.88770100  0.88605700  1
  Cu  Cu6  1  0.24378400  0.88770100  0.38605700  1
  Cu  Cu7  1  0.74378400  0.11229900  0.11394300  1
  C  C8  1  0.88384200  0.40569600  0.60780500  1
  C  C9  1  0.38384200  0.59430400  0.89219500  1
  C  C10  1  0.11615800  0.59430400  0.39219500  1
  C  C11  1  0.61615800  0.40569600  0.10780500  1
  C  C12  1  0.60845800  0.36645800  0.50101600  1
  C  C13  1  0.10845800  0.63354200  0.99898400  1
  C  C14  1  0.39154200  0.63354200  0.49898400  1
  C  C15  1  0.89154200  0.36645800  0.00101600  1
  C  C16  1  0.39418200  0.13860600  0.77390900  1
  C  C17  1  0.89418200  0.86139400  0.72609100  1
  C  C18  1  0.60581800  0.86139400  0.22609100  1
  C  C19  1  0.10581800  0.13860600  0.27390900  1
  C  C20  1  0.13128200  0.18754100  0.85390800  1
  C  C21  1  0.63128200  0.81245900  0.64609200  1
  C  C22  1  0.86871800  0.81245900  0.14609200  1
  C  C23  1  0.36871800  0.18754100  0.35390800  1
  C  C24  1  0.66407500  0.20034300  0.84414500  1
  C  C25  1  0.16407500  0.79965700  0.65585500  1
  C  C26  1  0.33592500  0.79965700  0.15585500  1
  C  C27  1  0.83592500  0.20034300  0.34414500  1
