# generated using pymatgen
data_Cu3Ni2
_symmetry_space_group_name_H-M   'P 1'
_cell_length_a   7.33039488
_cell_length_b   7.33039488
_cell_length_c   9.62513792
_cell_angle_alpha   85.48173876
_cell_angle_beta   85.48173876
_cell_angle_gamma   29.87627943
_symmetry_Int_Tables_number   1
_chemical_formula_structural   Cu3Ni2
_chemical_formula_sum   'Cu6 Ni4'
_cell_volume   256.77636555
_cell_formula_units_Z   2
loop_
 _symmetry_equiv_pos_site_id
 _symmetry_equiv_pos_as_xyz
  1  'x, y, z'
loop_
 _atom_site_type_symbol
 _atom_site_label
 _atom_site_symmetry_multiplicity
 _atom_site_fract_x
 _atom_site_fract_y
 _atom_site_fract_z
 _atom_site_occupancy
  Ni  Ni0  1  0.20493700  0.20493700  0.86119600  1
  Ni  Ni1  1  0.79506300  0.79506300  0.13880400  1
  Ni  Ni2  1  0.62025800  0.62025800  0.56526100  1
  Ni  Ni3  1  0.37974200  0.37974200  0.43473900  1
  Cu  Cu4  1  0.04025500  0.04025500  0.70942100  1
  Cu  Cu5  1  0.95974500  0.95974500  0.29057900  1
  Cu  Cu6  1  0.77372300  0.77372300  0.66507900  1
  Cu  Cu7  1  0.22627700  0.22627700  0.33492100  1
  Cu  Cu8  1  0.36560000  0.36560000  0.96933300  1
  Cu  Cu9  1  0.63440000  0.63440000  0.03066700  1
