# generated using pymatgen
data_Cu(Ni3C17)2
_symmetry_space_group_name_H-M   'P 1'
_cell_length_a   14.86048682
_cell_length_b   14.86048682
_cell_length_c   14.86048682
_cell_angle_alpha   60.00000000
_cell_angle_beta   60.00000000
_cell_angle_gamma   60.00000000
_symmetry_Int_Tables_number   1
_chemical_formula_structural   Cu(Ni3C17)2
_chemical_formula_sum   'Cu2 Ni12 C68'
_cell_volume   2320.51357026
_cell_formula_units_Z   2
loop_
 _symmetry_equiv_pos_site_id
 _symmetry_equiv_pos_as_xyz
  1  'x, y, z'
loop_
 _atom_site_type_symbol
 _atom_site_label
 _atom_site_symmetry_multiplicity
 _atom_site_fract_x
 _atom_site_fract_y
 _atom_site_fract_z
 _atom_site_occupancy
  Ni  Ni0  1  0.35661200  0.35661200  0.64338800  1
  Ni  Ni1  1  0.64338800  0.64338800  0.35661200  1
  Ni  Ni2  1  0.35661200  0.64338800  0.35661200  1
  Ni  Ni3  1  0.64338800  0.35661200  0.64338800  1
  Ni  Ni4  1  0.64338800  0.35661200  0.35661200  1
  Ni  Ni5  1  0.35661200  0.64338800  0.64338800  1
  Ni  Ni6  1  0.89338800  0.89338800  0.60661200  1
  Ni  Ni7  1  0.60661200  0.60661200  0.89338800  1
  Ni  Ni8  1  0.89338800  0.60661200  0.89338800  1
  Ni  Ni9  1  0.60661200  0.89338800  0.60661200  1
  Ni  Ni10  1  0.60661200  0.89338800  0.89338800  1
  Ni  Ni11  1  0.89338800  0.60661200  0.60661200  1
  Cu  Cu12  1  0.25000000  0.25000000  0.25000000  1
  Cu  Cu13  1  0.00000000  0.00000000  0.00000000  1
  C  C14  1  0.25622100  0.49762600  0.49762600  1
  C  C15  1  0.49762600  0.25622100  0.74852600  1
  C  C16  1  0.49762600  0.74852600  0.25622100  1
  C  C17  1  0.74852600  0.49762600  0.49762600  1
  C  C18  1  0.49762600  0.49762600  0.25622100  1
  C  C19  1  0.25622100  0.74852600  0.49762600  1
  C  C20  1  0.74852600  0.25622100  0.49762600  1
  C  C21  1  0.49762600  0.49762600  0.74852600  1
  C  C22  1  0.49762600  0.25622100  0.49762600  1
  C  C23  1  0.74852600  0.49762600  0.25622100  1
  C  C24  1  0.25622100  0.49762600  0.74852600  1
  C  C25  1  0.49762600  0.74852600  0.49762600  1
  C  C26  1  0.99377900  0.75237400  0.75237400  1
  C  C27  1  0.75237400  0.99377900  0.50147400  1
  C  C28  1  0.75237400  0.50147400  0.99377900  1
  C  C29  1  0.50147400  0.75237400  0.75237400  1
  C  C30  1  0.75237400  0.75237400  0.99377900  1
  C  C31  1  0.99377900  0.50147400  0.75237400  1
  C  C32  1  0.50147400  0.99377900  0.75237400  1
  C  C33  1  0.75237400  0.75237400  0.50147400  1
  C  C34  1  0.75237400  0.99377900  0.75237400  1
  C  C35  1  0.50147400  0.75237400  0.99377900  1
  C  C36  1  0.99377900  0.75237400  0.50147400  1
  C  C37  1  0.75237400  0.50147400  0.75237400  1
  C  C38  1  0.03148000  0.32284000  0.32284000  1
  C  C39  1  0.32284000  0.03148000  0.32284000  1
  C  C40  1  0.32284000  0.32284000  0.03148000  1
  C  C41  1  0.32284000  0.32284000  0.32284000  1
  C  C42  1  0.21852000  0.92716000  0.92716000  1
  C  C43  1  0.92716000  0.21852000  0.92716000  1
  C  C44  1  0.92716000  0.92716000  0.21852000  1
  C  C45  1  0.92716000  0.92716000  0.92716000  1
  C  C46  1  0.27505700  0.27505700  0.72494300  1
  C  C47  1  0.72494300  0.72494300  0.27505700  1
  C  C48  1  0.27505700  0.72494300  0.27505700  1
  C  C49  1  0.72494300  0.27505700  0.72494300  1
  C  C50  1  0.72494300  0.27505700  0.27505700  1
  C  C51  1  0.27505700  0.72494300  0.72494300  1
  C  C52  1  0.97494300  0.97494300  0.52505700  1
  C  C53  1  0.52505700  0.52505700  0.97494300  1
  C  C54  1  0.97494300  0.52505700  0.97494300  1
  C  C55  1  0.52505700  0.97494300  0.52505700  1
  C  C56  1  0.52505700  0.97494300  0.97494300  1
  C  C57  1  0.97494300  0.52505700  0.52505700  1
  C  C58  1  0.59974700  0.18456200  0.18456200  1
  C  C59  1  0.18456200  0.59974700  0.03112900  1
  C  C60  1  0.18456200  0.03112900  0.59974700  1
  C  C61  1  0.03112900  0.18456200  0.18456200  1
  C  C62  1  0.18456200  0.18456200  0.59974700  1
  C  C63  1  0.59974700  0.03112900  0.18456200  1
  C  C64  1  0.03112900  0.59974700  0.18456200  1
  C  C65  1  0.18456200  0.18456200  0.03112900  1
  C  C66  1  0.18456200  0.59974700  0.18456200  1
  C  C67  1  0.03112900  0.18456200  0.59974700  1
  C  C68  1  0.59974700  0.18456200  0.03112900  1
  C  C69  1  0.18456200  0.03112900  0.18456200  1
  C  C70  1  0.65025300  0.06543800  0.06543800  1
  C  C71  1  0.06543800  0.65025300  0.21887100  1
  C  C72  1  0.06543800  0.21887100  0.65025300  1
  C  C73  1  0.21887100  0.06543800  0.06543800  1
  C  C74  1  0.06543800  0.06543800  0.65025300  1
  C  C75  1  0.65025300  0.21887100  0.06543800  1
  C  C76  1  0.21887100  0.65025300  0.06543800  1
  C  C77  1  0.06543800  0.06543800  0.21887100  1
  C  C78  1  0.06543800  0.65025300  0.06543800  1
  C  C79  1  0.21887100  0.06543800  0.65025300  1
  C  C80  1  0.65025300  0.06543800  0.21887100  1
  C  C81  1  0.06543800  0.21887100  0.06543800  1
