# generated using pymatgen
data_Cu6Ni6C
_symmetry_space_group_name_H-M   'P 1'
_cell_length_a   15.01041629
_cell_length_b   15.01041629
_cell_length_c   15.01041629
_cell_angle_alpha   159.13980177
_cell_angle_beta   145.26288258
_cell_angle_gamma   40.86728945
_symmetry_Int_Tables_number   1
_chemical_formula_structural   Cu6Ni6C
_chemical_formula_sum   'Cu18 Ni18 C3'
_cell_volume   685.08944432
_cell_formula_units_Z   3
loop_
 _symmetry_equiv_pos_site_id
 _symmetry_equiv_pos_as_xyz
  1  'x, y, z'
loop_
 _atom_site_type_symbol
 _atom_site_label
 _atom_site_symmetry_multiplicity
 _atom_site_fract_x
 _atom_site_fract_y
 _atom_site_fract_z
 _atom_site_occupancy
  C  C0  1  0.16820800  0.66820800  0.50000000  1
  C  C1  1  0.83179200  0.33179200  0.50000000  1
  C  C2  1  0.00000000  0.00000000  0.00000000  1
  Ni  Ni3  1  0.00000000  0.00000000  0.50000000  1
  Ni  Ni4  1  0.24659100  0.50000000  0.74659100  1
  Ni  Ni5  1  0.16259800  0.66697400  0.99630100  1
  Ni  Ni6  1  0.16259800  0.16629600  0.49562400  1
  Ni  Ni7  1  0.32932700  0.33302600  0.49562400  1
  Ni  Ni8  1  0.00000000  0.50000000  0.00000000  1
  Ni  Ni9  1  0.41373200  0.16672600  0.24700600  1
  Ni  Ni10  1  0.08028000  0.83327400  0.24700600  1
  Ni  Ni11  1  0.58626800  0.83327400  0.75299400  1
  Ni  Ni12  1  0.83740200  0.33302600  0.00369900  1
  Ni  Ni13  1  0.91972000  0.16672600  0.75299400  1
  Ni  Ni14  1  0.83740200  0.83370400  0.50437600  1
  Ni  Ni15  1  0.75340900  0.50000000  0.25340900  1
  Ni  Ni16  1  0.67067300  0.16629600  0.00369900  1
  Ni  Ni17  1  0.50000000  0.00000000  0.00000000  1
  Ni  Ni18  1  0.50000000  0.50000000  0.50000000  1
  Ni  Ni19  1  0.67067300  0.66697400  0.50437600  1
  Ni  Ni20  1  0.32932700  0.83370400  0.99630100  1
  Cu  Cu21  1  0.94432000  0.44432000  0.50000000  1
  Cu  Cu22  1  0.28000500  0.78000500  0.50000000  1
  Cu  Cu23  1  0.61026800  0.11026800  0.50000000  1
  Cu  Cu24  1  0.66298900  0.00000000  0.66298900  1
  Cu  Cu25  1  0.33701100  0.00000000  0.33701100  1
  Cu  Cu26  1  0.17092900  0.33382400  0.83710600  1
  Cu  Cu27  1  0.71999500  0.21999500  0.50000000  1
  Cu  Cu28  1  0.50328200  0.66617600  0.83710600  1
  Cu  Cu29  1  0.05568000  0.55568000  0.50000000  1
  Cu  Cu30  1  0.38973200  0.88973200  0.50000000  1
  Cu  Cu31  1  0.77656100  0.77656100  0.00000000  1
  Cu  Cu32  1  0.88781400  0.88781400  0.00000000  1
  Cu  Cu33  1  0.11218600  0.11218600  0.00000000  1
  Cu  Cu34  1  0.55554200  0.55554200  0.00000000  1
  Cu  Cu35  1  0.22343900  0.22343900  0.00000000  1
  Cu  Cu36  1  0.82907100  0.66617600  0.16289400  1
  Cu  Cu37  1  0.44445800  0.44445800  0.00000000  1
  Cu  Cu38  1  0.49671800  0.33382400  0.16289400  1
