# generated using pymatgen
data_CuNi2C3
_symmetry_space_group_name_H-M   'P 1'
_cell_length_a   3.39660370
_cell_length_b   3.39660370
_cell_length_c   38.85068900
_cell_angle_alpha   90.00000000
_cell_angle_beta   90.00000000
_cell_angle_gamma   119.99999409
_symmetry_Int_Tables_number   1
_chemical_formula_structural   CuNi2C3
_chemical_formula_sum   'Cu2 Ni4 C6'
_cell_volume   388.16747147
_cell_formula_units_Z   2
loop_
 _symmetry_equiv_pos_site_id
 _symmetry_equiv_pos_as_xyz
  1  'x, y, z'
loop_
 _atom_site_type_symbol
 _atom_site_label
 _atom_site_symmetry_multiplicity
 _atom_site_fract_x
 _atom_site_fract_y
 _atom_site_fract_z
 _atom_site_occupancy
  Ni  Ni0  1  0.33333300  0.66666700  0.70605900  1
  Ni  Ni1  1  0.66666700  0.33333300  0.42112200  1
  Ni  Ni2  1  0.66666700  0.33333300  0.51807800  1
  Ni  Ni3  1  0.33333300  0.66666700  0.60910000  1
  C  C4  1  0.33333300  0.66666700  0.09393500  1
  C  C5  1  0.33333300  0.66666700  0.46961600  1
  C  C6  1  0.66666700  0.33333300  0.28179200  1
  C  C7  1  0.66666700  0.33333300  0.65760800  1
  Cu  Cu8  1  0.33333300  0.66666700  0.32438700  1
  Cu  Cu9  1  0.33333300  0.66666700  0.23918300  1
  C  C10  1  0.66666700  0.33333300  0.05512500  1
  C  C11  1  0.66666700  0.33333300  0.13274400  1
