# generated using pymatgen
data_CuNi2C9
_symmetry_space_group_name_H-M   'P 1'
_cell_length_a   12.98600000
_cell_length_b   6.61082400
_cell_length_c   7.18715947
_cell_angle_alpha   89.86662891
_cell_angle_beta   90.00000000
_cell_angle_gamma   90.00000000
_symmetry_Int_Tables_number   1
_chemical_formula_structural   CuNi2C9
_chemical_formula_sum   'Cu4 Ni8 C36'
_cell_volume   617.00274800
_cell_formula_units_Z   4
loop_
 _symmetry_equiv_pos_site_id
 _symmetry_equiv_pos_as_xyz
  1  'x, y, z'
loop_
 _atom_site_type_symbol
 _atom_site_label
 _atom_site_symmetry_multiplicity
 _atom_site_fract_x
 _atom_site_fract_y
 _atom_site_fract_z
 _atom_site_occupancy
  C  C0  1  0.39650500  0.52045300  0.50050800  1
  C  C1  1  0.89650500  0.47954700  0.49949200  1
  C  C2  1  0.66953900  0.10843300  0.99344200  1
  C  C3  1  0.16953900  0.89156700  0.00655800  1
  C  C4  1  0.65856600  0.58673800  0.24780400  1
  C  C5  1  0.66005600  0.58414100  0.74730600  1
  C  C6  1  0.15856600  0.41326200  0.75219600  1
  C  C7  1  0.16005600  0.41585900  0.25269400  1
  Ni  Ni8  1  0.43164900  0.12330300  0.38012400  1
  Ni  Ni9  1  0.43401200  0.10584000  0.59312600  1
  Ni  Ni10  1  0.93164900  0.87669700  0.61987600  1
  Ni  Ni11  1  0.93401200  0.89416000  0.40687400  1
  Ni  Ni12  1  0.46379400  0.22136500  0.91068600  1
  Ni  Ni13  1  0.96379400  0.77863500  0.08931400  1
  Ni  Ni14  1  0.43943400  0.99608100  0.96792200  1
  Ni  Ni15  1  0.93943400  0.00391900  0.03207800  1
  Cu  Cu16  1  0.71093900  0.12592400  0.49473500  1
  Cu  Cu17  1  0.21093900  0.87407600  0.50526500  1
  Cu  Cu18  1  0.88385100  0.41155100  0.99739400  1
  Cu  Cu19  1  0.38385100  0.58844900  0.00260600  1
  C  C20  1  0.83353700  0.17142700  0.00476800  1
  C  C21  1  0.33353700  0.82857300  0.99523200  1
  C  C22  1  0.66513100  0.26124300  0.29992500  1
  C  C23  1  0.66633200  0.25922300  0.69098600  1
  C  C24  1  0.16513100  0.73875700  0.70007500  1
  C  C25  1  0.16633200  0.74077700  0.30901400  1
  C  C26  1  0.71927800  0.60392300  0.49585700  1
  C  C27  1  0.21927800  0.39607700  0.50414300  1
  C  C28  1  0.82719100  0.53899500  0.18606100  1
  C  C29  1  0.82510800  0.52397300  0.80319700  1
  C  C30  1  0.32719100  0.46100500  0.81393900  1
  C  C31  1  0.32510800  0.47602700  0.19680300  1
  C  C32  1  0.52795000  0.59135600  0.31427800  1
  C  C33  1  0.52848500  0.58895900  0.68449000  1
  C  C34  1  0.02795000  0.40864400  0.68572200  1
  C  C35  1  0.02848500  0.41104100  0.31551000  1
  C  C36  1  0.67560600  0.84170600  0.17798300  1
  C  C37  1  0.68126000  0.83782100  0.81317400  1
  C  C38  1  0.17560600  0.15829400  0.82201700  1
  C  C39  1  0.18126000  0.16217900  0.18682600  1
  C  C40  1  0.64085800  0.46958000  0.99763800  1
  C  C41  1  0.14085800  0.53042000  0.00236200  1
  C  C42  1  0.83920100  0.18138200  0.49326800  1
  C  C43  1  0.33920100  0.81861800  0.50673200  1
  C  C44  1  0.44664300  0.20168400  0.49180200  1
  C  C45  1  0.94664300  0.79831600  0.50819800  1
  C  C46  1  0.49688400  0.09418600  0.94622800  1
  C  C47  1  0.99688400  0.90581400  0.05377200  1
