# generated using pymatgen
data_Cu3(NiC2)7
_symmetry_space_group_name_H-M   'P 1'
_cell_length_a   11.30599355
_cell_length_b   11.30599355
_cell_length_c   11.30599355
_cell_angle_alpha   108.14150783
_cell_angle_beta   108.14150783
_cell_angle_gamma   112.16468886
_symmetry_Int_Tables_number   1
_chemical_formula_structural   Cu3(NiC2)7
_chemical_formula_sum   'Cu12 Ni28 C56'
_cell_volume   1110.65756915
_cell_formula_units_Z   4
loop_
 _symmetry_equiv_pos_site_id
 _symmetry_equiv_pos_as_xyz
  1  'x, y, z'
loop_
 _atom_site_type_symbol
 _atom_site_label
 _atom_site_symmetry_multiplicity
 _atom_site_fract_x
 _atom_site_fract_y
 _atom_site_fract_z
 _atom_site_occupancy
  Ni  Ni0  1  0.50000000  0.50000000  0.00000000  1
  Ni  Ni1  1  0.00000000  0.00000000  0.00000000  1
  Ni  Ni2  1  0.25000000  0.75000000  0.50000000  1
  Ni  Ni3  1  0.75000000  0.25000000  0.50000000  1
  Ni  Ni4  1  0.39820100  0.97982100  0.74385700  1
  Ni  Ni5  1  0.73596400  0.47982100  0.58162000  1
  Ni  Ni6  1  0.72982100  0.64820100  0.24385700  1
  Ni  Ni7  1  0.90434400  0.14820100  0.91838000  1
  Ni  Ni8  1  0.85179900  0.77017900  0.75614300  1
  Ni  Ni9  1  0.51403600  0.27017900  0.91838000  1
  Ni  Ni10  1  0.52017900  0.10179900  0.25614300  1
  Ni  Ni11  1  0.34565600  0.60179900  0.58162000  1
  Ni  Ni12  1  0.89820100  0.15434400  0.41838000  1
  Ni  Ni13  1  0.23596400  0.65434400  0.25614300  1
  Ni  Ni14  1  0.22982100  0.98596400  0.08162000  1
  Ni  Ni15  1  0.40434400  0.48596400  0.75614300  1
  Ni  Ni16  1  0.35179900  0.59565600  0.08162000  1
  Ni  Ni17  1  0.01403600  0.09565600  0.24385700  1
  Ni  Ni18  1  0.02017900  0.76403600  0.41838000  1
  Ni  Ni19  1  0.84565600  0.26403600  0.74385700  1
  Ni  Ni20  1  0.92840300  0.92840300  0.35680600  1
  Ni  Ni21  1  0.07159700  0.42840300  0.00000000  1
  Ni  Ni22  1  0.67840300  0.17840300  0.85680600  1
  Ni  Ni23  1  0.82159700  0.67840300  0.50000000  1
  Ni  Ni24  1  0.32159700  0.82159700  0.14319400  1
  Ni  Ni25  1  0.17840300  0.32159700  0.50000000  1
  Ni  Ni26  1  0.57159700  0.57159700  0.64319400  1
  Ni  Ni27  1  0.42840300  0.07159700  0.00000000  1
  Cu  Cu28  1  0.37500000  0.75211900  0.87711900  1
  Cu  Cu29  1  0.37500000  0.25211900  0.37711900  1
  Cu  Cu30  1  0.50211900  0.62500000  0.37711900  1
  Cu  Cu31  1  0.74788100  0.12500000  0.12288100  1
  Cu  Cu32  1  0.87500000  0.99788100  0.62288100  1
  Cu  Cu33  1  0.87500000  0.49788100  0.12288100  1
  Cu  Cu34  1  0.00211900  0.62500000  0.87711900  1
  Cu  Cu35  1  0.24788100  0.12500000  0.62288100  1
  Cu  Cu36  1  0.75000000  0.75000000  0.00000000  1
  Cu  Cu37  1  0.25000000  0.25000000  0.00000000  1
  Cu  Cu38  1  0.50000000  0.00000000  0.50000000  1
  Cu  Cu39  1  0.00000000  0.50000000  0.50000000  1
  C  C40  1  0.62500000  0.87500000  0.75000000  1
  C  C41  1  0.62500000  0.37500000  0.25000000  1
  C  C42  1  0.62500000  0.87500000  0.25000000  1
  C  C43  1  0.12500000  0.37500000  0.25000000  1
  C  C44  1  0.12500000  0.37500000  0.75000000  1
  C  C45  1  0.12500000  0.87500000  0.25000000  1
  C  C46  1  0.12500000  0.87500000  0.75000000  1
  C  C47  1  0.62500000  0.37500000  0.75000000  1
  C  C48  1  0.52562400  0.95203400  0.12632900  1
  C  C49  1  0.32570400  0.45203400  0.42640900  1
  C  C50  1  0.70203400  0.77562400  0.62632900  1
  C  C51  1  0.64929500  0.27562400  0.07359100  1
  C  C52  1  0.72437600  0.79796600  0.37367100  1
  C  C53  1  0.92429600  0.29796600  0.07359100  1
  C  C54  1  0.54796600  0.97437600  0.87367100  1
  C  C55  1  0.60070500  0.47437600  0.42640900  1
  C  C56  1  0.02562400  0.89929500  0.57359100  1
  C  C57  1  0.82570400  0.39929500  0.87367100  1
  C  C58  1  0.20203400  0.57570400  0.92640900  1
  C  C59  1  0.14929500  0.07570400  0.37367100  1
  C  C60  1  0.22437600  0.85070500  0.92640900  1
  C  C61  1  0.42429600  0.35070500  0.62632900  1
  C  C62  1  0.04796600  0.17429600  0.57359100  1
  C  C63  1  0.10070500  0.67429600  0.12632900  1
  C  C64  1  0.81252100  0.97391200  0.22868100  1
  C  C65  1  0.24523200  0.47391200  0.16139200  1
  C  C66  1  0.72391200  0.06252100  0.72868100  1
  C  C67  1  0.83384000  0.56252100  0.33860800  1
  C  C68  1  0.43747900  0.77608800  0.27131900  1
  C  C69  1  0.00476800  0.27608800  0.33860800  1
  C  C70  1  0.52608800  0.68747900  0.77131900  1
  C  C71  1  0.41616000  0.18747900  0.16139200  1
  C  C72  1  0.31252100  0.08384000  0.83860800  1
  C  C73  1  0.74523200  0.58384000  0.77131900  1
  C  C74  1  0.22391200  0.49523200  0.66139200  1
  C  C75  1  0.33384000  0.99523200  0.27131900  1
  C  C76  1  0.93747900  0.66616000  0.66139200  1
  C  C77  1  0.50476800  0.16616000  0.72868100  1
  C  C78  1  0.02608800  0.25476800  0.83860800  1
  C  C79  1  0.91616000  0.75476800  0.22868100  1
  C  C80  1  0.53715400  0.69411500  0.05162300  1
  C  C81  1  0.14249200  0.19411500  0.15696000  1
  C  C82  1  0.44411500  0.78715400  0.55162300  1
  C  C83  1  0.73553100  0.28715400  0.34304000  1
  C  C84  1  0.71284600  0.05588500  0.44837700  1
  C  C85  1  0.10750800  0.55588500  0.34304000  1
  C  C86  1  0.80588500  0.96284600  0.94837700  1
  C  C87  1  0.51446900  0.46284600  0.15696000  1
  C  C88  1  0.03715400  0.98553100  0.84304000  1
  C  C89  1  0.64249200  0.48553100  0.94837700  1
  C  C90  1  0.94411500  0.39249200  0.65696000  1
  C  C91  1  0.23553100  0.89249200  0.44837700  1
  C  C92  1  0.21284600  0.76446900  0.65696000  1
  C  C93  1  0.60750800  0.26446900  0.55162300  1
  C  C94  1  0.30588500  0.35750800  0.84304000  1
  C  C95  1  0.01446900  0.85750800  0.05162300  1
