# generated using pymatgen
data_Cu8Ni16C33
_symmetry_space_group_name_H-M   'P 1'
_cell_length_a   6.06212001
_cell_length_b   9.61477817
_cell_length_c   10.33273610
_cell_angle_alpha   89.98211976
_cell_angle_beta   90.00582299
_cell_angle_gamma   90.00259038
_symmetry_Int_Tables_number   1
_chemical_formula_structural   Cu8Ni16C33
_chemical_formula_sum   'Cu8 Ni16 C33'
_cell_volume   602.25319398
_cell_formula_units_Z   1
loop_
 _symmetry_equiv_pos_site_id
 _symmetry_equiv_pos_as_xyz
  1  'x, y, z'
loop_
 _atom_site_type_symbol
 _atom_site_label
 _atom_site_symmetry_multiplicity
 _atom_site_fract_x
 _atom_site_fract_y
 _atom_site_fract_z
 _atom_site_occupancy
  Ni  Ni0  1  0.00001600  0.00385400  0.00261400  1
  Ni  Ni1  1  0.99978500  0.25387000  0.50437800  1
  Ni  Ni2  1  0.49992700  0.00381200  0.00256800  1
  Ni  Ni3  1  0.50048000  0.25382800  0.50449400  1
  Ni  Ni4  1  0.24986000  0.49994500  0.28030800  1
  Ni  Ni5  1  0.75013800  0.24668300  0.22585400  1
  Ni  Ni6  1  0.75015100  0.00663300  0.72604400  1
  Ni  Ni7  1  0.24995300  0.25758500  0.78008700  1
  Ni  Ni8  1  0.99974900  0.50282400  0.00244800  1
  Ni  Ni9  1  0.00027400  0.75352500  0.50371400  1
  Ni  Ni10  1  0.50013200  0.50284800  0.00237800  1
  Ni  Ni11  1  0.49980900  0.75352600  0.50371200  1
  Ni  Ni12  1  0.25007900  0.99962600  0.28113400  1
  Ni  Ni13  1  0.74995300  0.75034100  0.22659900  1
  Ni  Ni14  1  0.75012400  0.50820800  0.72394700  1
  Ni  Ni15  1  0.24997000  0.75736000  0.78042900  1
  Cu  Cu16  1  0.25011900  0.21659200  0.09694700  1
  Cu  Cu17  1  0.74995000  0.46669000  0.40684800  1
  Cu  Cu18  1  0.74997000  0.28928100  0.90640500  1
  Cu  Cu19  1  0.25013200  0.04058800  0.59695300  1
  Cu  Cu20  1  0.24980300  0.71807300  0.09508700  1
  Cu  Cu21  1  0.75007300  0.96656300  0.41042000  1
  Cu  Cu22  1  0.74992900  0.79006500  0.91040300  1
  Cu  Cu23  1  0.25008200  0.54057800  0.59696600  1
  C  C24  1  0.74810400  0.51221100  0.20750100  1
  C  C25  1  0.25007500  0.38675200  0.09502200  1
  C  C26  1  0.75012400  0.13636500  0.41224100  1
  C  C27  1  0.75002000  0.11944200  0.90901600  1
  C  C28  1  0.25007800  0.37079300  0.59563700  1
  C  C29  1  0.25010400  0.11488400  0.45049000  1
  C  C30  1  0.75003400  0.36045400  0.05395100  1
  C  C31  1  0.75012000  0.39316300  0.55497500  1
  C  C32  1  0.25000500  0.14324800  0.94998300  1
  C  C33  1  0.03371000  0.14192700  0.16601000  1
  C  C34  1  0.96987800  0.38971900  0.34199800  1
  C  C35  1  0.53322900  0.36476100  0.83866800  1
  C  C36  1  0.46676000  0.11469200  0.66640900  1
  C  C37  1  0.96667800  0.36478700  0.83865000  1
  C  C38  1  0.03357100  0.11469700  0.66643500  1
  C  C39  1  0.46659100  0.14190800  0.16592500  1
  C  C40  1  0.52985000  0.38969700  0.34216200  1
  C  C41  1  0.24990000  0.88788700  0.09326200  1
  C  C42  1  0.74999700  0.63688700  0.41416000  1
  C  C43  1  0.74992700  0.62000300  0.91239800  1
  C  C44  1  0.25006200  0.87068900  0.59506600  1
  C  C45  1  0.24998400  0.61453900  0.45009900  1
  C  C46  1  0.74994500  0.86523800  0.05668500  1
  C  C47  1  0.75006900  0.89233200  0.55702400  1
  C  C48  1  0.24992200  0.64167900  0.94946300  1
  C  C49  1  0.03507600  0.64466700  0.16586700  1
  C  C50  1  0.96659100  0.89228000  0.34107600  1
  C  C51  1  0.53319700  0.86395700  0.84089700  1
  C  C52  1  0.46642900  0.61523800  0.66622300  1
  C  C53  1  0.96664800  0.86396300  0.84088600  1
  C  C54  1  0.03380600  0.61524000  0.66626600  1
  C  C55  1  0.46452000  0.64478000  0.16598500  1
  C  C56  1  0.53346800  0.89232400  0.34109500  1
