# generated using pymatgen
data_Cu2NiC5
_symmetry_space_group_name_H-M   'P 1'
_cell_length_a   6.62267200
_cell_length_b   6.46665000
_cell_length_c   10.24319719
_cell_angle_alpha   51.20365605
_cell_angle_beta   90.00000000
_cell_angle_gamma   90.00000000
_symmetry_Int_Tables_number   1
_chemical_formula_structural   Cu2NiC5
_chemical_formula_sum   'Cu4 Ni2 C10'
_cell_volume   341.89775471
_cell_formula_units_Z   2
loop_
 _symmetry_equiv_pos_site_id
 _symmetry_equiv_pos_as_xyz
  1  'x, y, z'
loop_
 _atom_site_type_symbol
 _atom_site_label
 _atom_site_symmetry_multiplicity
 _atom_site_fract_x
 _atom_site_fract_y
 _atom_site_fract_z
 _atom_site_occupancy
  Ni  Ni0  1  0.68614400  0.59852800  0.67921900  1
  Ni  Ni1  1  0.31385600  0.59852800  0.17921900  1
  C  C2  1  0.81560600  0.35521000  0.42565900  1
  C  C3  1  0.18439400  0.35521000  0.92565900  1
  Cu  Cu4  1  0.68121700  0.09306800  0.17246900  1
  Cu  Cu5  1  0.31878300  0.09306800  0.67246900  1
  Cu  Cu6  1  0.84745400  0.85880700  0.92113800  1
  Cu  Cu7  1  0.15254600  0.85880700  0.42113800  1
  C  C8  1  0.87480300  0.46961300  0.91418300  1
  C  C9  1  0.12519700  0.46961300  0.41418300  1
  C  C10  1  0.68353900  0.26420900  0.64793500  1
  C  C11  1  0.31646100  0.26420900  0.14793500  1
  C  C12  1  0.80060400  0.01036400  0.43872000  1
  C  C13  1  0.19939600  0.01036400  0.93872000  1
  C  C14  1  0.66024200  0.67354200  0.20262800  1
  C  C15  1  0.33975800  0.67354200  0.70262800  1
