# generated using pymatgen
data_Cu8Ni2C11
_symmetry_space_group_name_H-M   'P 1'
_cell_length_a   5.40517416
_cell_length_b   7.28650437
_cell_length_c   10.09665600
_cell_angle_alpha   90.00000000
_cell_angle_beta   90.00000000
_cell_angle_gamma   94.02940028
_symmetry_Int_Tables_number   1
_chemical_formula_structural   Cu8Ni2C11
_chemical_formula_sum   'Cu16 Ni4 C22'
_cell_volume   396.67207776
_cell_formula_units_Z   2
loop_
 _symmetry_equiv_pos_site_id
 _symmetry_equiv_pos_as_xyz
  1  'x, y, z'
loop_
 _atom_site_type_symbol
 _atom_site_label
 _atom_site_symmetry_multiplicity
 _atom_site_fract_x
 _atom_site_fract_y
 _atom_site_fract_z
 _atom_site_occupancy
  C  C0  1  0.00000000  0.00000000  0.00000000  1
  C  C1  1  0.50000000  0.50000000  0.50000000  1
  Ni  Ni2  1  0.75386700  0.66189000  0.78334900  1
  Ni  Ni3  1  0.25386700  0.16189000  0.71665100  1
  Ni  Ni4  1  0.24613300  0.33811000  0.21665100  1
  Ni  Ni5  1  0.74613300  0.83811000  0.28334900  1
  Cu  Cu6  1  0.57372500  0.17051900  0.92088400  1
  Cu  Cu7  1  0.07372500  0.67051900  0.57911600  1
  Cu  Cu8  1  0.42627500  0.82948100  0.07911600  1
  Cu  Cu9  1  0.92627500  0.32948100  0.42088400  1
  Cu  Cu10  1  0.68178500  0.27352700  0.04644300  1
  Cu  Cu11  1  0.18178500  0.77352700  0.45355700  1
  Cu  Cu12  1  0.31821500  0.72647300  0.95355700  1
  Cu  Cu13  1  0.81821500  0.22647300  0.54644300  1
  Cu  Cu14  1  0.84909600  0.40826500  0.89252100  1
  Cu  Cu15  1  0.34909600  0.90826500  0.60747900  1
  Cu  Cu16  1  0.15090400  0.59173500  0.10747900  1
  Cu  Cu17  1  0.65090400  0.09173500  0.39252100  1
  Cu  Cu18  1  0.39097000  0.50923700  0.77734900  1
  Cu  Cu19  1  0.89097000  0.00923700  0.72265100  1
  Cu  Cu20  1  0.60903000  0.49076300  0.22265100  1
  Cu  Cu21  1  0.10903000  0.99076300  0.27734900  1
  C  C22  1  0.83642800  0.85762800  0.82570700  1
  C  C23  1  0.33642800  0.35762800  0.67429300  1
  C  C24  1  0.16357200  0.14237200  0.17429300  1
  C  C25  1  0.66357200  0.64237200  0.32570700  1
  C  C26  1  0.77080800  0.62782100  0.63403300  1
  C  C27  1  0.27080800  0.12782100  0.86596700  1
  C  C28  1  0.22919200  0.37217900  0.36596700  1
  C  C29  1  0.72919200  0.87217900  0.13403300  1
  C  C30  1  0.73548600  0.21472200  0.96313200  1
  C  C31  1  0.23548600  0.71472200  0.53686800  1
  C  C32  1  0.26451400  0.78527800  0.03686800  1
  C  C33  1  0.76451400  0.28527800  0.46313200  1
  C  C34  1  0.92287100  0.53214600  0.86212200  1
  C  C35  1  0.42287100  0.03214600  0.63787800  1
  C  C36  1  0.07712900  0.46785400  0.13787800  1
  C  C37  1  0.57712900  0.96785400  0.36212200  1
  C  C38  1  0.47431500  0.61828000  0.82987500  1
  C  C39  1  0.97431500  0.11828000  0.67012500  1
  C  C40  1  0.52568500  0.38172000  0.17012500  1
  C  C41  1  0.02568500  0.88172000  0.32987500  1
