# generated using pymatgen
data_Cu(NiC6)2
_symmetry_space_group_name_H-M   'P 1'
_cell_length_a   6.51620300
_cell_length_b   7.25913000
_cell_length_c   9.67287100
_cell_angle_alpha   90.00000000
_cell_angle_beta   90.00000000
_cell_angle_gamma   90.00000000
_symmetry_Int_Tables_number   1
_chemical_formula_structural   Cu(NiC6)2
_chemical_formula_sum   'Cu2 Ni4 C24'
_cell_volume   457.54580243
_cell_formula_units_Z   2
loop_
 _symmetry_equiv_pos_site_id
 _symmetry_equiv_pos_as_xyz
  1  'x, y, z'
loop_
 _atom_site_type_symbol
 _atom_site_label
 _atom_site_symmetry_multiplicity
 _atom_site_fract_x
 _atom_site_fract_y
 _atom_site_fract_z
 _atom_site_occupancy
  C  C0  1  0.00000000  0.22763200  0.00000000  1
  C  C1  1  0.50000000  0.77236800  0.50000000  1
  C  C2  1  0.25000000  0.50000000  0.75000000  1
  C  C3  1  0.25000000  0.50000000  0.25000000  1
  C  C4  1  0.75000000  0.50000000  0.75000000  1
  C  C5  1  0.50000000  0.29853400  0.50000000  1
  C  C6  1  0.00000000  0.70146600  0.00000000  1
  C  C7  1  0.75000000  0.50000000  0.25000000  1
  Ni  Ni8  1  0.50000000  0.08553000  0.81294300  1
  Ni  Ni9  1  0.00000000  0.91447000  0.68705700  1
  Ni  Ni10  1  0.50000000  0.08553000  0.18705700  1
  Ni  Ni11  1  0.00000000  0.91447000  0.31294300  1
  Cu  Cu12  1  0.00000000  0.37196400  0.50000000  1
  Cu  Cu13  1  0.50000000  0.62803600  0.00000000  1
  C  C14  1  0.00000000  0.49114700  0.86346100  1
  C  C15  1  0.00000000  0.92447900  0.86745100  1
  C  C16  1  0.50000000  0.07552100  0.36745100  1
  C  C17  1  0.29197400  0.22863300  0.84131600  1
  C  C18  1  0.20802600  0.77136700  0.34131600  1
  C  C19  1  0.79197400  0.77136700  0.34131600  1
  C  C20  1  0.50000000  0.50885300  0.63653900  1
  C  C21  1  0.70802600  0.22863300  0.84131600  1
  C  C22  1  0.70802600  0.22863300  0.15868400  1
  C  C23  1  0.79197400  0.77136700  0.65868400  1
  C  C24  1  0.00000000  0.49114700  0.13653900  1
  C  C25  1  0.50000000  0.50885300  0.36346100  1
  C  C26  1  0.20802600  0.77136700  0.65868400  1
  C  C27  1  0.29197400  0.22863300  0.15868400  1
  C  C28  1  0.50000000  0.07552100  0.63254900  1
  C  C29  1  0.00000000  0.92447900  0.13254900  1
