# generated using pymatgen
data_CuNi2C15
_symmetry_space_group_name_H-M   'P 1'
_cell_length_a   7.45451637
_cell_length_b   7.45451637
_cell_length_c   7.45451597
_cell_angle_alpha   59.25288653
_cell_angle_beta   59.25288653
_cell_angle_gamma   59.25289058
_symmetry_Int_Tables_number   1
_chemical_formula_structural   CuNi2C15
_chemical_formula_sum   'Cu1 Ni2 C15'
_cell_volume   287.93176985
_cell_formula_units_Z   1
loop_
 _symmetry_equiv_pos_site_id
 _symmetry_equiv_pos_as_xyz
  1  'x, y, z'
loop_
 _atom_site_type_symbol
 _atom_site_label
 _atom_site_symmetry_multiplicity
 _atom_site_fract_x
 _atom_site_fract_y
 _atom_site_fract_z
 _atom_site_occupancy
  Ni  Ni0  1  0.36893500  0.36893500  0.36893500  1
  Ni  Ni1  1  0.63106500  0.63106500  0.63106500  1
  Cu  Cu2  1  0.00000000  0.00000000  0.00000000  1
  C  C3  1  0.50000000  0.00000000  0.00000000  1
  C  C4  1  0.00000000  0.00000000  0.50000000  1
  C  C5  1  0.00000000  0.50000000  0.00000000  1
  C  C6  1  0.92758500  0.31551200  0.31551200  1
  C  C7  1  0.33535500  0.92976100  0.92976100  1
  C  C8  1  0.31551200  0.31551200  0.92758500  1
  C  C9  1  0.92976100  0.92976100  0.33535500  1
  C  C10  1  0.92976100  0.33535500  0.92976100  1
  C  C11  1  0.31551200  0.92758500  0.31551200  1
  C  C12  1  0.07241500  0.68448800  0.68448800  1
  C  C13  1  0.66464500  0.07023900  0.07023900  1
  C  C14  1  0.68448800  0.68448800  0.07241500  1
  C  C15  1  0.07023900  0.07023900  0.66464500  1
  C  C16  1  0.07023900  0.66464500  0.07023900  1
  C  C17  1  0.68448800  0.07241500  0.68448800  1
