# generated using pymatgen
data_Cu9(NiC)2
_symmetry_space_group_name_H-M   'P 1'
_cell_length_a   10.56356500
_cell_length_b   11.93233700
_cell_length_c   13.74714739
_cell_angle_alpha   78.61649442
_cell_angle_beta   90.00000000
_cell_angle_gamma   90.00000000
_symmetry_Int_Tables_number   1
_chemical_formula_structural   Cu9(NiC)2
_chemical_formula_sum   'Cu72 Ni16 C16'
_cell_volume   1698.71308213
_cell_formula_units_Z   8
loop_
 _symmetry_equiv_pos_site_id
 _symmetry_equiv_pos_as_xyz
  1  'x, y, z'
loop_
 _atom_site_type_symbol
 _atom_site_label
 _atom_site_symmetry_multiplicity
 _atom_site_fract_x
 _atom_site_fract_y
 _atom_site_fract_z
 _atom_site_occupancy
  C  C0  1  0.39298200  0.87627900  0.98748800  1
  C  C1  1  0.89298200  0.12372100  0.51251200  1
  C  C2  1  0.60701800  0.12372100  0.01251200  1
  C  C3  1  0.10701800  0.87627900  0.48748800  1
  C  C4  1  0.26595900  0.74032600  0.24607500  1
  C  C5  1  0.76595900  0.25967400  0.25392500  1
  C  C6  1  0.73404100  0.25967400  0.75392500  1
  C  C7  1  0.23404100  0.74032600  0.74607500  1
  C  C8  1  0.11609500  0.61387600  0.01002800  1
  C  C9  1  0.61609500  0.38612400  0.48997200  1
  C  C10  1  0.88390500  0.38612400  0.98997200  1
  C  C11  1  0.38390500  0.61387600  0.51002800  1
  C  C12  1  0.70495400  0.66355400  0.98061700  1
  C  C13  1  0.20495400  0.33644600  0.51938300  1
  C  C14  1  0.29504600  0.33644600  0.01938300  1
  C  C15  1  0.79504600  0.66355400  0.48061700  1
  Ni  Ni16  1  0.10953100  0.88287900  0.93594000  1
  Ni  Ni17  1  0.60953100  0.11712100  0.56406000  1
  Ni  Ni18  1  0.89046900  0.11712100  0.06406000  1
  Ni  Ni19  1  0.39046900  0.88287900  0.43594000  1
  Ni  Ni20  1  0.40389600  0.59992800  0.07097500  1
  Ni  Ni21  1  0.90389600  0.40007200  0.42902500  1
  Ni  Ni22  1  0.59610400  0.40007200  0.92902500  1
  Ni  Ni23  1  0.09610400  0.59992800  0.57097500  1
  Ni  Ni24  1  0.42324900  0.00134900  0.16710100  1
  Ni  Ni25  1  0.92324900  0.99865100  0.33289900  1
  Ni  Ni26  1  0.57675100  0.99865100  0.83289900  1
  Ni  Ni27  1  0.07675100  0.00134900  0.66710100  1
  Ni  Ni28  1  0.03890000  0.41666000  0.17555800  1
  Ni  Ni29  1  0.53890000  0.58334000  0.32444200  1
  Ni  Ni30  1  0.96110000  0.58334000  0.82444200  1
  Ni  Ni31  1  0.46110000  0.41666000  0.67555800  1
  Cu  Cu32  1  0.21698000  0.81921000  0.89407800  1
  Cu  Cu33  1  0.71698000  0.18079000  0.60592200  1
  Cu  Cu34  1  0.78302000  0.18079000  0.10592200  1
  Cu  Cu35  1  0.28302000  0.81921000  0.39407800  1
  Cu  Cu36  1  0.16726100  0.96612100  0.98918600  1
  Cu  Cu37  1  0.66726100  0.03387900  0.51081400  1
  Cu  Cu38  1  0.83273900  0.03387900  0.01081400  1
  Cu  Cu39  1  0.33273900  0.96612100  0.48918600  1
  Cu  Cu40  1  0.02210900  0.79737900  0.99487500  1
  Cu  Cu41  1  0.52210900  0.20262100  0.50512500  1
  Cu  Cu42  1  0.97789100  0.20262100  0.00512500  1
  Cu  Cu43  1  0.47789100  0.79737900  0.49487500  1
  Cu  Cu44  1  0.29239400  0.67699900  0.09653600  1
  Cu  Cu45  1  0.79239400  0.32300100  0.40346400  1
  Cu  Cu46  1  0.70760600  0.32300100  0.90346400  1
  Cu  Cu47  1  0.20760600  0.67699900  0.59653600  1
  Cu  Cu48  1  0.33452100  0.52960700  0.00418100  1
  Cu  Cu49  1  0.83452100  0.47039300  0.49581900  1
  Cu  Cu50  1  0.66547900  0.47039300  0.99581900  1
  Cu  Cu51  1  0.16547900  0.52960700  0.50418100  1
  Cu  Cu52  1  0.48620100  0.69028100  0.00101300  1
  Cu  Cu53  1  0.98620100  0.30971900  0.49898700  1
  Cu  Cu54  1  0.51379900  0.30971900  0.99898700  1
  Cu  Cu55  1  0.01379900  0.69028100  0.50101300  1
  Cu  Cu56  1  0.56475200  0.02399600  0.17534600  1
  Cu  Cu57  1  0.06475200  0.97600400  0.32465400  1
  Cu  Cu58  1  0.43524800  0.97600400  0.82465400  1
  Cu  Cu59  1  0.93524800  0.02399600  0.67534600  1
  Cu  Cu60  1  0.39651100  0.06294600  0.05553800  1
  Cu  Cu61  1  0.89651100  0.93705400  0.44446200  1
  Cu  Cu62  1  0.60348900  0.93705400  0.94446200  1
  Cu  Cu63  1  0.10348900  0.06294600  0.55553800  1
  Cu  Cu64  1  0.40869000  0.87304000  0.15759700  1
  Cu  Cu65  1  0.90869000  0.12696000  0.34240300  1
  Cu  Cu66  1  0.59131000  0.12696000  0.84240300  1
  Cu  Cu67  1  0.09131000  0.87304000  0.65759700  1
  Cu  Cu68  1  0.89624700  0.38566700  0.15733800  1
  Cu  Cu69  1  0.39624700  0.61433300  0.34266200  1
  Cu  Cu70  1  0.10375300  0.61433300  0.84266200  1
  Cu  Cu71  1  0.60375300  0.38566700  0.65733800  1
  Cu  Cu72  1  0.09696500  0.40411300  0.07188300  1
  Cu  Cu73  1  0.59696500  0.59588700  0.42811700  1
  Cu  Cu74  1  0.90303500  0.59588700  0.92811700  1
  Cu  Cu75  1  0.40303500  0.40411300  0.57188300  1
  Cu  Cu76  1  0.04267000  0.54608600  0.16669800  1
  Cu  Cu77  1  0.54267000  0.45391400  0.33330200  1
  Cu  Cu78  1  0.95733000  0.45391400  0.83330200  1
  Cu  Cu79  1  0.45733000  0.54608600  0.66669800  1
  Cu  Cu80  1  0.05521100  0.67282900  0.29511500  1
  Cu  Cu81  1  0.55521100  0.32717100  0.20488500  1
  Cu  Cu82  1  0.94478900  0.32717100  0.70488500  1
  Cu  Cu83  1  0.44478900  0.67282900  0.79511500  1
  Cu  Cu84  1  0.08987700  0.83842600  0.20263600  1
  Cu  Cu85  1  0.58987700  0.16157400  0.29736400  1
  Cu  Cu86  1  0.91012300  0.16157400  0.79736400  1
  Cu  Cu87  1  0.41012300  0.83842600  0.70263600  1
  Cu  Cu88  1  0.76026800  0.83564800  0.90106900  1
  Cu  Cu89  1  0.26026800  0.16435200  0.59893100  1
  Cu  Cu90  1  0.23973200  0.16435200  0.09893100  1
  Cu  Cu91  1  0.73973200  0.83564800  0.40106900  1
  Cu  Cu92  1  0.75396600  0.64481800  0.15016000  1
  Cu  Cu93  1  0.25396600  0.35518200  0.34984000  1
  Cu  Cu94  1  0.24603400  0.35518200  0.84984000  1
  Cu  Cu95  1  0.74603400  0.64481800  0.65016000  1
  Cu  Cu96  1  0.65882000  0.72132200  0.76935700  1
  Cu  Cu97  1  0.15882000  0.27867800  0.73064300  1
  Cu  Cu98  1  0.34118000  0.27867800  0.23064300  1
  Cu  Cu99  1  0.84118000  0.72132200  0.26935700  1
  Cu  Cu100  1  0.80918100  0.73731500  0.17766100  1
  Cu  Cu101  1  0.30918100  0.26268500  0.32233900  1
  Cu  Cu102  1  0.19081900  0.26268500  0.82233900  1
  Cu  Cu103  1  0.69081900  0.73731500  0.67766100  1
