# generated using pymatgen
data_Cu15Ni2C19
_symmetry_space_group_name_H-M   'P 1'
_cell_length_a   20.18522556
_cell_length_b   20.18522556
_cell_length_c   20.18522520
_cell_angle_alpha   28.07703246
_cell_angle_beta   28.07703246
_cell_angle_gamma   28.07703200
_symmetry_Int_Tables_number   1
_chemical_formula_structural   Cu15Ni2C19
_chemical_formula_sum   'Cu30 Ni4 C38'
_cell_volume   1609.30474630
_cell_formula_units_Z   2
loop_
 _symmetry_equiv_pos_site_id
 _symmetry_equiv_pos_as_xyz
  1  'x, y, z'
loop_
 _atom_site_type_symbol
 _atom_site_label
 _atom_site_symmetry_multiplicity
 _atom_site_fract_x
 _atom_site_fract_y
 _atom_site_fract_z
 _atom_site_occupancy
  Ni  Ni0  1  0.88596500  0.88596500  0.88596500  1
  Ni  Ni1  1  0.38596500  0.38596500  0.38596500  1
  Ni  Ni2  1  0.11403500  0.11403500  0.11403500  1
  Ni  Ni3  1  0.61403500  0.61403500  0.61403500  1
  Cu  Cu4  1  0.81191500  0.99952200  0.12880800  1
  Cu  Cu5  1  0.12880800  0.81191500  0.99952200  1
  Cu  Cu6  1  0.99952200  0.12880800  0.81191500  1
  Cu  Cu7  1  0.62880800  0.49952200  0.31191500  1
  Cu  Cu8  1  0.31191500  0.62880800  0.49952200  1
  Cu  Cu9  1  0.49952200  0.31191500  0.62880800  1
  Cu  Cu10  1  0.18808500  0.00047800  0.87119200  1
  Cu  Cu11  1  0.87119200  0.18808500  0.00047800  1
  Cu  Cu12  1  0.00047800  0.87119200  0.18808500  1
  Cu  Cu13  1  0.37119200  0.50047800  0.68808500  1
  Cu  Cu14  1  0.68808500  0.37119200  0.50047800  1
  Cu  Cu15  1  0.50047800  0.68808500  0.37119200  1
  Cu  Cu16  1  0.63849000  0.77816000  0.95197600  1
  Cu  Cu17  1  0.95197600  0.63849000  0.77816000  1
  Cu  Cu18  1  0.77816000  0.95197600  0.63849000  1
  Cu  Cu19  1  0.45197600  0.27816000  0.13849000  1
  Cu  Cu20  1  0.13849000  0.45197600  0.27816000  1
  Cu  Cu21  1  0.27816000  0.13849000  0.45197600  1
  Cu  Cu22  1  0.36151000  0.22184000  0.04802400  1
  Cu  Cu23  1  0.04802400  0.36151000  0.22184000  1
  Cu  Cu24  1  0.22184000  0.04802400  0.36151000  1
  Cu  Cu25  1  0.54802400  0.72184000  0.86151000  1
  Cu  Cu26  1  0.86151000  0.54802400  0.72184000  1
  Cu  Cu27  1  0.72184000  0.86151000  0.54802400  1
  Cu  Cu28  1  0.59080600  0.90919400  0.75000000  1
  Cu  Cu29  1  0.75000000  0.59080600  0.90919400  1
  Cu  Cu30  1  0.90919400  0.75000000  0.59080600  1
  Cu  Cu31  1  0.25000000  0.40919400  0.09080600  1
  Cu  Cu32  1  0.09080600  0.25000000  0.40919400  1
  Cu  Cu33  1  0.40919400  0.09080600  0.25000000  1
  C  C34  1  0.94316800  0.69957500  0.30655400  1
  C  C35  1  0.30655400  0.94316800  0.69957500  1
  C  C36  1  0.69957500  0.30655400  0.94316800  1
  C  C37  1  0.80655400  0.19957500  0.44316800  1
  C  C38  1  0.44316800  0.80655400  0.19957500  1
  C  C39  1  0.19957500  0.44316800  0.80655400  1
  C  C40  1  0.05683200  0.30042500  0.69344600  1
  C  C41  1  0.69344600  0.05683200  0.30042500  1
  C  C42  1  0.30042500  0.69344600  0.05683200  1
  C  C43  1  0.19344600  0.80042500  0.55683200  1
  C  C44  1  0.55683200  0.19344600  0.80042500  1
  C  C45  1  0.80042500  0.55683200  0.19344600  1
  C  C46  1  0.45895000  0.07762100  0.82040200  1
  C  C47  1  0.82040200  0.45895000  0.07762000  1
  C  C48  1  0.07762100  0.82040200  0.45895000  1
  C  C49  1  0.32040200  0.57762000  0.95895000  1
  C  C50  1  0.95895000  0.32040200  0.57762100  1
  C  C51  1  0.57762100  0.95895000  0.32040200  1
  C  C52  1  0.54105000  0.92237900  0.17959800  1
  C  C53  1  0.17959800  0.54105000  0.92238000  1
  C  C54  1  0.92238000  0.17959800  0.54105000  1
  C  C55  1  0.67959800  0.42238000  0.04105000  1
  C  C56  1  0.04105000  0.67959800  0.42238000  1
  C  C57  1  0.42238000  0.04105000  0.67959800  1
  C  C58  1  0.05641000  0.44359000  0.75000000  1
  C  C59  1  0.75000000  0.05641000  0.44359000  1
  C  C60  1  0.44359000  0.75000000  0.05641000  1
  C  C61  1  0.25000000  0.94359000  0.55641000  1
  C  C62  1  0.55641000  0.25000000  0.94359000  1
  C  C63  1  0.94359000  0.55641000  0.25000000  1
  C  C64  1  0.94509100  0.94509100  0.94509100  1
  C  C65  1  0.44509100  0.44509100  0.44509100  1
  C  C66  1  0.05490900  0.05490900  0.05490900  1
  C  C67  1  0.55490900  0.55490900  0.55490900  1
  C  C68  1  0.82453400  0.82453400  0.82453400  1
  C  C69  1  0.32453400  0.32453400  0.32453400  1
  C  C70  1  0.17546600  0.17546600  0.17546600  1
  C  C71  1  0.67546600  0.67546600  0.67546600  1
