# generated using pymatgen
data_Cu3NiC14
_symmetry_space_group_name_H-M   'P 1'
_cell_length_a   5.08720911
_cell_length_b   10.11400288
_cell_length_c   10.11400288
_cell_angle_alpha   68.87004636
_cell_angle_beta   79.84552258
_cell_angle_gamma   79.84552258
_symmetry_Int_Tables_number   1
_chemical_formula_structural   Cu3NiC14
_chemical_formula_sum   'Cu6 Ni2 C28'
_cell_volume   474.17866947
_cell_formula_units_Z   2
loop_
 _symmetry_equiv_pos_site_id
 _symmetry_equiv_pos_as_xyz
  1  'x, y, z'
loop_
 _atom_site_type_symbol
 _atom_site_label
 _atom_site_symmetry_multiplicity
 _atom_site_fract_x
 _atom_site_fract_y
 _atom_site_fract_z
 _atom_site_occupancy
  C  C0  1  0.09106200  0.03968600  0.28637700  1
  C  C1  1  0.90893800  0.96031400  0.71362300  1
  C  C2  1  0.40893800  0.71362300  0.96031400  1
  C  C3  1  0.59106200  0.28637700  0.03968600  1
  Ni  Ni4  1  0.25000000  0.62378300  0.37621700  1
  Ni  Ni5  1  0.75000000  0.37621700  0.62378300  1
  Cu  Cu6  1  0.25000000  0.14373800  0.85626200  1
  Cu  Cu7  1  0.75000000  0.85626200  0.14373800  1
  Cu  Cu8  1  0.38020700  0.23425400  0.44586900  1
  Cu  Cu9  1  0.61979300  0.76574600  0.55413100  1
  Cu  Cu10  1  0.11979300  0.55413100  0.76574600  1
  Cu  Cu11  1  0.88020700  0.44586900  0.23425400  1
  C  C12  1  0.11627600  0.39003700  0.47183100  1
  C  C13  1  0.88372400  0.60996300  0.52816900  1
  C  C14  1  0.38372400  0.52816900  0.60996300  1
  C  C15  1  0.61627600  0.47183100  0.39003700  1
  C  C16  1  0.01649100  0.18634400  0.72096900  1
  C  C17  1  0.98350900  0.81365600  0.27903100  1
  C  C18  1  0.48350900  0.27903100  0.81365600  1
  C  C19  1  0.51649100  0.72096900  0.18634400  1
  C  C20  1  0.43876000  0.97797700  0.86439900  1
  C  C21  1  0.56124000  0.02202300  0.13560100  1
  C  C22  1  0.06124000  0.13560100  0.02202300  1
  C  C23  1  0.93876000  0.86439900  0.97797700  1
  C  C24  1  0.40441300  0.78788700  0.41775300  1
  C  C25  1  0.59558700  0.21211300  0.58224700  1
  C  C26  1  0.09558700  0.58224700  0.21211300  1
  C  C27  1  0.90441300  0.41775300  0.78788700  1
  C  C28  1  0.24568900  0.07443300  0.49530800  1
  C  C29  1  0.75431200  0.92556700  0.50469200  1
  C  C30  1  0.25431200  0.50469200  0.92556700  1
  C  C31  1  0.74568800  0.49530800  0.07443300  1
  C  C32  1  0.36904500  0.74761700  0.70736800  1
  C  C33  1  0.63095500  0.25238300  0.29263200  1
  C  C34  1  0.13095500  0.29263200  0.25238300  1
  C  C35  1  0.86904500  0.70736800  0.74761700  1
