# generated using pymatgen
data_Cu(Ni3C2)2
_symmetry_space_group_name_H-M   'P 1'
_cell_length_a   7.63702100
_cell_length_b   13.41338900
_cell_length_c   15.95244500
_cell_angle_alpha   90.00000000
_cell_angle_beta   90.00000000
_cell_angle_gamma   90.00000000
_symmetry_Int_Tables_number   1
_chemical_formula_structural   Cu(Ni3C2)2
_chemical_formula_sum   'Cu4 Ni24 C16'
_cell_volume   1634.14188064
_cell_formula_units_Z   4
loop_
 _symmetry_equiv_pos_site_id
 _symmetry_equiv_pos_as_xyz
  1  'x, y, z'
loop_
 _atom_site_type_symbol
 _atom_site_label
 _atom_site_symmetry_multiplicity
 _atom_site_fract_x
 _atom_site_fract_y
 _atom_site_fract_z
 _atom_site_occupancy
  C  C0  1  0.25000000  0.88735900  0.53884500  1
  C  C1  1  0.75000000  0.11264100  0.46115500  1
  C  C2  1  0.75000000  0.61264100  0.03884500  1
  C  C3  1  0.25000000  0.38735900  0.96115500  1
  C  C4  1  0.25000000  0.55956100  0.64336300  1
  C  C5  1  0.75000000  0.44043900  0.35663700  1
  C  C6  1  0.75000000  0.94043900  0.14336300  1
  C  C7  1  0.25000000  0.05956100  0.85663700  1
  C  C8  1  0.25000000  0.66576600  0.27381700  1
  C  C9  1  0.75000000  0.33423400  0.72618300  1
  C  C10  1  0.75000000  0.83423400  0.77381700  1
  C  C11  1  0.25000000  0.16576600  0.22618300  1
  C  C12  1  0.25000000  0.72445200  0.90496000  1
  C  C13  1  0.75000000  0.27554800  0.09504000  1
  C  C14  1  0.75000000  0.77554800  0.40496000  1
  C  C15  1  0.25000000  0.22445200  0.59504000  1
  Ni  Ni16  1  0.01960300  0.60718800  0.84930200  1
  Ni  Ni17  1  0.98039700  0.39281200  0.15069800  1
  Ni  Ni18  1  0.98039700  0.89281200  0.34930200  1
  Ni  Ni19  1  0.51960300  0.39281200  0.15069800  1
  Ni  Ni20  1  0.01960300  0.10718800  0.65069800  1
  Ni  Ni21  1  0.48039700  0.60718800  0.84930200  1
  Ni  Ni22  1  0.48039700  0.10718800  0.65069800  1
  Ni  Ni23  1  0.51960300  0.89281200  0.34930200  1
  Ni  Ni24  1  0.25000000  0.63716500  0.04425200  1
  Ni  Ni25  1  0.75000000  0.36283500  0.95574800  1
  Ni  Ni26  1  0.75000000  0.86283500  0.54425200  1
  Ni  Ni27  1  0.25000000  0.13716500  0.45574800  1
  Ni  Ni28  1  0.02099500  0.84136500  0.96072600  1
  Ni  Ni29  1  0.97900500  0.15863500  0.03927400  1
  Ni  Ni30  1  0.97900500  0.65863500  0.46072600  1
  Ni  Ni31  1  0.52099500  0.15863500  0.03927400  1
  Ni  Ni32  1  0.02099500  0.34136500  0.53927400  1
  Ni  Ni33  1  0.47900500  0.84136500  0.96072600  1
  Ni  Ni34  1  0.47900500  0.34136500  0.53927400  1
  Ni  Ni35  1  0.52099500  0.65863500  0.46072600  1
  Ni  Ni36  1  0.25000000  0.81210200  0.76352100  1
  Ni  Ni37  1  0.75000000  0.18789800  0.23647900  1
  Ni  Ni38  1  0.75000000  0.68789800  0.26352100  1
  Ni  Ni39  1  0.25000000  0.31210200  0.73647900  1
  Cu  Cu40  1  0.25000000  0.93940000  0.16055700  1
  Cu  Cu41  1  0.75000000  0.06060000  0.83944300  1
  Cu  Cu42  1  0.75000000  0.56060000  0.66055700  1
  Cu  Cu43  1  0.25000000  0.43940000  0.33944300  1
