# generated using pymatgen
data_Cu4NiC3
_symmetry_space_group_name_H-M   'P 1'
_cell_length_a   9.13047569
_cell_length_b   9.13047569
_cell_length_c   7.17638452
_cell_angle_alpha   73.44196247
_cell_angle_beta   73.44196247
_cell_angle_gamma   56.31444042
_symmetry_Int_Tables_number   1
_chemical_formula_structural   Cu4NiC3
_chemical_formula_sum   'Cu8 Ni2 C6'
_cell_volume   471.08744419
_cell_formula_units_Z   2
loop_
 _symmetry_equiv_pos_site_id
 _symmetry_equiv_pos_as_xyz
  1  'x, y, z'
loop_
 _atom_site_type_symbol
 _atom_site_label
 _atom_site_symmetry_multiplicity
 _atom_site_fract_x
 _atom_site_fract_y
 _atom_site_fract_z
 _atom_site_occupancy
  C  C0  1  0.12481500  0.87518500  0.75000000  1
  C  C1  1  0.87518500  0.12481500  0.25000000  1
  C  C2  1  0.12583100  0.37762900  0.73063900  1
  C  C3  1  0.62237100  0.87416900  0.76936100  1
  C  C4  1  0.87416900  0.62237100  0.26936100  1
  C  C5  1  0.37762900  0.12583100  0.23063900  1
  Ni  Ni6  1  0.62330800  0.37669200  0.75000000  1
  Ni  Ni7  1  0.37669200  0.62330800  0.25000000  1
  Cu  Cu8  1  0.00472800  0.79704500  0.50340700  1
  Cu  Cu9  1  0.20295500  0.99527200  0.99659300  1
  Cu  Cu10  1  0.99527200  0.20295500  0.49659300  1
  Cu  Cu11  1  0.79704500  0.00472800  0.00340700  1
  Cu  Cu12  1  0.23574000  0.54812200  0.96673700  1
  Cu  Cu13  1  0.45187800  0.76426000  0.53326300  1
  Cu  Cu14  1  0.76426000  0.45187800  0.03326300  1
  Cu  Cu15  1  0.54812200  0.23574000  0.46673700  1
