# generated using pymatgen
data_CuNi13C24
_symmetry_space_group_name_H-M   'P 1'
_cell_length_a   6.76829576
_cell_length_b   6.76829576
_cell_length_c   11.25387500
_cell_angle_alpha   90.00000000
_cell_angle_beta   90.00000000
_cell_angle_gamma   119.99999766
_symmetry_Int_Tables_number   1
_chemical_formula_structural   CuNi13C24
_chemical_formula_sum   'Cu1 Ni13 C24'
_cell_volume   446.46907793
_cell_formula_units_Z   1
loop_
 _symmetry_equiv_pos_site_id
 _symmetry_equiv_pos_as_xyz
  1  'x, y, z'
loop_
 _atom_site_type_symbol
 _atom_site_label
 _atom_site_symmetry_multiplicity
 _atom_site_fract_x
 _atom_site_fract_y
 _atom_site_fract_z
 _atom_site_occupancy
  Ni  Ni0  1  0.00000000  0.00000000  0.00000000  1
  Ni  Ni1  1  0.50000000  0.00000000  0.50000000  1
  Ni  Ni2  1  0.00000000  0.50000000  0.50000000  1
  Ni  Ni3  1  0.50000000  0.50000000  0.50000000  1
  Ni  Ni4  1  0.83318500  0.16681500  0.23457500  1
  Ni  Ni5  1  0.16681500  0.83318500  0.76542500  1
  Ni  Ni6  1  0.83318500  0.66637100  0.23457500  1
  Ni  Ni7  1  0.16681500  0.33362900  0.76542500  1
  Ni  Ni8  1  0.33362900  0.16681500  0.23457500  1
  Ni  Ni9  1  0.66637100  0.83318500  0.76542500  1
  Ni  Ni10  1  0.50000000  0.00000000  0.00000000  1
  Ni  Ni11  1  0.00000000  0.50000000  0.00000000  1
  Ni  Ni12  1  0.50000000  0.50000000  0.00000000  1
  Cu  Cu13  1  0.00000000  0.00000000  0.50000000  1
  C  C14  1  0.33333300  0.66666700  0.26220300  1
  C  C15  1  0.66666700  0.33333300  0.73779700  1
  C  C16  1  0.84112900  0.15887100  0.40745000  1
  C  C17  1  0.15887100  0.84112900  0.59255000  1
  C  C18  1  0.84112900  0.68225800  0.40745000  1
  C  C19  1  0.15887100  0.31774200  0.59255000  1
  C  C20  1  0.31774200  0.15887100  0.40745000  1
  C  C21  1  0.68225800  0.84112900  0.59255000  1
  C  C22  1  0.46634600  0.53365400  0.21214400  1
  C  C23  1  0.53365400  0.46634600  0.78785600  1
  C  C24  1  0.46634600  0.93269300  0.21214400  1
  C  C25  1  0.53365400  0.06730700  0.78785600  1
  C  C26  1  0.06730700  0.53365400  0.21214400  1
  C  C27  1  0.93269300  0.46634600  0.78785600  1
  C  C28  1  0.00000000  0.00000000  0.19783600  1
  C  C29  1  0.00000000  0.00000000  0.80216400  1
  C  C30  1  0.33333300  0.66666700  0.40751000  1
  C  C31  1  0.66666700  0.33333300  0.59249000  1
  C  C32  1  0.80650600  0.19349400  0.05623000  1
  C  C33  1  0.19349400  0.80650600  0.94377000  1
  C  C34  1  0.80650600  0.61301200  0.05623000  1
  C  C35  1  0.19349400  0.38698800  0.94377000  1
  C  C36  1  0.38698800  0.19349400  0.05623000  1
  C  C37  1  0.61301200  0.80650600  0.94377000  1
