# generated using pymatgen
data_Cu3NiC9
_symmetry_space_group_name_H-M   'P 1'
_cell_length_a   6.76967531
_cell_length_b   6.76967531
_cell_length_c   9.41537603
_cell_angle_alpha   47.02433024
_cell_angle_beta   47.02433024
_cell_angle_gamma   23.45673417
_symmetry_Int_Tables_number   1
_chemical_formula_structural   Cu3NiC9
_chemical_formula_sum   'Cu3 Ni1 C9'
_cell_volume   123.29253218
_cell_formula_units_Z   1
loop_
 _symmetry_equiv_pos_site_id
 _symmetry_equiv_pos_as_xyz
  1  'x, y, z'
loop_
 _atom_site_type_symbol
 _atom_site_label
 _atom_site_symmetry_multiplicity
 _atom_site_fract_x
 _atom_site_fract_y
 _atom_site_fract_z
 _atom_site_occupancy
  C  C0  1  0.49974300  0.49974300  0.99856000  1
  Ni  Ni1  1  0.34990500  0.34990500  0.81487500  1
  Cu  Cu2  1  0.65270600  0.65270600  0.17888700  1
  Cu  Cu3  1  0.16735800  0.16735800  0.48250700  1
  Cu  Cu4  1  0.83739400  0.83739400  0.51508600  1
  C  C5  1  0.55007800  0.55007800  0.61468000  1
  C  C6  1  0.45886400  0.45886400  0.37753800  1
  C  C7  1  0.16210300  0.16210300  0.29891200  1
  C  C8  1  0.83374400  0.83374400  0.69946500  1
  C  C9  1  0.14309000  0.14309000  0.06643000  1
  C  C10  1  0.83786400  0.83786400  0.96471500  1
  C  C11  1  0.20877700  0.20877700  0.63162300  1
  C  C12  1  0.79837300  0.79837300  0.35672300  1
