# generated using pymatgen
data_CuNiC
_symmetry_space_group_name_H-M   'P 1'
_cell_length_a   9.20001414
_cell_length_b   9.20001414
_cell_length_c   8.32842200
_cell_angle_alpha   90.00000000
_cell_angle_beta   90.00000000
_cell_angle_gamma   120.00000100
_symmetry_Int_Tables_number   1
_chemical_formula_structural   CuNiC
_chemical_formula_sum   'Cu8 Ni8 C8'
_cell_volume   610.47845245
_cell_formula_units_Z   8
loop_
 _symmetry_equiv_pos_site_id
 _symmetry_equiv_pos_as_xyz
  1  'x, y, z'
loop_
 _atom_site_type_symbol
 _atom_site_label
 _atom_site_symmetry_multiplicity
 _atom_site_fract_x
 _atom_site_fract_y
 _atom_site_fract_z
 _atom_site_occupancy
  C  C0  1  0.17227000  0.34454100  0.39570500  1
  C  C1  1  0.17227000  0.82773000  0.39570500  1
  C  C2  1  0.65545900  0.82773000  0.39570500  1
  C  C3  1  0.82773000  0.65545900  0.89570500  1
  C  C4  1  0.82773000  0.17227000  0.89570500  1
  C  C5  1  0.34454100  0.17227000  0.89570500  1
  C  C6  1  0.33333300  0.66666700  0.53653800  1
  C  C7  1  0.66666700  0.33333300  0.03653800  1
  Ni  Ni8  1  0.16756400  0.33512900  0.74894500  1
  Ni  Ni9  1  0.16756400  0.83243600  0.74894500  1
  Ni  Ni10  1  0.66487100  0.83243600  0.74894500  1
  Ni  Ni11  1  0.83243600  0.66487100  0.24894500  1
  Ni  Ni12  1  0.83243600  0.16756400  0.24894500  1
  Ni  Ni13  1  0.33512900  0.16756400  0.24894500  1
  Ni  Ni14  1  0.33333300  0.66666700  0.17052800  1
  Ni  Ni15  1  0.66666700  0.33333300  0.67052800  1
  Cu  Cu16  1  0.51709300  0.03418700  0.45827800  1
  Cu  Cu17  1  0.51709300  0.48290700  0.45827800  1
  Cu  Cu18  1  0.96581300  0.48290700  0.45827800  1
  Cu  Cu19  1  0.48290700  0.96581300  0.95827800  1
  Cu  Cu20  1  0.48290700  0.51709300  0.95827800  1
  Cu  Cu21  1  0.03418700  0.51709300  0.95827800  1
  Cu  Cu22  1  0.00000000  0.00000000  0.45400200  1
  Cu  Cu23  1  0.00000000  0.00000000  0.95400200  1
