# generated using pymatgen
data_Cu(NiC7)2
_symmetry_space_group_name_H-M   'P 1'
_cell_length_a   10.07531900
_cell_length_b   6.38790200
_cell_length_c   6.81485718
_cell_angle_alpha   75.76800329
_cell_angle_beta   90.00000000
_cell_angle_gamma   90.00000000
_symmetry_Int_Tables_number   1
_chemical_formula_structural   Cu(NiC7)2
_chemical_formula_sum   'Cu2 Ni4 C28'
_cell_volume   425.14365236
_cell_formula_units_Z   2
loop_
 _symmetry_equiv_pos_site_id
 _symmetry_equiv_pos_as_xyz
  1  'x, y, z'
loop_
 _atom_site_type_symbol
 _atom_site_label
 _atom_site_symmetry_multiplicity
 _atom_site_fract_x
 _atom_site_fract_y
 _atom_site_fract_z
 _atom_site_occupancy
  C  C0  1  0.61082000  0.41574200  0.16608500  1
  C  C1  1  0.11082000  0.58425800  0.33391500  1
  C  C2  1  0.38918000  0.58425800  0.83391500  1
  C  C3  1  0.88918000  0.41574200  0.66608500  1
  C  C4  1  0.83393900  0.87306800  0.02379400  1
  C  C5  1  0.33393900  0.12693200  0.47620600  1
  C  C6  1  0.16606100  0.12693200  0.97620600  1
  C  C7  1  0.66606100  0.87306800  0.52379400  1
  Ni  Ni8  1  0.39967100  0.66356400  0.37190000  1
  Ni  Ni9  1  0.89967100  0.33643600  0.12810000  1
  Ni  Ni10  1  0.60032900  0.33643600  0.62810000  1
  Ni  Ni11  1  0.10032900  0.66356400  0.87190000  1
  Cu  Cu12  1  0.50000000  0.00000000  0.00000000  1
  Cu  Cu13  1  0.00000000  0.00000000  0.50000000  1
  C  C14  1  0.82705800  0.51834700  0.05679500  1
  C  C15  1  0.32705800  0.48165300  0.44320500  1
  C  C16  1  0.17294200  0.48165300  0.94320500  1
  C  C17  1  0.67294200  0.51834700  0.55679500  1
  C  C18  1  0.65006800  0.00499700  0.17704200  1
  C  C19  1  0.15006800  0.99500300  0.32295800  1
  C  C20  1  0.34993200  0.99500300  0.82295800  1
  C  C21  1  0.84993200  0.00499700  0.67704200  1
  C  C22  1  0.43830900  0.70992000  0.16429900  1
  C  C23  1  0.93830900  0.29008000  0.33570100  1
  C  C24  1  0.56169100  0.29008000  0.83570100  1
  C  C25  1  0.06169100  0.70992000  0.66429900  1
  C  C26  1  0.93756700  0.20031500  0.00889600  1
  C  C27  1  0.43756700  0.79968500  0.49110400  1
  C  C28  1  0.06243300  0.79968500  0.99110400  1
  C  C29  1  0.56243300  0.20031500  0.50889600  1
  C  C30  1  0.38489600  0.16254600  0.13453600  1
  C  C31  1  0.88489600  0.83745400  0.36546400  1
  C  C32  1  0.61510400  0.83745400  0.86546400  1
  C  C33  1  0.11510400  0.16254600  0.63453600  1
