# generated using pymatgen
data_Cu(NiC4)2
_symmetry_space_group_name_H-M   'P 1'
_cell_length_a   7.43226465
_cell_length_b   7.43226465
_cell_length_c   7.43226465
_cell_angle_alpha   120.57262681
_cell_angle_beta   119.40253256
_cell_angle_gamma   90.02449978
_symmetry_Int_Tables_number   1
_chemical_formula_structural   Cu(NiC4)2
_chemical_formula_sum   'Cu2 Ni4 C16'
_cell_volume   290.31762482
_cell_formula_units_Z   2
loop_
 _symmetry_equiv_pos_site_id
 _symmetry_equiv_pos_as_xyz
  1  'x, y, z'
loop_
 _atom_site_type_symbol
 _atom_site_label
 _atom_site_symmetry_multiplicity
 _atom_site_fract_x
 _atom_site_fract_y
 _atom_site_fract_z
 _atom_site_occupancy
  Ni  Ni0  1  0.00000000  0.50000000  0.00000000  1
  Ni  Ni1  1  0.00000000  0.00000000  0.50000000  1
  Ni  Ni2  1  0.00000000  0.50000000  0.50000000  1
  Ni  Ni3  1  0.50000000  0.50000000  0.00000000  1
  Cu  Cu4  1  0.50000000  0.00000000  0.00000000  1
  Cu  Cu5  1  0.50000000  0.50000000  0.50000000  1
  C  C6  1  0.50000000  0.00000000  0.50000000  1
  C  C7  1  0.00000000  0.00000000  0.00000000  1
  C  C8  1  0.87851500  0.62851500  0.25000000  1
  C  C9  1  0.12148500  0.37148500  0.75000000  1
  C  C10  1  0.82315100  0.07315100  0.75000000  1
  C  C11  1  0.40205900  0.65205900  0.75000000  1
  C  C12  1  0.84169600  0.67305400  0.76533900  1
  C  C13  1  0.40771500  0.07635800  0.73466100  1
  C  C14  1  0.84169600  0.07635800  0.16864200  1
  C  C15  1  0.40771500  0.67305400  0.33135800  1
  C  C16  1  0.17684900  0.92684900  0.25000000  1
  C  C17  1  0.59794100  0.34794100  0.25000000  1
  C  C18  1  0.15830400  0.32694600  0.23466100  1
  C  C19  1  0.59228500  0.92364200  0.26533900  1
  C  C20  1  0.15830400  0.92364200  0.83135800  1
  C  C21  1  0.59228500  0.32694600  0.66864200  1
