# generated using pymatgen
data_Cu2NiC6
_symmetry_space_group_name_H-M   'P 1'
_cell_length_a   6.77868300
_cell_length_b   6.77868300
_cell_length_c   5.93051100
_cell_angle_alpha   90.00000000
_cell_angle_beta   90.00000000
_cell_angle_gamma   90.00000000
_symmetry_Int_Tables_number   1
_chemical_formula_structural   Cu2NiC6
_chemical_formula_sum   'Cu4 Ni2 C12'
_cell_volume   272.51020199
_cell_formula_units_Z   2
loop_
 _symmetry_equiv_pos_site_id
 _symmetry_equiv_pos_as_xyz
  1  'x, y, z'
loop_
 _atom_site_type_symbol
 _atom_site_label
 _atom_site_symmetry_multiplicity
 _atom_site_fract_x
 _atom_site_fract_y
 _atom_site_fract_z
 _atom_site_occupancy
  Ni  Ni0  1  0.00000000  0.00000000  0.00000000  1
  Ni  Ni1  1  0.50000000  0.50000000  0.00000000  1
  Cu  Cu2  1  0.32453200  0.17546800  0.50000000  1
  Cu  Cu3  1  0.67546800  0.82453200  0.50000000  1
  Cu  Cu4  1  0.82453200  0.32453200  0.50000000  1
  Cu  Cu5  1  0.17546800  0.67546800  0.50000000  1
  C  C6  1  0.50000000  0.00000000  0.00000000  1
  C  C7  1  0.00000000  0.50000000  0.00000000  1
  C  C8  1  0.14008900  0.35991100  0.75022900  1
  C  C9  1  0.64008900  0.14008900  0.24977100  1
  C  C10  1  0.85991100  0.64008900  0.75022900  1
  C  C11  1  0.14008900  0.35991100  0.24977100  1
  C  C12  1  0.50000000  0.50000000  0.50000000  1
  C  C13  1  0.35991100  0.85991100  0.75022900  1
  C  C14  1  0.64008900  0.14008900  0.75022900  1
  C  C15  1  0.85991100  0.64008900  0.24977100  1
  C  C16  1  0.35991100  0.85991100  0.24977100  1
  C  C17  1  0.00000000  0.00000000  0.50000000  1
