# generated using pymatgen
data_Cu2(Ni2C3)3
_symmetry_space_group_name_H-M   'P 1'
_cell_length_a   7.24822352
_cell_length_b   7.24822352
_cell_length_c   7.24822352
_cell_angle_alpha   60.00000000
_cell_angle_beta   60.00000000
_cell_angle_gamma   60.00000000
_symmetry_Int_Tables_number   1
_chemical_formula_structural   Cu2(Ni2C3)3
_chemical_formula_sum   'Cu2 Ni6 C9'
_cell_volume   269.26489358
_cell_formula_units_Z   1
loop_
 _symmetry_equiv_pos_site_id
 _symmetry_equiv_pos_as_xyz
  1  'x, y, z'
loop_
 _atom_site_type_symbol
 _atom_site_label
 _atom_site_symmetry_multiplicity
 _atom_site_fract_x
 _atom_site_fract_y
 _atom_site_fract_z
 _atom_site_occupancy
  Ni  Ni0  1  0.75048100  0.24951900  0.24951900  1
  Ni  Ni1  1  0.24951900  0.75048100  0.75048100  1
  Ni  Ni2  1  0.24951900  0.75048100  0.24951900  1
  Ni  Ni3  1  0.75048100  0.24951900  0.75048100  1
  Ni  Ni4  1  0.24951900  0.24951900  0.75048100  1
  Ni  Ni5  1  0.75048100  0.75048100  0.24951900  1
  Cu  Cu6  1  0.25000000  0.25000000  0.25000000  1
  Cu  Cu7  1  0.75000000  0.75000000  0.75000000  1
  C  C8  1  0.00000000  0.00000000  0.00000000  1
  C  C9  1  0.35290800  0.35290800  0.35290900  1
  C  C10  1  0.64709200  0.64709200  0.64709200  1
  C  C11  1  0.35290800  0.35290800  0.94127500  1
  C  C12  1  0.35290800  0.94127500  0.35290800  1
  C  C13  1  0.64709100  0.64709200  0.05872500  1
  C  C14  1  0.64709200  0.05872500  0.64709200  1
  C  C15  1  0.94127500  0.35290800  0.35290800  1
  C  C16  1  0.05872500  0.64709200  0.64709200  1
