# generated using pymatgen
data_CuNi2C5
_symmetry_space_group_name_H-M   'P 1'
_cell_length_a   8.07723400
_cell_length_b   8.87702600
_cell_length_c   13.15602200
_cell_angle_alpha   90.00000000
_cell_angle_beta   90.00000000
_cell_angle_gamma   90.00000000
_symmetry_Int_Tables_number   1
_chemical_formula_structural   CuNi2C5
_chemical_formula_sum   'Cu4 Ni8 C20'
_cell_volume   943.31067171
_cell_formula_units_Z   4
loop_
 _symmetry_equiv_pos_site_id
 _symmetry_equiv_pos_as_xyz
  1  'x, y, z'
loop_
 _atom_site_type_symbol
 _atom_site_label
 _atom_site_symmetry_multiplicity
 _atom_site_fract_x
 _atom_site_fract_y
 _atom_site_fract_z
 _atom_site_occupancy
  Ni  Ni0  1  0.52746000  0.50050400  0.82426700  1
  Ni  Ni1  1  0.47254000  0.49949600  0.17573300  1
  Ni  Ni2  1  0.02746000  0.49949600  0.67573300  1
  Ni  Ni3  1  0.47254000  0.00050400  0.17573300  1
  Ni  Ni4  1  0.97254000  0.50050400  0.32426700  1
  Ni  Ni5  1  0.52746000  0.99949600  0.82426700  1
  Ni  Ni6  1  0.97254000  0.99949600  0.32426700  1
  Ni  Ni7  1  0.02746000  0.00050400  0.67573300  1
  Cu  Cu8  1  0.56383900  0.75000000  0.50276800  1
  Cu  Cu9  1  0.43616100  0.25000000  0.49723200  1
  Cu  Cu10  1  0.06383900  0.25000000  0.99723200  1
  Cu  Cu11  1  0.93616100  0.75000000  0.00276800  1
  C  C12  1  0.81850000  0.75000000  0.80029000  1
  C  C13  1  0.18150000  0.25000000  0.19971000  1
  C  C14  1  0.31850000  0.25000000  0.69971000  1
  C  C15  1  0.68150000  0.75000000  0.30029000  1
  C  C16  1  0.35245600  0.75000000  0.67123400  1
  C  C17  1  0.64754400  0.25000000  0.32876600  1
  C  C18  1  0.85245600  0.25000000  0.82876600  1
  C  C19  1  0.14754400  0.75000000  0.17123400  1
  C  C20  1  0.92233900  0.75000000  0.50754900  1
  C  C21  1  0.07766100  0.25000000  0.49245100  1
  C  C22  1  0.42233900  0.25000000  0.99245100  1
  C  C23  1  0.57766100  0.75000000  0.00754900  1
  C  C24  1  0.65284400  0.03548700  0.58602000  1
  C  C25  1  0.34715600  0.96451300  0.41398000  1
  C  C26  1  0.15284400  0.96451300  0.91398000  1
  C  C27  1  0.34715600  0.53548700  0.41398000  1
  C  C28  1  0.84715600  0.03548700  0.08602000  1
  C  C29  1  0.65284400  0.46451300  0.58602000  1
  C  C30  1  0.84715600  0.46451300  0.08602000  1
  C  C31  1  0.15284400  0.53548700  0.91398000  1
