# generated using pymatgen
data_CuNi4
_symmetry_space_group_name_H-M   'P 1'
_cell_length_a   6.58500833
_cell_length_b   6.58500833
_cell_length_c   6.42626600
_cell_angle_alpha   90.00000000
_cell_angle_beta   90.00000000
_cell_angle_gamma   121.38203038
_symmetry_Int_Tables_number   1
_chemical_formula_structural   CuNi4
_chemical_formula_sum   'Cu2 Ni8'
_cell_volume   237.89419204
_cell_formula_units_Z   2
loop_
 _symmetry_equiv_pos_site_id
 _symmetry_equiv_pos_as_xyz
  1  'x, y, z'
loop_
 _atom_site_type_symbol
 _atom_site_label
 _atom_site_symmetry_multiplicity
 _atom_site_fract_x
 _atom_site_fract_y
 _atom_site_fract_z
 _atom_site_occupancy
  Ni  Ni0  1  0.04734000  0.29814500  0.67269200  1
  Ni  Ni1  1  0.70185500  0.95266000  0.32730800  1
  Ni  Ni2  1  0.54734000  0.79814500  0.82730800  1
  Ni  Ni3  1  0.20185500  0.45266000  0.17269200  1
  Ni  Ni4  1  0.45266000  0.20185500  0.82730800  1
  Ni  Ni5  1  0.79814500  0.54734000  0.17269200  1
  Ni  Ni6  1  0.95266000  0.70185500  0.67269200  1
  Ni  Ni7  1  0.29814500  0.04734000  0.32730800  1
  Cu  Cu8  1  0.50000000  0.50000000  0.50000000  1
  Cu  Cu9  1  0.00000000  0.00000000  0.00000000  1
