# generated using pymatgen
data_Cu6Ni3C2
_symmetry_space_group_name_H-M   'P 1'
_cell_length_a   6.80671100
_cell_length_b   7.48062200
_cell_length_c   10.90619600
_cell_angle_alpha   90.00000000
_cell_angle_beta   90.00000000
_cell_angle_gamma   90.00000000
_symmetry_Int_Tables_number   1
_chemical_formula_structural   Cu6Ni3C2
_chemical_formula_sum   'Cu24 Ni12 C8'
_cell_volume   555.32640000
_cell_formula_units_Z   4
loop_
 _symmetry_equiv_pos_site_id
 _symmetry_equiv_pos_as_xyz
  1  'x, y, z'
loop_
 _atom_site_type_symbol
 _atom_site_label
 _atom_site_symmetry_multiplicity
 _atom_site_fract_x
 _atom_site_fract_y
 _atom_site_fract_z
 _atom_site_occupancy
  C  C0  1  0.62993600  0.29526400  0.53617600  1
  C  C1  1  0.37006400  0.70473600  0.03617600  1
  C  C2  1  0.12993600  0.20473600  0.03617600  1
  C  C3  1  0.87006400  0.79526400  0.53617600  1
  C  C4  1  0.38149800  0.72895300  0.53998200  1
  C  C5  1  0.61850200  0.27104700  0.03998200  1
  C  C6  1  0.88149800  0.77104700  0.03998200  1
  C  C7  1  0.11850200  0.22895300  0.53998200  1
  Ni  Ni8  1  0.37315200  0.87584000  0.53916400  1
  Ni  Ni9  1  0.62684800  0.12416000  0.03916400  1
  Ni  Ni10  1  0.87315200  0.62416000  0.03916400  1
  Ni  Ni11  1  0.12684800  0.37584000  0.53916400  1
  Ni  Ni12  1  0.45434700  0.40982900  0.80781500  1
  Ni  Ni13  1  0.54565300  0.59017100  0.30781500  1
  Ni  Ni14  1  0.95434700  0.09017100  0.30781500  1
  Ni  Ni15  1  0.04565300  0.90982900  0.80781500  1
  Ni  Ni16  1  0.45234500  0.41279400  0.26450500  1
  Ni  Ni17  1  0.54765500  0.58720600  0.76450500  1
  Ni  Ni18  1  0.95234500  0.08720600  0.76450500  1
  Ni  Ni19  1  0.04765500  0.91279400  0.26450500  1
  Cu  Cu20  1  0.53699900  0.96126200  0.53719300  1
  Cu  Cu21  1  0.46300100  0.03873800  0.03719300  1
  Cu  Cu22  1  0.03699900  0.53873800  0.03719300  1
  Cu  Cu23  1  0.96300100  0.46126200  0.53719300  1
  Cu  Cu24  1  0.85361500  0.08112100  0.40669300  1
  Cu  Cu25  1  0.14638500  0.91887900  0.90669300  1
  Cu  Cu26  1  0.35361500  0.41887900  0.90669300  1
  Cu  Cu27  1  0.64638500  0.58112100  0.40669300  1
  Cu  Cu28  1  0.85849700  0.08043800  0.66278500  1
  Cu  Cu29  1  0.14150300  0.91956200  0.16278500  1
  Cu  Cu30  1  0.35849700  0.41956200  0.16278500  1
  Cu  Cu31  1  0.64150300  0.58043800  0.66278500  1
  Cu  Cu32  1  0.48467500  0.27131900  0.74514600  1
  Cu  Cu33  1  0.51532500  0.72868100  0.24514600  1
  Cu  Cu34  1  0.98467500  0.22868100  0.24514600  1
  Cu  Cu35  1  0.01532500  0.77131900  0.74514600  1
  Cu  Cu36  1  0.20614700  0.94839300  0.54027200  1
  Cu  Cu37  1  0.79385300  0.05160700  0.04027200  1
  Cu  Cu38  1  0.70614700  0.55160700  0.04027200  1
  Cu  Cu39  1  0.29385300  0.44839300  0.54027200  1
  Cu  Cu40  1  0.47413800  0.27659600  0.33047000  1
  Cu  Cu41  1  0.52586200  0.72340400  0.83047000  1
  Cu  Cu42  1  0.97413800  0.22340400  0.83047000  1
  Cu  Cu43  1  0.02586200  0.77659600  0.33047000  1
