# generated using pymatgen
data_Cu5NiC2
_symmetry_space_group_name_H-M   'P 1'
_cell_length_a   8.82799800
_cell_length_b   9.94250200
_cell_length_c   11.81845057
_cell_angle_alpha   90.00000000
_cell_angle_beta   107.07151126
_cell_angle_gamma   90.00000000
_symmetry_Int_Tables_number   1
_chemical_formula_structural   Cu5NiC2
_chemical_formula_sum   'Cu40 Ni8 C16'
_cell_volume   991.62777300
_cell_formula_units_Z   8
loop_
 _symmetry_equiv_pos_site_id
 _symmetry_equiv_pos_as_xyz
  1  'x, y, z'
loop_
 _atom_site_type_symbol
 _atom_site_label
 _atom_site_symmetry_multiplicity
 _atom_site_fract_x
 _atom_site_fract_y
 _atom_site_fract_z
 _atom_site_occupancy
  C  C0  1  0.14435400  0.59113400  0.85735800  1
  C  C1  1  0.85564600  0.09113400  0.64264200  1
  C  C2  1  0.85564600  0.40886600  0.14264200  1
  C  C3  1  0.14435400  0.90886600  0.35735800  1
  C  C4  1  0.64578800  0.56469600  0.72133600  1
  C  C5  1  0.35421200  0.06469600  0.77866400  1
  C  C6  1  0.35421200  0.43530400  0.27866400  1
  C  C7  1  0.64578800  0.93530400  0.22133600  1
  C  C8  1  0.13857200  0.42462500  0.64098800  1
  C  C9  1  0.86142800  0.92462500  0.85901200  1
  C  C10  1  0.86142800  0.57537500  0.35901200  1
  C  C11  1  0.13857200  0.07537500  0.14098800  1
  C  C12  1  0.22423500  0.37209200  0.49588200  1
  C  C13  1  0.77576500  0.87209200  0.00411800  1
  C  C14  1  0.77576500  0.62790800  0.50411800  1
  C  C15  1  0.22423500  0.12790800  0.99588200  1
  Ni  Ni16  1  0.34197600  0.57817800  0.89226800  1
  Ni  Ni17  1  0.65802400  0.07817800  0.60773200  1
  Ni  Ni18  1  0.65802400  0.42182200  0.10773200  1
  Ni  Ni19  1  0.34197600  0.92182200  0.39226800  1
  Ni  Ni20  1  0.11720500  0.70971100  0.95095300  1
  Ni  Ni21  1  0.88279500  0.20971100  0.54904700  1
  Ni  Ni22  1  0.88279500  0.29028900  0.04904700  1
  Ni  Ni23  1  0.11720500  0.79028900  0.45095300  1
  Cu  Cu24  1  0.10326400  0.68899800  0.71888800  1
  Cu  Cu25  1  0.89673600  0.18899800  0.78111200  1
  Cu  Cu26  1  0.89673600  0.31100200  0.28111200  1
  Cu  Cu27  1  0.10326400  0.81100200  0.21888800  1
  Cu  Cu28  1  0.10021800  0.43613000  0.92840700  1
  Cu  Cu29  1  0.89978200  0.93613000  0.57159300  1
  Cu  Cu30  1  0.89978200  0.56387000  0.07159300  1
  Cu  Cu31  1  0.10021800  0.06387000  0.42840700  1
  Cu  Cu32  1  0.11838400  0.42467700  0.72008800  1
  Cu  Cu33  1  0.88161600  0.92467700  0.77991200  1
  Cu  Cu34  1  0.88161600  0.57532300  0.27991200  1
  Cu  Cu35  1  0.11838400  0.07532300  0.22008800  1
  Cu  Cu36  1  0.13673100  0.40837000  0.52054700  1
  Cu  Cu37  1  0.86326900  0.90837000  0.97945300  1
  Cu  Cu38  1  0.86326900  0.59163000  0.47945300  1
  Cu  Cu39  1  0.13673100  0.09163000  0.02054700  1
  Cu  Cu40  1  0.65287200  0.44884400  0.85101400  1
  Cu  Cu41  1  0.34712800  0.94884400  0.64898600  1
  Cu  Cu42  1  0.34712800  0.55115600  0.14898600  1
  Cu  Cu43  1  0.65287200  0.05115600  0.35101400  1
  Cu  Cu44  1  0.64717400  0.71909000  0.81667000  1
  Cu  Cu45  1  0.35282600  0.21909000  0.68333000  1
  Cu  Cu46  1  0.35282600  0.28091000  0.18333000  1
  Cu  Cu47  1  0.64717400  0.78091000  0.31667000  1
  Cu  Cu48  1  0.42096100  0.56513700  0.66209900  1
  Cu  Cu49  1  0.57903900  0.06513700  0.83790100  1
  Cu  Cu50  1  0.57903900  0.43486300  0.33790100  1
  Cu  Cu51  1  0.42096100  0.93486300  0.16209900  1
  Cu  Cu52  1  0.67192300  0.67710000  0.59361700  1
  Cu  Cu53  1  0.32807700  0.17710000  0.90638300  1
  Cu  Cu54  1  0.32807700  0.32290000  0.40638300  1
  Cu  Cu55  1  0.67192300  0.82290000  0.09361700  1
  Cu  Cu56  1  0.66898200  0.41412900  0.62866300  1
  Cu  Cu57  1  0.33101800  0.91412900  0.87133700  1
  Cu  Cu58  1  0.33101800  0.58587100  0.37133700  1
  Cu  Cu59  1  0.66898200  0.08587100  0.12866300  1
  Cu  Cu60  1  0.88264100  0.57226400  0.78298800  1
  Cu  Cu61  1  0.11735900  0.07226400  0.71701200  1
  Cu  Cu62  1  0.11735900  0.42773600  0.21701200  1
  Cu  Cu63  1  0.88264100  0.92773600  0.28298800  1
