# generated using pymatgen
data_Cu4NiC3
_symmetry_space_group_name_H-M   'P 1'
_cell_length_a   6.11400200
_cell_length_b   6.92184300
_cell_length_c   10.69514900
_cell_angle_alpha   90.00000000
_cell_angle_beta   90.00000000
_cell_angle_gamma   90.00000000
_symmetry_Int_Tables_number   1
_chemical_formula_structural   Cu4NiC3
_chemical_formula_sum   'Cu16 Ni4 C12'
_cell_volume   452.62043771
_cell_formula_units_Z   4
loop_
 _symmetry_equiv_pos_site_id
 _symmetry_equiv_pos_as_xyz
  1  'x, y, z'
loop_
 _atom_site_type_symbol
 _atom_site_label
 _atom_site_symmetry_multiplicity
 _atom_site_fract_x
 _atom_site_fract_y
 _atom_site_fract_z
 _atom_site_occupancy
  C  C0  1  0.38382600  0.75000000  0.50000000  1
  C  C1  1  0.38382600  0.75000000  0.00000000  1
  C  C2  1  0.61617400  0.25000000  0.50000000  1
  C  C3  1  0.61617400  0.25000000  0.00000000  1
  C  C4  1  0.84385700  0.52797400  0.75000000  1
  C  C5  1  0.84385700  0.97202600  0.25000000  1
  C  C6  1  0.15614300  0.02797400  0.75000000  1
  C  C7  1  0.15614300  0.47202600  0.25000000  1
  C  C8  1  0.12201700  0.25000000  0.00000000  1
  C  C9  1  0.87798300  0.75000000  0.00000000  1
  C  C10  1  0.87798300  0.75000000  0.50000000  1
  C  C11  1  0.12201700  0.25000000  0.50000000  1
  Ni  Ni12  1  0.52332900  0.81321500  0.75000000  1
  Ni  Ni13  1  0.52332900  0.68678500  0.25000000  1
  Ni  Ni14  1  0.47667100  0.31321500  0.75000000  1
  Ni  Ni15  1  0.47667100  0.18678500  0.25000000  1
  Cu  Cu16  1  0.28502800  0.43348600  0.02886500  1
  Cu  Cu17  1  0.28502800  0.06651400  0.97113500  1
  Cu  Cu18  1  0.71497200  0.93348600  0.47113500  1
  Cu  Cu19  1  0.71497200  0.56651400  0.52886500  1
  Cu  Cu20  1  0.71497200  0.56651400  0.97113500  1
  Cu  Cu21  1  0.71497200  0.93348600  0.02886500  1
  Cu  Cu22  1  0.28502800  0.06651400  0.52886500  1
  Cu  Cu23  1  0.28502800  0.43348600  0.47113500  1
  Cu  Cu24  1  0.03933400  0.73778000  0.12268400  1
  Cu  Cu25  1  0.03933400  0.73778000  0.37731600  1
  Cu  Cu26  1  0.96066600  0.23778000  0.37731600  1
  Cu  Cu27  1  0.96066600  0.26222000  0.62268400  1
  Cu  Cu28  1  0.96066600  0.26222000  0.87731600  1
  Cu  Cu29  1  0.96066600  0.23778000  0.12268400  1
  Cu  Cu30  1  0.03933400  0.76222000  0.62268400  1
  Cu  Cu31  1  0.03933400  0.76222000  0.87731600  1
