# generated using pymatgen
data_CuNiC12
_symmetry_space_group_name_H-M   'P 1'
_cell_length_a   6.04748214
_cell_length_b   6.04748214
_cell_length_c   6.04748303
_cell_angle_alpha   59.80435623
_cell_angle_beta   59.80435623
_cell_angle_gamma   59.80435629
_symmetry_Int_Tables_number   1
_chemical_formula_structural   CuNiC12
_chemical_formula_sum   'Cu1 Ni1 C12'
_cell_volume   155.69540018
_cell_formula_units_Z   1
loop_
 _symmetry_equiv_pos_site_id
 _symmetry_equiv_pos_as_xyz
  1  'x, y, z'
loop_
 _atom_site_type_symbol
 _atom_site_label
 _atom_site_symmetry_multiplicity
 _atom_site_fract_x
 _atom_site_fract_y
 _atom_site_fract_z
 _atom_site_occupancy
  Ni  Ni0  1  0.00068500  0.00068500  0.00068500  1
  C  C1  1  0.62319900  0.62319900  0.62319900  1
  C  C2  1  0.49353900  0.00149200  0.00149200  1
  C  C3  1  0.00149200  0.00149200  0.49353900  1
  C  C4  1  0.00149200  0.49353900  0.00149200  1
  Cu  Cu5  1  0.37709500  0.37709500  0.37709500  1
  C  C6  1  0.23032200  0.75400300  0.75400300  1
  C  C7  1  0.75400300  0.75400300  0.23032200  1
  C  C8  1  0.75400300  0.23032200  0.75400300  1
  C  C9  1  0.75709400  0.75709400  0.75709400  1
  C  C10  1  0.78054100  0.24291600  0.24291600  1
  C  C11  1  0.24291600  0.24291600  0.78054100  1
  C  C12  1  0.24291600  0.78054100  0.24291600  1
  C  C13  1  0.24070400  0.24070400  0.24070400  1
