# generated using pymatgen
data_Cu12Ni3C4
_symmetry_space_group_name_H-M   'P 1'
_cell_length_a   14.81854200
_cell_length_b   9.12985000
_cell_length_c   9.32015584
_cell_angle_alpha   69.36152962
_cell_angle_beta   90.00000000
_cell_angle_gamma   90.00000000
_symmetry_Int_Tables_number   1
_chemical_formula_structural   Cu12Ni3C4
_chemical_formula_sum   'Cu48 Ni12 C16'
_cell_volume   1180.01097480
_cell_formula_units_Z   4
loop_
 _symmetry_equiv_pos_site_id
 _symmetry_equiv_pos_as_xyz
  1  'x, y, z'
loop_
 _atom_site_type_symbol
 _atom_site_label
 _atom_site_symmetry_multiplicity
 _atom_site_fract_x
 _atom_site_fract_y
 _atom_site_fract_z
 _atom_site_occupancy
  C  C0  1  0.55887200  0.74307300  0.73606500  1
  C  C1  1  0.44112800  0.24307300  0.73606500  1
  C  C2  1  0.51161100  0.53890600  0.33332300  1
  C  C3  1  0.48838900  0.03890600  0.33332300  1
  C  C4  1  0.98875300  0.52959400  0.84692800  1
  C  C5  1  0.01124700  0.02959400  0.84692800  1
  C  C6  1  0.07596000  0.20660500  0.23060300  1
  C  C7  1  0.92404000  0.70660500  0.23060300  1
  C  C8  1  0.73836700  0.45088800  0.68568600  1
  C  C9  1  0.26163300  0.95088800  0.68568600  1
  C  C10  1  0.73667700  0.41741200  0.20758800  1
  C  C11  1  0.26332300  0.91741200  0.20758800  1
  C  C12  1  0.32625800  0.50132800  0.00000700  1
  C  C13  1  0.67374200  0.00132800  0.00000700  1
  C  C14  1  0.14657500  0.46329000  0.50987300  1
  C  C15  1  0.85342500  0.96329000  0.50987300  1
  Ni  Ni16  1  0.65114100  0.15532900  0.58785300  1
  Ni  Ni17  1  0.34885900  0.65532900  0.58785300  1
  Ni  Ni18  1  0.19236800  0.28215000  0.84401700  1
  Ni  Ni19  1  0.80763200  0.78215000  0.84401700  1
  Ni  Ni20  1  0.95240500  0.33570500  0.49632600  1
  Ni  Ni21  1  0.04759500  0.83570500  0.49632600  1
  Ni  Ni22  1  0.30941300  0.29291100  0.34196100  1
  Ni  Ni23  1  0.69058700  0.79291100  0.34196100  1
  Ni  Ni24  1  0.55193900  0.34529500  0.01268100  1
  Ni  Ni25  1  0.44806100  0.84529500  0.01268100  1
  Ni  Ni26  1  0.15527300  0.64311500  0.08730900  1
  Ni  Ni27  1  0.84472700  0.14311500  0.08730900  1
  Cu  Cu28  1  0.64055300  0.32264100  0.49356900  1
  Cu  Cu29  1  0.35944700  0.82264100  0.49356900  1
  Cu  Cu30  1  0.56767300  0.06564700  0.59412800  1
  Cu  Cu31  1  0.43232700  0.56564700  0.59412800  1
  Cu  Cu32  1  0.67722400  0.14679300  0.74748800  1
  Cu  Cu33  1  0.32277600  0.64679300  0.74748800  1
  Cu  Cu34  1  0.72670100  0.08696700  0.52368400  1
  Cu  Cu35  1  0.27329900  0.58696700  0.52368400  1
  Cu  Cu36  1  0.14286100  0.43440400  0.77507300  1
  Cu  Cu37  1  0.85713900  0.93440400  0.77507300  1
  Cu  Cu38  1  0.20184600  0.22435000  0.71169400  1
  Cu  Cu39  1  0.79815400  0.72435000  0.71169400  1
  Cu  Cu40  1  0.28313700  0.31279700  0.89614700  1
  Cu  Cu41  1  0.71686300  0.81279700  0.89614700  1
  Cu  Cu42  1  0.14311200  0.16691600  0.97182400  1
  Cu  Cu43  1  0.85688800  0.66691600  0.97182400  1
  Cu  Cu44  1  0.99686100  0.34054000  0.63882800  1
  Cu  Cu45  1  0.00313900  0.84054000  0.63882800  1
  Cu  Cu46  1  0.93815700  0.16881800  0.51220700  1
  Cu  Cu47  1  0.06184300  0.66881800  0.51220700  1
  Cu  Cu48  1  0.02125600  0.40683200  0.37116000  1
  Cu  Cu49  1  0.97874400  0.90683200  0.37116000  1
  Cu  Cu50  1  0.86721500  0.42370200  0.46062200  1
  Cu  Cu51  1  0.13278500  0.92370200  0.46062200  1
  Cu  Cu52  1  0.15675800  0.63758600  0.24990700  1
  Cu  Cu53  1  0.84324200  0.13758600  0.24990700  1
  Cu  Cu54  1  0.07013800  0.71609600  0.01419400  1
  Cu  Cu55  1  0.92986200  0.21609600  0.01419400  1
  Cu  Cu56  1  0.23653900  0.73223100  0.00468800  1
  Cu  Cu57  1  0.76346100  0.23223100  0.00468800  1
  Cu  Cu58  1  0.16716800  0.48241200  0.07882400  1
  Cu  Cu59  1  0.83283200  0.98241200  0.07882400  1
  Cu  Cu60  1  0.34505800  0.45582100  0.25845000  1
  Cu  Cu61  1  0.65494200  0.95582100  0.25845000  1
  Cu  Cu62  1  0.30266100  0.21847900  0.22305400  1
  Cu  Cu63  1  0.69733900  0.71847900  0.22305400  1
  Cu  Cu64  1  0.21689700  0.30439500  0.40312000  1
  Cu  Cu65  1  0.78310300  0.80439500  0.40312000  1
  Cu  Cu66  1  0.36965500  0.20590400  0.46893300  1
  Cu  Cu67  1  0.63034500  0.70590400  0.46893300  1
  Cu  Cu68  1  0.61431700  0.46022200  0.90889000  1
  Cu  Cu69  1  0.38568300  0.96022200  0.90889000  1
  Cu  Cu70  1  0.56607600  0.18649900  0.00036800  1
  Cu  Cu71  1  0.43392400  0.68649900  0.00036800  1
  Cu  Cu72  1  0.56245500  0.33459600  0.17373700  1
  Cu  Cu73  1  0.43754500  0.83459600  0.17373700  1
  Cu  Cu74  1  0.45570100  0.38965000  0.96239000  1
  Cu  Cu75  1  0.54429900  0.88965000  0.96239000  1
