# generated using pymatgen
data_Cu6Ni2C23
_symmetry_space_group_name_H-M   'P 1'
_cell_length_a   9.32029008
_cell_length_b   9.32029008
_cell_length_c   9.25392000
_cell_angle_alpha   90.00000000
_cell_angle_beta   90.00000000
_cell_angle_gamma   120.00000055
_symmetry_Int_Tables_number   1
_chemical_formula_structural   Cu6Ni2C23
_chemical_formula_sum   'Cu12 Ni4 C46'
_cell_volume   696.16987830
_cell_formula_units_Z   2
loop_
 _symmetry_equiv_pos_site_id
 _symmetry_equiv_pos_as_xyz
  1  'x, y, z'
loop_
 _atom_site_type_symbol
 _atom_site_label
 _atom_site_symmetry_multiplicity
 _atom_site_fract_x
 _atom_site_fract_y
 _atom_site_fract_z
 _atom_site_occupancy
  C  C0  1  0.00000000  0.00000000  0.00000000  1
  C  C1  1  0.00000000  0.00000000  0.50000000  1
  C  C2  1  0.50000000  0.00000000  0.25000000  1
  C  C3  1  0.50000000  0.00000000  0.75000000  1
  C  C4  1  0.00000000  0.50000000  0.25000000  1
  C  C5  1  0.00000000  0.50000000  0.75000000  1
  C  C6  1  0.50000000  0.50000000  0.25000000  1
  C  C7  1  0.50000000  0.50000000  0.75000000  1
  Ni  Ni8  1  0.33333300  0.66666700  0.25000000  1
  Ni  Ni9  1  0.66666700  0.33333300  0.75000000  1
  Ni  Ni10  1  0.66666700  0.33333300  0.25000000  1
  Ni  Ni11  1  0.33333300  0.66666700  0.75000000  1
  Cu  Cu12  1  0.11505300  0.38749800  0.00000000  1
  Cu  Cu13  1  0.88494700  0.61250200  0.00000000  1
  Cu  Cu14  1  0.61250200  0.72755500  0.00000000  1
  Cu  Cu15  1  0.38749800  0.11505300  0.50000000  1
  Cu  Cu16  1  0.38749800  0.27244500  0.00000000  1
  Cu  Cu17  1  0.61250200  0.88494700  0.50000000  1
  Cu  Cu18  1  0.27244500  0.88494700  0.00000000  1
  Cu  Cu19  1  0.72755500  0.61250200  0.50000000  1
  Cu  Cu20  1  0.72755500  0.11505300  0.00000000  1
  Cu  Cu21  1  0.27244500  0.38749800  0.50000000  1
  Cu  Cu22  1  0.88494700  0.27244500  0.50000000  1
  Cu  Cu23  1  0.11505300  0.72755500  0.50000000  1
  C  C24  1  0.30759900  0.07351900  0.00000000  1
  C  C25  1  0.69240100  0.92648100  0.00000000  1
  C  C26  1  0.92648100  0.23408000  0.00000000  1
  C  C27  1  0.07351900  0.30759900  0.50000000  1
  C  C28  1  0.07351900  0.76592000  0.00000000  1
  C  C29  1  0.92648100  0.69240100  0.50000000  1
  C  C30  1  0.76592000  0.69240100  0.00000000  1
  C  C31  1  0.23408000  0.92648100  0.50000000  1
  C  C32  1  0.23408000  0.30759900  0.00000000  1
  C  C33  1  0.76592000  0.07351900  0.50000000  1
  C  C34  1  0.69240100  0.76592000  0.50000000  1
  C  C35  1  0.30759900  0.23408000  0.50000000  1
  C  C36  1  0.14469200  0.49847600  0.14574800  1
  C  C37  1  0.85530800  0.50152400  0.85425200  1
  C  C38  1  0.50152400  0.64621600  0.14574800  1
  C  C39  1  0.85530800  0.50152400  0.14574800  1
  C  C40  1  0.49847600  0.14469200  0.35425200  1
  C  C41  1  0.49847600  0.35378400  0.85425200  1
  C  C42  1  0.14469200  0.49847600  0.85425200  1
  C  C43  1  0.50152400  0.85530800  0.64574800  1
  C  C44  1  0.35378400  0.85530800  0.14574800  1
  C  C45  1  0.49847600  0.35378400  0.14574800  1
  C  C46  1  0.64621600  0.50152400  0.35425200  1
  C  C47  1  0.64621600  0.14469200  0.85425200  1
  C  C48  1  0.50152400  0.64621600  0.85425200  1
  C  C49  1  0.35378400  0.49847600  0.64574800  1
  C  C50  1  0.50152400  0.85530800  0.35425200  1
  C  C51  1  0.49847600  0.14469200  0.64574800  1
  C  C52  1  0.64621600  0.14469200  0.14574800  1
  C  C53  1  0.35378400  0.49847600  0.35425200  1
  C  C54  1  0.35378400  0.85530800  0.85425200  1
  C  C55  1  0.64621600  0.50152400  0.64574800  1
  C  C56  1  0.85530800  0.35378400  0.35425200  1
  C  C57  1  0.14469200  0.64621600  0.64574800  1
  C  C58  1  0.14469200  0.64621600  0.35425200  1
  C  C59  1  0.85530800  0.35378400  0.64574800  1
  C  C60  1  0.00000000  0.00000000  0.25000000  1
  C  C61  1  0.00000000  0.00000000  0.75000000  1
