# generated using pymatgen
data_Cu3Ni4C15
_symmetry_space_group_name_H-M   'P 1'
_cell_length_a   11.66505947
_cell_length_b   11.76094962
_cell_length_c   18.30356837
_cell_angle_alpha   90.00000000
_cell_angle_beta   90.00000000
_cell_angle_gamma   90.00000000
_symmetry_Int_Tables_number   1
_chemical_formula_structural   Cu3Ni4C15
_chemical_formula_sum   'Cu24 Ni32 C120'
_cell_volume   2511.10638681
_cell_formula_units_Z   8
loop_
 _symmetry_equiv_pos_site_id
 _symmetry_equiv_pos_as_xyz
  1  'x, y, z'
loop_
 _atom_site_type_symbol
 _atom_site_label
 _atom_site_symmetry_multiplicity
 _atom_site_fract_x
 _atom_site_fract_y
 _atom_site_fract_z
 _atom_site_occupancy
  C  C0  1  0.42195276  0.57191910  0.41676098  1
  C  C1  1  0.92195276  0.92808090  0.58323902  1
  C  C2  1  0.57804724  0.07191910  0.08323902  1
  C  C3  1  0.07804724  0.42808090  0.91676098  1
  C  C4  1  0.57804724  0.42808090  0.58323902  1
  C  C5  1  0.07804724  0.07191910  0.41676098  1
  C  C6  1  0.42195276  0.92808090  0.91676098  1
  C  C7  1  0.92195276  0.57191910  0.08323902  1
  C  C8  1  0.09040223  0.49763056  0.38635258  1
  C  C9  1  0.59040223  0.00236944  0.61364742  1
  C  C10  1  0.90959777  0.99763056  0.11364742  1
  C  C11  1  0.40959777  0.50236944  0.88635258  1
  C  C12  1  0.90959777  0.50236944  0.61364742  1
  C  C13  1  0.40959777  0.99763056  0.38635258  1
  C  C14  1  0.09040223  0.00236944  0.88635258  1
  C  C15  1  0.59040223  0.49763056  0.11364742  1
  C  C16  1  0.13221738  0.64480630  0.39915669  1
  C  C17  1  0.63221738  0.85519370  0.60084331  1
  C  C18  1  0.86778262  0.14480630  0.10084331  1
  C  C19  1  0.36778262  0.35519370  0.89915669  1
  C  C20  1  0.86778262  0.35519370  0.60084331  1
  C  C21  1  0.36778262  0.14480630  0.39915669  1
  C  C22  1  0.13221738  0.85519370  0.89915669  1
  C  C23  1  0.63221738  0.64480630  0.10084331  1
  C  C24  1  0.02227890  0.58307266  0.45549105  1
  C  C25  1  0.52227890  0.91692734  0.54450895  1
  C  C26  1  0.97772110  0.08307266  0.04450895  1
  C  C27  1  0.47772110  0.41692734  0.95549105  1
  C  C28  1  0.97772110  0.41692734  0.54450895  1
  C  C29  1  0.47772110  0.08307266  0.45549105  1
  C  C30  1  0.02227890  0.91692734  0.95549105  1
  C  C31  1  0.52227890  0.58307266  0.04450895  1
  C  C32  1  0.26653850  0.63715377  0.60686806  1
  C  C33  1  0.76653850  0.86284623  0.39313194  1
  C  C34  1  0.73346150  0.13715377  0.89313194  1
  C  C35  1  0.23346150  0.36284623  0.10686806  1
  C  C36  1  0.73346150  0.36284623  0.39313194  1
  C  C37  1  0.23346150  0.13715377  0.60686806  1
  C  C38  1  0.26653850  0.86284623  0.10686806  1
  C  C39  1  0.76653850  0.63715377  0.89313194  1
  C  C40  1  0.23739802  0.72678566  0.52908991  1
  C  C41  1  0.73739802  0.77321434  0.47091009  1
  C  C42  1  0.76260198  0.22678566  0.97091009  1
  C  C43  1  0.26260198  0.27321434  0.02908991  1
  C  C44  1  0.76260198  0.27321434  0.47091009  1
  C  C45  1  0.26260198  0.22678566  0.52908991  1
  C  C46  1  0.23739802  0.77321434  0.02908991  1
  C  C47  1  0.73739802  0.72678566  0.97091009  1
  C  C48  1  0.12046906  0.66170720  0.57765129  1
  C  C49  1  0.62046906  0.83829280  0.42234871  1
  C  C50  1  0.87953094  0.16170720  0.92234871  1
  C  C51  1  0.37953094  0.33829280  0.07765129  1
  C  C52  1  0.87953094  0.33829280  0.42234871  1
  C  C53  1  0.37953094  0.16170720  0.57765129  1
  C  C54  1  0.12046906  0.83829280  0.07765129  1
  C  C55  1  0.62046906  0.66170720  0.92234871  1
  C  C56  1  0.33526502  0.67011090  0.22707252  1
  C  C57  1  0.83526502  0.82988910  0.77292748  1
  C  C58  1  0.66473498  0.17011090  0.27292748  1
  C  C59  1  0.16473498  0.32988910  0.72707252  1
  C  C60  1  0.66473498  0.32988910  0.77292748  1
  C  C61  1  0.16473498  0.17011090  0.22707252  1
  C  C62  1  0.33526502  0.82988910  0.72707252  1
  C  C63  1  0.83526502  0.67011090  0.27292748  1
  C  C64  1  0.47368333  0.60218413  0.23142486  1
  C  C65  1  0.97368333  0.89781587  0.76857514  1
  C  C66  1  0.52631667  0.10218413  0.26857514  1
  C  C67  1  0.02631667  0.39781587  0.73142486  1
  C  C68  1  0.52631667  0.39781587  0.76857514  1
  C  C69  1  0.02631667  0.10218413  0.23142486  1
  C  C70  1  0.47368333  0.89781587  0.73142486  1
  C  C71  1  0.97368333  0.60218413  0.26857514  1
  C  C72  1  0.36815838  0.55794118  0.16395178  1
  C  C73  1  0.86815838  0.94205882  0.83604822  1
  C  C74  1  0.63184162  0.05794118  0.33604822  1
  C  C75  1  0.13184162  0.44205882  0.66395178  1
  C  C76  1  0.63184162  0.44205882  0.83604822  1
  C  C77  1  0.13184162  0.05794118  0.16395178  1
  C  C78  1  0.36815838  0.94205882  0.66395178  1
  C  C79  1  0.86815838  0.55794118  0.33604822  1
  C  C80  1  0.40858434  0.28596404  0.30542925  1
  C  C81  1  0.90858434  0.21403596  0.69457075  1
  C  C82  1  0.59141566  0.78596404  0.19457075  1
  C  C83  1  0.09141566  0.71403596  0.80542925  1
  C  C84  1  0.59141566  0.71403596  0.69457075  1
  C  C85  1  0.09141566  0.78596404  0.30542925  1
  C  C86  1  0.40858434  0.21403596  0.80542925  1
  C  C87  1  0.90858434  0.28596404  0.19457075  1
  C  C88  1  0.51654455  0.38756048  0.27851757  1
  C  C89  1  0.01654455  0.11243952  0.72148243  1
  C  C90  1  0.48345545  0.88756048  0.22148243  1
  C  C91  1  0.98345545  0.61243952  0.77851757  1
  C  C92  1  0.48345545  0.61243952  0.72148243  1
  C  C93  1  0.98345545  0.88756048  0.27851757  1
  C  C94  1  0.51654455  0.11243952  0.77851757  1
  C  C95  1  0.01654455  0.38756048  0.22148243  1
  C  C96  1  0.41863898  0.32884543  0.21165255  1
  C  C97  1  0.91863898  0.17115457  0.78834745  1
  C  C98  1  0.58136102  0.82884543  0.28834745  1
  C  C99  1  0.08136102  0.67115457  0.71165255  1
  C  C100  1  0.58136102  0.67115457  0.78834745  1
  C  C101  1  0.08136102  0.82884543  0.21165255  1
  C  C102  1  0.41863898  0.17115457  0.71165255  1
  C  C103  1  0.91863898  0.32884543  0.28834745  1
  Ni  Ni104  1  0.42977992  0.35603509  0.26829161  1
  Ni  Ni105  1  0.92977992  0.14396491  0.73170839  1
  Ni  Ni106  1  0.57022008  0.85603509  0.23170839  1
  Ni  Ni107  1  0.07022008  0.64396491  0.76829161  1
  Ni  Ni108  1  0.57022008  0.64396491  0.73170839  1
  Ni  Ni109  1  0.07022008  0.85603509  0.26829161  1
  Ni  Ni110  1  0.42977992  0.14396491  0.76829161  1
  Ni  Ni111  1  0.92977992  0.35603509  0.23170839  1
  Ni  Ni112  1  0.10187109  0.56685737  0.42577380  1
  Ni  Ni113  1  0.60187109  0.93314263  0.57422620  1
  Ni  Ni114  1  0.89812891  0.06685737  0.07422620  1
  Ni  Ni115  1  0.39812891  0.43314263  0.92577380  1
  Ni  Ni116  1  0.89812891  0.43314263  0.57422620  1
  Ni  Ni117  1  0.39812891  0.06685737  0.42577380  1
  Ni  Ni118  1  0.10187109  0.93314263  0.92577380  1
  Ni  Ni119  1  0.60187109  0.56685737  0.07422620  1
  Ni  Ni120  1  0.20965782  0.65232484  0.56018864  1
  Ni  Ni121  1  0.70965782  0.84767516  0.43981136  1
  Ni  Ni122  1  0.79034218  0.15232484  0.93981136  1
  Ni  Ni123  1  0.29034218  0.34767516  0.06018864  1
  Ni  Ni124  1  0.79034218  0.34767516  0.43981136  1
  Ni  Ni125  1  0.29034218  0.15232484  0.56018864  1
  Ni  Ni126  1  0.20965782  0.84767516  0.06018864  1
  Ni  Ni127  1  0.70965782  0.65232484  0.93981136  1
  Ni  Ni128  1  0.38285198  0.59052710  0.21911625  1
  Ni  Ni129  1  0.88285198  0.90947290  0.78088375  1
  Ni  Ni130  1  0.61714802  0.09052710  0.28088375  1
  Ni  Ni131  1  0.11714802  0.40947290  0.71911625  1
  Ni  Ni132  1  0.61714802  0.40947290  0.78088375  1
  Ni  Ni133  1  0.11714802  0.09052710  0.21911625  1
  Ni  Ni134  1  0.38285198  0.90947290  0.71911625  1
  Ni  Ni135  1  0.88285198  0.59052710  0.28088375  1
  C  C136  1  0.21825812  0.51683150  0.49697464  1
  C  C137  1  0.71825812  0.98316850  0.50302536  1
  C  C138  1  0.78174188  0.01683150  0.00302536  1
  C  C139  1  0.28174188  0.48316850  0.99697464  1
  C  C140  1  0.78174188  0.48316850  0.50302536  1
  C  C141  1  0.28174188  0.01683150  0.49697464  1
  C  C142  1  0.21825812  0.98316850  0.99697464  1
  C  C143  1  0.71825812  0.51683150  0.00302536  1
  C  C144  1  0.31976923  0.47880140  0.28834605  1
  C  C145  1  0.81976923  0.02119860  0.71165395  1
  C  C146  1  0.68023077  0.97880140  0.21165395  1
  C  C147  1  0.18023077  0.52119860  0.78834605  1
  C  C148  1  0.68023077  0.52119860  0.71165395  1
  C  C149  1  0.18023077  0.97880140  0.28834605  1
  C  C150  1  0.31976923  0.02119860  0.78834605  1
  C  C151  1  0.81976923  0.47880140  0.21165395  1
  Cu  Cu152  1  0.34358825  0.76349084  0.38618476  1
  Cu  Cu153  1  0.84358825  0.73650916  0.61381524  1
  Cu  Cu154  1  0.65641175  0.26349084  0.11381524  1
  Cu  Cu155  1  0.15641175  0.23650916  0.88618476  1
  Cu  Cu156  1  0.65641175  0.23650916  0.61381524  1
  Cu  Cu157  1  0.15641175  0.26349084  0.38618476  1
  Cu  Cu158  1  0.34358825  0.73650916  0.88618476  1
  Cu  Cu159  1  0.84358825  0.76349084  0.11381524  1
  Cu  Cu160  1  0.60767196  0.59001632  0.35299339  1
  Cu  Cu161  1  0.10767196  0.90998368  0.64700661  1
  Cu  Cu162  1  0.39232804  0.09001632  0.14700661  1
  Cu  Cu163  1  0.89232804  0.40998368  0.85299339  1
  Cu  Cu164  1  0.39232804  0.40998368  0.64700661  1
  Cu  Cu165  1  0.89232804  0.09001632  0.35299339  1
  Cu  Cu166  1  0.60767196  0.90998368  0.85299339  1
  Cu  Cu167  1  0.10767196  0.59001632  0.14700661  1
  Cu  Cu168  1  0.48766870  0.36375125  0.45979161  1
  Cu  Cu169  1  0.98766870  0.13624875  0.54020839  1
  Cu  Cu170  1  0.51233130  0.86375125  0.04020839  1
  Cu  Cu171  1  0.01233130  0.63624875  0.95979161  1
  Cu  Cu172  1  0.51233130  0.63624875  0.54020839  1
  Cu  Cu173  1  0.01233130  0.86375125  0.45979161  1
  Cu  Cu174  1  0.48766870  0.13624875  0.95979161  1
  Cu  Cu175  1  0.98766870  0.36375125  0.04020839  1
