# generated using pymatgen
data_Cu5NiC2
_symmetry_space_group_name_H-M   'P 1'
_cell_length_a   6.40499000
_cell_length_b   4.73248400
_cell_length_c   6.43415476
_cell_angle_alpha   79.57427849
_cell_angle_beta   90.00000000
_cell_angle_gamma   90.00000000
_symmetry_Int_Tables_number   1
_chemical_formula_structural   Cu5NiC2
_chemical_formula_sum   'Cu10 Ni2 C4'
_cell_volume   191.80910022
_cell_formula_units_Z   2
loop_
 _symmetry_equiv_pos_site_id
 _symmetry_equiv_pos_as_xyz
  1  'x, y, z'
loop_
 _atom_site_type_symbol
 _atom_site_label
 _atom_site_symmetry_multiplicity
 _atom_site_fract_x
 _atom_site_fract_y
 _atom_site_fract_z
 _atom_site_occupancy
  C  C0  1  0.50000000  0.00000000  0.00000000  1
  C  C1  1  0.00000000  0.00000000  0.00000000  1
  C  C2  1  0.75000000  0.58543000  0.76520200  1
  C  C3  1  0.25000000  0.41457000  0.23479800  1
  Ni  Ni4  1  0.25000000  0.12339300  0.60817000  1
  Ni  Ni5  1  0.75000000  0.87660700  0.39183000  1
  Cu  Cu6  1  0.75000000  0.25654800  0.85833000  1
  Cu  Cu7  1  0.25000000  0.74345200  0.14167000  1
  Cu  Cu8  1  0.55073100  0.73023800  0.82192600  1
  Cu  Cu9  1  0.05073100  0.26976200  0.17807400  1
  Cu  Cu10  1  0.44926900  0.26976200  0.17807400  1
  Cu  Cu11  1  0.94926900  0.73023800  0.82192600  1
  Cu  Cu12  1  0.75000000  0.58319800  0.51393200  1
  Cu  Cu13  1  0.25000000  0.41680200  0.48606800  1
  Cu  Cu14  1  0.25000000  0.16324600  0.81001400  1
  Cu  Cu15  1  0.75000000  0.83675400  0.18998600  1
