# generated using pymatgen
data_Cu2NiC11
_symmetry_space_group_name_H-M   'P 1'
_cell_length_a   6.69563600
_cell_length_b   8.02697100
_cell_length_c   13.84410200
_cell_angle_alpha   90.00000000
_cell_angle_beta   90.00000000
_cell_angle_gamma   90.00000000
_symmetry_Int_Tables_number   1
_chemical_formula_structural   Cu2NiC11
_chemical_formula_sum   'Cu8 Ni4 C44'
_cell_volume   744.06062058
_cell_formula_units_Z   4
loop_
 _symmetry_equiv_pos_site_id
 _symmetry_equiv_pos_as_xyz
  1  'x, y, z'
loop_
 _atom_site_type_symbol
 _atom_site_label
 _atom_site_symmetry_multiplicity
 _atom_site_fract_x
 _atom_site_fract_y
 _atom_site_fract_z
 _atom_site_occupancy
  C  C0  1  0.75000000  0.96555800  0.79123700  1
  C  C1  1  0.75000000  0.53444200  0.29123700  1
  C  C2  1  0.25000000  0.03444200  0.20876300  1
  C  C3  1  0.25000000  0.46555800  0.70876300  1
  C  C4  1  0.50000000  0.00000000  0.00000000  1
  C  C5  1  0.50000000  0.50000000  0.50000000  1
  C  C6  1  0.00000000  0.50000000  0.50000000  1
  C  C7  1  0.00000000  0.00000000  0.00000000  1
  Ni  Ni8  1  0.75000000  0.35938100  0.88403100  1
  Ni  Ni9  1  0.25000000  0.64061900  0.11596900  1
  Ni  Ni10  1  0.25000000  0.85938100  0.61596900  1
  Ni  Ni11  1  0.75000000  0.14061900  0.38403100  1
  Cu  Cu12  1  0.25000000  0.33544700  0.90274000  1
  Cu  Cu13  1  0.75000000  0.66455300  0.09726000  1
  Cu  Cu14  1  0.75000000  0.83544700  0.59726000  1
  Cu  Cu15  1  0.25000000  0.16455300  0.40274000  1
  Cu  Cu16  1  0.75000000  0.36151200  0.67305500  1
  Cu  Cu17  1  0.25000000  0.63848800  0.32694500  1
  Cu  Cu18  1  0.25000000  0.86151200  0.82694500  1
  Cu  Cu19  1  0.75000000  0.13848800  0.17305500  1
  C  C20  1  0.05453200  0.63924400  0.38715100  1
  C  C21  1  0.55453200  0.36075600  0.61284900  1
  C  C22  1  0.94546800  0.13924400  0.11284900  1
  C  C23  1  0.44546800  0.86075600  0.88715100  1
  C  C24  1  0.94546800  0.36075600  0.61284900  1
  C  C25  1  0.44546800  0.63924400  0.38715100  1
  C  C26  1  0.05453200  0.86075600  0.88715100  1
  C  C27  1  0.55453200  0.13924400  0.11284900  1
  C  C28  1  0.25000000  0.33814200  0.44892300  1
  C  C29  1  0.75000000  0.66185800  0.55107700  1
  C  C30  1  0.75000000  0.83814200  0.05107700  1
  C  C31  1  0.25000000  0.16185800  0.94892300  1
  C  C32  1  0.75000000  0.07908200  0.92206900  1
  C  C33  1  0.25000000  0.92091800  0.07793100  1
  C  C34  1  0.25000000  0.57908200  0.57793100  1
  C  C35  1  0.75000000  0.42091800  0.42206900  1
  C  C36  1  0.75000000  0.20259300  0.73808400  1
  C  C37  1  0.25000000  0.79740700  0.26191600  1
  C  C38  1  0.25000000  0.70259300  0.76191600  1
  C  C39  1  0.75000000  0.29740700  0.23808400  1
  C  C40  1  0.42586300  0.14020100  0.32916800  1
  C  C41  1  0.92586300  0.85979900  0.67083200  1
  C  C42  1  0.57413700  0.64020100  0.17083200  1
  C  C43  1  0.07413700  0.35979900  0.82916800  1
  C  C44  1  0.57413700  0.85979900  0.67083200  1
  C  C45  1  0.07413700  0.14020100  0.32916800  1
  C  C46  1  0.42586300  0.35979900  0.82916800  1
  C  C47  1  0.92586300  0.64020100  0.17083200  1
  C  C48  1  0.75000000  0.99071900  0.24615100  1
  C  C49  1  0.25000000  0.00928100  0.75384900  1
  C  C50  1  0.25000000  0.49071900  0.25384900  1
  C  C51  1  0.75000000  0.50928100  0.74615100  1
  C  C52  1  0.75000000  0.97519700  0.52241400  1
  C  C53  1  0.25000000  0.02480300  0.47758600  1
  C  C54  1  0.25000000  0.47519700  0.97758600  1
  C  C55  1  0.75000000  0.52480300  0.02241400  1
