# generated using pymatgen
data_CuNiC5
_symmetry_space_group_name_H-M   'P 1'
_cell_length_a   11.26543700
_cell_length_b   5.86393600
_cell_length_c   8.99990916
_cell_angle_alpha   72.70812703
_cell_angle_beta   90.00000000
_cell_angle_gamma   90.00000000
_symmetry_Int_Tables_number   1
_chemical_formula_structural   CuNiC5
_chemical_formula_sum   'Cu4 Ni4 C20'
_cell_volume   567.66112335
_cell_formula_units_Z   4
loop_
 _symmetry_equiv_pos_site_id
 _symmetry_equiv_pos_as_xyz
  1  'x, y, z'
loop_
 _atom_site_type_symbol
 _atom_site_label
 _atom_site_symmetry_multiplicity
 _atom_site_fract_x
 _atom_site_fract_y
 _atom_site_fract_z
 _atom_site_occupancy
  Ni  Ni0  1  0.91642000  0.99117600  0.85471500  1
  Ni  Ni1  1  0.08358000  0.00882400  0.14528500  1
  Ni  Ni2  1  0.58358000  0.99117600  0.35471500  1
  Ni  Ni3  1  0.41642000  0.00882400  0.64528500  1
  Cu  Cu4  1  0.35479700  0.15852200  0.05291200  1
  Cu  Cu5  1  0.64520300  0.84147800  0.94708800  1
  Cu  Cu6  1  0.85479700  0.84147800  0.44708800  1
  Cu  Cu7  1  0.14520300  0.15852200  0.55291200  1
  C  C8  1  0.92063000  0.83598900  0.63728400  1
  C  C9  1  0.03239300  0.26644700  0.66743100  1
  C  C10  1  0.78579800  0.13094200  0.33441800  1
  C  C11  1  0.43932600  0.80406400  0.48744400  1
  C  C12  1  0.71262800  0.66982100  0.47338800  1
  C  C13  1  0.78737200  0.66982100  0.97338800  1
  C  C14  1  0.46760700  0.26644700  0.16743100  1
  C  C15  1  0.53239300  0.73355300  0.83256900  1
  C  C16  1  0.56067400  0.19593600  0.51255600  1
  C  C17  1  0.42063000  0.16401100  0.86271600  1
  C  C18  1  0.28737200  0.33017900  0.52661200  1
  C  C19  1  0.07937000  0.16401100  0.36271600  1
  C  C20  1  0.57937000  0.83598900  0.13728400  1
  C  C21  1  0.21262800  0.33017900  0.02661200  1
  C  C22  1  0.93932600  0.19593600  0.01255600  1
  C  C23  1  0.06067400  0.80406400  0.98744400  1
  C  C24  1  0.21420200  0.86905800  0.66558200  1
  C  C25  1  0.96760700  0.73355300  0.33256900  1
  C  C26  1  0.28579800  0.86905800  0.16558200  1
  C  C27  1  0.71420200  0.13094200  0.83441800  1
