# generated using pymatgen
data_CuNiC5
_symmetry_space_group_name_H-M   'P 1'
_cell_length_a   4.14905300
_cell_length_b   13.03844800
_cell_length_c   7.53158600
_cell_angle_alpha   90.00000000
_cell_angle_beta   90.00000000
_cell_angle_gamma   90.00000000
_symmetry_Int_Tables_number   1
_chemical_formula_structural   CuNiC5
_chemical_formula_sum   'Cu4 Ni4 C20'
_cell_volume   407.43780295
_cell_formula_units_Z   4
loop_
 _symmetry_equiv_pos_site_id
 _symmetry_equiv_pos_as_xyz
  1  'x, y, z'
loop_
 _atom_site_type_symbol
 _atom_site_label
 _atom_site_symmetry_multiplicity
 _atom_site_fract_x
 _atom_site_fract_y
 _atom_site_fract_z
 _atom_site_occupancy
  Ni  Ni0  1  0.00000000  0.22809100  0.75000000  1
  Ni  Ni1  1  0.00000000  0.27190900  0.25000000  1
  Ni  Ni2  1  0.00000000  0.72809100  0.75000000  1
  Ni  Ni3  1  0.00000000  0.77190900  0.25000000  1
  Cu  Cu4  1  0.08330100  0.00000000  0.50000000  1
  Cu  Cu5  1  0.08330100  0.50000000  0.00000000  1
  Cu  Cu6  1  0.91669900  0.00000000  0.00000000  1
  Cu  Cu7  1  0.91669900  0.50000000  0.50000000  1
  C  C8  1  0.98824300  0.15309300  0.04706100  1
  C  C9  1  0.01175700  0.15309300  0.45293900  1
  C  C10  1  0.00000000  0.45614700  0.25000000  1
  C  C11  1  0.98824300  0.34690700  0.54706100  1
  C  C12  1  0.01175700  0.65309300  0.04706100  1
  C  C13  1  0.01175700  0.34690700  0.95293900  1
  C  C14  1  0.98824300  0.65309300  0.45293900  1
  C  C15  1  0.00000000  0.54385300  0.75000000  1
  C  C16  1  0.00000000  0.95614700  0.25000000  1
  C  C17  1  0.01175700  0.84690700  0.54706100  1
  C  C18  1  0.51509100  0.00000000  0.50000000  1
  C  C19  1  0.48490900  0.50000000  0.50000000  1
  C  C20  1  0.50000000  0.22467200  0.75000000  1
  C  C21  1  0.50000000  0.27532800  0.25000000  1
  C  C22  1  0.48490900  0.00000000  0.00000000  1
  C  C23  1  0.50000000  0.72467200  0.75000000  1
  C  C24  1  0.50000000  0.77532800  0.25000000  1
  C  C25  1  0.51509100  0.50000000  0.00000000  1
  C  C26  1  0.00000000  0.04385300  0.75000000  1
  C  C27  1  0.98824300  0.84690700  0.95293900  1
