# generated using pymatgen
data_Cu4Ni2C5
_symmetry_space_group_name_H-M   'P 1'
_cell_length_a   3.31923600
_cell_length_b   5.74315800
_cell_length_c   8.79874074
_cell_angle_alpha   77.82371729
_cell_angle_beta   90.00000000
_cell_angle_gamma   90.00000000
_symmetry_Int_Tables_number   1
_chemical_formula_structural   Cu4Ni2C5
_chemical_formula_sum   'Cu4 Ni2 C5'
_cell_volume   163.95612456
_cell_formula_units_Z   1
loop_
 _symmetry_equiv_pos_site_id
 _symmetry_equiv_pos_as_xyz
  1  'x, y, z'
loop_
 _atom_site_type_symbol
 _atom_site_label
 _atom_site_symmetry_multiplicity
 _atom_site_fract_x
 _atom_site_fract_y
 _atom_site_fract_z
 _atom_site_occupancy
  C  C0  1  0.50000000  0.62558100  0.63491200  1
  C  C1  1  0.00000000  0.11923400  0.63338100  1
  C  C2  1  0.50000000  0.37441900  0.36508800  1
  C  C3  1  0.00000000  0.88076600  0.36661900  1
  C  C4  1  0.00000000  0.00000000  0.00000000  1
  Ni  Ni5  1  0.00000000  0.50000000  0.50000000  1
  Ni  Ni6  1  0.50000000  0.00000000  0.50000000  1
  Cu  Cu7  1  0.50000000  0.77281900  0.16783900  1
  Cu  Cu8  1  0.00000000  0.27596200  0.16966400  1
  Cu  Cu9  1  0.50000000  0.22718100  0.83216100  1
  Cu  Cu10  1  0.00000000  0.72403800  0.83033600  1
