# generated using pymatgen
data_Cu(NiC3)2
_symmetry_space_group_name_H-M   'P 1'
_cell_length_a   7.75641900
_cell_length_b   8.52269021
_cell_length_c   8.52269021
_cell_angle_alpha   115.03073563
_cell_angle_beta   90.00000000
_cell_angle_gamma   90.00000000
_symmetry_Int_Tables_number   1
_chemical_formula_structural   Cu(NiC3)2
_chemical_formula_sum   'Cu2 Ni4 C12'
_cell_volume   510.48344885
_cell_formula_units_Z   2
loop_
 _symmetry_equiv_pos_site_id
 _symmetry_equiv_pos_as_xyz
  1  'x, y, z'
loop_
 _atom_site_type_symbol
 _atom_site_label
 _atom_site_symmetry_multiplicity
 _atom_site_fract_x
 _atom_site_fract_y
 _atom_site_fract_z
 _atom_site_occupancy
  C  C0  1  0.81166500  0.33169500  0.66830500  1
  C  C1  1  0.31166500  0.66830500  0.33169500  1
  Ni  Ni2  1  0.97395900  0.54111200  0.45888800  1
  Ni  Ni3  1  0.47395900  0.45888800  0.54111200  1
  Ni  Ni4  1  0.52728100  0.85687000  0.14313000  1
  Ni  Ni5  1  0.02728100  0.14313000  0.85687000  1
  C  C6  1  0.78057500  0.83501000  0.16499000  1
  C  C7  1  0.28057500  0.16499000  0.83501000  1
  C  C8  1  0.68856800  0.53068900  0.09477000  1
  C  C9  1  0.18856800  0.46931100  0.90523100  1
  C  C10  1  0.18856800  0.09477000  0.53068900  1
  C  C11  1  0.68856800  0.90523100  0.46931100  1
  C  C12  1  0.73131600  0.76999900  0.85387600  1
  C  C13  1  0.23131600  0.23000100  0.14612400  1
  C  C14  1  0.23131600  0.85387600  0.76999900  1
  C  C15  1  0.73131600  0.14612400  0.23000100  1
  Cu  Cu16  1  0.99475200  0.82212500  0.17787500  1
  Cu  Cu17  1  0.49475200  0.17787500  0.82212500  1
