# generated using pymatgen
data_CuNi3C10
_symmetry_space_group_name_H-M   'P 1'
_cell_length_a   5.96416259
_cell_length_b   5.96416259
_cell_length_c   5.96416211
_cell_angle_alpha   60.21615854
_cell_angle_beta   60.21615854
_cell_angle_gamma   60.21615529
_symmetry_Int_Tables_number   1
_chemical_formula_structural   CuNi3C10
_chemical_formula_sum   'Cu1 Ni3 C10'
_cell_volume   150.74873986
_cell_formula_units_Z   1
loop_
 _symmetry_equiv_pos_site_id
 _symmetry_equiv_pos_as_xyz
  1  'x, y, z'
loop_
 _atom_site_type_symbol
 _atom_site_label
 _atom_site_symmetry_multiplicity
 _atom_site_fract_x
 _atom_site_fract_y
 _atom_site_fract_z
 _atom_site_occupancy
  C  C0  1  0.62562500  0.62562500  0.62562500  1
  C  C1  1  0.24580400  0.24580400  0.24580400  1
  Ni  Ni2  1  0.62329600  0.13199800  0.62329600  1
  Ni  Ni3  1  0.13199800  0.62329600  0.62329600  1
  Ni  Ni4  1  0.62329600  0.62329600  0.13199800  1
  Cu  Cu5  1  0.00768200  0.00768200  0.00768200  1
  C  C6  1  0.86701600  0.86701600  0.86701600  1
  C  C7  1  0.87168900  0.41254500  0.87168900  1
  C  C8  1  0.41254500  0.87168900  0.87168900  1
  C  C9  1  0.87168900  0.87168900  0.41254500  1
  C  C10  1  0.38457600  0.38457600  0.38457600  1
  C  C11  1  0.37607200  0.83264100  0.37607200  1
  C  C12  1  0.83264100  0.37607200  0.37607200  1
  C  C13  1  0.37607200  0.37607200  0.83264100  1
