# generated using pymatgen
data_Cu3NiC
_symmetry_space_group_name_H-M   'P 1'
_cell_length_a   5.16955500
_cell_length_b   6.41023000
_cell_length_c   7.15275700
_cell_angle_alpha   90.00000000
_cell_angle_beta   90.00000000
_cell_angle_gamma   90.00000000
_symmetry_Int_Tables_number   1
_chemical_formula_structural   Cu3NiC
_chemical_formula_sum   'Cu12 Ni4 C4'
_cell_volume   237.02832288
_cell_formula_units_Z   4
loop_
 _symmetry_equiv_pos_site_id
 _symmetry_equiv_pos_as_xyz
  1  'x, y, z'
loop_
 _atom_site_type_symbol
 _atom_site_label
 _atom_site_symmetry_multiplicity
 _atom_site_fract_x
 _atom_site_fract_y
 _atom_site_fract_z
 _atom_site_occupancy
  C  C0  1  0.00000000  0.48228400  0.02779400  1
  C  C1  1  0.00000000  0.51771600  0.52779400  1
  C  C2  1  0.50000000  0.12979000  0.32795800  1
  C  C3  1  0.50000000  0.87021000  0.82795800  1
  Ni  Ni4  1  0.50000000  0.58018300  0.24320100  1
  Ni  Ni5  1  0.50000000  0.41981700  0.74320100  1
  Ni  Ni6  1  0.00000000  0.03632100  0.99856000  1
  Ni  Ni7  1  0.00000000  0.96367900  0.49856000  1
  Cu  Cu8  1  0.00000000  0.14193400  0.41446900  1
  Cu  Cu9  1  0.00000000  0.85806600  0.91446900  1
  Cu  Cu10  1  0.28744400  0.48366000  0.28024700  1
  Cu  Cu11  1  0.71255700  0.51634000  0.78024700  1
  Cu  Cu12  1  0.28744400  0.51634000  0.78024700  1
  Cu  Cu13  1  0.71255700  0.48366000  0.28024700  1
  Cu  Cu14  1  0.22075800  0.12522300  0.03434700  1
  Cu  Cu15  1  0.77924200  0.87477700  0.53434700  1
  Cu  Cu16  1  0.22075800  0.87477700  0.53434700  1
  Cu  Cu17  1  0.77924200  0.12522300  0.03434700  1
  Cu  Cu18  1  0.50000000  0.23465400  0.66483000  1
  Cu  Cu19  1  0.50000000  0.76534600  0.16483000  1
