# generated using pymatgen
data_Cu2NiC
_symmetry_space_group_name_H-M   'P 1'
_cell_length_a   13.83802046
_cell_length_b   14.27301433
_cell_length_c   14.27301509
_cell_angle_alpha   60.82299983
_cell_angle_beta   61.00314284
_cell_angle_gamma   61.00314093
_symmetry_Int_Tables_number   1
_chemical_formula_structural   Cu2NiC
_chemical_formula_sum   'Cu2 Ni1 C1'
_cell_volume   2035.73020433
_cell_formula_units_Z   1
loop_
 _symmetry_equiv_pos_site_id
 _symmetry_equiv_pos_as_xyz
  1  'x, y, z'
loop_
 _atom_site_type_symbol
 _atom_site_label
 _atom_site_symmetry_multiplicity
 _atom_site_fract_x
 _atom_site_fract_y
 _atom_site_fract_z
 _atom_site_occupancy
  Ni  Ni0  1  0.00000000  0.00000000  0.00000000  1
  Cu  Cu1  1  0.72368918  1.00000000  1.00000000  1
  Cu  Cu2  1  0.27631082  0.00000000  0.00000000  1
  C  C3  1  0.50000000  0.00000000  0.00000000  1
