# generated using pymatgen
data_CuNi149
_symmetry_space_group_name_H-M   'P 1'
_cell_length_a   15.93856739
_cell_length_b   15.93857267
_cell_length_c   15.67576170
_cell_angle_alpha   90.00000000
_cell_angle_beta   90.00000000
_cell_angle_gamma   120.00001295
_symmetry_Int_Tables_number   1
_chemical_formula_structural   CuNi149
_chemical_formula_sum   'Cu1 Ni149'
_cell_volume   3448.72001581
_cell_formula_units_Z   1
loop_
 _symmetry_equiv_pos_site_id
 _symmetry_equiv_pos_as_xyz
  1  'x, y, z'
loop_
 _atom_site_type_symbol
 _atom_site_label
 _atom_site_symmetry_multiplicity
 _atom_site_fract_x
 _atom_site_fract_y
 _atom_site_fract_z
 _atom_site_occupancy
  Ni  Ni0  1  0.39738240  0.00020447  -0.00000000  1
  Ni  Ni1  1  0.60282307  0.00020447  0.00000000  1
  Ni  Ni2  1  0.81107255  0.00160085  0.00000000  1
  Ni  Ni3  1  0.19052829  0.00160085  0.00000000  1
  Ni  Ni4  1  0.99839915  0.18892645  0.00000000  1
  Ni  Ni5  1  0.19052829  0.18892745  0.00000000  1
  Ni  Ni6  1  0.80117520  0.19882480  0.00000000  1
  Ni  Ni7  1  0.39764961  0.19882480  0.00000000  1
  Ni  Ni8  1  0.59971031  0.19942061  0.00000000  1
  Ni  Ni9  1  0.99979653  0.39717793  0.00000000  1
  Ni  Ni10  1  0.39738240  0.39717793  0.00000000  1
  Ni  Ni11  1  0.19860548  0.39721196  -0.00000000  1
  Ni  Ni12  1  0.59971031  0.40028969  0.00000000  1
  Ni  Ni13  1  0.80057939  0.40028969  0.00000000  1
  Ni  Ni14  1  0.19968016  0.59984008  0.00000000  1
  Ni  Ni15  1  0.40015992  0.59984008  0.00000000  1
  Ni  Ni16  1  0.80117520  0.60235039  0.00000000  1
  Ni  Ni17  1  0.99979653  0.60261860  0.00000000  1
  Ni  Ni18  1  0.60282307  0.60261860  0.00000000  1
  Ni  Ni19  1  0.40015992  0.80031984  0.00000000  1
  Ni  Ni20  1  0.19860548  0.80139352  0.00000000  1
  Ni  Ni21  1  0.60278804  0.80139352  0.00000000  1
  Ni  Ni22  1  0.81107255  0.80947171  0.00000000  1
  Ni  Ni23  1  0.99839915  0.80947171  -0.00000000  1
  Ni  Ni24  1  0.06333570  0.12667140  0.15709370  1
  Ni  Ni25  1  0.87332860  0.93666430  0.15709370  1
  Ni  Ni26  1  0.06333570  0.93666430  0.15709370  1
  Ni  Ni27  1  0.26489913  0.33129029  0.16559033  1
  Ni  Ni28  1  0.06639115  0.33129129  0.16559033  1
  Ni  Ni29  1  0.06639115  0.73510087  0.16559033  1
  Ni  Ni30  1  0.66870971  0.73510187  0.16559033  1
  Ni  Ni31  1  0.26489913  0.93360885  0.16559033  1
  Ni  Ni32  1  0.66870971  0.93360885  0.16559033  1
  Ni  Ni33  1  0.06656704  0.53328302  0.16631464  1
  Ni  Ni34  1  0.46671598  0.53328402  0.16631464  1
  Ni  Ni35  1  0.46671598  0.93343296  0.16631464  1
  Ni  Ni36  1  0.66653791  0.13352580  0.16663906  1
  Ni  Ni37  1  0.46698789  0.13352580  0.16663906  1
  Ni  Ni38  1  0.86647420  0.33346109  0.16663906  1
  Ni  Ni39  1  0.46698789  0.33346209  0.16663906  1
  Ni  Ni40  1  0.66653791  0.53301211  0.16663906  1
  Ni  Ni41  1  0.86647420  0.53301311  0.16663906  1
  Ni  Ni42  1  0.66666700  0.33333400  0.16655197  1
  Ni  Ni43  1  0.26653131  0.53306262  0.16655002  1
  Ni  Ni44  1  0.46693638  0.73346769  0.16655002  1
  Ni  Ni45  1  0.26653131  0.73346869  0.16655002  1
  Ni  Ni46  1  0.86587489  0.13412511  0.16692315  1
  Ni  Ni47  1  0.26825022  0.13412511  0.16692315  1
  Ni  Ni48  1  0.86587489  0.73174978  0.16692315  1
  Ni  Ni49  1  0.80083221  0.99956864  0.33116121  1
  Ni  Ni50  1  0.19873643  0.99956864  0.33116121  1
  Ni  Ni51  1  0.19873643  0.19916679  0.33116121  1
  Ni  Ni52  1  0.00043136  0.19916779  0.33116121  1
  Ni  Ni53  1  0.80083221  0.80126357  0.33116121  1
  Ni  Ni54  1  0.00043136  0.80126357  0.33116121  1
  Ni  Ni55  1  0.00000000  0.00000000  0.33186919  1
  Ni  Ni56  1  0.60049062  -0.00004266  0.33295444  1
  Ni  Ni57  1  0.39946672  -0.00004266  0.33295444  1
  Ni  Ni58  1  0.39946672  0.39950938  0.33295444  1
  Ni  Ni59  1  0.00004266  0.39950938  0.33295444  1
  Ni  Ni60  1  0.00004266  0.60053328  0.33295444  1
  Ni  Ni61  1  0.60049062  0.60053328  0.33295444  1
  Ni  Ni62  1  0.59981402  0.19962705  0.33327538  1
  Ni  Ni63  1  0.80037295  0.40018598  0.33327538  1
  Ni  Ni64  1  0.59981402  0.40018698  0.33327538  1
  Ni  Ni65  1  0.20008098  0.40016095  0.33330914  1
  Ni  Ni66  1  0.59983905  0.79991902  0.33330914  1
  Ni  Ni67  1  0.20008098  0.79992002  0.33330914  1
  Ni  Ni68  1  0.39975259  0.19987629  0.33340349  1
  Ni  Ni69  1  0.80012471  0.19987629  0.33340349  1
  Ni  Ni70  1  0.80012471  0.60024741  0.33340349  1
  Ni  Ni71  1  0.19993569  0.59996735  0.33351252  1
  Ni  Ni72  1  0.40003165  0.59996835  0.33351252  1
  Ni  Ni73  1  0.40003165  0.80006431  0.33351252  1
  Ni  Ni74  1  0.86677969  0.13321931  0.50000000  1
  Ni  Ni75  1  0.26644062  0.13322031  0.50000000  1
  Ni  Ni76  1  0.06669853  0.13339705  0.50000000  1
  Ni  Ni77  1  0.46704537  0.13367380  0.50000000  1
  Ni  Ni78  1  0.66662943  0.13367380  0.50000000  1
  Ni  Ni79  1  0.26662896  0.33295306  0.50000000  1
  Ni  Ni80  1  0.06632410  0.33295306  0.50000000  1
  Ni  Ni81  1  0.86632720  0.33337057  0.50000000  1
  Ni  Ni82  1  0.46704537  0.33337157  0.50000000  1
  Ni  Ni83  1  0.66666700  0.33333400  0.50000000  1
  Ni  Ni84  1  0.66662943  0.53295563  0.50000000  1
  Ni  Ni85  1  0.86632720  0.53295563  0.50000000  1
  Ni  Ni86  1  0.06601637  0.53300769  0.50000000  1
  Ni  Ni87  1  0.46699131  0.53300869  0.50000000  1
  Ni  Ni88  1  0.26652889  0.53305779  0.50000000  1
  Ni  Ni89  1  0.66704694  0.73337104  0.50000000  1
  Ni  Ni90  1  0.06632410  0.73337104  0.50000000  1
  Ni  Ni91  1  0.46694221  0.73347111  0.50000000  1
  Ni  Ni92  1  0.26652889  0.73347111  0.50000000  1
  Ni  Ni93  1  0.86677969  0.73356038  0.50000000  1
  Ni  Ni94  1  0.86660295  0.93330047  0.50000000  1
  Ni  Ni95  1  0.06669853  0.93330147  0.50000000  1
  Ni  Ni96  1  0.46699131  0.93398363  0.50000000  1
  Ni  Ni97  1  0.66704694  0.93367590  0.50000000  1
  Ni  Ni98  1  0.26662896  0.93367590  0.50000000  1
  Ni  Ni99  1  0.19993569  0.59996735  0.66648748  1
  Ni  Ni100  1  0.40003165  0.59996835  0.66648748  1
  Ni  Ni101  1  0.40003165  0.80006431  0.66648748  1
  Ni  Ni102  1  0.39975259  0.19987629  0.66659651  1
  Ni  Ni103  1  0.80012471  0.19987629  0.66659651  1
  Ni  Ni104  1  0.80012471  0.60024741  0.66659651  1
  Ni  Ni105  1  0.20008098  0.40016095  0.66669186  1
  Ni  Ni106  1  0.59983905  0.79991902  0.66669186  1
  Ni  Ni107  1  0.20008098  0.79992002  0.66669186  1
  Ni  Ni108  1  0.59981402  0.19962705  0.66672562  1
  Ni  Ni109  1  0.80037295  0.40018598  0.66672562  1
  Ni  Ni110  1  0.59981402  0.40018698  0.66672562  1
  Ni  Ni111  1  0.60049062  -0.00004266  0.66704556  1
  Ni  Ni112  1  0.39946672  -0.00004266  0.66704556  1
  Ni  Ni113  1  0.39946672  0.39950938  0.66704556  1
  Ni  Ni114  1  0.00004266  0.39950938  0.66704556  1
  Ni  Ni115  1  0.00004266  0.60053328  0.66704556  1
  Ni  Ni116  1  0.60049062  0.60053328  0.66704556  1
  Ni  Ni117  1  0.00000000  0.00000000  0.66813081  1
  Ni  Ni118  1  0.80083221  0.99956864  0.66883879  1
  Ni  Ni119  1  0.19873643  0.99956864  0.66883879  1
  Ni  Ni120  1  0.19873643  0.19916679  0.66883879  1
  Ni  Ni121  1  0.00043136  0.19916779  0.66883879  1
  Ni  Ni122  1  0.80083221  0.80126357  0.66883879  1
  Ni  Ni123  1  0.00043136  0.80126357  0.66883879  1
  Ni  Ni124  1  0.86587489  0.13412511  0.83307685  1
  Ni  Ni125  1  0.26825022  0.13412511  0.83307685  1
  Ni  Ni126  1  0.86587489  0.73174978  0.83307685  1
  Ni  Ni127  1  0.26653131  0.53306262  0.83344898  1
  Ni  Ni128  1  0.46693638  0.73346769  0.83344898  1
  Ni  Ni129  1  0.26653131  0.73346869  0.83344898  1
  Ni  Ni130  1  0.66666700  0.33333400  0.83344803  1
  Ni  Ni131  1  0.66653791  0.13352580  0.83336094  1
  Ni  Ni132  1  0.46698789  0.13352580  0.83336094  1
  Ni  Ni133  1  0.86647420  0.33346109  0.83336094  1
  Ni  Ni134  1  0.46698789  0.33346209  0.83336094  1
  Ni  Ni135  1  0.66653791  0.53301211  0.83336094  1
  Ni  Ni136  1  0.86647420  0.53301311  0.83336094  1
  Ni  Ni137  1  0.06656704  0.53328302  0.83368536  1
  Ni  Ni138  1  0.46671598  0.53328402  0.83368536  1
  Ni  Ni139  1  0.46671598  0.93343296  0.83368536  1
  Ni  Ni140  1  0.26489913  0.33129029  0.83440967  1
  Ni  Ni141  1  0.06639115  0.33129129  0.83440967  1
  Ni  Ni142  1  0.06639115  0.73510087  0.83440967  1
  Ni  Ni143  1  0.66870971  0.73510187  0.83440967  1
  Ni  Ni144  1  0.26489913  0.93360885  0.83440967  1
  Ni  Ni145  1  0.66870971  0.93360885  0.83440967  1
  Ni  Ni146  1  0.06333570  0.12667140  0.84290730  1
  Ni  Ni147  1  0.87332860  0.93666430  0.84290730  1
  Ni  Ni148  1  0.06333570  0.93666430  0.84290730  1
  Cu  Cu149  1  0.00000000  0.00000000  0.00000000  1
