# generated using pymatgen
data_Cu3Ni9C4
_symmetry_space_group_name_H-M   'P 1'
_cell_length_a   6.80728100
_cell_length_b   11.66261700
_cell_length_c   12.89349900
_cell_angle_alpha   90.00000000
_cell_angle_beta   90.00000000
_cell_angle_gamma   90.00000000
_symmetry_Int_Tables_number   1
_chemical_formula_structural   Cu3Ni9C4
_chemical_formula_sum   'Cu12 Ni36 C16'
_cell_volume   1023.62405436
_cell_formula_units_Z   4
loop_
 _symmetry_equiv_pos_site_id
 _symmetry_equiv_pos_as_xyz
  1  'x, y, z'
loop_
 _atom_site_type_symbol
 _atom_site_label
 _atom_site_symmetry_multiplicity
 _atom_site_fract_x
 _atom_site_fract_y
 _atom_site_fract_z
 _atom_site_occupancy
  C  C0  1  0.14780500  0.63036400  0.73441800  1
  C  C1  1  0.64780500  0.36963600  0.26558200  1
  C  C2  1  0.64780500  0.13036400  0.76558200  1
  C  C3  1  0.14780500  0.86963600  0.23441800  1
  C  C4  1  0.32322600  0.56021500  0.59691300  1
  C  C5  1  0.82322600  0.43978500  0.40308700  1
  C  C6  1  0.82322600  0.06021500  0.90308700  1
  C  C7  1  0.32322600  0.93978500  0.09691300  1
  C  C8  1  0.43889600  0.53401100  0.76144600  1
  C  C9  1  0.93889600  0.46598900  0.23855400  1
  C  C10  1  0.93889600  0.03401100  0.73855400  1
  C  C11  1  0.43889600  0.96598900  0.26144600  1
  C  C12  1  0.94516500  0.70728500  0.86946700  1
  C  C13  1  0.44516500  0.29271500  0.13053300  1
  C  C14  1  0.44516500  0.20728500  0.63053300  1
  C  C15  1  0.94516500  0.79271500  0.36946700  1
  Ni  Ni16  1  0.16295700  0.61972300  0.62965300  1
  Ni  Ni17  1  0.66295700  0.38027700  0.37034700  1
  Ni  Ni18  1  0.66295700  0.11972300  0.87034700  1
  Ni  Ni19  1  0.16295700  0.88027700  0.12965300  1
  Ni  Ni20  1  0.46391400  0.51342700  0.65852600  1
  Ni  Ni21  1  0.96391400  0.48657300  0.34147400  1
  Ni  Ni22  1  0.96391400  0.01342700  0.84147400  1
  Ni  Ni23  1  0.46391400  0.98657300  0.15852600  1
  Ni  Ni24  1  0.28286600  0.59066000  0.80355600  1
  Ni  Ni25  1  0.78286600  0.40934000  0.19644400  1
  Ni  Ni26  1  0.78286600  0.09066000  0.69644400  1
  Ni  Ni27  1  0.28286600  0.90934000  0.30355600  1
  Ni  Ni28  1  0.34504900  0.54754500  0.49280900  1
  Ni  Ni29  1  0.84504900  0.45245500  0.50719100  1
  Ni  Ni30  1  0.84504900  0.04754500  0.00719100  1
  Ni  Ni31  1  0.34504900  0.95245500  0.99280900  1
  Ni  Ni32  1  0.58113900  0.49414000  0.82564900  1
  Ni  Ni33  1  0.08113900  0.50586000  0.17435100  1
  Ni  Ni34  1  0.08113900  0.99414000  0.67435100  1
  Ni  Ni35  1  0.58113900  0.00586000  0.32564900  1
  Ni  Ni36  1  0.98227800  0.68551100  0.76590200  1
  Ni  Ni37  1  0.48227800  0.31448900  0.23409800  1
  Ni  Ni38  1  0.48227800  0.18551100  0.73409800  1
  Ni  Ni39  1  0.98227800  0.81448900  0.26590200  1
  Ni  Ni40  1  0.76764400  0.75936500  0.88204200  1
  Ni  Ni41  1  0.26764400  0.24063500  0.11795800  1
  Ni  Ni42  1  0.26764400  0.25936500  0.61795800  1
  Ni  Ni43  1  0.76764400  0.74063500  0.38204200  1
  Ni  Ni44  1  0.06710300  0.68303800  0.94742600  1
  Ni  Ni45  1  0.56710300  0.31696200  0.05257400  1
  Ni  Ni46  1  0.56710300  0.18303800  0.55257400  1
  Ni  Ni47  1  0.06710300  0.81696200  0.44742600  1
  Ni  Ni48  1  0.55009500  0.84266200  0.62675700  1
  Ni  Ni49  1  0.05009500  0.15733800  0.37324300  1
  Ni  Ni50  1  0.05009500  0.34266200  0.87324300  1
  Ni  Ni51  1  0.55009500  0.65733800  0.12675700  1
  Cu  Cu52  1  0.46721600  0.89366200  0.55398700  1
  Cu  Cu53  1  0.96721600  0.10633800  0.44601300  1
  Cu  Cu54  1  0.96721600  0.39366200  0.94601300  1
  Cu  Cu55  1  0.46721600  0.60633800  0.05398700  1
  Cu  Cu56  1  0.49021600  0.85538900  0.71865900  1
  Cu  Cu57  1  0.99021600  0.14461100  0.28134100  1
  Cu  Cu58  1  0.99021600  0.35538900  0.78134100  1
  Cu  Cu59  1  0.49021600  0.64461100  0.21865900  1
  Cu  Cu60  1  0.69463100  0.77768600  0.60968900  1
  Cu  Cu61  1  0.19463100  0.22231400  0.39031100  1
  Cu  Cu62  1  0.19463100  0.27768600  0.89031100  1
  Cu  Cu63  1  0.69463100  0.72231400  0.10968900  1
