# generated using pymatgen
data_Cu2NiC4
_symmetry_space_group_name_H-M   'P 1'
_cell_length_a   5.95410372
_cell_length_b   5.95410372
_cell_length_c   14.64014700
_cell_angle_alpha   90.00000000
_cell_angle_beta   90.00000000
_cell_angle_gamma   119.99999691
_symmetry_Int_Tables_number   1
_chemical_formula_structural   Cu2NiC4
_chemical_formula_sum   'Cu12 Ni6 C24'
_cell_volume   449.47844991
_cell_formula_units_Z   6
loop_
 _symmetry_equiv_pos_site_id
 _symmetry_equiv_pos_as_xyz
  1  'x, y, z'
loop_
 _atom_site_type_symbol
 _atom_site_label
 _atom_site_symmetry_multiplicity
 _atom_site_fract_x
 _atom_site_fract_y
 _atom_site_fract_z
 _atom_site_occupancy
  Ni  Ni0  1  0.33333300  0.66666700  0.95700200  1
  Ni  Ni1  1  0.00000000  0.00000000  0.62433900  1
  Ni  Ni2  1  0.00000000  0.00000000  0.00010400  1
  Ni  Ni3  1  0.66666700  0.33333300  0.29234000  1
  Ni  Ni4  1  0.33333300  0.66666700  0.70838800  1
  Ni  Ni5  1  0.00000000  0.00000000  0.37521700  1
  Cu  Cu6  1  0.83436800  0.66873600  0.83317500  1
  Cu  Cu7  1  0.33126400  0.16563200  0.83317500  1
  Cu  Cu8  1  0.49974700  0.99949400  0.49992300  1
  Cu  Cu9  1  0.83436800  0.16563200  0.83317500  1
  Cu  Cu10  1  0.66666700  0.33333300  0.66821700  1
  Cu  Cu11  1  0.00050600  0.50025300  0.49992300  1
  Cu  Cu12  1  0.16674000  0.33348000  0.16709500  1
  Cu  Cu13  1  0.49974700  0.50025300  0.49992300  1
  Cu  Cu14  1  0.16674000  0.83326000  0.16709500  1
  Cu  Cu15  1  0.33333300  0.66666700  0.33184300  1
  Cu  Cu16  1  0.66652000  0.83326000  0.16709500  1
  Cu  Cu17  1  0.66666700  0.33333300  0.04301800  1
  C  C18  1  0.68752900  0.84376400  0.90594300  1
  C  C19  1  0.00000000  0.00000000  0.75819400  1
  C  C20  1  0.15623600  0.84376400  0.90594300  1
  C  C21  1  0.15623600  0.31247100  0.90594300  1
  C  C22  1  0.51501900  0.03003800  0.75324800  1
  C  C23  1  0.36086300  0.18043100  0.57791700  1
  C  C24  1  0.51501900  0.48498100  0.75324800  1
  C  C25  1  0.66666700  0.33333300  0.90862400  1
  C  C26  1  0.81956900  0.18043100  0.57791700  1
  C  C27  1  0.66666700  0.33333300  0.42734200  1
  C  C28  1  0.96996200  0.48498100  0.75324800  1
  C  C29  1  0.81956900  0.63913700  0.57791700  1
  C  C30  1  0.18111500  0.36223100  0.41973600  1
  C  C31  1  0.02754000  0.51377000  0.24692300  1
  C  C32  1  0.18111500  0.81888500  0.41973600  1
  C  C33  1  0.33333300  0.66666700  0.57346900  1
  C  C34  1  0.33333300  0.66666700  0.09170600  1
  C  C35  1  0.48623000  0.51377000  0.24692300  1
  C  C36  1  0.63776900  0.81888500  0.41973600  1
  C  C37  1  0.48623000  0.97246000  0.24692300  1
  C  C38  1  0.84163100  0.68326300  0.09318100  1
  C  C39  1  0.00000000  0.00000000  0.24117700  1
  C  C40  1  0.84163100  0.15836900  0.09318100  1
  C  C41  1  0.31673700  0.15836900  0.09318100  1
