# generated using pymatgen
data_Cu6Ni2C7
_symmetry_space_group_name_H-M   'P 1'
_cell_length_a   7.21248600
_cell_length_b   7.46693100
_cell_length_c   12.21164300
_cell_angle_alpha   90.00000000
_cell_angle_beta   90.00000000
_cell_angle_gamma   90.00000000
_symmetry_Int_Tables_number   1
_chemical_formula_structural   Cu6Ni2C7
_chemical_formula_sum   'Cu24 Ni8 C28'
_cell_volume   657.65968601
_cell_formula_units_Z   4
loop_
 _symmetry_equiv_pos_site_id
 _symmetry_equiv_pos_as_xyz
  1  'x, y, z'
loop_
 _atom_site_type_symbol
 _atom_site_label
 _atom_site_symmetry_multiplicity
 _atom_site_fract_x
 _atom_site_fract_y
 _atom_site_fract_z
 _atom_site_occupancy
  C  C0  1  0.30723400  0.24438700  0.57200000  1
  C  C1  1  0.80723400  0.25561300  0.42800000  1
  C  C2  1  0.69276600  0.74438700  0.92800000  1
  C  C3  1  0.19276600  0.75561300  0.07200000  1
  C  C4  1  0.41052300  0.05947700  0.34232100  1
  C  C5  1  0.91052300  0.44052300  0.65767900  1
  C  C6  1  0.58947700  0.55947700  0.15767900  1
  C  C7  1  0.08947700  0.94052300  0.84232100  1
  C  C8  1  0.53104500  0.95525100  0.42917100  1
  C  C9  1  0.03104500  0.54474900  0.57082900  1
  C  C10  1  0.46895500  0.45525100  0.07082900  1
  C  C11  1  0.96895500  0.04474900  0.92917100  1
  C  C12  1  0.20403100  0.88748600  0.66706300  1
  C  C13  1  0.70403100  0.61251400  0.33293700  1
  C  C14  1  0.79596900  0.38748600  0.83293700  1
  C  C15  1  0.29596900  0.11251400  0.16706300  1
  C  C16  1  0.37110900  0.95360700  0.74364600  1
  C  C17  1  0.87110900  0.54639300  0.25635400  1
  C  C18  1  0.62889100  0.45360700  0.75635400  1
  C  C19  1  0.12889100  0.04639300  0.24364600  1
  C  C20  1  0.97195400  0.79826000  0.42155900  1
  C  C21  1  0.47195400  0.70174000  0.57844100  1
  C  C22  1  0.02804600  0.29826000  0.07844100  1
  C  C23  1  0.52804600  0.20174000  0.92155900  1
  C  C24  1  0.86691900  0.01404600  0.69018200  1
  C  C25  1  0.36691900  0.48595400  0.30981800  1
  C  C26  1  0.13308100  0.51404600  0.80981800  1
  C  C27  1  0.63308100  0.98595400  0.19018200  1
  Ni  Ni28  1  0.71325100  0.02353800  0.68739400  1
  Ni  Ni29  1  0.21325100  0.47646200  0.31260600  1
  Ni  Ni30  1  0.28674900  0.52353800  0.81260600  1
  Ni  Ni31  1  0.78674900  0.97646200  0.18739400  1
  Ni  Ni32  1  0.04366900  0.85883300  0.49264900  1
  Ni  Ni33  1  0.54366900  0.64116700  0.50735100  1
  Ni  Ni34  1  0.95633100  0.35883300  0.00735100  1
  Ni  Ni35  1  0.45633100  0.14116700  0.99264900  1
  Cu  Cu36  1  0.64415600  0.12005000  0.61207000  1
  Cu  Cu37  1  0.14415600  0.37995000  0.38793000  1
  Cu  Cu38  1  0.35584400  0.62005000  0.88793000  1
  Cu  Cu39  1  0.85584400  0.87995000  0.11207000  1
  Cu  Cu40  1  0.62246200  0.93706500  0.75908000  1
  Cu  Cu41  1  0.12246200  0.56293500  0.24092000  1
  Cu  Cu42  1  0.37753800  0.43706500  0.74092000  1
  Cu  Cu43  1  0.87753800  0.06293500  0.25908000  1
  Cu  Cu44  1  0.05127100  0.02895900  0.49686400  1
  Cu  Cu45  1  0.55127100  0.47104000  0.50313600  1
  Cu  Cu46  1  0.94872900  0.52896000  0.00313600  1
  Cu  Cu47  1  0.44872900  0.97104000  0.99686400  1
  Cu  Cu48  1  0.11172900  0.75367500  0.56372300  1
  Cu  Cu49  1  0.61172900  0.74632500  0.43627700  1
  Cu  Cu50  1  0.88827100  0.25367500  0.93627700  1
  Cu  Cu51  1  0.38827100  0.24632500  0.06372300  1
  Cu  Cu52  1  0.48500900  0.07864000  0.40957900  1
  Cu  Cu53  1  0.98500900  0.42136000  0.59042100  1
  Cu  Cu54  1  0.51499100  0.57864000  0.09042100  1
  Cu  Cu55  1  0.01499100  0.92136000  0.90957900  1
  Cu  Cu56  1  0.24215300  0.98293900  0.72027000  1
  Cu  Cu57  1  0.74215300  0.51706100  0.27973000  1
  Cu  Cu58  1  0.75784700  0.48293900  0.77973000  1
  Cu  Cu59  1  0.25784700  0.01706100  0.22027000  1
