# generated using pymatgen
data_Cu(NiC6)2
_symmetry_space_group_name_H-M   'P 1'
_cell_length_a   7.72548700
_cell_length_b   8.65312300
_cell_length_c   19.52858500
_cell_angle_alpha   90.00000000
_cell_angle_beta   90.00000000
_cell_angle_gamma   90.00000000
_symmetry_Int_Tables_number   1
_chemical_formula_structural   Cu(NiC6)2
_chemical_formula_sum   'Cu8 Ni16 C96'
_cell_volume   1305.47788580
_cell_formula_units_Z   8
loop_
 _symmetry_equiv_pos_site_id
 _symmetry_equiv_pos_as_xyz
  1  'x, y, z'
loop_
 _atom_site_type_symbol
 _atom_site_label
 _atom_site_symmetry_multiplicity
 _atom_site_fract_x
 _atom_site_fract_y
 _atom_site_fract_z
 _atom_site_occupancy
  C  C0  1  0.01734300  0.41805100  0.21478100  1
  C  C1  1  0.48265700  0.91805100  0.78521900  1
  C  C2  1  0.51734300  0.58194900  0.28521900  1
  C  C3  1  0.98265700  0.08194900  0.71478100  1
  C  C4  1  0.98265700  0.58194900  0.78521900  1
  C  C5  1  0.51734300  0.08194900  0.21478100  1
  C  C6  1  0.48265700  0.41805100  0.71478100  1
  C  C7  1  0.01734300  0.91805100  0.28521900  1
  C  C8  1  0.12867000  0.54640800  0.26835000  1
  C  C9  1  0.37133000  0.04640800  0.73165000  1
  C  C10  1  0.62867000  0.45359200  0.23165000  1
  C  C11  1  0.87133000  0.95359200  0.76835000  1
  C  C12  1  0.87133000  0.45359200  0.73165000  1
  C  C13  1  0.62867000  0.95359200  0.26835000  1
  C  C14  1  0.37133000  0.54640800  0.76835000  1
  C  C15  1  0.12867000  0.04640800  0.23165000  1
  C  C16  1  0.91862800  0.89460300  0.17454000  1
  C  C17  1  0.58137200  0.39460300  0.82546000  1
  C  C18  1  0.41862800  0.10539700  0.32546000  1
  C  C19  1  0.08137200  0.60539700  0.67454000  1
  C  C20  1  0.08137200  0.10539700  0.82546000  1
  C  C21  1  0.41862800  0.60539700  0.17454000  1
  C  C22  1  0.58137200  0.89460300  0.67454000  1
  C  C23  1  0.91862800  0.39460300  0.32546000  1
  C  C24  1  0.73283800  0.07208500  0.11023500  1
  C  C25  1  0.76716200  0.57208500  0.88976500  1
  C  C26  1  0.23283800  0.92791500  0.38976500  1
  C  C27  1  0.26716200  0.42791500  0.61023500  1
  C  C28  1  0.26716200  0.92791500  0.88976500  1
  C  C29  1  0.23283800  0.42791500  0.11023500  1
  C  C30  1  0.76716200  0.07208500  0.61023500  1
  C  C31  1  0.73283800  0.57208500  0.38976500  1
  C  C32  1  0.93993600  0.08940300  0.09008300  1
  C  C33  1  0.56006400  0.58940300  0.90991700  1
  C  C34  1  0.43993600  0.91059700  0.40991700  1
  C  C35  1  0.06006400  0.41059700  0.59008300  1
  C  C36  1  0.06006400  0.91059700  0.90991700  1
  C  C37  1  0.43993600  0.41059700  0.09008300  1
  C  C38  1  0.56006400  0.08940300  0.59008300  1
  C  C39  1  0.93993600  0.58940300  0.40991700  1
  C  C40  1  0.75275300  0.81283400  0.00654000  1
  C  C41  1  0.74724700  0.31283400  0.99346000  1
  C  C42  1  0.25275300  0.18716600  0.49346000  1
  C  C43  1  0.24724700  0.68716600  0.50654000  1
  C  C44  1  0.24724700  0.18716600  0.99346000  1
  C  C45  1  0.25275300  0.68716600  0.00654000  1
  C  C46  1  0.74724700  0.81283400  0.50654000  1
  C  C47  1  0.75275300  0.31283400  0.49346000  1
  C  C48  1  0.76772000  0.61156800  0.02089100  1
  C  C49  1  0.73228000  0.11156800  0.97910900  1
  C  C50  1  0.26772000  0.38843200  0.47910900  1
  C  C51  1  0.23228000  0.88843200  0.52089100  1
  C  C52  1  0.23228000  0.38843200  0.97910900  1
  C  C53  1  0.26772000  0.88843200  0.02089100  1
  C  C54  1  0.73228000  0.61156800  0.52089100  1
  C  C55  1  0.76772000  0.11156800  0.47910900  1
  Ni  Ni56  1  0.89008300  0.60791500  0.14304400  1
  Ni  Ni57  1  0.60991700  0.10791500  0.85695600  1
  Ni  Ni58  1  0.39008300  0.39208500  0.35695600  1
  Ni  Ni59  1  0.10991700  0.89208500  0.64304400  1
  Ni  Ni60  1  0.10991700  0.39208500  0.85695600  1
  Ni  Ni61  1  0.39008300  0.89208500  0.14304400  1
  Ni  Ni62  1  0.60991700  0.60791500  0.64304400  1
  Ni  Ni63  1  0.89008300  0.10791500  0.35695600  1
  Ni  Ni64  1  0.84604900  0.74359200  0.10017400  1
  Ni  Ni65  1  0.65395100  0.24359200  0.89982600  1
  Ni  Ni66  1  0.34604900  0.25640800  0.39982600  1
  Ni  Ni67  1  0.15395100  0.75640800  0.60017400  1
  Ni  Ni68  1  0.15395100  0.25640800  0.89982600  1
  Ni  Ni69  1  0.34604900  0.75640800  0.10017400  1
  Ni  Ni70  1  0.65395100  0.74359200  0.60017400  1
  Ni  Ni71  1  0.84604900  0.24359200  0.39982600  1
  Cu  Cu72  1  0.83654400  0.42277400  0.11638500  1
  Cu  Cu73  1  0.66345600  0.92277400  0.88361500  1
  Cu  Cu74  1  0.33654400  0.57722600  0.38361500  1
  Cu  Cu75  1  0.16345600  0.07722600  0.61638500  1
  Cu  Cu76  1  0.16345600  0.57722600  0.88361500  1
  Cu  Cu77  1  0.33654400  0.07722600  0.11638500  1
  Cu  Cu78  1  0.66345600  0.42277400  0.61638500  1
  Cu  Cu79  1  0.83654400  0.92277400  0.38361500  1
  C  C80  1  0.97568300  0.64342800  0.19908200  1
  C  C81  1  0.52431700  0.14342800  0.80091800  1
  C  C82  1  0.47568300  0.35657200  0.30091800  1
  C  C83  1  0.02431700  0.85657200  0.69908200  1
  C  C84  1  0.02431700  0.35657200  0.80091800  1
  C  C85  1  0.47568300  0.85657200  0.19908200  1
  C  C86  1  0.52431700  0.64342800  0.69908200  1
  C  C87  1  0.97568300  0.14342800  0.30091800  1
  C  C88  1  0.87425000  0.88420800  0.12521100  1
  C  C89  1  0.62575000  0.38420800  0.87478900  1
  C  C90  1  0.37425000  0.11579200  0.37478900  1
  C  C91  1  0.12575000  0.61579200  0.62521100  1
  C  C92  1  0.12575000  0.11579200  0.87478900  1
  C  C93  1  0.37425000  0.61579200  0.12521100  1
  C  C94  1  0.62575000  0.88420800  0.62521100  1
  C  C95  1  0.87425000  0.38420800  0.37478900  1
  C  C96  1  0.02027500  0.52328900  0.23982900  1
  C  C97  1  0.47972500  0.02328900  0.76017100  1
  C  C98  1  0.52027500  0.47671100  0.26017100  1
  C  C99  1  0.97972500  0.97671100  0.73982900  1
  C  C100  1  0.97972500  0.47671100  0.76017100  1
  C  C101  1  0.52027500  0.97671100  0.23982900  1
  C  C102  1  0.47972500  0.52328900  0.73982900  1
  C  C103  1  0.02027500  0.02328900  0.26017100  1
  C  C104  1  0.83490300  0.01714700  0.08698000  1
  C  C105  1  0.66509700  0.51714700  0.91302000  1
  C  C106  1  0.33490300  0.98285300  0.41302000  1
  C  C107  1  0.16509700  0.48285300  0.58698000  1
  C  C108  1  0.16509700  0.98285300  0.91302000  1
  C  C109  1  0.33490300  0.48285300  0.08698000  1
  C  C110  1  0.66509700  0.01714700  0.58698000  1
  C  C111  1  0.83490300  0.51714700  0.41302000  1
  C  C112  1  0.78206200  0.72225400  0.03815700  1
  C  C113  1  0.71793800  0.22225400  0.96184300  1
  C  C114  1  0.28206200  0.27774600  0.46184300  1
  C  C115  1  0.21793800  0.77774600  0.53815700  1
  C  C116  1  0.21793800  0.27774600  0.96184300  1
  C  C117  1  0.28206200  0.77774600  0.03815700  1
  C  C118  1  0.71793800  0.72225400  0.53815700  1
  C  C119  1  0.78206200  0.22225400  0.46184300  1
