# generated using pymatgen
data_Cu11Ni3C2
_symmetry_space_group_name_H-M   'P 1'
_cell_length_a   9.47704200
_cell_length_b   12.55842800
_cell_length_c   16.87669000
_cell_angle_alpha   90.00000000
_cell_angle_beta   90.00000000
_cell_angle_gamma   90.00000000
_symmetry_Int_Tables_number   1
_chemical_formula_structural   Cu11Ni3C2
_chemical_formula_sum   'Cu88 Ni24 C16'
_cell_volume   2008.60878798
_cell_formula_units_Z   8
loop_
 _symmetry_equiv_pos_site_id
 _symmetry_equiv_pos_as_xyz
  1  'x, y, z'
loop_
 _atom_site_type_symbol
 _atom_site_label
 _atom_site_symmetry_multiplicity
 _atom_site_fract_x
 _atom_site_fract_y
 _atom_site_fract_z
 _atom_site_occupancy
  C  C0  1  0.74363500  0.69794300  0.37825800  1
  C  C1  1  0.24363500  0.80205700  0.62174200  1
  C  C2  1  0.25636500  0.19794300  0.12174200  1
  C  C3  1  0.75636500  0.30205700  0.87825800  1
  C  C4  1  0.25636500  0.30205700  0.62174200  1
  C  C5  1  0.75636500  0.19794300  0.37825800  1
  C  C6  1  0.74363500  0.80205700  0.87825800  1
  C  C7  1  0.24363500  0.69794300  0.12174200  1
  C  C8  1  0.23783600  0.98375100  0.36968500  1
  C  C9  1  0.73783600  0.51624900  0.63031500  1
  C  C10  1  0.76216400  0.48375100  0.13031500  1
  C  C11  1  0.26216400  0.01624900  0.86968500  1
  C  C12  1  0.76216400  0.01624900  0.63031500  1
  C  C13  1  0.26216400  0.48375100  0.36968500  1
  C  C14  1  0.23783600  0.51624900  0.86968500  1
  C  C15  1  0.73783600  0.98375100  0.13031500  1
  Ni  Ni16  1  0.54445200  0.95750300  0.38031400  1
  Ni  Ni17  1  0.04445200  0.54249700  0.61968600  1
  Ni  Ni18  1  0.45554800  0.45750300  0.11968600  1
  Ni  Ni19  1  0.95554800  0.04249700  0.88031400  1
  Ni  Ni20  1  0.45554800  0.04249700  0.61968600  1
  Ni  Ni21  1  0.95554800  0.45750300  0.38031400  1
  Ni  Ni22  1  0.54445200  0.54249700  0.88031400  1
  Ni  Ni23  1  0.04445200  0.95750300  0.11968600  1
  Ni  Ni24  1  0.07023900  0.80729200  0.30589100  1
  Ni  Ni25  1  0.57023900  0.69270800  0.69410900  1
  Ni  Ni26  1  0.92976100  0.30729200  0.19410900  1
  Ni  Ni27  1  0.42976100  0.19270800  0.80589100  1
  Ni  Ni28  1  0.92976100  0.19270800  0.69410900  1
  Ni  Ni29  1  0.42976100  0.30729200  0.30589100  1
  Ni  Ni30  1  0.07023900  0.69270800  0.80589100  1
  Ni  Ni31  1  0.57023900  0.80729200  0.19410900  1
  Ni  Ni32  1  0.09917300  0.16302400  0.45098100  1
  Ni  Ni33  1  0.59917300  0.33697600  0.54901900  1
  Ni  Ni34  1  0.90082700  0.66302400  0.04901900  1
  Ni  Ni35  1  0.40082700  0.83697600  0.95098100  1
  Ni  Ni36  1  0.90082700  0.83697600  0.54901900  1
  Ni  Ni37  1  0.40082700  0.66302400  0.45098100  1
  Ni  Ni38  1  0.09917300  0.33697600  0.95098100  1
  Ni  Ni39  1  0.59917300  0.16302400  0.04901900  1
  Cu  Cu40  1  0.23057600  0.91651300  0.46363300  1
  Cu  Cu41  1  0.73057600  0.58348700  0.53636700  1
  Cu  Cu42  1  0.76942400  0.41651300  0.03636700  1
  Cu  Cu43  1  0.26942400  0.08348700  0.96363300  1
  Cu  Cu44  1  0.76942400  0.08348700  0.53636700  1
  Cu  Cu45  1  0.26942400  0.41651300  0.46363300  1
  Cu  Cu46  1  0.23057600  0.58348700  0.96363300  1
  Cu  Cu47  1  0.73057600  0.91651300  0.03636700  1
  Cu  Cu48  1  0.24475500  0.05035000  0.27505000  1
  Cu  Cu49  1  0.74475500  0.44965000  0.72495000  1
  Cu  Cu50  1  0.75524500  0.55035000  0.22495000  1
  Cu  Cu51  1  0.25524500  0.94965000  0.77505000  1
  Cu  Cu52  1  0.75524500  0.94965000  0.72495000  1
  Cu  Cu53  1  0.25524500  0.55035000  0.27505000  1
  Cu  Cu54  1  0.24475500  0.44965000  0.77505000  1
  Cu  Cu55  1  0.74475500  0.05035000  0.22495000  1
  Cu  Cu56  1  0.48197300  0.04314900  0.40385900  1
  Cu  Cu57  1  0.98197300  0.45685100  0.59614100  1
  Cu  Cu58  1  0.51802700  0.54314900  0.09614100  1
  Cu  Cu59  1  0.01802700  0.95685100  0.90385900  1
  Cu  Cu60  1  0.51802700  0.95685100  0.59614100  1
  Cu  Cu61  1  0.01802700  0.54314900  0.40385900  1
  Cu  Cu62  1  0.48197300  0.45685100  0.90385900  1
  Cu  Cu63  1  0.98197300  0.04314900  0.09614100  1
  Cu  Cu64  1  0.46268000  0.88751000  0.34796900  1
  Cu  Cu65  1  0.96268000  0.61249000  0.65203100  1
  Cu  Cu66  1  0.53732000  0.38751000  0.15203100  1
  Cu  Cu67  1  0.03732000  0.11249000  0.84796900  1
  Cu  Cu68  1  0.53732000  0.11249000  0.65203100  1
  Cu  Cu69  1  0.03732000  0.38751000  0.34796900  1
  Cu  Cu70  1  0.46268000  0.61249000  0.84796900  1
  Cu  Cu71  1  0.96268000  0.88751000  0.15203100  1
  Cu  Cu72  1  0.20442500  0.81477700  0.29350400  1
  Cu  Cu73  1  0.70442500  0.68522300  0.70649600  1
  Cu  Cu74  1  0.79557500  0.31477700  0.20649600  1
  Cu  Cu75  1  0.29557500  0.18522300  0.79350400  1
  Cu  Cu76  1  0.79557500  0.18522300  0.70649600  1
  Cu  Cu77  1  0.29557500  0.31477700  0.29350400  1
  Cu  Cu78  1  0.20442500  0.68522300  0.79350400  1
  Cu  Cu79  1  0.70442500  0.81477700  0.20649600  1
  Cu  Cu80  1  0.01417100  0.88781400  0.34140000  1
  Cu  Cu81  1  0.51417100  0.61218600  0.65860000  1
  Cu  Cu82  1  0.98582900  0.38781400  0.15860000  1
  Cu  Cu83  1  0.48582900  0.11218600  0.84140000  1
  Cu  Cu84  1  0.98582900  0.11218600  0.65860000  1
  Cu  Cu85  1  0.48582900  0.38781400  0.34140000  1
  Cu  Cu86  1  0.01417100  0.61218600  0.84140000  1
  Cu  Cu87  1  0.51417100  0.88781400  0.15860000  1
  Cu  Cu88  1  0.03089400  0.09610100  0.40679300  1
  Cu  Cu89  1  0.53089400  0.40389900  0.59320700  1
  Cu  Cu90  1  0.96910600  0.59610100  0.09320700  1
  Cu  Cu91  1  0.46910600  0.90389900  0.90679300  1
  Cu  Cu92  1  0.96910600  0.90389900  0.59320700  1
  Cu  Cu93  1  0.46910600  0.59610100  0.40679300  1
  Cu  Cu94  1  0.03089400  0.40389900  0.90679300  1
  Cu  Cu95  1  0.53089400  0.09610100  0.09320700  1
  Cu  Cu96  1  0.23406600  0.15150900  0.45108400  1
  Cu  Cu97  1  0.73406600  0.34849100  0.54891600  1
  Cu  Cu98  1  0.76593400  0.65150900  0.04891600  1
  Cu  Cu99  1  0.26593400  0.84849100  0.95108400  1
  Cu  Cu100  1  0.76593400  0.84849100  0.54891600  1
  Cu  Cu101  1  0.26593400  0.65150900  0.45108400  1
  Cu  Cu102  1  0.23406600  0.34849100  0.95108400  1
  Cu  Cu103  1  0.73406600  0.15150900  0.04891600  1
  Cu  Cu104  1  0.67179400  0.94325200  0.38759900  1
  Cu  Cu105  1  0.17179400  0.55674800  0.61240100  1
  Cu  Cu106  1  0.32820600  0.44325200  0.11240100  1
  Cu  Cu107  1  0.82820600  0.05674800  0.88759900  1
  Cu  Cu108  1  0.32820600  0.05674800  0.61240100  1
  Cu  Cu109  1  0.82820600  0.44325200  0.38759900  1
  Cu  Cu110  1  0.67179400  0.55674800  0.88759900  1
  Cu  Cu111  1  0.17179400  0.94325200  0.11240100  1
  Cu  Cu112  1  0.00134100  0.72921600  0.28555800  1
  Cu  Cu113  1  0.50134100  0.77078400  0.71444200  1
  Cu  Cu114  1  0.99865900  0.22921600  0.21444200  1
  Cu  Cu115  1  0.49865900  0.27078400  0.78555800  1
  Cu  Cu116  1  0.99865900  0.27078400  0.71444200  1
  Cu  Cu117  1  0.49865900  0.22921600  0.28555800  1
  Cu  Cu118  1  0.00134100  0.77078400  0.78555800  1
  Cu  Cu119  1  0.50134100  0.72921600  0.21444200  1
  Cu  Cu120  1  0.03840700  0.23177100  0.48979600  1
  Cu  Cu121  1  0.53840700  0.26822900  0.51020400  1
  Cu  Cu122  1  0.96159300  0.73177100  0.01020400  1
  Cu  Cu123  1  0.46159300  0.76822900  0.98979600  1
  Cu  Cu124  1  0.96159300  0.76822900  0.51020400  1
  Cu  Cu125  1  0.46159300  0.73177100  0.48979600  1
  Cu  Cu126  1  0.03840700  0.26822900  0.98979600  1
  Cu  Cu127  1  0.53840700  0.23177100  0.01020400  1
