# generated using pymatgen
data_Cu5NiC3
_symmetry_space_group_name_H-M   'P 1'
_cell_length_a   6.61715100
_cell_length_b   11.48732800
_cell_length_c   16.63589200
_cell_angle_alpha   90.00000000
_cell_angle_beta   90.00000000
_cell_angle_gamma   90.00000000
_symmetry_Int_Tables_number   1
_chemical_formula_structural   Cu5NiC3
_chemical_formula_sum   'Cu40 Ni8 C24'
_cell_volume   1264.55044616
_cell_formula_units_Z   8
loop_
 _symmetry_equiv_pos_site_id
 _symmetry_equiv_pos_as_xyz
  1  'x, y, z'
loop_
 _atom_site_type_symbol
 _atom_site_label
 _atom_site_symmetry_multiplicity
 _atom_site_fract_x
 _atom_site_fract_y
 _atom_site_fract_z
 _atom_site_occupancy
  C  C0  1  0.80700100  0.41148800  0.08153800  1
  C  C1  1  0.30700100  0.08851200  0.91846200  1
  C  C2  1  0.19299900  0.91148800  0.41846200  1
  C  C3  1  0.69299900  0.58851200  0.58153800  1
  C  C4  1  0.19299900  0.58851200  0.91846200  1
  C  C5  1  0.69299900  0.91148800  0.08153800  1
  C  C6  1  0.80700100  0.08851200  0.58153800  1
  C  C7  1  0.30700100  0.41148800  0.41846200  1
  C  C8  1  0.80510700  0.12421200  0.03601800  1
  C  C9  1  0.30510700  0.37578800  0.96398200  1
  C  C10  1  0.19489300  0.62421200  0.46398200  1
  C  C11  1  0.69489300  0.87578800  0.53601800  1
  C  C12  1  0.19489300  0.87578800  0.96398200  1
  C  C13  1  0.69489300  0.62421200  0.03601800  1
  C  C14  1  0.80510700  0.37578800  0.53601800  1
  C  C15  1  0.30510700  0.12421200  0.46398200  1
  C  C16  1  0.53219300  0.25550900  0.24942900  1
  C  C17  1  0.03219300  0.24449100  0.75057100  1
  C  C18  1  0.46780700  0.75550900  0.25057100  1
  C  C19  1  0.96780700  0.74449100  0.74942900  1
  C  C20  1  0.46780700  0.74449100  0.75057100  1
  C  C21  1  0.96780700  0.75550900  0.24942900  1
  C  C22  1  0.53219300  0.24449100  0.74942900  1
  C  C23  1  0.03219300  0.25550900  0.25057100  1
  Ni  Ni24  1  0.70656000  0.00948300  0.32973700  1
  Ni  Ni25  1  0.20656000  0.49051700  0.67026300  1
  Ni  Ni26  1  0.29344000  0.50948300  0.17026300  1
  Ni  Ni27  1  0.79344000  0.99051700  0.82973700  1
  Ni  Ni28  1  0.29344000  0.99051700  0.67026300  1
  Ni  Ni29  1  0.79344000  0.50948300  0.32973700  1
  Ni  Ni30  1  0.70656000  0.49051700  0.82973700  1
  Ni  Ni31  1  0.20656000  0.00948300  0.17026300  1
  Cu  Cu32  1  0.58551400  0.00402300  0.27081800  1
  Cu  Cu33  1  0.08551400  0.49597700  0.72918200  1
  Cu  Cu34  1  0.41448600  0.50402300  0.22918200  1
  Cu  Cu35  1  0.91448600  0.99597700  0.77081800  1
  Cu  Cu36  1  0.41448600  0.99597700  0.72918200  1
  Cu  Cu37  1  0.91448600  0.50402300  0.27081800  1
  Cu  Cu38  1  0.58551400  0.49597700  0.77081800  1
  Cu  Cu39  1  0.08551400  0.00402300  0.22918200  1
  Cu  Cu40  1  0.72741800  0.41541100  0.36124300  1
  Cu  Cu41  1  0.22741800  0.08458900  0.63875700  1
  Cu  Cu42  1  0.27258200  0.91541100  0.13875700  1
  Cu  Cu43  1  0.77258200  0.58458900  0.86124300  1
  Cu  Cu44  1  0.27258200  0.58458900  0.63875700  1
  Cu  Cu45  1  0.77258200  0.91541100  0.36124300  1
  Cu  Cu46  1  0.72741800  0.08458900  0.86124300  1
  Cu  Cu47  1  0.22741800  0.41541100  0.13875700  1
  Cu  Cu48  1  0.75788200  0.10712500  0.35844200  1
  Cu  Cu49  1  0.25788200  0.39287500  0.64155800  1
  Cu  Cu50  1  0.24211800  0.60712500  0.14155800  1
  Cu  Cu51  1  0.74211800  0.89287500  0.85844200  1
  Cu  Cu52  1  0.24211800  0.89287500  0.64155800  1
  Cu  Cu53  1  0.74211800  0.60712500  0.35844200  1
  Cu  Cu54  1  0.75788200  0.39287500  0.85844200  1
  Cu  Cu55  1  0.25788200  0.10712500  0.14155800  1
  Cu  Cu56  1  0.78189500  0.25673500  0.17455500  1
  Cu  Cu57  1  0.28189500  0.24326500  0.82544500  1
  Cu  Cu58  1  0.21810500  0.75673500  0.32544500  1
  Cu  Cu59  1  0.71810500  0.74326500  0.67455500  1
  Cu  Cu60  1  0.21810500  0.74326500  0.82544500  1
  Cu  Cu61  1  0.71810500  0.75673500  0.17455500  1
  Cu  Cu62  1  0.78189500  0.24326500  0.67455500  1
  Cu  Cu63  1  0.28189500  0.25673500  0.32544500  1
  Cu  Cu64  1  0.96386200  0.22035700  0.50437200  1
  Cu  Cu65  1  0.46386200  0.27964300  0.49562800  1
  Cu  Cu66  1  0.03613800  0.72035700  0.99562800  1
  Cu  Cu67  1  0.53613800  0.77964300  0.00437200  1
  Cu  Cu68  1  0.03613800  0.77964300  0.49562800  1
  Cu  Cu69  1  0.53613800  0.72035700  0.50437200  1
  Cu  Cu70  1  0.96386200  0.27964300  0.00437200  1
  Cu  Cu71  1  0.46386200  0.22035700  0.99562800  1
