# generated using pymatgen
data_Cu2NiC7
_symmetry_space_group_name_H-M   'P 1'
_cell_length_a   5.69576129
_cell_length_b   5.69576129
_cell_length_c   5.69576063
_cell_angle_alpha   62.03305401
_cell_angle_beta   62.03305401
_cell_angle_gamma   62.03305196
_symmetry_Int_Tables_number   1
_chemical_formula_structural   Cu2NiC7
_chemical_formula_sum   'Cu2 Ni1 C7'
_cell_volume   136.59952411
_cell_formula_units_Z   1
loop_
 _symmetry_equiv_pos_site_id
 _symmetry_equiv_pos_as_xyz
  1  'x, y, z'
loop_
 _atom_site_type_symbol
 _atom_site_label
 _atom_site_symmetry_multiplicity
 _atom_site_fract_x
 _atom_site_fract_y
 _atom_site_fract_z
 _atom_site_occupancy
  Ni  Ni0  1  0.50000000  0.50000000  0.50000000  1
  Cu  Cu1  1  0.75934300  0.75934300  0.75934300  1
  Cu  Cu2  1  0.24065700  0.24065700  0.24065700  1
  C  C3  1  0.00000000  0.00000000  0.00000000  1
  C  C4  1  0.78567100  0.32717400  0.13352200  1
  C  C5  1  0.13352200  0.78567100  0.32717400  1
  C  C6  1  0.32717400  0.13352200  0.78567100  1
  C  C7  1  0.21432900  0.67282600  0.86647800  1
  C  C8  1  0.67282600  0.86647800  0.21432900  1
  C  C9  1  0.86647800  0.21432900  0.67282600  1
