# generated using pymatgen
data_CuNiC8
_symmetry_space_group_name_H-M   'P 1'
_cell_length_a   5.72995700
_cell_length_b   5.39904000
_cell_length_c   9.38925553
_cell_angle_alpha   55.47362008
_cell_angle_beta   90.00000000
_cell_angle_gamma   90.00000000
_symmetry_Int_Tables_number   1
_chemical_formula_structural   CuNiC8
_chemical_formula_sum   'Cu2 Ni2 C16'
_cell_volume   239.30693685
_cell_formula_units_Z   2
loop_
 _symmetry_equiv_pos_site_id
 _symmetry_equiv_pos_as_xyz
  1  'x, y, z'
loop_
 _atom_site_type_symbol
 _atom_site_label
 _atom_site_symmetry_multiplicity
 _atom_site_fract_x
 _atom_site_fract_y
 _atom_site_fract_z
 _atom_site_occupancy
  C  C0  1  0.43104500  0.77044400  0.74764400  1
  C  C1  1  0.06895500  0.77044400  0.24764400  1
  C  C2  1  0.56895500  0.22955600  0.25235600  1
  C  C3  1  0.93104500  0.22955600  0.75235600  1
  Ni  Ni4  1  0.00000000  0.50000000  0.00000000  1
  Ni  Ni5  1  0.50000000  0.50000000  0.50000000  1
  Cu  Cu6  1  0.50000000  0.00000000  0.00000000  1
  Cu  Cu7  1  0.00000000  0.00000000  0.50000000  1
  C  C8  1  0.81662700  0.14944500  0.05362900  1
  C  C9  1  0.68337300  0.14944500  0.55362900  1
  C  C10  1  0.18337300  0.85055500  0.94637100  1
  C  C11  1  0.31662700  0.85055500  0.44637100  1
  C  C12  1  0.29234900  0.25801000  0.06148700  1
  C  C13  1  0.20765100  0.25801000  0.56148700  1
  C  C14  1  0.70765100  0.74199000  0.93851300  1
  C  C15  1  0.79234900  0.74199000  0.43851300  1
  C  C16  1  0.04140300  0.62933400  0.75789300  1
  C  C17  1  0.45859700  0.62933400  0.25789300  1
  C  C18  1  0.95859700  0.37066600  0.24210700  1
  C  C19  1  0.54140300  0.37066600  0.74210700  1
