# generated using pymatgen
data_Cu6Ni3C2
_symmetry_space_group_name_H-M   'P 1'
_cell_length_a   6.86764371
_cell_length_b   6.86764371
_cell_length_c   6.86764378
_cell_angle_alpha   72.30368147
_cell_angle_beta   72.30368147
_cell_angle_gamma   72.30368812
_symmetry_Int_Tables_number   1
_chemical_formula_structural   Cu6Ni3C2
_chemical_formula_sum   'Cu12 Ni6 C4'
_cell_volume   285.88114328
_cell_formula_units_Z   2
loop_
 _symmetry_equiv_pos_site_id
 _symmetry_equiv_pos_as_xyz
  1  'x, y, z'
loop_
 _atom_site_type_symbol
 _atom_site_label
 _atom_site_symmetry_multiplicity
 _atom_site_fract_x
 _atom_site_fract_y
 _atom_site_fract_z
 _atom_site_occupancy
  C  C0  1  0.73476300  0.73476300  0.73476300  1
  C  C1  1  0.26523700  0.26523700  0.26523700  1
  C  C2  1  0.50000000  0.50000000  0.50000000  1
  C  C3  1  0.00000000  0.00000000  0.00000000  1
  Ni  Ni4  1  0.17467900  0.79837300  0.79837300  1
  Ni  Ni5  1  0.79837300  0.79837300  0.17467900  1
  Ni  Ni6  1  0.79837300  0.17467900  0.79837300  1
  Ni  Ni7  1  0.20162700  0.82532100  0.20162700  1
  Ni  Ni8  1  0.82532100  0.20162700  0.20162700  1
  Ni  Ni9  1  0.20162700  0.20162700  0.82532100  1
  Cu  Cu10  1  0.28215800  0.91154400  0.28215800  1
  Cu  Cu11  1  0.71784200  0.08845600  0.71784200  1
  Cu  Cu12  1  0.71784200  0.71784200  0.08845600  1
  Cu  Cu13  1  0.08845600  0.71784200  0.71784200  1
  Cu  Cu14  1  0.62866700  0.24164400  0.24164400  1
  Cu  Cu15  1  0.24164400  0.24164400  0.62866700  1
  Cu  Cu16  1  0.24164400  0.62866700  0.24164400  1
  Cu  Cu17  1  0.75835600  0.37133300  0.75835600  1
  Cu  Cu18  1  0.37133300  0.75835600  0.75835600  1
  Cu  Cu19  1  0.75835600  0.75835600  0.37133300  1
  Cu  Cu20  1  0.91154400  0.28215800  0.28215800  1
  Cu  Cu21  1  0.28215800  0.28215800  0.91154400  1
