# generated using pymatgen
data_Cu9NiC7
_symmetry_space_group_name_H-M   'P 1'
_cell_length_a   9.35243600
_cell_length_b   9.35243600
_cell_length_c   9.35243600
_cell_angle_alpha   90.00000000
_cell_angle_beta   90.00000000
_cell_angle_gamma   90.00000000
_symmetry_Int_Tables_number   1
_chemical_formula_structural   Cu9NiC7
_chemical_formula_sum   'Cu36 Ni4 C28'
_cell_volume   818.03942510
_cell_formula_units_Z   4
loop_
 _symmetry_equiv_pos_site_id
 _symmetry_equiv_pos_as_xyz
  1  'x, y, z'
loop_
 _atom_site_type_symbol
 _atom_site_label
 _atom_site_symmetry_multiplicity
 _atom_site_fract_x
 _atom_site_fract_y
 _atom_site_fract_z
 _atom_site_occupancy
  C  C0  1  0.46267500  0.96267500  0.53732500  1
  C  C1  1  0.96267500  0.53732500  0.46267500  1
  C  C2  1  0.53732500  0.46267500  0.96267500  1
  C  C3  1  0.03732500  0.03732500  0.03732500  1
  C  C4  1  0.70656900  0.20656900  0.29343100  1
  C  C5  1  0.20656900  0.29343100  0.70656900  1
  C  C6  1  0.29343100  0.70656900  0.20656900  1
  C  C7  1  0.79343100  0.79343100  0.79343100  1
  C  C8  1  0.92280500  0.42280500  0.07719500  1
  C  C9  1  0.42280500  0.07719500  0.92280500  1
  C  C10  1  0.07719500  0.92280500  0.42280500  1
  C  C11  1  0.57719500  0.57719500  0.57719500  1
  C  C12  1  0.10194800  0.60194800  0.89805200  1
  C  C13  1  0.60194800  0.89805200  0.10194800  1
  C  C14  1  0.89805200  0.10194800  0.60194800  1
  C  C15  1  0.39805200  0.39805200  0.39805200  1
  C  C16  1  0.23960200  0.65887800  0.59149700  1
  C  C17  1  0.40850300  0.73960200  0.84112200  1
  C  C18  1  0.15887800  0.90850300  0.76039800  1
  C  C19  1  0.73960200  0.84112200  0.40850300  1
  C  C20  1  0.90850300  0.76039800  0.15887800  1
  C  C21  1  0.65887800  0.59149700  0.23960200  1
  C  C22  1  0.76039800  0.15887800  0.90850300  1
  C  C23  1  0.59149700  0.23960200  0.65887800  1
  C  C24  1  0.84112200  0.40850300  0.73960200  1
  C  C25  1  0.26039800  0.34112200  0.09149700  1
  C  C26  1  0.09149700  0.26039800  0.34112200  1
  C  C27  1  0.34112200  0.09149700  0.26039800  1
  Ni  Ni28  1  0.30060000  0.80060000  0.69940000  1
  Ni  Ni29  1  0.80060000  0.69940000  0.30060000  1
  Ni  Ni30  1  0.69940000  0.30060000  0.80060000  1
  Ni  Ni31  1  0.19940000  0.19940000  0.19940000  1
  Cu  Cu32  1  0.63087500  0.77806100  0.51333700  1
  Cu  Cu33  1  0.48666300  0.13087500  0.72193900  1
  Cu  Cu34  1  0.27806100  0.98666300  0.36912500  1
  Cu  Cu35  1  0.13087500  0.72193900  0.48666300  1
  Cu  Cu36  1  0.98666300  0.36912500  0.27806100  1
  Cu  Cu37  1  0.77806100  0.51333700  0.63087500  1
  Cu  Cu38  1  0.36912500  0.27806100  0.98666300  1
  Cu  Cu39  1  0.51333700  0.63087500  0.77806100  1
  Cu  Cu40  1  0.72193900  0.48666300  0.13087500  1
  Cu  Cu41  1  0.86912500  0.22193900  0.01333700  1
  Cu  Cu42  1  0.01333700  0.86912500  0.22193900  1
  Cu  Cu43  1  0.22193900  0.01333700  0.86912500  1
  Cu  Cu44  1  0.36715800  0.60057100  0.50588900  1
  Cu  Cu45  1  0.49411100  0.86715800  0.89942900  1
  Cu  Cu46  1  0.10057100  0.99411100  0.63284200  1
  Cu  Cu47  1  0.86715800  0.89942900  0.49411100  1
  Cu  Cu48  1  0.99411100  0.63284200  0.10057100  1
  Cu  Cu49  1  0.60057100  0.50588900  0.36715800  1
  Cu  Cu50  1  0.63284200  0.10057100  0.99411100  1
  Cu  Cu51  1  0.50588900  0.36715800  0.60057100  1
  Cu  Cu52  1  0.89942900  0.49411100  0.86715800  1
  Cu  Cu53  1  0.13284200  0.39942900  0.00588900  1
  Cu  Cu54  1  0.00588900  0.13284200  0.39942900  1
  Cu  Cu55  1  0.39942900  0.00588900  0.13284200  1
  Cu  Cu56  1  0.17358000  0.54902800  0.69380500  1
  Cu  Cu57  1  0.30619500  0.67358000  0.95097200  1
  Cu  Cu58  1  0.04902800  0.80619500  0.82642000  1
  Cu  Cu59  1  0.67358000  0.95097200  0.30619500  1
  Cu  Cu60  1  0.80619500  0.82642000  0.04902800  1
  Cu  Cu61  1  0.54902800  0.69380500  0.17358000  1
  Cu  Cu62  1  0.82642000  0.04902800  0.80619500  1
  Cu  Cu63  1  0.69380500  0.17358000  0.54902800  1
  Cu  Cu64  1  0.95097200  0.30619500  0.67358000  1
  Cu  Cu65  1  0.32642000  0.45097200  0.19380500  1
  Cu  Cu66  1  0.19380500  0.32642000  0.45097200  1
  Cu  Cu67  1  0.45097200  0.19380500  0.32642000  1
