# generated using pymatgen
data_Cu2NiC4
_symmetry_space_group_name_H-M   'P 1'
_cell_length_a   10.86336400
_cell_length_b   5.71970600
_cell_length_c   5.75921720
_cell_angle_alpha   61.16288159
_cell_angle_beta   90.00000000
_cell_angle_gamma   90.00000000
_symmetry_Int_Tables_number   1
_chemical_formula_structural   Cu2NiC4
_chemical_formula_sum   'Cu8 Ni4 C16'
_cell_volume   313.47493711
_cell_formula_units_Z   4
loop_
 _symmetry_equiv_pos_site_id
 _symmetry_equiv_pos_as_xyz
  1  'x, y, z'
loop_
 _atom_site_type_symbol
 _atom_site_label
 _atom_site_symmetry_multiplicity
 _atom_site_fract_x
 _atom_site_fract_y
 _atom_site_fract_z
 _atom_site_occupancy
  Ni  Ni0  1  0.11354800  0.16124400  0.95720600  1
  Ni  Ni1  1  0.88645200  0.83875600  0.04279400  1
  Ni  Ni2  1  0.38645200  0.16124400  0.45720600  1
  Ni  Ni3  1  0.61354800  0.83875600  0.54279400  1
  Cu  Cu4  1  0.14289100  0.42983900  0.40510000  1
  Cu  Cu5  1  0.12121000  0.87801200  0.50604700  1
  Cu  Cu6  1  0.87879000  0.12198800  0.49395300  1
  Cu  Cu7  1  0.85710900  0.57016100  0.59490000  1
  Cu  Cu8  1  0.37879000  0.87801200  0.00604700  1
  Cu  Cu9  1  0.35710900  0.42983900  0.90510000  1
  Cu  Cu10  1  0.64289100  0.57016100  0.09490000  1
  Cu  Cu11  1  0.62121000  0.12198800  0.99395300  1
  C  C12  1  0.20860000  0.07079500  0.66097000  1
  C  C13  1  0.19128100  0.52463700  0.68179600  1
  C  C14  1  0.80871900  0.47536300  0.31820400  1
  C  C15  1  0.79140000  0.92920500  0.33903000  1
  C  C16  1  0.30871900  0.52463700  0.18179600  1
  C  C17  1  0.29140000  0.07079500  0.16097000  1
  C  C18  1  0.70860000  0.92920500  0.83903000  1
  C  C19  1  0.69128100  0.47536300  0.81820400  1
  C  C20  1  0.05474200  0.77207800  0.24386400  1
  C  C21  1  0.05278400  0.22858500  0.26610800  1
  C  C22  1  0.94721600  0.77141500  0.73389200  1
  C  C23  1  0.94525800  0.22792200  0.75613600  1
  C  C24  1  0.55278400  0.77141500  0.23389200  1
  C  C25  1  0.55474200  0.22792200  0.25613600  1
  C  C26  1  0.44525800  0.77207800  0.74386400  1
  C  C27  1  0.44721600  0.22858500  0.76610800  1
