# generated using pymatgen
data_Cu3NiC7
_symmetry_space_group_name_H-M   'P 1'
_cell_length_a   8.73408100
_cell_length_b   9.52546000
_cell_length_c   10.19749100
_cell_angle_alpha   90.00000000
_cell_angle_beta   90.00000000
_cell_angle_gamma   90.00000000
_symmetry_Int_Tables_number   1
_chemical_formula_structural   Cu3NiC7
_chemical_formula_sum   'Cu24 Ni8 C56'
_cell_volume   848.39188075
_cell_formula_units_Z   8
loop_
 _symmetry_equiv_pos_site_id
 _symmetry_equiv_pos_as_xyz
  1  'x, y, z'
loop_
 _atom_site_type_symbol
 _atom_site_label
 _atom_site_symmetry_multiplicity
 _atom_site_fract_x
 _atom_site_fract_y
 _atom_site_fract_z
 _atom_site_occupancy
  C  C0  1  0.00000000  0.00000000  0.50000000  1
  C  C1  1  0.50000000  0.50000000  0.00000000  1
  C  C2  1  0.50000000  0.50000000  0.50000000  1
  C  C3  1  0.00000000  0.00000000  0.00000000  1
  C  C4  1  0.63549700  0.93255800  0.59523300  1
  C  C5  1  0.86450300  0.56744200  0.09523300  1
  C  C6  1  0.13549700  0.56744200  0.40476700  1
  C  C7  1  0.36450300  0.93255800  0.90476700  1
  C  C8  1  0.36450300  0.06744200  0.40476700  1
  C  C9  1  0.13549700  0.43255800  0.90476700  1
  C  C10  1  0.86450300  0.43255800  0.59523300  1
  C  C11  1  0.63549700  0.06744200  0.09523300  1
  Ni  Ni12  1  0.29160100  0.79544600  0.60990500  1
  Ni  Ni13  1  0.20839900  0.70455400  0.10990500  1
  Ni  Ni14  1  0.79160100  0.70455400  0.39009500  1
  Ni  Ni15  1  0.70839900  0.79544600  0.89009500  1
  Ni  Ni16  1  0.70839900  0.20455400  0.39009500  1
  Ni  Ni17  1  0.79160100  0.29544600  0.89009500  1
  Ni  Ni18  1  0.20839900  0.29544600  0.60990500  1
  Ni  Ni19  1  0.29160100  0.20455400  0.10990500  1
  Cu  Cu20  1  0.44139900  0.14142200  0.69353200  1
  Cu  Cu21  1  0.05860100  0.35857800  0.19353200  1
  Cu  Cu22  1  0.94139900  0.35857800  0.30646800  1
  Cu  Cu23  1  0.55860100  0.14142200  0.80646800  1
  Cu  Cu24  1  0.55860100  0.85857800  0.30646800  1
  Cu  Cu25  1  0.94139900  0.64142200  0.80646800  1
  Cu  Cu26  1  0.05860100  0.64142200  0.69353200  1
  Cu  Cu27  1  0.44139900  0.85857800  0.19353200  1
  Cu  Cu28  1  0.15688800  0.12916800  0.79782500  1
  Cu  Cu29  1  0.34311200  0.37083200  0.29782500  1
  Cu  Cu30  1  0.65688800  0.37083200  0.20217500  1
  Cu  Cu31  1  0.84311200  0.12916800  0.70217500  1
  Cu  Cu32  1  0.84311200  0.87083200  0.20217500  1
  Cu  Cu33  1  0.65688800  0.62916800  0.70217500  1
  Cu  Cu34  1  0.34311200  0.62916800  0.79782500  1
  Cu  Cu35  1  0.15688800  0.87083200  0.29782500  1
  Cu  Cu36  1  0.12955500  0.96563700  0.75202300  1
  Cu  Cu37  1  0.37044500  0.53436300  0.25202300  1
  Cu  Cu38  1  0.62955500  0.53436300  0.24797700  1
  Cu  Cu39  1  0.87044500  0.96563700  0.74797700  1
  Cu  Cu40  1  0.87044500  0.03436300  0.24797700  1
  Cu  Cu41  1  0.62955500  0.46563700  0.74797700  1
  Cu  Cu42  1  0.37044500  0.46563700  0.75202300  1
  Cu  Cu43  1  0.12955500  0.03436300  0.25202300  1
  C  C44  1  0.33393200  0.77594600  0.75693000  1
  C  C45  1  0.16606800  0.72405400  0.25693000  1
  C  C46  1  0.83393200  0.72405400  0.24307000  1
  C  C47  1  0.66606800  0.77594600  0.74307000  1
  C  C48  1  0.66606800  0.22405400  0.24307000  1
  C  C49  1  0.83393200  0.27594600  0.74307000  1
  C  C50  1  0.16606800  0.27594600  0.75693000  1
  C  C51  1  0.33393200  0.22405400  0.25693000  1
  C  C52  1  0.40862300  0.89537600  0.54290500  1
  C  C53  1  0.09137700  0.60462400  0.04290500  1
  C  C54  1  0.90862300  0.60462400  0.45709500  1
  C  C55  1  0.59137700  0.89537600  0.95709500  1
  C  C56  1  0.59137700  0.10462400  0.45709500  1
  C  C57  1  0.90862300  0.39537600  0.95709500  1
  C  C58  1  0.09137700  0.39537600  0.54290500  1
  C  C59  1  0.40862300  0.10462400  0.04290500  1
  C  C60  1  0.29385400  0.64946400  0.54147200  1
  C  C61  1  0.20614600  0.85053600  0.04147200  1
  C  C62  1  0.79385400  0.85053600  0.45852800  1
  C  C63  1  0.70614600  0.64946400  0.95852800  1
  C  C64  1  0.70614600  0.35053600  0.45852800  1
  C  C65  1  0.79385400  0.14946400  0.95852800  1
  C  C66  1  0.20614600  0.14946400  0.54147200  1
  C  C67  1  0.29385400  0.35053600  0.04147200  1
  C  C68  1  0.12705900  0.85715700  0.60465400  1
  C  C69  1  0.37294100  0.64284300  0.10465400  1
  C  C70  1  0.62705900  0.64284300  0.39534600  1
  C  C71  1  0.87294100  0.85715700  0.89534600  1
  C  C72  1  0.87294100  0.14284300  0.39534600  1
  C  C73  1  0.62705900  0.35715700  0.89534600  1
  C  C74  1  0.37294100  0.35715700  0.60465400  1
  C  C75  1  0.12705900  0.14284300  0.10465400  1
  C  C76  1  0.50000000  0.07725900  0.75000000  1
  C  C77  1  0.00000000  0.42274100  0.25000000  1
  C  C78  1  0.50000000  0.92274100  0.25000000  1
  C  C79  1  0.00000000  0.57725900  0.75000000  1
  C  C80  1  0.15223000  0.02496000  0.83010800  1
  C  C81  1  0.34777000  0.47504000  0.33010800  1
  C  C82  1  0.65223000  0.47504000  0.16989200  1
  C  C83  1  0.84777000  0.02496000  0.66989200  1
  C  C84  1  0.84777000  0.97504000  0.16989200  1
  C  C85  1  0.65223000  0.52496000  0.66989200  1
  C  C86  1  0.34777000  0.52496000  0.83010800  1
  C  C87  1  0.15223000  0.97504000  0.33010800  1
