# generated using pymatgen
data_Cu3NiC5
_symmetry_space_group_name_H-M   'P 1'
_cell_length_a   6.61475000
_cell_length_b   8.63947595
_cell_length_c   11.43176912
_cell_angle_alpha   82.67514766
_cell_angle_beta   76.15017814
_cell_angle_gamma   79.67761701
_symmetry_Int_Tables_number   1
_chemical_formula_structural   Cu3NiC5
_chemical_formula_sum   'Cu12 Ni4 C20'
_cell_volume   621.59001088
_cell_formula_units_Z   4
loop_
 _symmetry_equiv_pos_site_id
 _symmetry_equiv_pos_as_xyz
  1  'x, y, z'
loop_
 _atom_site_type_symbol
 _atom_site_label
 _atom_site_symmetry_multiplicity
 _atom_site_fract_x
 _atom_site_fract_y
 _atom_site_fract_z
 _atom_site_occupancy
  Ni  Ni0  1  0.04124000  0.13510100  0.62605800  1
  Ni  Ni1  1  0.95876000  0.86489900  0.37394200  1
  Ni  Ni2  1  0.03289100  0.37985700  0.87365700  1
  Ni  Ni3  1  0.96710900  0.62014300  0.12634300  1
  Cu  Cu4  1  0.20367100  0.16627400  0.14508700  1
  Cu  Cu5  1  0.79632900  0.83372600  0.85491300  1
  Cu  Cu6  1  0.50487900  0.66584000  0.39262700  1
  Cu  Cu7  1  0.49512100  0.33416000  0.60737300  1
  Cu  Cu8  1  0.18251000  0.44639400  0.39623400  1
  Cu  Cu9  1  0.53932500  0.42967400  0.12539100  1
  Cu  Cu10  1  0.20471900  0.94251500  0.89588400  1
  Cu  Cu11  1  0.79528100  0.05748500  0.10411600  1
  Cu  Cu12  1  0.57067700  0.95617200  0.62517300  1
  Cu  Cu13  1  0.42932300  0.04382800  0.37482700  1
  Cu  Cu14  1  0.46067500  0.57032600  0.87460900  1
  Cu  Cu15  1  0.81749000  0.55360600  0.60376600  1
  C  C16  1  0.16543400  0.71508700  0.64529400  1
  C  C17  1  0.83456600  0.28491300  0.35470600  1
  C  C18  1  0.58017000  0.21282800  0.86234500  1
  C  C19  1  0.41983000  0.78717200  0.13765500  1
  C  C20  1  0.34708100  0.83814500  0.54187000  1
  C  C21  1  0.65291900  0.16185500  0.45813000  1
  C  C22  1  0.42944700  0.11441200  0.78493200  1
  C  C23  1  0.57055300  0.88558800  0.21506800  1
  C  C24  1  0.18173700  0.71375700  0.80431100  1
  C  C25  1  0.81826300  0.28624300  0.19568900  1
  C  C26  1  0.81720800  0.08360700  0.89728500  1
  C  C27  1  0.18279200  0.91639300  0.10271500  1
  C  C28  1  0.66935800  0.37728400  0.75305400  1
  C  C29  1  0.33064200  0.62271600  0.24694600  1
  C  C30  1  0.58678700  0.69023000  0.00485600  1
  C  C31  1  0.41321300  0.30977000  0.99514400  1
  C  C32  1  0.88755300  0.79828000  0.64522100  1
  C  C33  1  0.79805800  0.48214500  0.41211500  1
  C  C34  1  0.11244700  0.20172000  0.35477900  1
  C  C35  1  0.20194200  0.51785500  0.58788500  1
