# generated using pymatgen
data_CuNiC5
_symmetry_space_group_name_H-M   'P 1'
_cell_length_a   8.63487424
_cell_length_b   8.63487424
_cell_length_c   8.63487430
_cell_angle_alpha   107.82906755
_cell_angle_beta   107.82906755
_cell_angle_gamma   107.82905956
_symmetry_Int_Tables_number   1
_chemical_formula_structural   CuNiC5
_chemical_formula_sum   'Cu6 Ni6 C30'
_cell_volume   523.58445848
_cell_formula_units_Z   6
loop_
 _symmetry_equiv_pos_site_id
 _symmetry_equiv_pos_as_xyz
  1  'x, y, z'
loop_
 _atom_site_type_symbol
 _atom_site_label
 _atom_site_symmetry_multiplicity
 _atom_site_fract_x
 _atom_site_fract_y
 _atom_site_fract_z
 _atom_site_occupancy
  C  C0  1  0.23958300  0.46848800  0.07128000  1
  C  C1  1  0.46848800  0.07128000  0.23958300  1
  C  C2  1  0.07128000  0.23958300  0.46848800  1
  C  C3  1  0.76041700  0.53151200  0.92872000  1
  C  C4  1  0.53151200  0.92872000  0.76041700  1
  C  C5  1  0.92872000  0.76041700  0.53151200  1
  Ni  Ni6  1  0.56811000  0.78909300  0.38440400  1
  Ni  Ni7  1  0.38440400  0.56811000  0.78909300  1
  Ni  Ni8  1  0.43189000  0.21090700  0.61559600  1
  Ni  Ni9  1  0.21090700  0.61559600  0.43189000  1
  Ni  Ni10  1  0.61559600  0.43189000  0.21090700  1
  Ni  Ni11  1  0.78909300  0.38440400  0.56811000  1
  Cu  Cu12  1  0.13322100  0.72045600  0.89352500  1
  Cu  Cu13  1  0.72045600  0.89352500  0.13322100  1
  Cu  Cu14  1  0.10647500  0.86677900  0.27954400  1
  Cu  Cu15  1  0.86677900  0.27954400  0.10647500  1
  Cu  Cu16  1  0.27954400  0.10647500  0.86677900  1
  Cu  Cu17  1  0.89352500  0.13322100  0.72045600  1
  C  C18  1  0.34484000  0.68491100  0.65967900  1
  C  C19  1  0.37928700  0.32278000  0.04814500  1
  C  C20  1  0.04814500  0.37928700  0.32278000  1
  C  C21  1  0.32278000  0.04814500  0.37928700  1
  C  C22  1  0.62071300  0.67722000  0.95185500  1
  C  C23  1  0.95185500  0.62071300  0.67722000  1
  C  C24  1  0.67722000  0.95185500  0.62071300  1
  C  C25  1  0.68491100  0.65967900  0.34484000  1
  C  C26  1  0.73979200  0.40108100  0.07910600  1
  C  C27  1  0.65967900  0.34484000  0.68491100  1
  C  C28  1  0.31508900  0.34032100  0.65516000  1
  C  C29  1  0.65516000  0.31508900  0.34032100  1
  C  C30  1  0.26020800  0.59891900  0.92089400  1
  C  C31  1  0.59891900  0.92089400  0.26020800  1
  C  C32  1  0.92089400  0.26020800  0.59891900  1
  C  C33  1  0.97312400  0.27972900  0.95504900  1
  C  C34  1  0.40108100  0.07910600  0.73979200  1
  C  C35  1  0.07910600  0.73979200  0.40108100  1
  C  C36  1  0.04495100  0.02687600  0.72027100  1
  C  C37  1  0.27972900  0.95504900  0.97312400  1
  C  C38  1  0.95504900  0.97312400  0.27972900  1
  C  C39  1  0.02687600  0.72027100  0.04495100  1
  C  C40  1  0.72027100  0.04495100  0.02687600  1
  C  C41  1  0.34032100  0.65516000  0.31508900  1
