# generated using pymatgen
data_Cu2NiC2
_symmetry_space_group_name_H-M   'P 1'
_cell_length_a   10.26389200
_cell_length_b   9.72752900
_cell_length_c   4.97654000
_cell_angle_alpha   90.00000000
_cell_angle_beta   90.00000000
_cell_angle_gamma   90.00000000
_symmetry_Int_Tables_number   1
_chemical_formula_structural   Cu2NiC2
_chemical_formula_sum   'Cu16 Ni8 C16'
_cell_volume   496.86923489
_cell_formula_units_Z   8
loop_
 _symmetry_equiv_pos_site_id
 _symmetry_equiv_pos_as_xyz
  1  'x, y, z'
loop_
 _atom_site_type_symbol
 _atom_site_label
 _atom_site_symmetry_multiplicity
 _atom_site_fract_x
 _atom_site_fract_y
 _atom_site_fract_z
 _atom_site_occupancy
  C  C0  1  0.36946800  0.09257700  0.31639500  1
  C  C1  1  0.63053200  0.90742300  0.81639500  1
  C  C2  1  0.13053200  0.59257700  0.81639500  1
  C  C3  1  0.86946800  0.40742300  0.31639500  1
  C  C4  1  0.39484900  0.72269500  0.27978500  1
  C  C5  1  0.60515100  0.27730500  0.77978500  1
  C  C6  1  0.10515100  0.22269500  0.77978500  1
  C  C7  1  0.89484900  0.77730500  0.27978500  1
  C  C8  1  0.31372000  0.37625600  0.00318100  1
  C  C9  1  0.68628000  0.62374400  0.50318100  1
  C  C10  1  0.18628000  0.87625600  0.50318100  1
  C  C11  1  0.81372000  0.12374400  0.00318100  1
  C  C12  1  0.21083000  0.37861700  0.23050500  1
  C  C13  1  0.78917000  0.62138300  0.73050500  1
  C  C14  1  0.28917000  0.87861700  0.73050500  1
  C  C15  1  0.71083000  0.12138300  0.23050500  1
  Ni  Ni16  1  0.22161500  0.39514200  0.03747400  1
  Ni  Ni17  1  0.77838500  0.60485800  0.53747400  1
  Ni  Ni18  1  0.27838500  0.89514200  0.53747400  1
  Ni  Ni19  1  0.72161500  0.10485800  0.03747400  1
  Ni  Ni20  1  0.97063900  0.88971700  0.10494500  1
  Ni  Ni21  1  0.02936100  0.11028300  0.60494500  1
  Ni  Ni22  1  0.52936100  0.38971700  0.60494500  1
  Ni  Ni23  1  0.47063900  0.61028300  0.10494500  1
  Cu  Cu24  1  0.48377100  0.24727800  0.04929900  1
  Cu  Cu25  1  0.51622900  0.75272200  0.54929900  1
  Cu  Cu26  1  0.01622900  0.74727800  0.54929900  1
  Cu  Cu27  1  0.98377100  0.25272200  0.04929900  1
  Cu  Cu28  1  0.45520200  0.88737100  0.12012200  1
  Cu  Cu29  1  0.54479800  0.11262900  0.62012200  1
  Cu  Cu30  1  0.04479800  0.38737100  0.62012200  1
  Cu  Cu31  1  0.95520200  0.61262900  0.12012200  1
  Cu  Cu32  1  0.25219700  0.24829900  0.56608700  1
  Cu  Cu33  1  0.74780300  0.75170100  0.06608700  1
  Cu  Cu34  1  0.24780300  0.74829900  0.06608700  1
  Cu  Cu35  1  0.75219700  0.25170100  0.56608700  1
  Cu  Cu36  1  0.20183800  0.11168800  0.00051700  1
  Cu  Cu37  1  0.79816200  0.88831200  0.50051700  1
  Cu  Cu38  1  0.29816200  0.61168800  0.50051700  1
  Cu  Cu39  1  0.70183800  0.38831200  0.00051700  1
