# generated using pymatgen
data_Cu4Ni4C29
_symmetry_space_group_name_H-M   'P 1'
_cell_length_a   5.23913420
_cell_length_b   6.07249061
_cell_length_c   14.72980942
_cell_angle_alpha   90.45335434
_cell_angle_beta   84.89893835
_cell_angle_gamma   90.85895380
_symmetry_Int_Tables_number   1
_chemical_formula_structural   Cu4Ni4C29
_chemical_formula_sum   'Cu4 Ni4 C29'
_cell_volume   466.70424005
_cell_formula_units_Z   1
loop_
 _symmetry_equiv_pos_site_id
 _symmetry_equiv_pos_as_xyz
  1  'x, y, z'
loop_
 _atom_site_type_symbol
 _atom_site_label
 _atom_site_symmetry_multiplicity
 _atom_site_fract_x
 _atom_site_fract_y
 _atom_site_fract_z
 _atom_site_occupancy
  C  C0  1  0.10154650  0.85861921  0.04530612  1
  Ni  Ni1  1  0.34799789  0.63931470  0.18546723  1
  Ni  Ni2  1  0.80917490  0.83144703  0.34876384  1
  Ni  Ni3  1  0.70598633  0.83913472  0.65467827  1
  Ni  Ni4  1  0.16691838  0.66187696  0.82112976  1
  C  C5  1  0.24105577  0.34974996  0.99921667  1
  C  C6  1  0.75747956  0.33249333  0.50048838  1
  C  C7  1  0.63569231  0.85976280  0.95514553  1
  C  C8  1  0.25826715  0.66341828  0.50131539  1
  Cu  Cu9  1  0.67643936  0.33136127  0.82495687  1
  Cu  Cu10  1  0.20196969  0.17334569  0.65890273  1
  Cu  Cu11  1  0.31648692  0.16481535  0.34004691  1
  Cu  Cu12  1  0.81937070  0.31964435  0.17405233  1
  C  C13  1  0.84848877  0.11449228  0.74361896  1
  C  C14  1  0.35011696  0.38696463  0.75363376  1
  C  C15  1  0.14937697  0.36882993  0.24903220  1
  C  C16  1  0.66946949  0.09603283  0.25919400  1
  C  C17  1  0.14817359  0.85287611  0.26090572  1
  C  C18  1  0.66135262  0.62393859  0.25080366  1
  C  C19  1  0.85078429  0.63786662  0.75341889  1
  C  C20  1  0.36606169  0.86844314  0.74328546  1
  C  C21  1  0.50033626  0.15144283  0.91570566  1
  C  C22  1  0.08517717  0.37076006  0.58031918  1
  C  C23  1  0.43347472  0.36429358  0.42030518  1
  C  C24  1  0.97467838  0.14046392  0.07943405  1
  C  C25  1  0.45246502  0.83526684  0.08683104  1
  C  C26  1  0.92801671  0.61820995  0.42263847  1
  C  C27  1  0.58505508  0.62048997  0.58132821  1
  C  C28  1  0.02096525  0.84714321  0.91781740  1
  C  C29  1  0.96846109  0.40589291  0.89225153  1
  C  C30  1  0.55497219  0.09369503  0.59766882  1
  C  C31  1  0.96343962  0.09067049  0.40460229  1
  C  C32  1  0.52508473  0.39049555  0.10919066  1
  C  C33  1  0.04940771  0.57416926  0.10462531  1
  C  C34  1  0.46885748  0.88459857  0.40504620  1
  C  C35  1  0.04754707  0.88793886  0.59771372  1
  C  C36  1  0.44735170  0.59379121  0.90133860  1
