# generated using pymatgen
data_Cu(NiC3)2
_symmetry_space_group_name_H-M   'P 1'
_cell_length_a   5.89009801
_cell_length_b   5.89009801
_cell_length_c   11.19239537
_cell_angle_alpha   90.40435105
_cell_angle_beta   90.40435105
_cell_angle_gamma   110.06481678
_symmetry_Int_Tables_number   1
_chemical_formula_structural   Cu(NiC3)2
_chemical_formula_sum   'Cu4 Ni8 C24'
_cell_volume   364.70510251
_cell_formula_units_Z   4
loop_
 _symmetry_equiv_pos_site_id
 _symmetry_equiv_pos_as_xyz
  1  'x, y, z'
loop_
 _atom_site_type_symbol
 _atom_site_label
 _atom_site_symmetry_multiplicity
 _atom_site_fract_x
 _atom_site_fract_y
 _atom_site_fract_z
 _atom_site_occupancy
  C  C0  1  0.82443300  0.66793000  0.44761800  1
  C  C1  1  0.33207000  0.17556700  0.05238200  1
  C  C2  1  0.17556700  0.33207000  0.55238200  1
  C  C3  1  0.66793000  0.82443300  0.94761800  1
  Ni  Ni4  1  0.36803600  0.11307500  0.77402400  1
  Ni  Ni5  1  0.88692500  0.63196400  0.72597600  1
  Ni  Ni6  1  0.63196400  0.88692500  0.22597600  1
  Ni  Ni7  1  0.11307500  0.36803600  0.27402400  1
  Ni  Ni8  1  0.85117900  0.65140600  0.12882500  1
  Ni  Ni9  1  0.34859400  0.14882100  0.37117500  1
  Ni  Ni10  1  0.14882100  0.34859400  0.87117500  1
  Ni  Ni11  1  0.65140600  0.85117900  0.62882500  1
  Cu  Cu12  1  0.98902200  0.63654200  0.90877800  1
  Cu  Cu13  1  0.36345800  0.01097800  0.59122200  1
  Cu  Cu14  1  0.01097800  0.36345800  0.09122200  1
  Cu  Cu15  1  0.63654200  0.98902200  0.40877800  1
  C  C16  1  0.65879500  0.48515000  0.07245800  1
  C  C17  1  0.51485000  0.34120500  0.42754200  1
  C  C18  1  0.34120500  0.51485000  0.92754200  1
  C  C19  1  0.48515000  0.65879500  0.57245800  1
  C  C20  1  0.01039100  0.81808900  0.05508800  1
  C  C21  1  0.18191100  0.98960900  0.44491200  1
  C  C22  1  0.98960900  0.18191100  0.94491200  1
  C  C23  1  0.81808900  0.01039100  0.55508800  1
  C  C24  1  0.96509200  0.54786300  0.83026400  1
  C  C25  1  0.45213700  0.03490800  0.66973600  1
  C  C26  1  0.03490800  0.45213700  0.16973600  1
  C  C27  1  0.54786300  0.96509200  0.33026400  1
  C  C28  1  0.78491100  0.75164500  0.24324600  1
  C  C29  1  0.24835500  0.21508900  0.25675400  1
  C  C30  1  0.21508900  0.24835500  0.75675400  1
  C  C31  1  0.75164500  0.78491100  0.74324600  1
  C  C32  1  0.44148000  0.05508200  0.88017100  1
  C  C33  1  0.94491800  0.55852000  0.61982900  1
  C  C34  1  0.55852000  0.94491800  0.11982900  1
  C  C35  1  0.05508200  0.44148000  0.38017100  1
