# generated using pymatgen
data_Cu4NiC38
_symmetry_space_group_name_H-M   'P 1'
_cell_length_a   10.88256600
_cell_length_b   7.29245500
_cell_length_c   12.16593451
_cell_angle_alpha   64.13741630
_cell_angle_beta   90.00000000
_cell_angle_gamma   90.00000000
_symmetry_Int_Tables_number   1
_chemical_formula_structural   Cu4NiC38
_chemical_formula_sum   'Cu8 Ni2 C76'
_cell_volume   868.79478393
_cell_formula_units_Z   2
loop_
 _symmetry_equiv_pos_site_id
 _symmetry_equiv_pos_as_xyz
  1  'x, y, z'
loop_
 _atom_site_type_symbol
 _atom_site_label
 _atom_site_symmetry_multiplicity
 _atom_site_fract_x
 _atom_site_fract_y
 _atom_site_fract_z
 _atom_site_occupancy
  C  C0  1  0.17185300  0.70116700  0.54401000  1
  C  C1  1  0.67185300  0.29883300  0.95599000  1
  C  C2  1  0.82814700  0.29883300  0.45599000  1
  C  C3  1  0.32814700  0.70116700  0.04401000  1
  Ni  Ni4  1  0.50000000  0.00000000  0.50000000  1
  Ni  Ni5  1  0.00000000  0.00000000  0.00000000  1
  Cu  Cu6  1  0.24125800  0.17900800  0.58246500  1
  Cu  Cu7  1  0.74125800  0.82099200  0.91753500  1
  Cu  Cu8  1  0.75874200  0.82099200  0.41753500  1
  Cu  Cu9  1  0.25874200  0.17900800  0.08246500  1
  Cu  Cu10  1  0.45542200  0.54008800  0.72094400  1
  Cu  Cu11  1  0.95542200  0.45991200  0.77905600  1
  Cu  Cu12  1  0.54457800  0.45991200  0.27905600  1
  Cu  Cu13  1  0.04457800  0.54008800  0.22094400  1
  C  C14  1  0.06910200  0.02055800  0.60315200  1
  C  C15  1  0.56910200  0.97944200  0.89684800  1
  C  C16  1  0.93089800  0.97944200  0.39684800  1
  C  C17  1  0.43089800  0.02055800  0.10315200  1
  C  C18  1  0.10884400  0.39519500  0.44424800  1
  C  C19  1  0.60884400  0.60480500  0.05575200  1
  C  C20  1  0.89115600  0.60480500  0.55575200  1
  C  C21  1  0.39115600  0.39519500  0.94424800  1
  C  C22  1  0.58745600  0.59258400  0.57703500  1
  C  C23  1  0.08745600  0.40741600  0.92296500  1
  C  C24  1  0.41254400  0.40741600  0.42296500  1
  C  C25  1  0.91254400  0.59258400  0.07703500  1
  C  C26  1  0.29607100  0.35346600  0.71259900  1
  C  C27  1  0.79607100  0.64653400  0.78740100  1
  C  C28  1  0.70392900  0.64653400  0.28740100  1
  C  C29  1  0.20392900  0.35346600  0.21259900  1
  C  C30  1  0.33486400  0.97055800  0.34195300  1
  C  C31  1  0.83486400  0.02944200  0.15804700  1
  C  C32  1  0.66513600  0.02944200  0.65804700  1
  C  C33  1  0.16513600  0.97055800  0.84195300  1
  C  C34  1  0.41007100  0.76383400  0.39528100  1
  C  C35  1  0.91007100  0.23616600  0.10471900  1
  C  C36  1  0.58992900  0.23616600  0.60471900  1
  C  C37  1  0.08992900  0.76383400  0.89528100  1
  C  C38  1  0.11806100  0.00382000  0.30702700  1
  C  C39  1  0.61806100  0.99618000  0.19297300  1
  C  C40  1  0.88193900  0.99618000  0.69297300  1
  C  C41  1  0.38193900  0.00382000  0.80702700  1
  C  C42  1  0.03446000  0.83251500  0.30694400  1
  C  C43  1  0.53446000  0.16748500  0.19305600  1
  C  C44  1  0.96554000  0.16748500  0.69305600  1
  C  C45  1  0.46554000  0.83251500  0.80694400  1
  C  C46  1  0.15649600  0.00556200  0.57649200  1
  C  C47  1  0.65649600  0.99443800  0.92350800  1
  C  C48  1  0.84350400  0.99443800  0.42350800  1
  C  C49  1  0.34350400  0.00556200  0.07649200  1
  C  C50  1  0.25888600  0.14249800  0.71585300  1
  C  C51  1  0.75888600  0.85750200  0.78414700  1
  C  C52  1  0.74111400  0.85750200  0.28414700  1
  C  C53  1  0.24111400  0.14249800  0.21585300  1
  C  C54  1  0.16945700  0.38683900  0.51462700  1
  C  C55  1  0.66945700  0.61316100  0.98537300  1
  C  C56  1  0.83054300  0.61316100  0.48537300  1
  C  C57  1  0.33054300  0.38683900  0.01462700  1
  C  C58  1  0.36119100  0.18787800  0.51560800  1
  C  C59  1  0.86119100  0.81212200  0.98439200  1
  C  C60  1  0.63880900  0.81212200  0.48439200  1
  C  C61  1  0.13880900  0.18787800  0.01560800  1
  C  C62  1  0.54292000  0.46900400  0.64080600  1
  C  C63  1  0.04292000  0.53099600  0.85919400  1
  C  C64  1  0.45708000  0.53099600  0.35919400  1
  C  C65  1  0.95708000  0.46900400  0.14080600  1
  C  C66  1  0.48238000  0.40714200  0.85522200  1
  C  C67  1  0.98238000  0.59285800  0.64477800  1
  C  C68  1  0.51762000  0.59285800  0.14477800  1
  C  C69  1  0.01762000  0.40714200  0.35522200  1
  C  C70  1  0.31769500  0.50148300  0.69232000  1
  C  C71  1  0.81769500  0.49851700  0.80768000  1
  C  C72  1  0.68230500  0.49851700  0.30768000  1
  C  C73  1  0.18230500  0.50148300  0.19232000  1
  C  C74  1  0.46964600  0.76872400  0.67865800  1
  C  C75  1  0.96964600  0.23127600  0.82134200  1
  C  C76  1  0.53035400  0.23127600  0.32134200  1
  C  C77  1  0.03035400  0.76872400  0.17865800  1
  C  C78  1  0.36937000  0.86230900  0.41871700  1
  C  C79  1  0.86937000  0.13769100  0.08128300  1
  C  C80  1  0.63063000  0.13769100  0.58128300  1
  C  C81  1  0.13063000  0.86230900  0.91871700  1
  C  C82  1  0.05612500  0.90226600  0.35870400  1
  C  C83  1  0.55612500  0.09773400  0.14129600  1
  C  C84  1  0.94387500  0.09773400  0.64129600  1
  C  C85  1  0.44387500  0.90226600  0.85870400  1
