# generated using pymatgen
data_Cu8Ni2C3
_symmetry_space_group_name_H-M   'P 1'
_cell_length_a   5.88958700
_cell_length_b   7.85014300
_cell_length_c   18.92583500
_cell_angle_alpha   90.00000000
_cell_angle_beta   90.00000000
_cell_angle_gamma   90.00000000
_symmetry_Int_Tables_number   1
_chemical_formula_structural   Cu8Ni2C3
_chemical_formula_sum   'Cu32 Ni8 C12'
_cell_volume   875.01895102
_cell_formula_units_Z   4
loop_
 _symmetry_equiv_pos_site_id
 _symmetry_equiv_pos_as_xyz
  1  'x, y, z'
loop_
 _atom_site_type_symbol
 _atom_site_label
 _atom_site_symmetry_multiplicity
 _atom_site_fract_x
 _atom_site_fract_y
 _atom_site_fract_z
 _atom_site_occupancy
  C  C0  1  0.75000000  0.01893200  0.84291800  1
  C  C1  1  0.75000000  0.51893200  0.65708200  1
  C  C2  1  0.25000000  0.98106800  0.15708200  1
  C  C3  1  0.25000000  0.48106800  0.34291800  1
  C  C4  1  0.75000000  0.13611500  0.03196100  1
  C  C5  1  0.75000000  0.63611500  0.46803900  1
  C  C6  1  0.25000000  0.86388500  0.96803900  1
  C  C7  1  0.25000000  0.36388500  0.53196100  1
  C  C8  1  0.25000000  0.30824400  0.91578400  1
  C  C9  1  0.25000000  0.80824400  0.58421600  1
  C  C10  1  0.75000000  0.69175600  0.08421600  1
  C  C11  1  0.75000000  0.19175600  0.41578400  1
  Ni  Ni12  1  0.75000000  0.61187300  0.89423900  1
  Ni  Ni13  1  0.75000000  0.11187300  0.60576100  1
  Ni  Ni14  1  0.25000000  0.38812700  0.10576100  1
  Ni  Ni15  1  0.25000000  0.88812700  0.39423900  1
  Ni  Ni16  1  0.25000000  0.84086800  0.74948800  1
  Ni  Ni17  1  0.25000000  0.34086800  0.75051200  1
  Ni  Ni18  1  0.75000000  0.15913200  0.25051200  1
  Ni  Ni19  1  0.75000000  0.65913200  0.24948800  1
  Cu  Cu20  1  0.49910200  0.09245800  0.93247700  1
  Cu  Cu21  1  0.00089800  0.59245800  0.56752300  1
  Cu  Cu22  1  0.99910200  0.90754200  0.06752300  1
  Cu  Cu23  1  0.50089800  0.40754200  0.43247700  1
  Cu  Cu24  1  0.50089800  0.90754200  0.06752300  1
  Cu  Cu25  1  0.99910200  0.40754200  0.43247700  1
  Cu  Cu26  1  0.00089800  0.09245800  0.93247700  1
  Cu  Cu27  1  0.49910200  0.59245800  0.56752300  1
  Cu  Cu28  1  0.25000000  0.90194500  0.81138300  1
  Cu  Cu29  1  0.25000000  0.40194500  0.68861700  1
  Cu  Cu30  1  0.75000000  0.09805500  0.18861700  1
  Cu  Cu31  1  0.75000000  0.59805500  0.31138300  1
  Cu  Cu32  1  0.43675500  0.81237600  0.71774700  1
  Cu  Cu33  1  0.06324500  0.31237600  0.78225300  1
  Cu  Cu34  1  0.93675500  0.18762400  0.28225300  1
  Cu  Cu35  1  0.56324500  0.68762400  0.21774700  1
  Cu  Cu36  1  0.56324500  0.18762400  0.28225300  1
  Cu  Cu37  1  0.93675500  0.68762400  0.21774700  1
  Cu  Cu38  1  0.06324500  0.81237600  0.71774700  1
  Cu  Cu39  1  0.43675500  0.31237600  0.78225300  1
  Cu  Cu40  1  0.75000000  0.46393700  0.92003300  1
  Cu  Cu41  1  0.75000000  0.96393700  0.57996700  1
  Cu  Cu42  1  0.25000000  0.53606300  0.07996700  1
  Cu  Cu43  1  0.25000000  0.03606300  0.42003300  1
  Cu  Cu44  1  0.75000000  0.74243000  0.93693800  1
  Cu  Cu45  1  0.75000000  0.24243000  0.56306200  1
  Cu  Cu46  1  0.25000000  0.25757000  0.06306200  1
  Cu  Cu47  1  0.25000000  0.75757000  0.43693800  1
  Cu  Cu48  1  0.75000000  0.64037800  0.82916700  1
  Cu  Cu49  1  0.75000000  0.14037800  0.67083300  1
  Cu  Cu50  1  0.25000000  0.35962200  0.17083300  1
  Cu  Cu51  1  0.25000000  0.85962200  0.32916700  1
