# generated using pymatgen
data_Cu3NiC7
_symmetry_space_group_name_H-M   'P 1'
_cell_length_a   7.60137955
_cell_length_b   7.60137955
_cell_length_c   18.67279500
_cell_angle_alpha   90.00000000
_cell_angle_beta   90.00000000
_cell_angle_gamma   147.93983946
_symmetry_Int_Tables_number   1
_chemical_formula_structural   Cu3NiC7
_chemical_formula_sum   'Cu6 Ni2 C14'
_cell_volume   572.70739241
_cell_formula_units_Z   2
loop_
 _symmetry_equiv_pos_site_id
 _symmetry_equiv_pos_as_xyz
  1  'x, y, z'
loop_
 _atom_site_type_symbol
 _atom_site_label
 _atom_site_symmetry_multiplicity
 _atom_site_fract_x
 _atom_site_fract_y
 _atom_site_fract_z
 _atom_site_occupancy
  C  C0  1  0.76405500  0.49726400  0.03818000  1
  C  C1  1  0.23594500  0.50273600  0.53818000  1
  C  C2  1  0.50273600  0.23594500  0.46182000  1
  C  C3  1  0.49726400  0.76405500  0.96182000  1
  Ni  Ni4  1  0.88440900  0.11559100  0.25000000  1
  Ni  Ni5  1  0.11559100  0.88440900  0.75000000  1
  Cu  Cu6  1  0.79193600  0.20806400  0.25000000  1
  Cu  Cu7  1  0.20806400  0.79193600  0.75000000  1
  Cu  Cu8  1  0.04320300  0.18238700  0.19189900  1
  Cu  Cu9  1  0.95679700  0.81761300  0.69189900  1
  Cu  Cu10  1  0.81761300  0.95679700  0.30810100  1
  Cu  Cu11  1  0.18238700  0.04320300  0.80810100  1
  C  C12  1  0.18489000  0.58331900  0.42234200  1
  C  C13  1  0.81511000  0.41668100  0.92234200  1
  C  C14  1  0.41668100  0.81511000  0.07765800  1
  C  C15  1  0.58331900  0.18489000  0.57765800  1
  C  C16  1  0.74426900  0.53968700  0.16127400  1
  C  C17  1  0.25573100  0.46031300  0.66127400  1
  C  C18  1  0.46031300  0.25573100  0.33872600  1
  C  C19  1  0.53968700  0.74426900  0.83872600  1
  C  C20  1  0.12536100  0.12536100  0.00000000  1
  C  C21  1  0.87463900  0.87463900  0.50000000  1
