# generated using pymatgen
data_Cu5NiC4
_symmetry_space_group_name_H-M   'P 1'
_cell_length_a   6.74894200
_cell_length_b   7.03068100
_cell_length_c   8.07470800
_cell_angle_alpha   90.00000000
_cell_angle_beta   90.00000000
_cell_angle_gamma   90.00000000
_symmetry_Int_Tables_number   1
_chemical_formula_structural   Cu5NiC4
_chemical_formula_sum   'Cu20 Ni4 C16'
_cell_volume   383.14213539
_cell_formula_units_Z   4
loop_
 _symmetry_equiv_pos_site_id
 _symmetry_equiv_pos_as_xyz
  1  'x, y, z'
loop_
 _atom_site_type_symbol
 _atom_site_label
 _atom_site_symmetry_multiplicity
 _atom_site_fract_x
 _atom_site_fract_y
 _atom_site_fract_z
 _atom_site_occupancy
  C  C0  1  0.09953600  0.10858900  0.56510200  1
  C  C1  1  0.40046400  0.89141100  0.06510200  1
  C  C2  1  0.59953600  0.39141100  0.43489800  1
  C  C3  1  0.90046400  0.60858900  0.93489800  1
  C  C4  1  0.24632500  0.59781600  0.29088400  1
  C  C5  1  0.25367500  0.40218400  0.79088400  1
  C  C6  1  0.74632500  0.90218400  0.70911600  1
  C  C7  1  0.75367500  0.09781600  0.20911600  1
  C  C8  1  0.11120200  0.44839200  0.40763600  1
  C  C9  1  0.38879800  0.55160800  0.90763600  1
  C  C10  1  0.61120200  0.05160800  0.59236400  1
  C  C11  1  0.88879800  0.94839200  0.09236400  1
  C  C12  1  0.20847000  0.37222800  0.22298800  1
  C  C13  1  0.29153000  0.62777200  0.72298800  1
  C  C14  1  0.70847000  0.12777200  0.77701200  1
  C  C15  1  0.79153000  0.87222800  0.27701200  1
  Ni  Ni16  1  0.30025300  0.92124300  0.44337300  1
  Ni  Ni17  1  0.19974700  0.07875700  0.94337300  1
  Ni  Ni18  1  0.80025300  0.57875700  0.55662700  1
  Ni  Ni19  1  0.69974700  0.42124300  0.05662700  1
  Cu  Cu20  1  0.27928000  0.82649500  0.28177100  1
  Cu  Cu21  1  0.22072000  0.17350500  0.78177100  1
  Cu  Cu22  1  0.77928000  0.67350500  0.71822900  1
  Cu  Cu23  1  0.72072000  0.32649500  0.21822900  1
  Cu  Cu24  1  0.47258500  0.05059500  0.44751000  1
  Cu  Cu25  1  0.02741500  0.94940500  0.94751000  1
  Cu  Cu26  1  0.97258500  0.44940500  0.55249000  1
  Cu  Cu27  1  0.52741500  0.55059500  0.05249000  1
  Cu  Cu28  1  0.29431700  0.79081800  0.58282500  1
  Cu  Cu29  1  0.20568300  0.20918200  0.08282500  1
  Cu  Cu30  1  0.79431700  0.70918200  0.41717500  1
  Cu  Cu31  1  0.70568300  0.29081800  0.91717500  1
  Cu  Cu32  1  0.10731300  0.05189400  0.45271500  1
  Cu  Cu33  1  0.39268700  0.94810600  0.95271500  1
  Cu  Cu34  1  0.60731300  0.44810600  0.54728500  1
  Cu  Cu35  1  0.89268700  0.55189400  0.04728500  1
  Cu  Cu36  1  0.22505200  0.45880200  0.32131500  1
  Cu  Cu37  1  0.27494800  0.54119800  0.82131500  1
  Cu  Cu38  1  0.72505200  0.04119800  0.67868500  1
  Cu  Cu39  1  0.77494800  0.95880200  0.17868500  1
