# generated using pymatgen
data_Cu14NiC6
_symmetry_space_group_name_H-M   'P 1'
_cell_length_a   8.41795543
_cell_length_b   8.41795543
_cell_length_c   9.12525748
_cell_angle_alpha   74.75452320
_cell_angle_beta   74.75452320
_cell_angle_gamma   76.57059682
_symmetry_Int_Tables_number   1
_chemical_formula_structural   Cu14NiC6
_chemical_formula_sum   'Cu28 Ni2 C12'
_cell_volume   592.61018263
_cell_formula_units_Z   2
loop_
 _symmetry_equiv_pos_site_id
 _symmetry_equiv_pos_as_xyz
  1  'x, y, z'
loop_
 _atom_site_type_symbol
 _atom_site_label
 _atom_site_symmetry_multiplicity
 _atom_site_fract_x
 _atom_site_fract_y
 _atom_site_fract_z
 _atom_site_occupancy
  C  C0  1  0.89580900  0.74682700  0.57018600  1
  C  C1  1  0.25317300  0.10419100  0.92981400  1
  C  C2  1  0.10419100  0.25317300  0.42981400  1
  C  C3  1  0.74682700  0.89580900  0.07018600  1
  C  C4  1  0.27746200  0.72253800  0.75000000  1
  C  C5  1  0.72253800  0.27746200  0.25000000  1
  C  C6  1  0.99176500  0.00823500  0.25000000  1
  C  C7  1  0.00823500  0.99176500  0.75000000  1
  C  C8  1  0.57829100  0.84460600  0.82562400  1
  C  C9  1  0.15539400  0.42170900  0.67437600  1
  C  C10  1  0.42170900  0.15539400  0.17437600  1
  C  C11  1  0.84460600  0.57829100  0.32562400  1
  Ni  Ni12  1  0.63711100  0.36288900  0.75000000  1
  Ni  Ni13  1  0.36288900  0.63711100  0.25000000  1
  Cu  Cu14  1  0.01970300  0.86228600  0.38753500  1
  Cu  Cu15  1  0.13771400  0.98029700  0.11246500  1
  Cu  Cu16  1  0.98029700  0.13771400  0.61246500  1
  Cu  Cu17  1  0.86228600  0.01970300  0.88753500  1
  Cu  Cu18  1  0.47166300  0.71479000  0.82309900  1
  Cu  Cu19  1  0.28521000  0.52833700  0.67690100  1
  Cu  Cu20  1  0.52833700  0.28521000  0.17690100  1
  Cu  Cu21  1  0.71479000  0.47166300  0.32309900  1
  Cu  Cu22  1  0.03068800  0.81950900  0.70374100  1
  Cu  Cu23  1  0.18049100  0.96931200  0.79625900  1
  Cu  Cu24  1  0.96931200  0.18049100  0.29625900  1
  Cu  Cu25  1  0.81950900  0.03068800  0.20374100  1
  Cu  Cu26  1  0.20354100  0.61385500  0.96200100  1
  Cu  Cu27  1  0.38614500  0.79645900  0.53799900  1
  Cu  Cu28  1  0.79645900  0.38614500  0.03799900  1
  Cu  Cu29  1  0.61385500  0.20354100  0.46200100  1
  Cu  Cu30  1  0.70175400  0.87240600  0.66596600  1
  Cu  Cu31  1  0.12759400  0.29824600  0.83403400  1
  Cu  Cu32  1  0.29824600  0.12759400  0.33403400  1
  Cu  Cu33  1  0.87240600  0.70175400  0.16596600  1
  Cu  Cu34  1  0.76901400  0.66926900  0.45945700  1
  Cu  Cu35  1  0.33073100  0.23098600  0.04054300  1
  Cu  Cu36  1  0.23098600  0.33073100  0.54054300  1
  Cu  Cu37  1  0.66926900  0.76901400  0.95945700  1
  Cu  Cu38  1  0.98456900  0.53169300  0.66024000  1
  Cu  Cu39  1  0.46830700  0.01543100  0.83976000  1
  Cu  Cu40  1  0.01543100  0.46830700  0.33976000  1
  Cu  Cu41  1  0.53169300  0.98456900  0.16024000  1
