# generated using pymatgen
data_CuNi2C7
_symmetry_space_group_name_H-M   'P 1'
_cell_length_a   10.37129889
_cell_length_b   11.26426726
_cell_length_c   12.08383177
_cell_angle_alpha   90.00000000
_cell_angle_beta   89.98616493
_cell_angle_gamma   90.00000000
_symmetry_Int_Tables_number   1
_chemical_formula_structural   CuNi2C7
_chemical_formula_sum   'Cu4 Ni8 C28'
_cell_volume   1411.69460374
_cell_formula_units_Z   4
loop_
 _symmetry_equiv_pos_site_id
 _symmetry_equiv_pos_as_xyz
  1  'x, y, z'
loop_
 _atom_site_type_symbol
 _atom_site_label
 _atom_site_symmetry_multiplicity
 _atom_site_fract_x
 _atom_site_fract_y
 _atom_site_fract_z
 _atom_site_occupancy
  Ni  Ni0  1  0.45902709  0.69661737  0.98679087  1
  Ni  Ni1  1  0.04097291  0.19661737  0.01320913  1
  Ni  Ni2  1  0.54097291  0.30338263  0.01320913  1
  Ni  Ni3  1  0.95902709  0.80338263  0.98679087  1
  Ni  Ni4  1  0.35641873  0.00207655  0.73316860  1
  Ni  Ni5  1  0.14358127  0.50207655  0.26683140  1
  Ni  Ni6  1  0.64358127  0.99792345  0.26683140  1
  Ni  Ni7  1  0.85641873  0.49792345  0.73316860  1
  Cu  Cu8  1  0.05419822  0.80905164  0.46013405  1
  Cu  Cu9  1  0.44580178  0.30905164  0.53986595  1
  Cu  Cu10  1  0.94580178  0.19094836  0.53986595  1
  Cu  Cu11  1  0.55419822  0.69094836  0.46013405  1
  C  C12  1  0.17601454  0.50057027  0.90317611  1
  C  C13  1  0.32398546  0.00057027  0.09682389  1
  C  C14  1  0.82398546  0.49942973  0.09682389  1
  C  C15  1  0.67601454  -0.00057027  0.90317611  1
  C  C16  1  0.28367967  0.34958273  0.78976480  1
  C  C17  1  0.21632033  0.84958273  0.21023520  1
  C  C18  1  0.71632033  0.65041727  0.21023520  1
  C  C19  1  0.78367967  0.15041727  0.78976480  1
  C  C20  1  0.18530856  0.66492425  0.77851945  1
  C  C21  1  0.31469144  0.16492425  0.22148055  1
  C  C22  1  0.81469144  0.33507575  0.22148055  1
  C  C23  1  0.68530856  0.83507575  0.77851945  1
  C  C24  1  0.98489805  0.04446899  0.74421102  1
  C  C25  1  0.51510195  0.54446899  0.25578898  1
  C  C26  1  0.01510195  0.95553101  0.25578898  1
  C  C27  1  0.48489805  0.45553101  0.74421102  1
  C  C28  1  0.39694576  0.63519259  0.67089922  1
  C  C29  1  0.10305424  0.13519259  0.32910078  1
  C  C30  1  0.60305424  0.36480741  0.32910078  1
  C  C31  1  0.89694576  0.86480741  0.67089922  1
  C  C32  1  0.18453364  0.57524020  0.58506886  1
  C  C33  1  0.31546636  0.07524020  0.41493114  1
  C  C34  1  0.81546636  0.42475980  0.41493114  1
  C  C35  1  0.68453364  0.92475980  0.58506886  1
  C  C36  1  0.33137097  0.86494707  0.38706711  1
  C  C37  1  0.16862903  0.36494707  0.61293289  1
  C  C38  1  0.66862903  0.13505293  0.61293289  1
  C  C39  1  0.83137097  0.63505293  0.38706711  1
