# generated using pymatgen
data_Cu9Ni2C7
_symmetry_space_group_name_H-M   'P 1'
_cell_length_a   5.96276031
_cell_length_b   5.96276031
_cell_length_c   25.11016000
_cell_angle_alpha   90.00000000
_cell_angle_beta   90.00000000
_cell_angle_gamma   120.00000349
_symmetry_Int_Tables_number   1
_chemical_formula_structural   Cu9Ni2C7
_chemical_formula_sum   'Cu18 Ni4 C14'
_cell_volume   773.16965573
_cell_formula_units_Z   2
loop_
 _symmetry_equiv_pos_site_id
 _symmetry_equiv_pos_as_xyz
  1  'x, y, z'
loop_
 _atom_site_type_symbol
 _atom_site_label
 _atom_site_symmetry_multiplicity
 _atom_site_fract_x
 _atom_site_fract_y
 _atom_site_fract_z
 _atom_site_occupancy
  C  C0  1  0.33333300  0.66666700  0.32982800  1
  C  C1  1  0.66666700  0.33333300  0.67150300  1
  C  C2  1  0.66666700  0.33333300  0.82889000  1
  C  C3  1  0.33333300  0.66666700  0.16911200  1
  C  C4  1  0.66666700  0.33333300  0.24400500  1
  C  C5  1  0.33333300  0.66666700  0.75031900  1
  C  C6  1  0.66666700  0.33333300  0.41783400  1
  C  C7  1  0.33333300  0.66666700  0.58299600  1
  C  C8  1  0.33333300  0.66666700  0.91830200  1
  C  C9  1  0.66666700  0.33333300  0.08277500  1
  C  C10  1  0.00000000  0.00000000  0.69334400  1
  C  C11  1  0.00000000  0.00000000  0.80685900  1
  C  C12  1  0.00000000  0.00000000  0.19596600  1
  C  C13  1  0.00000000  0.00000000  0.30391200  1
  Ni  Ni14  1  0.33333300  0.66666700  0.45343400  1
  Ni  Ni15  1  0.66666700  0.33333300  0.54503100  1
  Ni  Ni16  1  0.66666700  0.33333300  0.95368500  1
  Ni  Ni17  1  0.33333300  0.66666700  0.04534900  1
  Cu  Cu18  1  0.31426700  0.15713400  0.34370800  1
  Cu  Cu19  1  0.84286600  0.15713400  0.34370800  1
  Cu  Cu20  1  0.84286600  0.68573300  0.34370800  1
  Cu  Cu21  1  0.68155200  0.84077600  0.65485200  1
  Cu  Cu22  1  0.15922400  0.84077600  0.65485200  1
  Cu  Cu23  1  0.15922400  0.31844800  0.65485200  1
  Cu  Cu24  1  0.68109100  0.84054500  0.84488200  1
  Cu  Cu25  1  0.15945500  0.84054500  0.84488200  1
  Cu  Cu26  1  0.15945500  0.31890900  0.84488200  1
  Cu  Cu27  1  0.31925900  0.15962900  0.15627900  1
  Cu  Cu28  1  0.84037100  0.15962900  0.15627900  1
  Cu  Cu29  1  0.84037100  0.68074100  0.15627900  1
  Cu  Cu30  1  0.15672000  0.31344000  0.25270400  1
  Cu  Cu31  1  0.68656000  0.84328000  0.25270400  1
  Cu  Cu32  1  0.15672000  0.84328000  0.25270400  1
  Cu  Cu33  1  0.84962100  0.69924200  0.74985800  1
  Cu  Cu34  1  0.30075800  0.15037900  0.74985800  1
  Cu  Cu35  1  0.84962100  0.15037900  0.74985800  1
