# generated using pymatgen
data_Cu3NiC8
_symmetry_space_group_name_H-M   'P 1'
_cell_length_a   8.06627000
_cell_length_b   10.35651100
_cell_length_c   12.95574250
_cell_angle_alpha   75.57910168
_cell_angle_beta   90.00000000
_cell_angle_gamma   90.00000000
_symmetry_Int_Tables_number   1
_chemical_formula_structural   Cu3NiC8
_chemical_formula_sum   'Cu24 Ni8 C64'
_cell_volume   1048.20142392
_cell_formula_units_Z   8
loop_
 _symmetry_equiv_pos_site_id
 _symmetry_equiv_pos_as_xyz
  1  'x, y, z'
loop_
 _atom_site_type_symbol
 _atom_site_label
 _atom_site_symmetry_multiplicity
 _atom_site_fract_x
 _atom_site_fract_y
 _atom_site_fract_z
 _atom_site_occupancy
  C  C0  1  0.55186900  0.11025100  0.40361000  1
  C  C1  1  0.05186900  0.38974900  0.59639000  1
  C  C2  1  0.44813100  0.88974900  0.59639000  1
  C  C3  1  0.94813100  0.61025100  0.40361000  1
  C  C4  1  0.83282000  0.03750200  0.25186200  1
  C  C5  1  0.33282000  0.46249800  0.74813800  1
  C  C6  1  0.16718000  0.96249800  0.74813800  1
  C  C7  1  0.66718000  0.53750200  0.25186200  1
  C  C8  1  0.30523600  0.37382800  0.35919500  1
  C  C9  1  0.80523600  0.12617200  0.64080500  1
  C  C10  1  0.69476400  0.62617200  0.64080500  1
  C  C11  1  0.19476400  0.87382800  0.35919500  1
  C  C12  1  0.74089500  0.05962000  0.00995500  1
  C  C13  1  0.24089500  0.44038000  0.99004500  1
  C  C14  1  0.25910500  0.94038000  0.99004500  1
  C  C15  1  0.75910500  0.55962000  0.00995500  1
  Ni  Ni16  1  0.55398900  0.27877200  0.14906700  1
  Ni  Ni17  1  0.05398900  0.22122800  0.85093300  1
  Ni  Ni18  1  0.44601100  0.72122800  0.85093300  1
  Ni  Ni19  1  0.94601100  0.77877200  0.14906700  1
  Ni  Ni20  1  0.92194300  0.28536400  0.38543900  1
  Ni  Ni21  1  0.42194300  0.21463600  0.61456100  1
  Ni  Ni22  1  0.07805700  0.71463600  0.61456100  1
  Ni  Ni23  1  0.57805700  0.78536400  0.38543900  1
  Cu  Cu24  1  0.24105600  0.54367300  0.46853000  1
  Cu  Cu25  1  0.74105600  0.95632700  0.53147000  1
  Cu  Cu26  1  0.75894400  0.45632700  0.53147000  1
  Cu  Cu27  1  0.25894400  0.04367300  0.46853000  1
  Cu  Cu28  1  0.11413400  0.11398100  0.28923800  1
  Cu  Cu29  1  0.61413400  0.38601900  0.71076200  1
  Cu  Cu30  1  0.88586600  0.88601900  0.71076200  1
  Cu  Cu31  1  0.38586600  0.61398100  0.28923800  1
  Cu  Cu32  1  0.04626000  0.33621300  0.15591000  1
  Cu  Cu33  1  0.54626000  0.16378700  0.84409000  1
  Cu  Cu34  1  0.95374000  0.66378700  0.84409000  1
  Cu  Cu35  1  0.45374000  0.83621300  0.15591000  1
  Cu  Cu36  1  0.98205000  0.28758600  0.05277300  1
  Cu  Cu37  1  0.48205000  0.21241400  0.94722700  1
  Cu  Cu38  1  0.01795000  0.71241400  0.94722700  1
  Cu  Cu39  1  0.51795000  0.78758600  0.05277300  1
  Cu  Cu40  1  0.29305700  0.15208100  0.07339100  1
  Cu  Cu41  1  0.79305700  0.34791900  0.92660900  1
  Cu  Cu42  1  0.70694300  0.84791900  0.92660900  1
  Cu  Cu43  1  0.20694300  0.65208100  0.07339100  1
  Cu  Cu44  1  0.16703000  0.05100900  0.15380700  1
  Cu  Cu45  1  0.66703000  0.44899100  0.84619300  1
  Cu  Cu46  1  0.83297000  0.94899100  0.84619300  1
  Cu  Cu47  1  0.33297000  0.55100900  0.15380700  1
  C  C48  1  0.45088700  0.23713100  0.26879500  1
  C  C49  1  0.95088700  0.26286900  0.73120500  1
  C  C50  1  0.54911300  0.76286900  0.73120500  1
  C  C51  1  0.04911300  0.73713100  0.26879500  1
  C  C52  1  0.65928200  0.42665100  0.13920500  1
  C  C53  1  0.15928200  0.07334900  0.86079500  1
  C  C54  1  0.34071800  0.57334900  0.86079500  1
  C  C55  1  0.84071800  0.92665100  0.13920500  1
  C  C56  1  0.69078700  0.15636100  0.13285200  1
  C  C57  1  0.19078700  0.34363900  0.86714800  1
  C  C58  1  0.30921300  0.84363900  0.86714800  1
  C  C59  1  0.80921300  0.65636100  0.13285200  1
  C  C60  1  0.41048300  0.29300200  0.04728100  1
  C  C61  1  0.91048300  0.20699800  0.95271900  1
  C  C62  1  0.58951700  0.70699800  0.95271900  1
  C  C63  1  0.08951700  0.79300200  0.04728100  1
  C  C64  1  0.45306300  0.26110500  0.47741200  1
  C  C65  1  0.95306300  0.23889500  0.52258800  1
  C  C66  1  0.54693700  0.73889500  0.52258800  1
  C  C67  1  0.04693700  0.76110500  0.47741200  1
  C  C68  1  0.83975700  0.44355800  0.35458200  1
  C  C69  1  0.33975700  0.05644200  0.64541800  1
  C  C70  1  0.16024300  0.55644200  0.64541800  1
  C  C71  1  0.66024300  0.94355800  0.35458200  1
  C  C72  1  0.79102300  0.17779400  0.34545900  1
  C  C73  1  0.29102300  0.32220600  0.65454100  1
  C  C74  1  0.20897700  0.82220600  0.65454100  1
  C  C75  1  0.70897700  0.67779400  0.34545900  1
  C  C76  1  0.10611300  0.28145200  0.31744900  1
  C  C77  1  0.60611300  0.21854800  0.68255100  1
  C  C78  1  0.89388700  0.71854800  0.68255100  1
  C  C79  1  0.39388700  0.78145200  0.31744900  1
  C  C80  1  0.02913600  0.36324800  0.07824200  1
  C  C81  1  0.52913600  0.13675200  0.92175800  1
  C  C82  1  0.97086400  0.63675200  0.92175800  1
  C  C83  1  0.47086400  0.86324800  0.07824200  1
  C  C84  1  0.16228300  0.48578900  0.44392400  1
  C  C85  1  0.66228300  0.01421100  0.55607600  1
  C  C86  1  0.83771700  0.51421100  0.55607600  1
  C  C87  1  0.33771700  0.98578900  0.44392400  1
  C  C88  1  0.07968000  0.03258100  0.26778200  1
  C  C89  1  0.57968000  0.46741900  0.73221800  1
  C  C90  1  0.92032000  0.96741900  0.73221800  1
  C  C91  1  0.42032000  0.53258100  0.26778200  1
  C  C92  1  0.22699400  0.06848900  0.08311700  1
  C  C93  1  0.72699400  0.43151100  0.91688300  1
  C  C94  1  0.77300600  0.93151100  0.91688300  1
  C  C95  1  0.27300600  0.56848900  0.08311700  1
