# generated using pymatgen
data_Cu2Ni2C9
_symmetry_space_group_name_H-M   'P 1'
_cell_length_a   5.58139900
_cell_length_b   10.71015100
_cell_length_c   10.82619600
_cell_angle_alpha   90.00000000
_cell_angle_beta   90.00000000
_cell_angle_gamma   90.00000000
_symmetry_Int_Tables_number   1
_chemical_formula_structural   Cu2Ni2C9
_chemical_formula_sum   'Cu4 Ni4 C18'
_cell_volume   647.16429637
_cell_formula_units_Z   2
loop_
 _symmetry_equiv_pos_site_id
 _symmetry_equiv_pos_as_xyz
  1  'x, y, z'
loop_
 _atom_site_type_symbol
 _atom_site_label
 _atom_site_symmetry_multiplicity
 _atom_site_fract_x
 _atom_site_fract_y
 _atom_site_fract_z
 _atom_site_occupancy
  Ni  Ni0  1  0.50000000  0.57274200  0.25000000  1
  Ni  Ni1  1  0.50000000  0.42725800  0.75000000  1
  Ni  Ni2  1  0.50000000  0.02749500  0.25000000  1
  Ni  Ni3  1  0.50000000  0.97250500  0.75000000  1
  Cu  Cu4  1  0.00000000  0.25278200  0.49209100  1
  Cu  Cu5  1  0.00000000  0.74721800  0.50790900  1
  Cu  Cu6  1  0.00000000  0.25278200  0.00790900  1
  Cu  Cu7  1  0.00000000  0.74721800  0.99209100  1
  C  C8  1  0.00000000  0.68459100  0.25000000  1
  C  C9  1  0.00000000  0.31540900  0.75000000  1
  C  C10  1  0.50000000  0.19058900  0.94707200  1
  C  C11  1  0.50000000  0.80941100  0.05292800  1
  C  C12  1  0.50000000  0.19058900  0.55292800  1
  C  C13  1  0.50000000  0.80941100  0.44707200  1
  C  C14  1  0.00000000  0.00096200  0.37604300  1
  C  C15  1  0.00000000  0.99903800  0.62395700  1
  C  C16  1  0.00000000  0.00096200  0.12395700  1
  C  C17  1  0.00000000  0.99903800  0.87604300  1
  C  C18  1  0.75198400  0.50000000  0.50000000  1
  C  C19  1  0.75198400  0.50000000  0.00000000  1
  C  C20  1  0.24801600  0.50000000  0.50000000  1
  C  C21  1  0.24801600  0.50000000  0.00000000  1
  C  C22  1  0.75116000  0.28631400  0.25000000  1
  C  C23  1  0.75116000  0.71368600  0.75000000  1
  C  C24  1  0.24884000  0.71368600  0.75000000  1
  C  C25  1  0.24884000  0.28631400  0.25000000  1
