# generated using pymatgen
data_Cu3Ni2C
_symmetry_space_group_name_H-M   'P 1'
_cell_length_a   5.09210227
_cell_length_b   5.09210227
_cell_length_c   7.79540300
_cell_angle_alpha   90.00000000
_cell_angle_beta   90.00000000
_cell_angle_gamma   120.00000348
_symmetry_Int_Tables_number   1
_chemical_formula_structural   Cu3Ni2C
_chemical_formula_sum   'Cu6 Ni4 C2'
_cell_volume   175.05052713
_cell_formula_units_Z   2
loop_
 _symmetry_equiv_pos_site_id
 _symmetry_equiv_pos_as_xyz
  1  'x, y, z'
loop_
 _atom_site_type_symbol
 _atom_site_label
 _atom_site_symmetry_multiplicity
 _atom_site_fract_x
 _atom_site_fract_y
 _atom_site_fract_z
 _atom_site_occupancy
  Ni  Ni0  1  0.33333300  0.66666700  0.43860400  1
  Ni  Ni1  1  0.66666700  0.33333300  0.56139600  1
  Ni  Ni2  1  0.66666700  0.33333300  0.93860400  1
  Ni  Ni3  1  0.33333300  0.66666700  0.06139600  1
  C  C4  1  0.00000000  0.00000000  0.50000000  1
  C  C5  1  0.00000000  0.00000000  0.00000000  1
  Cu  Cu6  1  0.82812100  0.17187900  0.25000000  1
  Cu  Cu7  1  0.82812100  0.65624200  0.25000000  1
  Cu  Cu8  1  0.34375800  0.17187900  0.25000000  1
  Cu  Cu9  1  0.17187900  0.82812100  0.75000000  1
  Cu  Cu10  1  0.17187900  0.34375800  0.75000000  1
  Cu  Cu11  1  0.65624200  0.82812100  0.75000000  1
