# generated using pymatgen
data_Cu3Ni3C4
_symmetry_space_group_name_H-M   'P 1'
_cell_length_a   5.89189804
_cell_length_b   5.89189804
_cell_length_c   3.00590400
_cell_angle_alpha   90.00000000
_cell_angle_beta   90.00000000
_cell_angle_gamma   90.11389842
_symmetry_Int_Tables_number   1
_chemical_formula_structural   Cu3Ni3C4
_chemical_formula_sum   'Cu3 Ni3 C4'
_cell_volume   104.34813554
_cell_formula_units_Z   1
loop_
 _symmetry_equiv_pos_site_id
 _symmetry_equiv_pos_as_xyz
  1  'x, y, z'
loop_
 _atom_site_type_symbol
 _atom_site_label
 _atom_site_symmetry_multiplicity
 _atom_site_fract_x
 _atom_site_fract_y
 _atom_site_fract_z
 _atom_site_occupancy
  Ni  Ni0  1  0.32619800  0.32619800  0.50000000  1
  Ni  Ni1  1  0.16865100  0.83278800  0.50000000  1
  Ni  Ni2  1  0.83278800  0.16865100  0.50000000  1
  C  C3  1  0.11200600  0.11200600  0.00000000  1
  C  C4  1  0.89382900  0.89382900  0.00000000  1
  C  C5  1  0.61055500  0.38034200  0.00000000  1
  C  C6  1  0.38034200  0.61055500  0.00000000  1
  Cu  Cu7  1  0.49579800  0.00586100  0.00000000  1
  Cu  Cu8  1  0.00586100  0.49579800  0.00000000  1
  Cu  Cu9  1  0.67397400  0.67397400  0.50000000  1
