# generated using pymatgen
data_CuNi3C8
_symmetry_space_group_name_H-M   'P 1'
_cell_length_a   8.95605800
_cell_length_b   6.75107700
_cell_length_c   12.30671990
_cell_angle_alpha   57.83988576
_cell_angle_beta   90.00000000
_cell_angle_gamma   90.00000000
_symmetry_Int_Tables_number   1
_chemical_formula_structural   CuNi3C8
_chemical_formula_sum   'Cu4 Ni12 C32'
_cell_volume   629.92961807
_cell_formula_units_Z   4
loop_
 _symmetry_equiv_pos_site_id
 _symmetry_equiv_pos_as_xyz
  1  'x, y, z'
loop_
 _atom_site_type_symbol
 _atom_site_label
 _atom_site_symmetry_multiplicity
 _atom_site_fract_x
 _atom_site_fract_y
 _atom_site_fract_z
 _atom_site_occupancy
  Ni  Ni0  1  0.93729700  0.61302400  0.60657500  1
  Ni  Ni1  1  0.06270300  0.38697600  0.39342500  1
  Ni  Ni2  1  0.43729700  0.38697600  0.89342500  1
  Ni  Ni3  1  0.56270300  0.61302400  0.10657500  1
  Ni  Ni4  1  0.23662600  0.81802900  0.65751000  1
  Ni  Ni5  1  0.76337400  0.18197100  0.34249000  1
  Ni  Ni6  1  0.73662600  0.18197100  0.84249000  1
  Ni  Ni7  1  0.26337400  0.81802900  0.15751000  1
  Ni  Ni8  1  0.31118500  0.41809100  0.60301200  1
  Ni  Ni9  1  0.68881500  0.58190900  0.39698800  1
  Ni  Ni10  1  0.81118500  0.58190900  0.89698800  1
  Ni  Ni11  1  0.18881500  0.41809100  0.10301200  1
  Cu  Cu12  1  0.11337000  0.98514000  0.85470400  1
  Cu  Cu13  1  0.88663000  0.01486000  0.14529600  1
  Cu  Cu14  1  0.61337000  0.01486000  0.64529600  1
  Cu  Cu15  1  0.38663000  0.98514000  0.35470400  1
  C  C16  1  0.09865700  0.41790200  0.86075000  1
  C  C17  1  0.90134300  0.58209800  0.13925000  1
  C  C18  1  0.59865700  0.58209800  0.63925000  1
  C  C19  1  0.40134300  0.41790200  0.36075000  1
  C  C20  1  0.43192200  0.87007600  0.87484800  1
  C  C21  1  0.56807800  0.12992400  0.12515200  1
  C  C22  1  0.93192200  0.12992400  0.62515200  1
  C  C23  1  0.06807800  0.87007600  0.37484800  1
  C  C24  1  0.36439900  0.98802600  0.75277500  1
  C  C25  1  0.63560100  0.01197400  0.24722500  1
  C  C26  1  0.86439900  0.01197400  0.74722500  1
  C  C27  1  0.13560100  0.98802600  0.25277500  1
  C  C28  1  0.10107600  0.61302100  0.86910400  1
  C  C29  1  0.89892400  0.38697900  0.13089600  1
  C  C30  1  0.60107600  0.38697900  0.63089600  1
  C  C31  1  0.39892400  0.61302100  0.36910400  1
  C  C32  1  0.34853600  0.82345600  0.98080700  1
  C  C33  1  0.65146400  0.17654400  0.01919300  1
  C  C34  1  0.84853600  0.17654400  0.51919300  1
  C  C35  1  0.15146400  0.82345600  0.48080700  1
  C  C36  1  0.48171700  0.74631600  0.58538300  1
  C  C37  1  0.51828300  0.25368400  0.41461700  1
  C  C38  1  0.98171700  0.25368400  0.91461700  1
  C  C39  1  0.01828300  0.74631600  0.08538300  1
  C  C40  1  0.07995200  0.19946600  0.61557400  1
  C  C41  1  0.92004800  0.80053400  0.38442600  1
  C  C42  1  0.57995200  0.80053400  0.88442600  1
  C  C43  1  0.42004800  0.19946600  0.11557400  1
  C  C44  1  0.21094600  0.37976600  0.79508000  1
  C  C45  1  0.78905400  0.62023400  0.20492000  1
  C  C46  1  0.71094600  0.62023400  0.70492000  1
  C  C47  1  0.28905400  0.37976600  0.29508000  1
