# generated using pymatgen
data_Cu7(Ni3C8)2
_symmetry_space_group_name_H-M   'P 1'
_cell_length_a   8.48091287
_cell_length_b   8.48091287
_cell_length_c   8.48091287
_cell_angle_alpha   60.00000000
_cell_angle_beta   60.00000000
_cell_angle_gamma   60.00000000
_symmetry_Int_Tables_number   1
_chemical_formula_structural   Cu7(Ni3C8)2
_chemical_formula_sum   'Cu7 Ni6 C16'
_cell_volume   431.33311945
_cell_formula_units_Z   1
loop_
 _symmetry_equiv_pos_site_id
 _symmetry_equiv_pos_as_xyz
  1  'x, y, z'
loop_
 _atom_site_type_symbol
 _atom_site_label
 _atom_site_symmetry_multiplicity
 _atom_site_fract_x
 _atom_site_fract_y
 _atom_site_fract_z
 _atom_site_occupancy
  Ni  Ni0  1  0.69179300  0.69179300  0.30820700  1
  Ni  Ni1  1  0.30820700  0.69179300  0.30820700  1
  Ni  Ni2  1  0.69179300  0.30820700  0.30820700  1
  Ni  Ni3  1  0.30820700  0.30820700  0.69179300  1
  Ni  Ni4  1  0.69179300  0.30820700  0.69179300  1
  Ni  Ni5  1  0.30820700  0.69179300  0.69179300  1
  C  C6  1  0.88156000  0.88156000  0.35531900  1
  C  C7  1  0.88156000  0.35531900  0.88156000  1
  C  C8  1  0.35531900  0.88156000  0.88156000  1
  C  C9  1  0.88156000  0.88156000  0.88156000  1
  C  C10  1  0.11844000  0.11844000  0.64468100  1
  C  C11  1  0.11844000  0.64468100  0.11844000  1
  C  C12  1  0.64468100  0.11844000  0.11844000  1
  C  C13  1  0.11844000  0.11844000  0.11844000  1
  C  C14  1  0.66469300  0.66469300  0.00592100  1
  C  C15  1  0.66469300  0.00592100  0.66469300  1
  C  C16  1  0.00592100  0.66469300  0.66469300  1
  C  C17  1  0.66469300  0.66469300  0.66469300  1
  C  C18  1  0.33530700  0.33530700  0.99407900  1
  C  C19  1  0.33530700  0.99407900  0.33530700  1
  C  C20  1  0.99407900  0.33530700  0.33530700  1
  C  C21  1  0.33530700  0.33530700  0.33530700  1
  Cu  Cu22  1  0.00000000  0.00000000  0.00000000  1
  Cu  Cu23  1  0.00000000  0.00000000  0.50000000  1
  Cu  Cu24  1  0.50000000  0.00000000  0.50000000  1
  Cu  Cu25  1  0.00000000  0.50000000  0.50000000  1
  Cu  Cu26  1  0.50000000  0.50000000  0.00000000  1
  Cu  Cu27  1  0.00000000  0.50000000  0.00000000  1
  Cu  Cu28  1  0.50000000  0.00000000  0.00000000  1
