# generated using pymatgen
data_Cu8Ni2C3
_symmetry_space_group_name_H-M   'P 1'
_cell_length_a   10.90216830
_cell_length_b   10.69921718
_cell_length_c   6.99035842
_cell_angle_alpha   72.70042471
_cell_angle_beta   69.55196951
_cell_angle_gamma   37.74760579
_symmetry_Int_Tables_number   1
_chemical_formula_structural   Cu8Ni2C3
_chemical_formula_sum   'Cu16 Ni4 C6'
_cell_volume   467.39756569
_cell_formula_units_Z   2
loop_
 _symmetry_equiv_pos_site_id
 _symmetry_equiv_pos_as_xyz
  1  'x, y, z'
loop_
 _atom_site_type_symbol
 _atom_site_label
 _atom_site_symmetry_multiplicity
 _atom_site_fract_x
 _atom_site_fract_y
 _atom_site_fract_z
 _atom_site_occupancy
  C  C0  1  0.35806400  0.14193600  0.35806400  1
  C  C1  1  0.10806400  0.89193600  0.10806400  1
  C  C2  1  0.30834200  0.04266200  0.93163700  1
  C  C3  1  0.53264100  0.31836300  0.20733800  1
  C  C4  1  0.20733800  0.94165800  0.53264100  1
  C  C5  1  0.93163700  0.71735900  0.30834200  1
  Ni  Ni6  1  0.89334700  0.82115700  0.65535900  1
  Ni  Ni7  1  0.61986300  0.59464100  0.42884300  1
  Ni  Ni8  1  0.42884300  0.35665300  0.61986300  1
  Ni  Ni9  1  0.65535900  0.63013700  0.89334700  1
  Cu  Cu10  1  0.35609400  0.08334700  0.70751700  1
  Cu  Cu11  1  0.39695800  0.54248300  0.16665300  1
  Cu  Cu12  1  0.75680800  0.18062700  0.17917900  1
  Cu  Cu13  1  0.36661400  0.07082100  0.06937300  1
  Cu  Cu14  1  0.17917900  0.88338600  0.75680800  1
  Cu  Cu15  1  0.06937300  0.49319200  0.36661400  1
  Cu  Cu16  1  0.70751700  0.85304200  0.35609400  1
  Cu  Cu17  1  0.16665300  0.89390600  0.39695800  1
  Cu  Cu18  1  0.10452000  0.12806300  0.00832700  1
  Cu  Cu19  1  0.45511600  0.79026800  0.96168800  1
  Cu  Cu20  1  0.49091000  0.24167300  0.12193700  1
  Cu  Cu21  1  0.45707200  0.28831200  0.45973200  1
  Cu  Cu22  1  0.45973200  0.79488400  0.45707200  1
  Cu  Cu23  1  0.12193700  0.14548000  0.49091000  1
  Cu  Cu24  1  0.96168800  0.79292800  0.45511600  1
  Cu  Cu25  1  0.00832700  0.75909000  0.10452000  1
