# generated using pymatgen
data_CuNiC12
_symmetry_space_group_name_H-M   'P 1'
_cell_length_a   6.43820400
_cell_length_b   7.61643900
_cell_length_c   14.34196700
_cell_angle_alpha   90.00000000
_cell_angle_beta   90.00000000
_cell_angle_gamma   90.00000000
_symmetry_Int_Tables_number   1
_chemical_formula_structural   CuNiC12
_chemical_formula_sum   'Cu4 Ni4 C48'
_cell_volume   703.27539061
_cell_formula_units_Z   4
loop_
 _symmetry_equiv_pos_site_id
 _symmetry_equiv_pos_as_xyz
  1  'x, y, z'
loop_
 _atom_site_type_symbol
 _atom_site_label
 _atom_site_symmetry_multiplicity
 _atom_site_fract_x
 _atom_site_fract_y
 _atom_site_fract_z
 _atom_site_occupancy
  C  C0  1  0.25000000  0.43949900  0.78051800  1
  C  C1  1  0.25000000  0.06050100  0.28051800  1
  C  C2  1  0.75000000  0.56050100  0.21948200  1
  C  C3  1  0.75000000  0.93949900  0.71948200  1
  Ni  Ni4  1  0.00000000  0.50000000  0.00000000  1
  Ni  Ni5  1  0.00000000  0.00000000  0.50000000  1
  Ni  Ni6  1  0.50000000  0.00000000  0.50000000  1
  Ni  Ni7  1  0.50000000  0.50000000  0.00000000  1
  Cu  Cu8  1  0.25000000  0.85627200  0.88478500  1
  Cu  Cu9  1  0.75000000  0.14372800  0.11521500  1
  Cu  Cu10  1  0.75000000  0.35627200  0.61521500  1
  Cu  Cu11  1  0.25000000  0.64372800  0.38478500  1
  C  C12  1  0.75000000  0.84668100  0.92750700  1
  C  C13  1  0.25000000  0.15331900  0.07249300  1
  C  C14  1  0.25000000  0.34668100  0.57249300  1
  C  C15  1  0.75000000  0.65331900  0.42750700  1
  C  C16  1  0.25000000  0.87678200  0.69234600  1
  C  C17  1  0.75000000  0.12321800  0.30765400  1
  C  C18  1  0.75000000  0.37678200  0.80765400  1
  C  C19  1  0.25000000  0.62321800  0.19234600  1
  C  C20  1  0.54175300  0.11506900  0.36220100  1
  C  C21  1  0.04175300  0.88493100  0.63779900  1
  C  C22  1  0.45824700  0.61506900  0.13779900  1
  C  C23  1  0.95824700  0.38493100  0.86220100  1
  C  C24  1  0.45824700  0.88493100  0.63779900  1
  C  C25  1  0.95824700  0.11506900  0.36220100  1
  C  C26  1  0.54175300  0.38493100  0.86220100  1
  C  C27  1  0.04175300  0.61506900  0.13779900  1
  C  C28  1  0.75000000  0.83565500  0.47237900  1
  C  C29  1  0.25000000  0.16434500  0.52762100  1
  C  C30  1  0.25000000  0.33565500  0.02762100  1
  C  C31  1  0.75000000  0.66434500  0.97237900  1
  C  C32  1  0.25000000  0.63096800  0.94369500  1
  C  C33  1  0.75000000  0.36903200  0.05630500  1
  C  C34  1  0.75000000  0.13096800  0.55630500  1
  C  C35  1  0.25000000  0.86903200  0.44369500  1
  C  C36  1  0.25000000  0.70433100  0.75565700  1
  C  C37  1  0.75000000  0.29566900  0.24434300  1
  C  C38  1  0.75000000  0.20433100  0.74434300  1
  C  C39  1  0.25000000  0.79566900  0.25565700  1
  C  C40  1  0.93299900  0.62706400  0.35871600  1
  C  C41  1  0.43299900  0.37293600  0.64128400  1
  C  C42  1  0.06700100  0.12706400  0.14128400  1
  C  C43  1  0.56700100  0.87293600  0.85871600  1
  C  C44  1  0.06700100  0.37293600  0.64128400  1
  C  C45  1  0.56700100  0.62706400  0.35871600  1
  C  C46  1  0.93299900  0.87293600  0.85871600  1
  C  C47  1  0.43299900  0.12706400  0.14128400  1
  C  C48  1  0.25000000  0.47716400  0.26827600  1
  C  C49  1  0.75000000  0.52283600  0.73172400  1
  C  C50  1  0.75000000  0.97716400  0.23172400  1
  C  C51  1  0.25000000  0.02283600  0.76827600  1
  C  C52  1  0.25000000  0.48634000  0.49527500  1
  C  C53  1  0.75000000  0.51366000  0.50472500  1
  C  C54  1  0.75000000  0.98634000  0.00472500  1
  C  C55  1  0.25000000  0.01366000  0.99527500  1
