# generated using pymatgen
data_Cu6Ni3C7
_symmetry_space_group_name_H-M   'P 1'
_cell_length_a   12.00821700
_cell_length_b   11.69814100
_cell_length_c   15.23776654
_cell_angle_alpha   50.01291562
_cell_angle_beta   90.00000000
_cell_angle_gamma   90.00000000
_symmetry_Int_Tables_number   1
_chemical_formula_structural   Cu6Ni3C7
_chemical_formula_sum   'Cu48 Ni24 C56'
_cell_volume   1640.03376405
_cell_formula_units_Z   8
loop_
 _symmetry_equiv_pos_site_id
 _symmetry_equiv_pos_as_xyz
  1  'x, y, z'
loop_
 _atom_site_type_symbol
 _atom_site_label
 _atom_site_symmetry_multiplicity
 _atom_site_fract_x
 _atom_site_fract_y
 _atom_site_fract_z
 _atom_site_occupancy
  C  C0  1  0.68679800  0.44937100  0.80348700  1
  C  C1  1  0.81320200  0.44937100  0.30348700  1
  C  C2  1  0.31320200  0.55062900  0.19651300  1
  C  C3  1  0.18679800  0.55062900  0.69651300  1
  C  C4  1  0.70335700  0.96177900  0.31024300  1
  C  C5  1  0.79664300  0.96177900  0.81024300  1
  C  C6  1  0.29664300  0.03822100  0.68975700  1
  C  C7  1  0.20335700  0.03822100  0.18975700  1
  Ni  Ni8  1  0.47340100  0.95585000  0.19177300  1
  Ni  Ni9  1  0.02659900  0.95585000  0.69177300  1
  Ni  Ni10  1  0.52659900  0.04415000  0.80822700  1
  Ni  Ni11  1  0.97340100  0.04415000  0.30822700  1
  Ni  Ni12  1  0.72380700  0.10555200  0.43469100  1
  Ni  Ni13  1  0.77619300  0.10555200  0.93469100  1
  Ni  Ni14  1  0.27619300  0.89444800  0.56530900  1
  Ni  Ni15  1  0.22380700  0.89444800  0.06530900  1
  Ni  Ni16  1  0.84068200  0.76225100  0.26140700  1
  Ni  Ni17  1  0.65931800  0.76225100  0.76140700  1
  Ni  Ni18  1  0.15931800  0.23774900  0.73859300  1
  Ni  Ni19  1  0.34068200  0.23774900  0.23859300  1
  Ni  Ni20  1  0.58210800  0.65810700  0.54569600  1
  Ni  Ni21  1  0.91789200  0.65810700  0.04569600  1
  Ni  Ni22  1  0.41789200  0.34189300  0.45430400  1
  Ni  Ni23  1  0.08210800  0.34189300  0.95430400  1
  Ni  Ni24  1  0.91323700  0.61435900  0.65583700  1
  Ni  Ni25  1  0.58676300  0.61435900  0.15583700  1
  Ni  Ni26  1  0.08676300  0.38564100  0.34416300  1
  Ni  Ni27  1  0.41323700  0.38564100  0.84416300  1
  Ni  Ni28  1  0.70675200  0.31443900  0.07280300  1
  Ni  Ni29  1  0.79324800  0.31443900  0.57280300  1
  Ni  Ni30  1  0.29324800  0.68556100  0.92719700  1
  Ni  Ni31  1  0.20675200  0.68556100  0.42719700  1
  Cu  Cu32  1  0.53923800  0.00190600  0.09668400  1
  Cu  Cu33  1  0.96076200  0.00190600  0.59668400  1
  Cu  Cu34  1  0.46076200  0.99809400  0.90331600  1
  Cu  Cu35  1  0.03923800  0.99809400  0.40331600  1
  Cu  Cu36  1  0.45184100  0.80282700  0.25129400  1
  Cu  Cu37  1  0.04815900  0.80282700  0.75129400  1
  Cu  Cu38  1  0.54815900  0.19717300  0.74870600  1
  Cu  Cu39  1  0.95184100  0.19717300  0.24870600  1
  Cu  Cu40  1  0.64257500  0.12769100  0.48985700  1
  Cu  Cu41  1  0.85742500  0.12769100  0.98985700  1
  Cu  Cu42  1  0.35742500  0.87230900  0.51014300  1
  Cu  Cu43  1  0.14257500  0.87230900  0.01014300  1
  Cu  Cu44  1  0.77796500  0.97174600  0.52514900  1
  Cu  Cu45  1  0.72203500  0.97174600  0.02514900  1
  Cu  Cu46  1  0.22203500  0.02825400  0.47485100  1
  Cu  Cu47  1  0.27796500  0.02825400  0.97485100  1
  Cu  Cu48  1  0.92592500  0.86538300  0.19036500  1
  Cu  Cu49  1  0.57407500  0.86538300  0.69036500  1
  Cu  Cu50  1  0.07407500  0.13461700  0.80963500  1
  Cu  Cu51  1  0.42592500  0.13461700  0.30963500  1
  Cu  Cu52  1  0.88722000  0.66825000  0.37304200  1
  Cu  Cu53  1  0.61278000  0.66825000  0.87304200  1
  Cu  Cu54  1  0.11278000  0.33175000  0.62695800  1
  Cu  Cu55  1  0.38722000  0.33175000  0.12695800  1
  Cu  Cu56  1  0.50796400  0.72904200  0.56951700  1
  Cu  Cu57  1  0.99203600  0.72904200  0.06951700  1
  Cu  Cu58  1  0.49203600  0.27095800  0.43048300  1
  Cu  Cu59  1  0.00796400  0.27095800  0.93048300  1
  Cu  Cu60  1  0.51680000  0.62557200  0.48678800  1
  Cu  Cu61  1  0.98320000  0.62557200  0.98678800  1
  Cu  Cu62  1  0.48320000  0.37442800  0.51321200  1
  Cu  Cu63  1  0.01680000  0.37442800  0.01321200  1
  Cu  Cu64  1  0.85595100  0.70579700  0.55010500  1
  Cu  Cu65  1  0.64404900  0.70579700  0.05010500  1
  Cu  Cu66  1  0.14404900  0.29420300  0.44989500  1
  Cu  Cu67  1  0.35595100  0.29420300  0.94989500  1
  Cu  Cu68  1  0.92295000  0.70192800  0.68975800  1
  Cu  Cu69  1  0.57705000  0.70192800  0.18975800  1
  Cu  Cu70  1  0.07705000  0.29807200  0.31024200  1
  Cu  Cu71  1  0.42295000  0.29807200  0.81024200  1
  Cu  Cu72  1  0.59000900  0.32718900  0.07807900  1
  Cu  Cu73  1  0.90999100  0.32718900  0.57807900  1
  Cu  Cu74  1  0.40999100  0.67281100  0.92192100  1
  Cu  Cu75  1  0.09000900  0.67281100  0.42192100  1
  Cu  Cu76  1  0.75457300  0.37916200  0.11659200  1
  Cu  Cu77  1  0.74542700  0.37916200  0.61659200  1
  Cu  Cu78  1  0.24542700  0.62083800  0.88340800  1
  Cu  Cu79  1  0.25457300  0.62083800  0.38340800  1
  C  C80  1  0.02855000  0.58170300  0.63408300  1
  C  C81  1  0.47145000  0.58170300  0.13408300  1
  C  C82  1  0.97145000  0.41829700  0.36591700  1
  C  C83  1  0.52855000  0.41829700  0.86591700  1
  C  C84  1  0.36551800  0.04544100  0.14172000  1
  C  C85  1  0.13448200  0.04544100  0.64172000  1
  C  C86  1  0.63448200  0.95455900  0.85828000  1
  C  C87  1  0.86551800  0.95455900  0.35828000  1
  C  C88  1  0.81090200  0.22930200  0.37714100  1
  C  C89  1  0.68909800  0.22930200  0.87714100  1
  C  C90  1  0.18909800  0.77069800  0.62285900  1
  C  C91  1  0.31090200  0.77069800  0.12285900  1
  C  C92  1  0.67584600  0.76478000  0.46841500  1
  C  C93  1  0.82415400  0.76478000  0.96841500  1
  C  C94  1  0.32415400  0.23522000  0.53158500  1
  C  C95  1  0.17584600  0.23522000  0.03158500  1
  C  C96  1  0.61830400  0.50633400  0.65707600  1
  C  C97  1  0.88169600  0.50633400  0.15707600  1
  C  C98  1  0.38169600  0.49366600  0.34292400  1
  C  C99  1  0.11830400  0.49366600  0.84292400  1
  C  C100  1  0.81713600  0.67248900  0.22262100  1
  C  C101  1  0.68286400  0.67248900  0.72262100  1
  C  C102  1  0.18286400  0.32751100  0.77737900  1
  C  C103  1  0.31713600  0.32751100  0.27737900  1
  C  C104  1  0.84395700  0.47486200  0.74608600  1
  C  C105  1  0.65604300  0.47486200  0.24608600  1
  C  C106  1  0.15604300  0.52513800  0.25391400  1
  C  C107  1  0.34395700  0.52513800  0.75391400  1
  C  C108  1  0.53868400  0.97101300  0.26961900  1
  C  C109  1  0.96131600  0.97101300  0.76961900  1
  C  C110  1  0.46131600  0.02898700  0.73038100  1
  C  C111  1  0.03868400  0.02898700  0.23038100  1
  C  C112  1  0.74294300  0.40923800  0.94744900  1
  C  C113  1  0.75705700  0.40923800  0.44744900  1
  C  C114  1  0.25705700  0.59076200  0.05255100  1
  C  C115  1  0.24294300  0.59076200  0.55255100  1
  C  C116  1  0.66143800  0.08336900  0.35878600  1
  C  C117  1  0.83856200  0.08336900  0.85878600  1
  C  C118  1  0.33856200  0.91663100  0.64121400  1
  C  C119  1  0.16143800  0.91663100  0.14121400  1
  C  C120  1  0.73995700  0.14995400  0.14948400  1
  C  C121  1  0.76004300  0.14995400  0.64948400  1
  C  C122  1  0.26004300  0.85004600  0.85051600  1
  C  C123  1  0.23995700  0.85004600  0.35051600  1
  C  C124  1  0.73973800  0.84498100  0.25724900  1
  C  C125  1  0.76026200  0.84498100  0.75724900  1
  C  C126  1  0.26026200  0.15501900  0.74275100  1
  C  C127  1  0.23973800  0.15501900  0.24275100  1
