# generated using pymatgen
data_CuNi4C21
_symmetry_space_group_name_H-M   'P 1'
_cell_length_a   8.32843838
_cell_length_b   8.32843838
_cell_length_c   16.70065287
_cell_angle_alpha   91.88738148
_cell_angle_beta   91.88738148
_cell_angle_gamma   112.65763650
_symmetry_Int_Tables_number   1
_chemical_formula_structural   CuNi4C21
_chemical_formula_sum   'Cu4 Ni16 C84'
_cell_volume   1067.11558673
_cell_formula_units_Z   4
loop_
 _symmetry_equiv_pos_site_id
 _symmetry_equiv_pos_as_xyz
  1  'x, y, z'
loop_
 _atom_site_type_symbol
 _atom_site_label
 _atom_site_symmetry_multiplicity
 _atom_site_fract_x
 _atom_site_fract_y
 _atom_site_fract_z
 _atom_site_occupancy
  C  C0  1  0.75606100  0.51578000  0.29527200  1
  C  C1  1  0.48422000  0.24393900  0.20472800  1
  C  C2  1  0.24393900  0.48422000  0.70472800  1
  C  C3  1  0.51578000  0.75606100  0.79527200  1
  C  C4  1  0.72822100  0.73795500  0.36103900  1
  C  C5  1  0.26204500  0.27177900  0.13896100  1
  C  C6  1  0.27177900  0.26204500  0.63896100  1
  C  C7  1  0.73795500  0.72822100  0.86103900  1
  C  C8  1  0.03442100  0.56245600  0.31629600  1
  C  C9  1  0.43754300  0.96557900  0.18370400  1
  C  C10  1  0.96557900  0.43754400  0.68370400  1
  C  C11  1  0.56245600  0.03442100  0.81629600  1
  C  C12  1  0.77967500  0.63214600  0.39421200  1
  C  C13  1  0.36785400  0.22032500  0.10578800  1
  C  C14  1  0.22032500  0.36785400  0.60578800  1
  C  C15  1  0.63214600  0.77967500  0.89421200  1
  C  C16  1  0.85142700  0.87403300  0.35759800  1
  C  C17  1  0.12596700  0.14857300  0.14240200  1
  C  C18  1  0.14857300  0.12596700  0.64240200  1
  C  C19  1  0.87403300  0.85142700  0.85759800  1
  C  C20  1  0.67472200  0.68595200  0.28929900  1
  C  C21  1  0.31404800  0.32527800  0.21070100  1
  C  C22  1  0.32527800  0.31404800  0.71070100  1
  C  C23  1  0.68595200  0.67472200  0.78929900  1
  C  C24  1  0.60109800  0.73657100  0.39380700  1
  C  C25  1  0.26342900  0.39890200  0.10619300  1
  C  C26  1  0.39890200  0.26342900  0.60619300  1
  C  C27  1  0.73657100  0.60109800  0.89380700  1
  C  C28  1  0.98254100  0.66737800  0.28253800  1
  C  C29  1  0.33262200  0.01745900  0.21746200  1
  C  C30  1  0.01745900  0.33262200  0.71746200  1
  C  C31  1  0.66737800  0.98254100  0.78253800  1
  C  C32  1  0.90695500  0.42155100  0.32710300  1
  C  C33  1  0.57844900  0.09304500  0.17289700  1
  C  C34  1  0.09304500  0.57844900  0.67289700  1
  C  C35  1  0.42155100  0.90695500  0.82710300  1
  C  C36  1  0.12351100  0.52313900  0.27064000  1
  C  C37  1  0.47686100  0.87648900  0.22936000  1
  C  C38  1  0.87648900  0.47686100  0.72936000  1
  C  C39  1  0.52313900  0.12351100  0.77064000  1
  C  C40  1  0.09463100  0.62461200  0.38205800  1
  C  C41  1  0.37538800  0.90536900  0.11794200  1
  C  C42  1  0.90536900  0.37538800  0.61794200  1
  C  C43  1  0.62461200  0.09463100  0.88205800  1
  C  C44  1  0.47743800  0.39474400  0.42667900  1
  C  C45  1  0.60525600  0.52256200  0.07332100  1
  C  C46  1  0.52256200  0.60525600  0.57332100  1
  C  C47  1  0.39474400  0.47743800  0.92667900  1
  C  C48  1  0.38991800  0.44376100  0.33843300  1
  C  C49  1  0.55623900  0.61008200  0.16156700  1
  C  C50  1  0.61008200  0.55623900  0.66156700  1
  C  C51  1  0.44376100  0.38991800  0.83843300  1
  C  C52  1  0.26480000  0.08041400  0.41013100  1
  C  C53  1  0.91958600  0.73520000  0.08986900  1
  C  C54  1  0.73520000  0.91958600  0.58986900  1
  C  C55  1  0.08041400  0.26480000  0.91013100  1
  C  C56  1  0.17890100  0.12699000  0.31908800  1
  C  C57  1  0.87301000  0.82109900  0.18091200  1
  C  C58  1  0.82109900  0.87301000  0.68091200  1
  C  C59  1  0.12699000  0.17890100  0.81908800  1
  C  C60  1  0.16377200  0.23218800  0.41080000  1
  C  C61  1  0.76781200  0.83622800  0.08920000  1
  C  C62  1  0.83622800  0.76781200  0.58920000  1
  C  C63  1  0.23218800  0.16377200  0.91080000  1
  C  C64  1  0.70404300  0.14914500  0.32363400  1
  C  C65  1  0.85085500  0.29595700  0.17636600  1
  C  C66  1  0.29595700  0.85085500  0.67636600  1
  C  C67  1  0.14914500  0.70404300  0.82363400  1
  C  C68  1  0.49436300  0.04709500  0.35793000  1
  C  C69  1  0.95290500  0.50563700  0.14207000  1
  C  C70  1  0.50563700  0.95290500  0.64207000  1
  C  C71  1  0.04709500  0.49436300  0.85793000  1
  C  C72  1  0.58189800  0.21951400  0.48885500  1
  C  C73  1  0.78048600  0.41810200  0.01114500  1
  C  C74  1  0.41810200  0.78048600  0.51114500  1
  C  C75  1  0.21951400  0.58189800  0.98885500  1
  C  C76  1  0.72827500  0.11975700  0.46421400  1
  C  C77  1  0.88024400  0.27172500  0.03578600  1
  C  C78  1  0.27172500  0.88024300  0.53578600  1
  C  C79  1  0.11975700  0.72827500  0.96421400  1
  C  C80  1  0.78982400  0.34643000  0.45377300  1
  C  C81  1  0.65357000  0.21017600  0.04622700  1
  C  C82  1  0.21017600  0.65357000  0.54622700  1
  C  C83  1  0.34643000  0.78982400  0.95377300  1
  Ni  Ni84  1  0.41884000  0.34006400  0.36712500  1
  Ni  Ni85  1  0.65993600  0.58116000  0.13287500  1
  Ni  Ni86  1  0.58116000  0.65993600  0.63287500  1
  Ni  Ni87  1  0.34006400  0.41884000  0.86712500  1
  Ni  Ni88  1  0.24816900  0.18492200  0.37658300  1
  Ni  Ni89  1  0.81507800  0.75183100  0.12341700  1
  Ni  Ni90  1  0.75183100  0.81507800  0.62341700  1
  Ni  Ni91  1  0.18492200  0.24816900  0.87658300  1
  Ni  Ni92  1  0.60661300  0.17222500  0.36008300  1
  Ni  Ni93  1  0.82777500  0.39338700  0.13991700  1
  Ni  Ni94  1  0.39338700  0.82777500  0.63991700  1
  Ni  Ni95  1  0.17222500  0.60661300  0.86008300  1
  Ni  Ni96  1  0.67989100  0.21944900  0.44647500  1
  Ni  Ni97  1  0.78055100  0.32010900  0.05352500  1
  Ni  Ni98  1  0.32010900  0.78055100  0.55352500  1
  Ni  Ni99  1  0.21944900  0.67989100  0.94647500  1
  Cu  Cu100  1  0.55308300  0.30437800  0.31995300  1
  Cu  Cu101  1  0.69562200  0.44691700  0.18004700  1
  Cu  Cu102  1  0.44691700  0.69562200  0.68004700  1
  Cu  Cu103  1  0.30437800  0.55308300  0.81995300  1
