# generated using pymatgen
data_CuNi3C10
_symmetry_space_group_name_H-M   'P 1'
_cell_length_a   6.08125944
_cell_length_b   6.08125944
_cell_length_c   7.80113100
_cell_angle_alpha   90.00000000
_cell_angle_beta   90.00000000
_cell_angle_gamma   119.99999390
_symmetry_Int_Tables_number   1
_chemical_formula_structural   CuNi3C10
_chemical_formula_sum   'Cu1 Ni3 C10'
_cell_volume   249.84766367
_cell_formula_units_Z   1
loop_
 _symmetry_equiv_pos_site_id
 _symmetry_equiv_pos_as_xyz
  1  'x, y, z'
loop_
 _atom_site_type_symbol
 _atom_site_label
 _atom_site_symmetry_multiplicity
 _atom_site_fract_x
 _atom_site_fract_y
 _atom_site_fract_z
 _atom_site_occupancy
  Ni  Ni0  1  0.66666700  0.33333300  0.34565900  1
  Ni  Ni1  1  0.00000000  0.00000000  0.00000000  1
  Ni  Ni2  1  0.33333300  0.66666700  0.65434100  1
  Cu  Cu3  1  0.00000000  0.00000000  0.50000000  1
  C  C4  1  0.66666700  0.33333300  0.78654100  1
  C  C5  1  0.33333300  0.66666700  0.21345900  1
  C  C6  1  0.17556200  0.35112400  0.30434100  1
  C  C7  1  0.64887600  0.82443800  0.30434100  1
  C  C8  1  0.17556200  0.82443800  0.30434100  1
  C  C9  1  0.82443800  0.64887600  0.69565900  1
  C  C10  1  0.82443800  0.17556200  0.69565900  1
  C  C11  1  0.35112400  0.17556200  0.69565900  1
  C  C12  1  0.66666700  0.33333300  0.01351300  1
  C  C13  1  0.33333300  0.66666700  0.98648700  1
