# generated using pymatgen
data_Cu5Ni5C
_symmetry_space_group_name_H-M   'P 1'
_cell_length_a   9.81632716
_cell_length_b   9.81632716
_cell_length_c   14.83401500
_cell_angle_alpha   56.27537654
_cell_angle_beta   56.27537654
_cell_angle_gamma   43.61959935
_symmetry_Int_Tables_number   1
_chemical_formula_structural   Cu5Ni5C
_chemical_formula_sum   'Cu20 Ni20 C4'
_cell_volume   790.35343135
_cell_formula_units_Z   4
loop_
 _symmetry_equiv_pos_site_id
 _symmetry_equiv_pos_as_xyz
  1  'x, y, z'
loop_
 _atom_site_type_symbol
 _atom_site_label
 _atom_site_symmetry_multiplicity
 _atom_site_fract_x
 _atom_site_fract_y
 _atom_site_fract_z
 _atom_site_occupancy
  C  C0  1  0.30375800  0.83739400  0.02722100  1
  C  C1  1  0.16260600  0.69624200  0.97277900  1
  C  C2  1  0.69714600  0.16349700  0.47313600  1
  C  C3  1  0.83650300  0.30285400  0.52686400  1
  Ni  Ni4  1  0.39689800  0.91761100  0.05102300  1
  Ni  Ni5  1  0.08238900  0.60310200  0.94897700  1
  Ni  Ni6  1  0.59799800  0.07823600  0.44780700  1
  Ni  Ni7  1  0.92176400  0.40200200  0.55219300  1
  Ni  Ni8  1  0.26949600  0.02349600  0.88652300  1
  Ni  Ni9  1  0.97650400  0.73050400  0.11347700  1
  Ni  Ni10  1  0.73233200  0.96243400  0.62402000  1
  Ni  Ni11  1  0.03756600  0.26766800  0.37598000  1
  Ni  Ni12  1  0.56741600  0.63556100  0.96160400  1
  Ni  Ni13  1  0.36443900  0.43258400  0.03839600  1
  Ni  Ni14  1  0.41314900  0.37888700  0.54323700  1
  Ni  Ni15  1  0.62111300  0.58685100  0.45676300  1
  Ni  Ni16  1  0.31191700  0.64192500  0.16466200  1
  Ni  Ni17  1  0.35807500  0.68808300  0.83533800  1
  Ni  Ni18  1  0.68685900  0.37254400  0.32510000  1
  Ni  Ni19  1  0.62745600  0.31314100  0.67490000  1
  Ni  Ni20  1  0.03147800  0.02254400  0.09371100  1
  Ni  Ni21  1  0.97745600  0.96852200  0.90628900  1
  Ni  Ni22  1  0.98856200  0.96372300  0.40146700  1
  Ni  Ni23  1  0.03627700  0.01143800  0.59853300  1
  Cu  Cu24  1  0.24751200  0.14076300  0.79918800  1
  Cu  Cu25  1  0.85923700  0.75248800  0.20081200  1
  Cu  Cu26  1  0.75525100  0.84518800  0.71133600  1
  Cu  Cu27  1  0.15481200  0.24474900  0.28866400  1
  Cu  Cu28  1  0.45830000  0.96931000  0.06444800  1
  Cu  Cu29  1  0.03069000  0.54170000  0.93555200  1
  Cu  Cu30  1  0.53653400  0.02636000  0.43425600  1
  Cu  Cu31  1  0.97364000  0.46346600  0.56574400  1
  Cu  Cu32  1  0.31145400  0.52401100  0.25153900  1
  Cu  Cu33  1  0.47598900  0.68854600  0.74846100  1
  Cu  Cu34  1  0.68835700  0.49017600  0.23803900  1
  Cu  Cu35  1  0.50982400  0.31164300  0.76196100  1
  Cu  Cu36  1  0.86340500  0.13542800  0.13862300  1
  Cu  Cu37  1  0.86457200  0.13659500  0.86137700  1
  Cu  Cu38  1  0.15643300  0.85103600  0.35605900  1
  Cu  Cu39  1  0.14896400  0.84356700  0.64394100  1
  Cu  Cu40  1  0.73185500  0.50937900  0.92243600  1
  Cu  Cu41  1  0.49062100  0.26814500  0.07756400  1
  Cu  Cu42  1  0.24865800  0.50526700  0.58232100  1
  Cu  Cu43  1  0.49473300  0.75134200  0.41767900  1
