# generated using pymatgen
data_CuNi2C7
_symmetry_space_group_name_H-M   'P 1'
_cell_length_a   7.60189700
_cell_length_b   5.54481400
_cell_length_c   5.62630323
_cell_angle_alpha   80.75818615
_cell_angle_beta   90.00000000
_cell_angle_gamma   90.00000000
_symmetry_Int_Tables_number   1
_chemical_formula_structural   CuNi2C7
_chemical_formula_sum   'Cu2 Ni4 C14'
_cell_volume   234.07646638
_cell_formula_units_Z   2
loop_
 _symmetry_equiv_pos_site_id
 _symmetry_equiv_pos_as_xyz
  1  'x, y, z'
loop_
 _atom_site_type_symbol
 _atom_site_label
 _atom_site_symmetry_multiplicity
 _atom_site_fract_x
 _atom_site_fract_y
 _atom_site_fract_z
 _atom_site_occupancy
  Ni  Ni0  1  0.75000000  0.47930000  0.56292100  1
  Ni  Ni1  1  0.25000000  0.52070000  0.43707900  1
  Ni  Ni2  1  0.75000000  0.94204000  0.02168300  1
  Ni  Ni3  1  0.25000000  0.05796000  0.97831700  1
  Cu  Cu4  1  0.50000000  0.50000000  0.00000000  1
  Cu  Cu5  1  0.00000000  0.50000000  0.00000000  1
  C  C6  1  0.50000000  0.00000000  0.50000000  1
  C  C7  1  0.00000000  0.00000000  0.50000000  1
  C  C8  1  0.44174100  0.65312000  0.65419200  1
  C  C9  1  0.07166400  0.87989300  0.20841400  1
  C  C10  1  0.94174100  0.34688000  0.34580800  1
  C  C11  1  0.57166400  0.12010700  0.79158600  1
  C  C12  1  0.42833600  0.87989300  0.20841400  1
  C  C13  1  0.92833600  0.12010700  0.79158600  1
  C  C14  1  0.25000000  0.12346100  0.59502800  1
  C  C15  1  0.05825900  0.65312000  0.65419200  1
  C  C16  1  0.75000000  0.61289700  0.89735800  1
  C  C17  1  0.55825900  0.34688000  0.34580800  1
  C  C18  1  0.75000000  0.87653900  0.40497200  1
  C  C19  1  0.25000000  0.38710300  0.10264200  1
