# generated using pymatgen
data_CuNi3C2
_symmetry_space_group_name_H-M   'P 1'
_cell_length_a   10.06121600
_cell_length_b   11.61769182
_cell_length_c   11.61769072
_cell_angle_alpha   89.99999977
_cell_angle_beta   125.26439049
_cell_angle_gamma   54.73561333
_symmetry_Int_Tables_number   1
_chemical_formula_structural   CuNi3C2
_chemical_formula_sum   'Cu8 Ni24 C16'
_cell_volume   784.02431175
_cell_formula_units_Z   8
loop_
 _symmetry_equiv_pos_site_id
 _symmetry_equiv_pos_as_xyz
  1  'x, y, z'
loop_
 _atom_site_type_symbol
 _atom_site_label
 _atom_site_symmetry_multiplicity
 _atom_site_fract_x
 _atom_site_fract_y
 _atom_site_fract_z
 _atom_site_occupancy
  Ni  Ni0  1  0.21856100  0.04781700  0.98817900  1
  Ni  Ni1  1  0.78143900  0.76637800  0.51182100  1
  Ni  Ni2  1  0.78143900  0.45218300  0.76961800  1
  Ni  Ni3  1  0.21856100  0.73362200  0.73038200  1
  Ni  Ni4  1  0.24220300  0.76961800  0.27820000  1
  Ni  Ni5  1  0.75779700  0.73038200  0.03599600  1
  Ni  Ni6  1  0.24220300  0.98817900  0.46400400  1
  Ni  Ni7  1  0.75779700  0.51182100  0.22180000  1
  Ni  Ni8  1  0.68580400  0.03599600  0.73362200  1
  Ni  Ni9  1  0.68580400  0.27820000  0.45218300  1
  Ni  Ni10  1  0.31419600  0.22180000  0.76637800  1
  Ni  Ni11  1  0.31419600  0.46400400  0.04781700  1
  Ni  Ni12  1  0.78143900  0.95218300  0.01182100  1
  Ni  Ni13  1  0.21856100  0.23362200  0.48817900  1
  Ni  Ni14  1  0.21856100  0.54781700  0.23038200  1
  Ni  Ni15  1  0.78143900  0.26637800  0.26961800  1
  Ni  Ni16  1  0.75779700  0.23038200  0.72180000  1
  Ni  Ni17  1  0.24220300  0.26961800  0.96400400  1
  Ni  Ni18  1  0.75779700  0.01182100  0.53599600  1
  Ni  Ni19  1  0.24220300  0.48817900  0.77820000  1
  Ni  Ni20  1  0.31419600  0.96400400  0.26637800  1
  Ni  Ni21  1  0.31419600  0.72180000  0.54781700  1
  Ni  Ni22  1  0.68580400  0.77820000  0.23362200  1
  Ni  Ni23  1  0.68580400  0.53599600  0.95218300  1
  Cu  Cu24  1  0.23058500  0.00000000  0.73058500  1
  Cu  Cu25  1  0.76941500  0.73058500  0.76941500  1
  Cu  Cu26  1  0.76941500  0.50000000  0.50000000  1
  Cu  Cu27  1  0.23058500  0.76941500  0.00000000  1
  Cu  Cu28  1  0.76941500  0.00000000  0.26941500  1
  Cu  Cu29  1  0.23058500  0.26941500  0.23058500  1
  Cu  Cu30  1  0.23058500  0.50000000  0.50000000  1
  Cu  Cu31  1  0.76941500  0.23058500  0.00000000  1
  C  C32  1  0.00000000  0.00000000  0.50000000  1
  C  C33  1  0.00000000  0.50000000  0.00000000  1
  C  C34  1  0.00000000  0.50000000  0.50000000  1
  C  C35  1  0.00000000  0.00000000  0.00000000  1
  C  C36  1  0.50000000  0.96134700  0.75000000  1
  C  C37  1  0.50000000  0.53865300  0.25000000  1
  C  C38  1  0.00000000  0.25000000  0.71134700  1
  C  C39  1  0.00000000  0.75000000  0.78865300  1
  C  C40  1  0.57730800  0.71134700  0.53865300  1
  C  C41  1  0.42269200  0.78865300  0.96134700  1
  C  C42  1  0.50000000  0.03865300  0.25000000  1
  C  C43  1  0.50000000  0.46134700  0.75000000  1
  C  C44  1  0.00000000  0.75000000  0.28865300  1
  C  C45  1  0.00000000  0.25000000  0.21134700  1
  C  C46  1  0.42269200  0.28865300  0.46134700  1
  C  C47  1  0.57730800  0.21134700  0.03865300  1
