# generated using pymatgen
data_CuNi4C11
_symmetry_space_group_name_H-M   'P 1'
_cell_length_a   10.37433691
_cell_length_b   10.37433691
_cell_length_c   13.68720000
_cell_angle_alpha   90.00000000
_cell_angle_beta   90.00000000
_cell_angle_gamma   119.99999307
_symmetry_Int_Tables_number   1
_chemical_formula_structural   CuNi4C11
_chemical_formula_sum   'Cu6 Ni24 C66'
_cell_volume   1275.75115752
_cell_formula_units_Z   6
loop_
 _symmetry_equiv_pos_site_id
 _symmetry_equiv_pos_as_xyz
  1  'x, y, z'
loop_
 _atom_site_type_symbol
 _atom_site_label
 _atom_site_symmetry_multiplicity
 _atom_site_fract_x
 _atom_site_fract_y
 _atom_site_fract_z
 _atom_site_occupancy
  C  C0  1  0.00000000  0.00000000  0.75000000  1
  C  C1  1  0.00000000  0.00000000  0.25000000  1
  C  C2  1  0.66666700  0.33333300  0.25000000  1
  C  C3  1  0.66666700  0.33333300  0.75000000  1
  C  C4  1  0.33333300  0.66666700  0.75000000  1
  C  C5  1  0.33333300  0.66666700  0.25000000  1
  Ni  Ni6  1  0.26920900  0.33781200  0.38703900  1
  Ni  Ni7  1  0.06860300  0.73079100  0.61296100  1
  Ni  Ni8  1  0.26920900  0.33781200  0.61296100  1
  Ni  Ni9  1  0.73079100  0.06860300  0.88703900  1
  Ni  Ni10  1  0.33781200  0.26920900  0.88703900  1
  Ni  Ni11  1  0.66218800  0.73079100  0.88703900  1
  Ni  Ni12  1  0.26920900  0.93139700  0.88703900  1
  Ni  Ni13  1  0.93139700  0.66218800  0.88703900  1
  Ni  Ni14  1  0.06860300  0.73079100  0.38703900  1
  Ni  Ni15  1  0.06860300  0.33781200  0.88703900  1
  Ni  Ni16  1  0.66218800  0.93139700  0.38703900  1
  Ni  Ni17  1  0.66218800  0.93139700  0.61296100  1
  Ni  Ni18  1  0.93139700  0.66218800  0.11296100  1
  Ni  Ni19  1  0.93139700  0.26920900  0.38703900  1
  Ni  Ni20  1  0.73079100  0.66218800  0.38703900  1
  Ni  Ni21  1  0.26920900  0.93139700  0.11296100  1
  Ni  Ni22  1  0.66218800  0.73079100  0.11296100  1
  Ni  Ni23  1  0.33781200  0.26920900  0.11296100  1
  Ni  Ni24  1  0.73079100  0.06860300  0.11296100  1
  Ni  Ni25  1  0.06860300  0.33781200  0.11296100  1
  Ni  Ni26  1  0.33781200  0.06860300  0.61296100  1
  Ni  Ni27  1  0.73079100  0.66218800  0.61296100  1
  Ni  Ni28  1  0.93139700  0.26920900  0.61296100  1
  Ni  Ni29  1  0.33781200  0.06860300  0.38703900  1
  Cu  Cu30  1  0.00000000  0.50000000  0.25000000  1
  Cu  Cu31  1  0.50000000  0.50000000  0.75000000  1
  Cu  Cu32  1  0.50000000  0.00000000  0.75000000  1
  Cu  Cu33  1  0.00000000  0.50000000  0.75000000  1
  Cu  Cu34  1  0.50000000  0.50000000  0.25000000  1
  Cu  Cu35  1  0.50000000  0.00000000  0.25000000  1
  C  C36  1  0.18903200  0.28222500  0.13207200  1
  C  C37  1  0.09977300  0.62896300  0.68781700  1
  C  C38  1  0.09977300  0.47081100  0.81218300  1
  C  C39  1  0.52918900  0.90022700  0.68781700  1
  C  C40  1  0.47081100  0.09977300  0.68781700  1
  C  C41  1  0.62896300  0.52918900  0.68781700  1
  C  C42  1  0.37103700  0.47081100  0.68781700  1
  C  C43  1  0.62896300  0.09977300  0.81218300  1
  C  C44  1  0.47081100  0.37103700  0.81218300  1
  C  C45  1  0.52918900  0.62896300  0.81218300  1
  C  C46  1  0.37103700  0.90022700  0.81218300  1
  C  C47  1  0.90022700  0.52918900  0.81218300  1
  C  C48  1  0.09977300  0.62896300  0.31218300  1
  C  C49  1  0.37103700  0.47081100  0.31218300  1
  C  C50  1  0.52918900  0.90022700  0.31218300  1
  C  C51  1  0.47081100  0.09977300  0.31218300  1
  C  C52  1  0.90022700  0.52918900  0.18781700  1
  C  C53  1  0.90022700  0.37103700  0.31218300  1
  C  C54  1  0.62896300  0.52918900  0.31218300  1
  C  C55  1  0.37103700  0.90022700  0.18781700  1
  C  C56  1  0.52918900  0.62896300  0.18781700  1
  C  C57  1  0.47081100  0.37103700  0.18781700  1
  C  C58  1  0.62896300  0.09977300  0.18781700  1
  C  C59  1  0.09319300  0.28222500  0.63207200  1
  C  C60  1  0.81096800  0.09319300  0.63207200  1
  C  C61  1  0.90680700  0.71777500  0.63207200  1
  C  C62  1  0.28222500  0.18903200  0.63207200  1
  C  C63  1  0.71777500  0.81096800  0.63207200  1
  C  C64  1  0.18903200  0.28222500  0.86792800  1
  C  C65  1  0.18903200  0.90680700  0.63207200  1
  C  C66  1  0.08226300  0.39419800  0.00000000  1
  C  C67  1  0.68806500  0.08226300  0.00000000  1
  C  C68  1  0.39419800  0.31193500  0.00000000  1
  C  C69  1  0.60580200  0.68806500  0.00000000  1
  C  C70  1  0.31193500  0.91773700  0.00000000  1
  C  C71  1  0.68806500  0.60580200  0.50000000  1
  C  C72  1  0.91773700  0.31193500  0.50000000  1
  C  C73  1  0.91773700  0.60580200  0.00000000  1
  C  C74  1  0.39419800  0.08226300  0.50000000  1
  C  C75  1  0.60580200  0.91773700  0.50000000  1
  C  C76  1  0.31193500  0.39419800  0.50000000  1
  C  C77  1  0.08226300  0.68806500  0.50000000  1
  C  C78  1  0.90022700  0.37103700  0.68781700  1
  C  C79  1  0.90680700  0.18903200  0.13207200  1
  C  C80  1  0.28222500  0.09319300  0.13207200  1
  C  C81  1  0.71777500  0.90680700  0.13207200  1
  C  C82  1  0.09319300  0.81096800  0.13207200  1
  C  C83  1  0.90680700  0.71777500  0.36792800  1
  C  C84  1  0.81096800  0.09319300  0.36792800  1
  C  C85  1  0.81096800  0.71777500  0.13207200  1
  C  C86  1  0.28222500  0.18903200  0.36792800  1
  C  C87  1  0.71777500  0.81096800  0.36792800  1
  C  C88  1  0.09319300  0.28222500  0.36792800  1
  C  C89  1  0.18903200  0.90680700  0.36792800  1
  C  C90  1  0.81096800  0.71777500  0.86792800  1
  C  C91  1  0.09319300  0.81096800  0.86792800  1
  C  C92  1  0.71777500  0.90680700  0.86792800  1
  C  C93  1  0.28222500  0.09319300  0.86792800  1
  C  C94  1  0.90680700  0.18903200  0.86792800  1
  C  C95  1  0.09977300  0.47081100  0.18781700  1
