# generated using pymatgen
data_Cu(NiC2)5
_symmetry_space_group_name_H-M   'P 1'
_cell_length_a   7.25861689
_cell_length_b   9.77514200
_cell_length_c   10.57211614
_cell_angle_alpha   90.00000000
_cell_angle_beta   99.87905977
_cell_angle_gamma   90.00000000
_symmetry_Int_Tables_number   1
_chemical_formula_structural   Cu(NiC2)5
_chemical_formula_sum   'Cu4 Ni20 C40'
_cell_volume   739.01112786
_cell_formula_units_Z   4
loop_
 _symmetry_equiv_pos_site_id
 _symmetry_equiv_pos_as_xyz
  1  'x, y, z'
loop_
 _atom_site_type_symbol
 _atom_site_label
 _atom_site_symmetry_multiplicity
 _atom_site_fract_x
 _atom_site_fract_y
 _atom_site_fract_z
 _atom_site_occupancy
  C  C0  1  0.37818500  0.79399200  0.05824500  1
  C  C1  1  0.62181500  0.29399200  0.44175500  1
  C  C2  1  0.37818500  0.70600800  0.55824500  1
  C  C3  1  0.62181500  0.20600800  0.94175500  1
  C  C4  1  0.55060200  0.89176700  0.80090700  1
  C  C5  1  0.44939800  0.10823300  0.19909300  1
  C  C6  1  0.55060200  0.60823300  0.30090700  1
  C  C7  1  0.44939800  0.39176700  0.69909300  1
  Ni  Ni8  1  0.87333000  0.30386100  0.14539200  1
  Ni  Ni9  1  0.97928500  0.16861800  0.52864900  1
  Ni  Ni10  1  0.12667000  0.80386100  0.35460800  1
  Ni  Ni11  1  0.21701900  0.02045900  0.50132700  1
  Ni  Ni12  1  0.29817900  0.32965200  0.03660400  1
  Ni  Ni13  1  0.21701900  0.47954100  0.00132700  1
  Ni  Ni14  1  0.23305500  0.36531500  0.82095200  1
  Ni  Ni15  1  0.02071500  0.83138200  0.47135100  1
  Ni  Ni16  1  0.70182100  0.82965200  0.46339600  1
  Ni  Ni17  1  0.23305500  0.13468500  0.32095200  1
  Ni  Ni18  1  0.02071500  0.66861800  0.97135100  1
  Ni  Ni19  1  0.76694500  0.63468500  0.17904800  1
  Ni  Ni20  1  0.70182100  0.67034800  0.96339600  1
  Ni  Ni21  1  0.78298100  0.97954100  0.49867300  1
  Ni  Ni22  1  0.87333000  0.19613900  0.64539200  1
  Ni  Ni23  1  0.97928500  0.33138200  0.02864900  1
  Ni  Ni24  1  0.78298100  0.52045900  0.99867300  1
  Ni  Ni25  1  0.29817900  0.17034800  0.53660400  1
  Ni  Ni26  1  0.12667000  0.69613900  0.85460800  1
  Ni  Ni27  1  0.76694500  0.86531500  0.67904800  1
  Cu  Cu28  1  0.05401500  0.06934000  0.86525400  1
  Cu  Cu29  1  0.94598500  0.93066000  0.13474600  1
  Cu  Cu30  1  0.05401500  0.43066000  0.36525400  1
  Cu  Cu31  1  0.94598500  0.56934000  0.63474600  1
  C  C32  1  0.14745400  0.68010700  0.94726400  1
  C  C33  1  0.94889900  0.15820300  0.82886100  1
  C  C34  1  0.46839100  0.29666100  0.58495000  1
  C  C35  1  0.24527400  0.14893400  0.22932300  1
  C  C36  1  0.44933700  0.95694900  0.16335900  1
  C  C37  1  0.44933700  0.54305100  0.66335900  1
  C  C38  1  0.19365800  0.11824300  0.48359500  1
  C  C39  1  0.75472600  0.64893400  0.27067700  1
  C  C40  1  0.24527400  0.35106600  0.72932300  1
  C  C41  1  0.75472600  0.85106600  0.77067700  1
  C  C42  1  0.80634200  0.61824300  0.01640500  1
  C  C43  1  0.15943300  0.98201400  0.90328400  1
  C  C44  1  0.46839100  0.20333900  0.08495000  1
  C  C45  1  0.59541100  0.13586800  0.31950300  1
  C  C46  1  0.59541100  0.36413200  0.81950300  1
  C  C47  1  0.40458900  0.63586800  0.18049700  1
  C  C48  1  0.40458900  0.86413200  0.68049700  1
  C  C49  1  0.15943300  0.51798600  0.40328400  1
  C  C50  1  0.85254600  0.31989300  0.05273600  1
  C  C51  1  0.05110100  0.84179700  0.17113900  1
  C  C52  1  0.84056700  0.48201400  0.59671600  1
  C  C53  1  0.80634200  0.88175700  0.51640500  1
  C  C54  1  0.53160900  0.70333900  0.41505000  1
  C  C55  1  0.94889900  0.34179700  0.32886100  1
  C  C56  1  0.19365800  0.38175700  0.98359500  1
  C  C57  1  0.05110100  0.65820300  0.67113900  1
  C  C58  1  0.85254600  0.18010700  0.55273600  1
  C  C59  1  0.53160900  0.79666100  0.91505000  1
  C  C60  1  0.55066300  0.45694900  0.33664100  1
  C  C61  1  0.84056700  0.01798600  0.09671600  1
  C  C62  1  0.55066300  0.04305100  0.83664100  1
  C  C63  1  0.14745400  0.81989300  0.44726400  1
