# generated using pymatgen
data_CuNiC16
_symmetry_space_group_name_H-M   'P 1'
_cell_length_a   5.58483894
_cell_length_b   5.58483894
_cell_length_c   7.40811884
_cell_angle_alpha   90.00000000
_cell_angle_beta   90.00000000
_cell_angle_gamma   98.53519432
_symmetry_Int_Tables_number   1
_chemical_formula_structural   CuNiC16
_chemical_formula_sum   'Cu1 Ni1 C16'
_cell_volume   228.50333974
_cell_formula_units_Z   1
loop_
 _symmetry_equiv_pos_site_id
 _symmetry_equiv_pos_as_xyz
  1  'x, y, z'
loop_
 _atom_site_type_symbol
 _atom_site_label
 _atom_site_symmetry_multiplicity
 _atom_site_fract_x
 _atom_site_fract_y
 _atom_site_fract_z
 _atom_site_occupancy
  Ni  Ni0  1  0.98339403  0.01660597  0.50000000  1
  Cu  Cu1  1  0.46662953  0.53337047  0.00000000  1
  C  C2  1  0.47353465  0.03421552  0.25623661  1
  C  C3  1  0.47353465  0.03421552  0.74376339  1
  C  C4  1  0.96578448  0.52646535  0.74376339  1
  C  C5  1  0.96578448  0.52646535  0.25623661  1
  C  C6  1  0.28630572  0.24411743  0.24878943  1
  C  C7  1  0.75588257  0.71369428  0.24878943  1
  C  C8  1  0.75588257  0.71369428  0.75121057  1
  C  C9  1  0.28630572  0.24411743  0.75121057  1
  C  C10  1  0.25988450  0.74011550  0.22115124  1
  C  C11  1  0.77035804  0.22964196  0.27833048  1
  C  C12  1  0.77035804  0.22964196  0.72166952  1
  C  C13  1  0.25988450  0.74011550  0.77884876  1
  C  C14  1  0.53560156  0.01588641  0.00000000  1
  C  C15  1  0.46952532  0.96926392  0.50000000  1
  C  C16  1  0.98411359  0.46439844  0.00000000  1
  C  C17  1  0.03073608  0.53047468  0.50000000  1
