# generated using pymatgen
data_Cu5Ni2C25
_symmetry_space_group_name_H-M   'P 1'
_cell_length_a   10.67351166
_cell_length_b   10.67351166
_cell_length_c   9.86324623
_cell_angle_alpha   72.60812755
_cell_angle_beta   72.60812755
_cell_angle_gamma   15.69540041
_symmetry_Int_Tables_number   1
_chemical_formula_structural   Cu5Ni2C25
_chemical_formula_sum   'Cu5 Ni2 C25'
_cell_volume   289.80838808
_cell_formula_units_Z   1
loop_
 _symmetry_equiv_pos_site_id
 _symmetry_equiv_pos_as_xyz
  1  'x, y, z'
loop_
 _atom_site_type_symbol
 _atom_site_label
 _atom_site_symmetry_multiplicity
 _atom_site_fract_x
 _atom_site_fract_y
 _atom_site_fract_z
 _atom_site_occupancy
  C  C0  1  0.55781900  0.55781900  0.67527800  1
  C  C1  1  0.44218100  0.44218100  0.32472200  1
  C  C2  1  0.31250600  0.31250600  0.93434800  1
  C  C3  1  0.93607700  0.93607700  0.80295000  1
  C  C4  1  0.81360600  0.81360600  0.44639800  1
  C  C5  1  0.68749400  0.68749400  0.06565200  1
  C  C6  1  0.18639400  0.18639400  0.55360200  1
  C  C7  1  0.06392300  0.06392300  0.19705000  1
  C  C8  1  0.00000000  0.00000000  0.50000000  1
  Ni  Ni9  1  0.12602100  0.12602100  0.87320500  1
  Ni  Ni10  1  0.87397900  0.87397900  0.12679500  1
  Cu  Cu11  1  0.75541700  0.75541700  0.74266300  1
  Cu  Cu12  1  0.61422800  0.61422800  0.37899400  1
  Cu  Cu13  1  0.50000000  0.50000000  0.00000000  1
  Cu  Cu14  1  0.38577200  0.38577200  0.62100600  1
  Cu  Cu15  1  0.24458300  0.24458300  0.25733700  1
  C  C16  1  0.65319900  0.65319900  0.73649500  1
  C  C17  1  0.53676600  0.53676600  0.33804400  1
  C  C18  1  0.39976500  0.39976500  0.98918000  1
  C  C19  1  0.03676100  0.03676100  0.85692500  1
  C  C20  1  0.90338400  0.90338400  0.47967700  1
  C  C21  1  0.78380700  0.78380700  0.10815500  1
  C  C22  1  0.27955600  0.27955600  0.60498400  1
  C  C23  1  0.15758600  0.15758600  0.22637700  1
  C  C24  1  0.46323400  0.46323400  0.66195600  1
  C  C25  1  0.34680100  0.34680100  0.26350500  1
  C  C26  1  0.21619300  0.21619300  0.89184500  1
  C  C27  1  0.84241400  0.84241400  0.77362300  1
  C  C28  1  0.72044400  0.72044400  0.39501600  1
  C  C29  1  0.60023500  0.60023500  0.01082000  1
  C  C30  1  0.09661600  0.09661600  0.52032300  1
  C  C31  1  0.96323900  0.96323900  0.14307500  1
