# generated using pymatgen
data_CuNiC9
_symmetry_space_group_name_H-M   'P 1'
_cell_length_a   6.06011442
_cell_length_b   6.25670040
_cell_length_c   6.02996339
_cell_angle_alpha   61.19170972
_cell_angle_beta   90.00000000
_cell_angle_gamma   118.96596323
_symmetry_Int_Tables_number   1
_chemical_formula_structural   CuNiC9
_chemical_formula_sum   'Cu1 Ni1 C9'
_cell_volume   166.95833393
_cell_formula_units_Z   1
loop_
 _symmetry_equiv_pos_site_id
 _symmetry_equiv_pos_as_xyz
  1  'x, y, z'
loop_
 _atom_site_type_symbol
 _atom_site_label
 _atom_site_symmetry_multiplicity
 _atom_site_fract_x
 _atom_site_fract_y
 _atom_site_fract_z
 _atom_site_occupancy
  C  C0  1  0.79014300  0.58028700  0.70985700  1
  C  C1  1  0.20985700  0.41971300  0.29014300  1
  Ni  Ni2  1  0.50000000  0.00000000  0.00000000  1
  Cu  Cu3  1  0.00000000  0.00000000  0.00000000  1
  C  C4  1  0.50000000  0.00000000  0.50000000  1
  C  C5  1  0.26649500  0.00000000  0.25011400  1
  C  C6  1  0.73350500  0.00000000  0.74988600  1
  C  C7  1  0.26012300  0.52024600  0.73987700  1
  C  C8  1  0.73987700  0.47975400  0.26012300  1
  C  C9  1  0.26649500  0.00000000  0.74988600  1
  C  C10  1  0.73350500  0.00000000  0.25011400  1
