# generated using pymatgen
data_Cu2Ni2C9
_symmetry_space_group_name_H-M   'P 1'
_cell_length_a   14.38027700
_cell_length_b   6.55870000
_cell_length_c   9.68189430
_cell_angle_alpha   53.45650426
_cell_angle_beta   90.00000000
_cell_angle_gamma   90.00000000
_symmetry_Int_Tables_number   1
_chemical_formula_structural   Cu2Ni2C9
_chemical_formula_sum   'Cu8 Ni8 C36'
_cell_volume   733.63480182
_cell_formula_units_Z   4
loop_
 _symmetry_equiv_pos_site_id
 _symmetry_equiv_pos_as_xyz
  1  'x, y, z'
loop_
 _atom_site_type_symbol
 _atom_site_label
 _atom_site_symmetry_multiplicity
 _atom_site_fract_x
 _atom_site_fract_y
 _atom_site_fract_z
 _atom_site_occupancy
  Ni  Ni0  1  0.73929800  0.71919500  0.85373700  1
  Ni  Ni1  1  0.76070200  0.71919500  0.35373700  1
  Ni  Ni2  1  0.26070200  0.28080500  0.14626300  1
  Ni  Ni3  1  0.23929800  0.28080500  0.64626300  1
  Ni  Ni4  1  0.88363100  0.19302500  0.57553100  1
  Ni  Ni5  1  0.61636900  0.19302500  0.07553100  1
  Ni  Ni6  1  0.11636900  0.80697500  0.42446900  1
  Ni  Ni7  1  0.38363100  0.80697500  0.92446900  1
  Cu  Cu8  1  0.82439400  0.11122400  0.95446700  1
  Cu  Cu9  1  0.67560600  0.11122400  0.45446700  1
  Cu  Cu10  1  0.17560600  0.88877600  0.04553300  1
  Cu  Cu11  1  0.32439400  0.88877600  0.54553300  1
  Cu  Cu12  1  0.92543600  0.60850200  0.66296400  1
  Cu  Cu13  1  0.57456400  0.60850200  0.16296400  1
  Cu  Cu14  1  0.07456400  0.39149800  0.33703600  1
  Cu  Cu15  1  0.42543600  0.39149800  0.83703600  1
  C  C16  1  0.79860500  0.04134400  0.81342500  1
  C  C17  1  0.70139500  0.04134400  0.31342500  1
  C  C18  1  0.20139500  0.95865600  0.18657500  1
  C  C19  1  0.29860500  0.95865600  0.68657500  1
  C  C20  1  0.84882800  0.85881300  0.15642600  1
  C  C21  1  0.65117200  0.85881300  0.65642600  1
  C  C22  1  0.15117200  0.14118700  0.84357400  1
  C  C23  1  0.34882800  0.14118700  0.34357400  1
  C  C24  1  0.73863100  0.31389900  0.93467500  1
  C  C25  1  0.76136900  0.31389900  0.43467500  1
  C  C26  1  0.26136900  0.68610100  0.06532500  1
  C  C27  1  0.23863100  0.68610100  0.56532500  1
  C  C28  1  0.92704200  0.30316200  0.87064100  1
  C  C29  1  0.57295800  0.30316200  0.37064100  1
  C  C30  1  0.07295800  0.69683800  0.12935900  1
  C  C31  1  0.42704200  0.69683800  0.62935900  1
  C  C32  1  0.03544100  0.71279200  0.62436500  1
  C  C33  1  0.46455900  0.71279200  0.12436500  1
  C  C34  1  0.96455900  0.28720800  0.37563500  1
  C  C35  1  0.53544100  0.28720800  0.87563500  1
  C  C36  1  0.87636500  0.55289200  0.52613600  1
  C  C37  1  0.62363500  0.55289200  0.02613600  1
  C  C38  1  0.12363500  0.44710800  0.47386400  1
  C  C39  1  0.37636500  0.44710800  0.97386400  1
  C  C40  1  0.85397100  0.80396500  0.67944100  1
  C  C41  1  0.64602900  0.80396500  0.17944100  1
  C  C42  1  0.14602900  0.19603500  0.32055900  1
  C  C43  1  0.35397100  0.19603500  0.82055900  1
  C  C44  1  0.82262700  0.46699700  0.05885900  1
  C  C45  1  0.67737300  0.46699700  0.55885900  1
  C  C46  1  0.17737300  0.53300300  0.94114100  1
  C  C47  1  0.32262700  0.53300300  0.44114100  1
  C  C48  1  0.98098900  0.98223700  0.76562400  1
  C  C49  1  0.51901100  0.98223700  0.26562400  1
  C  C50  1  0.01901100  0.01776300  0.23437600  1
  C  C51  1  0.48098900  0.01776300  0.73437600  1
