# generated using pymatgen
data_Cu3Ni3C2
_symmetry_space_group_name_H-M   'P 1'
_cell_length_a   8.38681605
_cell_length_b   8.38681605
_cell_length_c   8.38681565
_cell_angle_alpha   89.90577213
_cell_angle_beta   89.90577213
_cell_angle_gamma   89.90577226
_symmetry_Int_Tables_number   1
_chemical_formula_structural   Cu3Ni3C2
_chemical_formula_sum   'Cu12 Ni12 C8'
_cell_volume   589.91518097
_cell_formula_units_Z   4
loop_
 _symmetry_equiv_pos_site_id
 _symmetry_equiv_pos_as_xyz
  1  'x, y, z'
loop_
 _atom_site_type_symbol
 _atom_site_label
 _atom_site_symmetry_multiplicity
 _atom_site_fract_x
 _atom_site_fract_y
 _atom_site_fract_z
 _atom_site_occupancy
  Ni  Ni0  1  0.85534300  0.65970200  0.00131900  1
  Ni  Ni1  1  0.00131900  0.85534300  0.65970200  1
  Ni  Ni2  1  0.65970200  0.00131900  0.85534300  1
  Ni  Ni3  1  0.14465700  0.34029800  0.99868100  1
  Ni  Ni4  1  0.99868100  0.14465700  0.34029800  1
  Ni  Ni5  1  0.34029800  0.99868100  0.14465700  1
  Ni  Ni6  1  0.64533500  0.15919200  0.50156600  1
  Ni  Ni7  1  0.50156600  0.64533500  0.15919200  1
  Ni  Ni8  1  0.15919200  0.50156600  0.64533500  1
  Ni  Ni9  1  0.35466500  0.84080800  0.49843400  1
  Ni  Ni10  1  0.49843400  0.35466500  0.84080800  1
  Ni  Ni11  1  0.84080800  0.49843400  0.35466500  1
  C  C12  1  0.74763500  0.74763500  0.74763500  1
  C  C13  1  0.25236500  0.25236500  0.25236500  1
  C  C14  1  0.24673800  0.24670000  0.74612900  1
  C  C15  1  0.74612900  0.24673800  0.24670000  1
  C  C16  1  0.24670000  0.74612900  0.24673800  1
  C  C17  1  0.75326200  0.75330000  0.25387100  1
  C  C18  1  0.25387100  0.75326200  0.75330000  1
  C  C19  1  0.75330000  0.25387100  0.75326200  1
  Cu  Cu20  1  0.00009000  0.85901100  0.35461200  1
  Cu  Cu21  1  0.35461200  0.00009000  0.85901100  1
  Cu  Cu22  1  0.85901100  0.35461200  0.00009000  1
  Cu  Cu23  1  0.64063400  0.85489900  0.50302200  1
  Cu  Cu24  1  0.50302200  0.64063400  0.85489900  1
  Cu  Cu25  1  0.85489900  0.50302200  0.64063400  1
  Cu  Cu26  1  0.35936600  0.14510100  0.49697800  1
  Cu  Cu27  1  0.49697800  0.35936600  0.14510100  1
  Cu  Cu28  1  0.14510100  0.49697800  0.35936600  1
  Cu  Cu29  1  0.64538800  0.99991000  0.14098900  1
  Cu  Cu30  1  0.14098900  0.64538800  0.99991000  1
  Cu  Cu31  1  0.99991000  0.14098900  0.64538800  1
