# generated using pymatgen
data_CuNiC8
_symmetry_space_group_name_H-M   'P 1'
_cell_length_a   8.44543464
_cell_length_b   8.50669652
_cell_length_c   8.45819586
_cell_angle_alpha   90.00000000
_cell_angle_beta   90.00000000
_cell_angle_gamma   90.00000000
_symmetry_Int_Tables_number   1
_chemical_formula_structural   CuNiC8
_chemical_formula_sum   'Cu4 Ni4 C32'
_cell_volume   607.66004607
_cell_formula_units_Z   4
loop_
 _symmetry_equiv_pos_site_id
 _symmetry_equiv_pos_as_xyz
  1  'x, y, z'
loop_
 _atom_site_type_symbol
 _atom_site_label
 _atom_site_symmetry_multiplicity
 _atom_site_fract_x
 _atom_site_fract_y
 _atom_site_fract_z
 _atom_site_occupancy
  Ni  Ni0  1  0.50000000  -0.00000000  0.50000000  1
  Ni  Ni1  1  0.50000000  0.50000000  -0.00000000  1
  Ni  Ni2  1  0.00000000  0.50000000  -0.00000000  1
  Ni  Ni3  1  0.00000000  0.00000000  0.50000000  1
  Cu  Cu4  1  0.00000000  0.50000000  0.50000000  1
  Cu  Cu5  1  0.50000000  -0.00000000  -0.00000000  1
  Cu  Cu6  1  0.00000000  0.00000000  -0.00000000  1
  Cu  Cu7  1  0.50000000  0.50000000  0.50000000  1
  C  C8  1  0.75000000  0.75000000  0.75000000  1
  C  C9  1  0.25000000  0.25000000  0.75000000  1
  C  C10  1  0.25000000  0.75000000  0.25000000  1
  C  C11  1  0.75000000  0.25000000  0.25000000  1
  C  C12  1  0.25000000  0.25000000  0.25000000  1
  C  C13  1  0.75000000  0.75000000  0.25000000  1
  C  C14  1  0.75000000  0.25000000  0.75000000  1
  C  C15  1  0.25000000  0.75000000  0.75000000  1
  C  C16  1  0.02426698  0.21458678  0.27595047  1
  C  C17  1  0.97573302  0.78541322  0.27595047  1
  C  C18  1  0.97573302  0.21458678  0.72404953  1
  C  C19  1  0.02426698  0.78541322  0.72404953  1
  C  C20  1  0.28371009  0.02333788  0.20088555  1
  C  C21  1  0.28371009  0.97666212  0.79911445  1
  C  C22  1  0.71628991  0.97666212  0.20088555  1
  C  C23  1  0.71628991  0.02333788  0.79911445  1
  C  C24  1  0.21466014  0.27308870  0.02461395  1
  C  C25  1  0.78533986  0.27308870  0.97538605  1
  C  C26  1  0.21466014  0.72691130  0.97538605  1
  C  C27  1  0.78533986  0.72691130  0.02461395  1
  C  C28  1  0.47573302  0.28541322  0.22404953  1
  C  C29  1  0.52426698  0.71458678  0.22404953  1
  C  C30  1  0.52426698  0.28541322  0.77595047  1
  C  C31  1  0.47573302  0.71458678  0.77595047  1
  C  C32  1  0.21628991  0.47666212  0.29911445  1
  C  C33  1  0.21628991  0.52333788  0.70088555  1
  C  C34  1  0.78371009  0.52333788  0.29911445  1
  C  C35  1  0.78371009  0.47666212  0.70088555  1
  C  C36  1  0.28533986  0.22691130  0.47538605  1
  C  C37  1  0.71466014  0.22691130  0.52461395  1
  C  C38  1  0.28533986  0.77308870  0.52461395  1
  C  C39  1  0.71466014  0.77308870  0.47538605  1
