# generated using pymatgen
data_Cu2NiC5
_symmetry_space_group_name_H-M   'P 1'
_cell_length_a   6.93526952
_cell_length_b   6.93526952
_cell_length_c   6.93526952
_cell_angle_alpha   132.24124030
_cell_angle_beta   132.24124030
_cell_angle_gamma   69.84827990
_symmetry_Int_Tables_number   1
_chemical_formula_structural   Cu2NiC5
_chemical_formula_sum   'Cu2 Ni1 C5'
_cell_volume   179.27696545
_cell_formula_units_Z   1
loop_
 _symmetry_equiv_pos_site_id
 _symmetry_equiv_pos_as_xyz
  1  'x, y, z'
loop_
 _atom_site_type_symbol
 _atom_site_label
 _atom_site_symmetry_multiplicity
 _atom_site_fract_x
 _atom_site_fract_y
 _atom_site_fract_z
 _atom_site_occupancy
  Ni  Ni0  1  0.75000000  0.25000000  0.50000000  1
  C  C1  1  0.50000000  0.50000000  0.00000000  1
  Cu  Cu2  1  0.25000000  0.75000000  0.50000000  1
  Cu  Cu3  1  0.00000000  0.00000000  0.00000000  1
  C  C4  1  0.12720300  0.11844500  0.49457600  1
  C  C5  1  0.62386900  0.63262700  0.50542400  1
  C  C6  1  0.36737300  0.87279700  0.99124200  1
  C  C7  1  0.88155500  0.37613100  0.00875800  1
