# generated using pymatgen
data_Cu4Ni4C5
_symmetry_space_group_name_H-M   'P 1'
_cell_length_a   10.08026417
_cell_length_b   10.08026417
_cell_length_c   6.12628242
_cell_angle_alpha   74.06123934
_cell_angle_beta   74.06123934
_cell_angle_gamma   86.68149931
_symmetry_Int_Tables_number   1
_chemical_formula_structural   Cu4Ni4C5
_chemical_formula_sum   'Cu8 Ni8 C10'
_cell_volume   575.45552557
_cell_formula_units_Z   2
loop_
 _symmetry_equiv_pos_site_id
 _symmetry_equiv_pos_as_xyz
  1  'x, y, z'
loop_
 _atom_site_type_symbol
 _atom_site_label
 _atom_site_symmetry_multiplicity
 _atom_site_fract_x
 _atom_site_fract_y
 _atom_site_fract_z
 _atom_site_occupancy
  C  C0  1  0.00316800  0.26552700  0.87754200  1
  C  C1  1  0.73447300  0.99683200  0.12245800  1
  C  C2  1  0.37494600  0.62505400  0.50000000  1
  C  C3  1  0.99683200  0.73447300  0.12245800  1
  C  C4  1  0.26552700  0.00316800  0.87754200  1
  C  C5  1  0.62505400  0.37494600  0.50000000  1
  C  C6  1  0.62858300  0.62858300  0.87802900  1
  C  C7  1  0.37141700  0.37141700  0.12197100  1
  C  C8  1  0.00000000  0.00000000  0.00000000  1
  C  C9  1  0.00000000  0.00000000  0.50000000  1
  Ni  Ni10  1  0.84951300  0.84951300  0.88571300  1
  Ni  Ni11  1  0.15045600  0.15045600  0.61320300  1
  Ni  Ni12  1  0.84954400  0.84954400  0.38679700  1
  Ni  Ni13  1  0.14829200  0.85118000  0.74994200  1
  Ni  Ni14  1  0.15048700  0.15048700  0.11428700  1
  Ni  Ni15  1  0.85170800  0.14882000  0.25005800  1
  Ni  Ni16  1  0.85118000  0.14829200  0.74994200  1
  Ni  Ni17  1  0.14882000  0.85170800  0.25005800  1
  Cu  Cu18  1  0.50116100  0.75004300  0.13149400  1
  Cu  Cu19  1  0.50157000  0.75016500  0.63131600  1
  Cu  Cu20  1  0.24983500  0.49843000  0.36868400  1
  Cu  Cu21  1  0.24995700  0.49883900  0.86850600  1
  Cu  Cu22  1  0.75004300  0.50116100  0.13149400  1
  Cu  Cu23  1  0.49843000  0.24983500  0.36868400  1
  Cu  Cu24  1  0.49883900  0.24995700  0.86850600  1
  Cu  Cu25  1  0.75016500  0.50157000  0.63131600  1
