# generated using pymatgen
data_Cu3NiC16
_symmetry_space_group_name_H-M   'P 1'
_cell_length_a   9.54950202
_cell_length_b   9.54950202
_cell_length_c   9.54950243
_cell_angle_alpha   34.11097213
_cell_angle_beta   34.11097213
_cell_angle_gamma   34.11097635
_symmetry_Int_Tables_number   1
_chemical_formula_structural   Cu3NiC16
_chemical_formula_sum   'Cu3 Ni1 C16'
_cell_volume   244.17195562
_cell_formula_units_Z   1
loop_
 _symmetry_equiv_pos_site_id
 _symmetry_equiv_pos_as_xyz
  1  'x, y, z'
loop_
 _atom_site_type_symbol
 _atom_site_label
 _atom_site_symmetry_multiplicity
 _atom_site_fract_x
 _atom_site_fract_y
 _atom_site_fract_z
 _atom_site_occupancy
  Ni  Ni0  1  0.62479700  0.62479700  0.62479700  1
  Cu  Cu1  1  0.12572700  0.12572700  0.12572700  1
  Cu  Cu2  1  0.37335900  0.37335900  0.37335900  1
  Cu  Cu3  1  0.87658900  0.87658900  0.87658900  1
  C  C4  1  0.25018900  0.25018900  0.25018900  1
  C  C5  1  0.75026700  0.75026700  0.75026700  1
  C  C6  1  0.99984200  0.99984200  0.99984200  1
  C  C7  1  0.50024000  0.50024000  0.50024000  1
  C  C8  1  0.17679800  0.61516400  0.08083800  1
  C  C9  1  0.69334100  0.12240000  0.55867800  1
  C  C10  1  0.08083800  0.17679800  0.61516400  1
  C  C11  1  0.55867800  0.69334100  0.12240000  1
  C  C12  1  0.61516400  0.08083800  0.17679800  1
  C  C13  1  0.12240000  0.55867800  0.69334100  1
  C  C14  1  0.43771900  0.29992200  0.88179900  1
  C  C15  1  0.93757000  0.81301300  0.38175000  1
  C  C16  1  0.88179900  0.43771900  0.29992200  1
  C  C17  1  0.38175000  0.93757000  0.81301300  1
  C  C18  1  0.29992200  0.88179900  0.43771900  1
  C  C19  1  0.81301300  0.38175000  0.93757000  1
