# generated using pymatgen
data_CuNiC6
_symmetry_space_group_name_H-M   'P 1'
_cell_length_a   2.97364457
_cell_length_b   9.89331749
_cell_length_c   5.16098718
_cell_angle_alpha   80.06222246
_cell_angle_beta   90.00069961
_cell_angle_gamma   90.00080733
_symmetry_Int_Tables_number   1
_chemical_formula_structural   CuNiC6
_chemical_formula_sum   'Cu2 Ni2 C12'
_cell_volume   149.55403742
_cell_formula_units_Z   2
loop_
 _symmetry_equiv_pos_site_id
 _symmetry_equiv_pos_as_xyz
  1  'x, y, z'
loop_
 _atom_site_type_symbol
 _atom_site_label
 _atom_site_symmetry_multiplicity
 _atom_site_fract_x
 _atom_site_fract_y
 _atom_site_fract_z
 _atom_site_occupancy
  C  C0  1  0.00000000  0.50000000  0.50000000  1
  C  C1  1  0.00000000  0.00000000  0.00000000  1
  C  C2  1  0.50000000  0.74999600  0.25001300  1
  C  C3  1  0.50000000  0.25000400  0.74998700  1
  Ni  Ni4  1  0.99999600  0.74999600  0.75003000  1
  Ni  Ni5  1  0.00000400  0.25000400  0.24997000  1
  Cu  Cu6  1  0.50000000  0.00000000  0.50000000  1
  Cu  Cu7  1  0.50000000  0.50000000  0.00000000  1
  C  C8  1  0.99999900  0.63045100  0.09549900  1
  C  C9  1  0.99999100  0.13045200  0.59539100  1
  C  C10  1  0.00000100  0.36954900  0.90450100  1
  C  C11  1  0.00000900  0.86954800  0.40460900  1
  C  C12  1  0.50000100  0.86155800  0.87009700  1
  C  C13  1  0.50000000  0.36156600  0.37002800  1
  C  C14  1  0.49999900  0.13844200  0.12990300  1
  C  C15  1  0.50000000  0.63843400  0.62997200  1
