# generated using pymatgen
data_CuNi2C9
_symmetry_space_group_name_H-M   'P 1'
_cell_length_a   7.32032900
_cell_length_b   7.39247200
_cell_length_c   12.63459123
_cell_angle_alpha   89.52606812
_cell_angle_beta   90.00000000
_cell_angle_gamma   90.00000000
_symmetry_Int_Tables_number   1
_chemical_formula_structural   CuNi2C9
_chemical_formula_sum   'Cu2 Ni4 C18'
_cell_volume   683.70164772
_cell_formula_units_Z   2
loop_
 _symmetry_equiv_pos_site_id
 _symmetry_equiv_pos_as_xyz
  1  'x, y, z'
loop_
 _atom_site_type_symbol
 _atom_site_label
 _atom_site_symmetry_multiplicity
 _atom_site_fract_x
 _atom_site_fract_y
 _atom_site_fract_z
 _atom_site_occupancy
  C  C0  1  0.66421400  0.87334300  0.35783600  1
  C  C1  1  0.66919200  0.63459800  0.64596600  1
  C  C2  1  0.33080800  0.13459800  0.64596600  1
  C  C3  1  0.33578600  0.37334300  0.35783600  1
  C  C4  1  0.97230200  0.67284700  0.47444300  1
  C  C5  1  0.02769800  0.17284700  0.47444300  1
  Ni  Ni6  1  0.18124000  0.85616900  0.39644600  1
  Ni  Ni7  1  0.18800700  0.63945500  0.60346600  1
  Ni  Ni8  1  0.81199300  0.13945500  0.60346600  1
  Ni  Ni9  1  0.81876000  0.35616900  0.39644600  1
  Cu  Cu10  1  0.08257400  0.74729100  0.49998600  1
  Cu  Cu11  1  0.91742600  0.24729100  0.49998600  1
  C  C12  1  0.26701200  0.02007300  0.44111600  1
  C  C13  1  0.28924000  0.48225200  0.56202300  1
  C  C14  1  0.71076000  0.98225200  0.56202300  1
  C  C15  1  0.73298800  0.52007300  0.44111600  1
  C  C16  1  0.31958700  0.73827900  0.34815900  1
  C  C17  1  0.31388700  0.77259100  0.64819600  1
  C  C18  1  0.68611300  0.27259100  0.64819600  1
  C  C19  1  0.68041300  0.23827900  0.34815900  1
  C  C20  1  0.02469000  0.89639900  0.32952800  1
  C  C21  1  0.03334300  0.59070400  0.66983500  1
  C  C22  1  0.96665700  0.09070400  0.66983500  1
  C  C23  1  0.97531000  0.39639900  0.32952800  1
