# generated using pymatgen
data_Cu(NiC6)2
_symmetry_space_group_name_H-M   'P 1'
_cell_length_a   4.79753600
_cell_length_b   4.79753600
_cell_length_c   14.27391300
_cell_angle_alpha   90.00000000
_cell_angle_beta   90.00000000
_cell_angle_gamma   90.00000000
_symmetry_Int_Tables_number   1
_chemical_formula_structural   Cu(NiC6)2
_chemical_formula_sum   'Cu1 Ni2 C12'
_cell_volume   328.53340133
_cell_formula_units_Z   1
loop_
 _symmetry_equiv_pos_site_id
 _symmetry_equiv_pos_as_xyz
  1  'x, y, z'
loop_
 _atom_site_type_symbol
 _atom_site_label
 _atom_site_symmetry_multiplicity
 _atom_site_fract_x
 _atom_site_fract_y
 _atom_site_fract_z
 _atom_site_occupancy
  C  C0  1  0.50000000  0.50000000  0.99101800  1
  C  C1  1  0.50000000  0.50000000  0.34231500  1
  C  C2  1  0.50000000  0.50000000  0.66666700  1
  C  C3  1  0.50000000  0.00000000  0.16666700  1
  C  C4  1  0.50000000  0.00000000  0.50022800  1
  C  C5  1  0.50000000  0.00000000  0.83310500  1
  C  C6  1  0.00000000  0.50000000  0.16666700  1
  C  C7  1  0.00000000  0.50000000  0.50022800  1
  C  C8  1  0.00000000  0.50000000  0.83310500  1
  Ni  Ni9  1  0.50000000  0.50000000  0.50484300  1
  Ni  Ni10  1  0.50000000  0.50000000  0.82849000  1
  Cu  Cu11  1  0.50000000  0.50000000  0.16666700  1
  C  C12  1  0.00000000  0.00000000  0.99964000  1
  C  C13  1  0.00000000  0.00000000  0.33369300  1
  C  C14  1  0.00000000  0.00000000  0.66666700  1
