# generated using pymatgen
data_Cu(NiC4)2
_symmetry_space_group_name_H-M   'P 1'
_cell_length_a   14.70044000
_cell_length_b   7.02555500
_cell_length_c   11.16892589
_cell_angle_alpha   76.16574376
_cell_angle_beta   90.00000000
_cell_angle_gamma   90.00000000
_symmetry_Int_Tables_number   1
_chemical_formula_structural   Cu(NiC4)2
_chemical_formula_sum   'Cu8 Ni16 C64'
_cell_volume   1120.05101802
_cell_formula_units_Z   8
loop_
 _symmetry_equiv_pos_site_id
 _symmetry_equiv_pos_as_xyz
  1  'x, y, z'
loop_
 _atom_site_type_symbol
 _atom_site_label
 _atom_site_symmetry_multiplicity
 _atom_site_fract_x
 _atom_site_fract_y
 _atom_site_fract_z
 _atom_site_occupancy
  C  C0  1  0.50544500  0.93337800  0.73012900  1
  C  C1  1  0.87839000  0.67253200  0.97428300  1
  C  C2  1  0.37839000  0.32746800  0.52571700  1
  C  C3  1  0.12161000  0.32746800  0.02571700  1
  C  C4  1  0.62161000  0.67253200  0.47428300  1
  C  C5  1  0.99455500  0.93337800  0.23012900  1
  C  C6  1  0.49455500  0.06662200  0.26987100  1
  C  C7  1  0.00544500  0.06662200  0.76987100  1
  Ni  Ni8  1  0.86546900  0.16396500  0.97673800  1
  Ni  Ni9  1  0.01135700  0.58797700  0.68785100  1
  Ni  Ni10  1  0.48864300  0.58797700  0.18785100  1
  Ni  Ni11  1  0.98864300  0.41202300  0.31214900  1
  Ni  Ni12  1  0.71195800  0.49396000  0.79319100  1
  Ni  Ni13  1  0.21195800  0.50604000  0.70680900  1
  Ni  Ni14  1  0.28804200  0.50604000  0.20680900  1
  Ni  Ni15  1  0.78804200  0.49396000  0.29319100  1
  Ni  Ni16  1  0.51135700  0.41202300  0.81214900  1
  Ni  Ni17  1  0.14219900  0.12712900  0.47182800  1
  Ni  Ni18  1  0.64219900  0.87287100  0.02817200  1
  Ni  Ni19  1  0.85780100  0.87287100  0.52817200  1
  Ni  Ni20  1  0.36546900  0.83603500  0.52326200  1
  Ni  Ni21  1  0.63453100  0.16396500  0.47673800  1
  Ni  Ni22  1  0.13453100  0.83603500  0.02326200  1
  Ni  Ni23  1  0.35780100  0.12712900  0.97182800  1
  Cu  Cu24  1  0.67105700  0.37814800  0.08099700  1
  Cu  Cu25  1  0.17105700  0.62185200  0.41900300  1
  Cu  Cu26  1  0.32894300  0.62185200  0.91900300  1
  Cu  Cu27  1  0.82894300  0.37814800  0.58099700  1
  Cu  Cu28  1  0.75663000  0.99405600  0.25104000  1
  Cu  Cu29  1  0.25663000  0.00594400  0.24896000  1
  Cu  Cu30  1  0.24337000  0.00594400  0.74896000  1
  Cu  Cu31  1  0.74337000  0.99405600  0.75104000  1
  C  C32  1  0.98220900  0.22139300  0.96070000  1
  C  C33  1  0.48220900  0.77860700  0.53930000  1
  C  C34  1  0.01779100  0.77860700  0.03930000  1
  C  C35  1  0.51779100  0.22139300  0.46070000  1
  C  C36  1  0.84734300  0.00776300  0.86791000  1
  C  C37  1  0.34734300  0.99223700  0.63209000  1
  C  C38  1  0.15265700  0.99223700  0.13209000  1
  C  C39  1  0.65265700  0.00776300  0.36791000  1
  C  C40  1  0.85036200  0.99678500  0.13134600  1
  C  C41  1  0.35036200  0.00321500  0.36865400  1
  C  C42  1  0.14963800  0.00321500  0.86865400  1
  C  C43  1  0.64963800  0.99678500  0.63134600  1
  C  C44  1  0.28515400  0.35652100  0.93591200  1
  C  C45  1  0.78515400  0.64347900  0.56408800  1
  C  C46  1  0.71484600  0.64347900  0.06408800  1
  C  C47  1  0.21484600  0.35652100  0.43591200  1
  C  C48  1  0.35443500  0.01650300  0.13616200  1
  C  C49  1  0.85443500  0.98349700  0.36383800  1
  C  C50  1  0.64556500  0.98349700  0.86383800  1
  C  C51  1  0.14556500  0.01650300  0.63616200  1
  C  C52  1  0.33436800  0.92460500  0.89090800  1
  C  C53  1  0.43300500  0.61839100  0.82556400  1
  C  C54  1  0.83436800  0.07539500  0.60909200  1
  C  C55  1  0.16563200  0.92460500  0.39090800  1
  C  C56  1  0.47392700  0.27520500  0.70758900  1
  C  C57  1  0.97392700  0.72479500  0.79241100  1
  C  C58  1  0.52607300  0.72479500  0.29241100  1
  C  C59  1  0.02607300  0.27520500  0.20758900  1
  C  C60  1  0.47128100  0.21696800  0.95595300  1
  C  C61  1  0.97128100  0.78303200  0.54404700  1
  C  C62  1  0.52871900  0.78303200  0.04404700  1
  C  C63  1  0.02871900  0.21696800  0.45595300  1
  C  C64  1  0.89492800  0.57003000  0.20584700  1
  C  C65  1  0.39492800  0.42997000  0.29415300  1
  C  C66  1  0.10507200  0.42997000  0.79415300  1
  C  C67  1  0.60507200  0.57003000  0.70584700  1
  C  C68  1  0.75471700  0.29517300  0.21662800  1
  C  C69  1  0.25471700  0.70482700  0.28337200  1
  C  C70  1  0.24528300  0.70482700  0.78337200  1
  C  C71  1  0.74528300  0.29517300  0.71662800  1
  C  C72  1  0.70593300  0.38819100  0.44699100  1
  C  C73  1  0.20593300  0.61180900  0.05300900  1
  C  C74  1  0.29406700  0.61180900  0.55300900  1
  C  C75  1  0.79406700  0.38819100  0.94699100  1
  C  C76  1  0.72962400  0.73475300  0.28321000  1
  C  C77  1  0.22962400  0.26524700  0.21679000  1
  C  C78  1  0.27037600  0.26524700  0.71679000  1
  C  C79  1  0.77037600  0.73475300  0.78321000  1
  C  C80  1  0.87672400  0.41070000  0.42146000  1
  C  C81  1  0.37672400  0.58930000  0.07854000  1
  C  C82  1  0.12327600  0.58930000  0.57854000  1
  C  C83  1  0.62327600  0.41070000  0.92146000  1
  C  C84  1  0.06699500  0.61839100  0.32556400  1
  C  C85  1  0.56699500  0.38160900  0.17443600  1
  C  C86  1  0.93300500  0.38160900  0.67443600  1
  C  C87  1  0.66563200  0.07539500  0.10909200  1
