# generated using pymatgen
data_Cu2NiC8
_symmetry_space_group_name_H-M   'P 1'
_cell_length_a   7.03923353
_cell_length_b   9.11958101
_cell_length_c   9.46247085
_cell_angle_alpha   63.36518268
_cell_angle_beta   104.18504899
_cell_angle_gamma   112.79495571
_symmetry_Int_Tables_number   1
_chemical_formula_structural   Cu2NiC8
_chemical_formula_sum   'Cu8 Ni4 C32'
_cell_volume   498.69241790
_cell_formula_units_Z   4
loop_
 _symmetry_equiv_pos_site_id
 _symmetry_equiv_pos_as_xyz
  1  'x, y, z'
loop_
 _atom_site_type_symbol
 _atom_site_label
 _atom_site_symmetry_multiplicity
 _atom_site_fract_x
 _atom_site_fract_y
 _atom_site_fract_z
 _atom_site_occupancy
  Ni  Ni0  1  0.49424100  0.83793300  0.82370600  1
  Ni  Ni1  1  0.99410400  0.33782400  0.32372200  1
  Ni  Ni2  1  0.00565600  0.66200900  0.67625900  1
  Ni  Ni3  1  0.50574100  0.16200700  0.17637800  1
  C  C4  1  0.55574000  0.39532000  0.80938600  1
  C  C5  1  0.94426300  0.10446800  0.69069800  1
  C  C6  1  0.05594000  0.89572000  0.30930100  1
  C  C7  1  0.44403800  0.60420800  0.19066800  1
  Cu  Cu8  1  0.29960300  0.61304000  0.48250000  1
  Cu  Cu9  1  0.79951600  0.11287100  0.98272200  1
  Cu  Cu10  1  0.20048700  0.88702500  0.01744300  1
  Cu  Cu11  1  0.70056500  0.38713900  0.51731300  1
  Cu  Cu12  1  0.29033100  0.09250800  0.52218100  1
  Cu  Cu13  1  0.79019200  0.59246100  0.02232200  1
  Cu  Cu14  1  0.20951300  0.40751500  0.97773200  1
  Cu  Cu15  1  0.70968200  0.90759100  0.47758900  1
  C  C16  1  0.74711400  0.05182800  0.84528300  1
  C  C17  1  0.24725700  0.55119900  0.34565200  1
  C  C18  1  0.75295200  0.44801800  0.65487300  1
  C  C19  1  0.25270200  0.94864300  0.15443300  1
  C  C20  1  0.34714300  0.48163700  0.64210500  1
  C  C21  1  0.84727200  0.98140100  0.14206900  1
  C  C22  1  0.15310800  0.01865200  0.85796300  1
  C  C23  1  0.65319700  0.51881900  0.35786700  1
  C  C24  1  0.13383600  0.68536800  0.48150600  1
  C  C25  1  0.63385300  0.18514900  0.98219600  1
  C  C26  1  0.36624800  0.81465600  0.01847800  1
  C  C27  1  0.86618000  0.31461400  0.51828800  1
  C  C28  1  0.22602300  0.58460100  0.84080500  1
  C  C29  1  0.72618700  0.08470000  0.34079900  1
  C  C30  1  0.27396300  0.91549600  0.65913200  1
  C  C31  1  0.77377000  0.41540100  0.15916600  1
  C  C32  1  0.30055600  0.09128300  0.36207000  1
  C  C33  1  0.79982900  0.59135200  0.86207900  1
  C  C34  1  0.19944100  0.40865900  0.13795200  1
  C  C35  1  0.70007800  0.90849300  0.63797900  1
  C  C36  1  0.49625300  0.22151600  0.57052500  1
  C  C37  1  0.99631700  0.72130200  0.07086700  1
  C  C38  1  0.00364900  0.27856800  0.92917400  1
  C  C39  1  0.50371500  0.77900600  0.42878400  1
  C  C40  1  0.88344900  0.83901100  0.48663300  1
  C  C41  1  0.38337500  0.33906800  0.98677200  1
  C  C42  1  0.61644600  0.66104900  0.01334900  1
  C  C43  1  0.11647500  0.16087100  0.51328900  1
