# generated using pymatgen
data_Cu21(NiC10)2
_symmetry_space_group_name_H-M   'P 1'
_cell_length_a   8.76270541
_cell_length_b   8.76270541
_cell_length_c   8.76270541
_cell_angle_alpha   131.53157093
_cell_angle_beta   131.53157093
_cell_angle_gamma   70.96987350
_symmetry_Int_Tables_number   1
_chemical_formula_structural   Cu21(NiC10)2
_chemical_formula_sum   'Cu21 Ni2 C20'
_cell_volume   369.23250342
_cell_formula_units_Z   1
loop_
 _symmetry_equiv_pos_site_id
 _symmetry_equiv_pos_as_xyz
  1  'x, y, z'
loop_
 _atom_site_type_symbol
 _atom_site_label
 _atom_site_symmetry_multiplicity
 _atom_site_fract_x
 _atom_site_fract_y
 _atom_site_fract_z
 _atom_site_occupancy
  Ni  Ni0  1  0.80956400  0.80956400  0.00000000  1
  Ni  Ni1  1  0.19043600  0.19043600  0.00000000  1
  Cu  Cu2  1  0.89925100  0.19817600  0.29892500  1
  Cu  Cu3  1  0.89925100  0.60032600  0.70107500  1
  Cu  Cu4  1  0.19817600  0.89925100  0.29892500  1
  Cu  Cu5  1  0.60032600  0.89925100  0.70107500  1
  Cu  Cu6  1  0.10074900  0.80182400  0.70107500  1
  Cu  Cu7  1  0.10074900  0.39967400  0.29892500  1
  Cu  Cu8  1  0.80182400  0.10074900  0.70107500  1
  Cu  Cu9  1  0.39967400  0.10074900  0.29892500  1
  Cu  Cu10  1  0.23984700  0.50000000  0.73984700  1
  Cu  Cu11  1  0.76015300  0.50000000  0.26015300  1
  Cu  Cu12  1  0.50000000  0.76015300  0.26015300  1
  Cu  Cu13  1  0.50000000  0.23984700  0.73984700  1
  Cu  Cu14  1  0.00000000  0.00000000  0.50000000  1
  Cu  Cu15  1  0.50000000  0.50000000  0.50000000  1
  Cu  Cu16  1  0.00000000  0.50000000  0.00000000  1
  Cu  Cu17  1  0.50000000  0.00000000  0.00000000  1
  Cu  Cu18  1  0.75000000  0.25000000  0.50000000  1
  Cu  Cu19  1  0.25000000  0.75000000  0.50000000  1
  Cu  Cu20  1  0.00000000  0.00000000  0.00000000  1
  Cu  Cu21  1  0.63829600  0.63829600  0.00000000  1
  Cu  Cu22  1  0.36170400  0.36170400  0.00000000  1
  C  C23  1  0.65388200  0.95299600  0.29911300  1
  C  C24  1  0.65388200  0.35476900  0.70088700  1
  C  C25  1  0.95299600  0.65388200  0.29911300  1
  C  C26  1  0.35476900  0.65388200  0.70088700  1
  C  C27  1  0.34611800  0.04700400  0.70088700  1
  C  C28  1  0.34611800  0.64523100  0.29911300  1
  C  C29  1  0.04700400  0.34611800  0.70088700  1
  C  C30  1  0.64523100  0.34611800  0.29911300  1
  C  C31  1  0.18844000  0.18844000  0.58865000  1
  C  C32  1  0.59979000  0.59979000  0.41135000  1
  C  C33  1  0.18844000  0.59979000  0.00000000  1
  C  C34  1  0.59979000  0.18844000  0.00000000  1
  C  C35  1  0.81156000  0.81156000  0.41135000  1
  C  C36  1  0.40021000  0.40021000  0.58865000  1
  C  C37  1  0.81156000  0.40021000  0.00000000  1
  C  C38  1  0.40021000  0.81156000  0.00000000  1
  C  C39  1  0.20281900  0.20281900  0.40563800  1
  C  C40  1  0.79718100  0.79718100  0.59436200  1
  C  C41  1  0.20281900  0.79718100  0.00000000  1
  C  C42  1  0.79718100  0.20281900  0.00000000  1
