# generated using pymatgen
data_CuNiC9
_symmetry_space_group_name_H-M   'P 1'
_cell_length_a   8.69416700
_cell_length_b   7.38121600
_cell_length_c   9.72654650
_cell_angle_alpha   66.03238406
_cell_angle_beta   90.00000000
_cell_angle_gamma   90.00000000
_symmetry_Int_Tables_number   1
_chemical_formula_structural   CuNiC9
_chemical_formula_sum   'Cu4 Ni4 C36'
_cell_volume   570.36639301
_cell_formula_units_Z   4
loop_
 _symmetry_equiv_pos_site_id
 _symmetry_equiv_pos_as_xyz
  1  'x, y, z'
loop_
 _atom_site_type_symbol
 _atom_site_label
 _atom_site_symmetry_multiplicity
 _atom_site_fract_x
 _atom_site_fract_y
 _atom_site_fract_z
 _atom_site_occupancy
  Ni  Ni0  1  0.07617800  0.72630600  0.89298600  1
  Ni  Ni1  1  0.57617800  0.27369400  0.60701400  1
  Ni  Ni2  1  0.92382200  0.27369400  0.10701400  1
  Ni  Ni3  1  0.42382200  0.72630600  0.39298600  1
  Cu  Cu4  1  0.94371600  0.18467400  0.68325800  1
  Cu  Cu5  1  0.44371600  0.81532600  0.81674200  1
  Cu  Cu6  1  0.05628400  0.81532600  0.31674200  1
  Cu  Cu7  1  0.55628400  0.18467400  0.18325800  1
  C  C8  1  0.77285000  0.56462100  0.75193400  1
  C  C9  1  0.27285000  0.43537900  0.74806600  1
  C  C10  1  0.22715000  0.43537900  0.24806600  1
  C  C11  1  0.72715000  0.56462100  0.25193400  1
  C  C12  1  0.72368700  0.97981500  0.96024400  1
  C  C13  1  0.22368700  0.02018500  0.53975600  1
  C  C14  1  0.27631300  0.02018500  0.03975600  1
  C  C15  1  0.77631300  0.97981500  0.46024400  1
  C  C16  1  0.73155100  0.13790400  0.04957700  1
  C  C17  1  0.23155100  0.86209600  0.45042300  1
  C  C18  1  0.26844900  0.86209600  0.95042300  1
  C  C19  1  0.76844900  0.13790400  0.54957700  1
  C  C20  1  0.59977000  0.64565900  0.77756100  1
  C  C21  1  0.09977000  0.35434100  0.72243900  1
  C  C22  1  0.40023000  0.35434100  0.22243900  1
  C  C23  1  0.90023000  0.64565900  0.27756100  1
  C  C24  1  0.90364500  0.53059800  0.89165000  1
  C  C25  1  0.40364500  0.46940200  0.60835000  1
  C  C26  1  0.09635500  0.46940200  0.10835000  1
  C  C27  1  0.59635500  0.53059800  0.39165000  1
  C  C28  1  0.85598300  0.74908300  0.58503000  1
  C  C29  1  0.35598300  0.25091700  0.91497000  1
  C  C30  1  0.14401700  0.25091700  0.41497000  1
  C  C31  1  0.64401700  0.74908300  0.08503000  1
  C  C32  1  0.91585200  0.03697000  0.32551100  1
  C  C33  1  0.41585200  0.96303000  0.17448900  1
  C  C34  1  0.08414800  0.96303000  0.67448900  1
  C  C35  1  0.58414800  0.03697000  0.82551100  1
  C  C36  1  0.74038700  0.36710300  0.20452600  1
  C  C37  1  0.24038700  0.63289700  0.29547400  1
  C  C38  1  0.25961300  0.63289700  0.79547400  1
  C  C39  1  0.75961300  0.36710300  0.70452600  1
  C  C40  1  0.60102200  0.94623300  0.39551600  1
  C  C41  1  0.10102200  0.05376700  0.10448400  1
  C  C42  1  0.39897800  0.05376700  0.60448400  1
  C  C43  1  0.89897800  0.94623300  0.89551600  1
