# generated using pymatgen
data_CuNi3C14
_symmetry_space_group_name_H-M   'P 1'
_cell_length_a   7.94919861
_cell_length_b   7.55016300
_cell_length_c   7.60501582
_cell_angle_alpha   90.00000000
_cell_angle_beta   92.03821266
_cell_angle_gamma   90.00000000
_symmetry_Int_Tables_number   1
_chemical_formula_structural   CuNi3C14
_chemical_formula_sum   'Cu2 Ni6 C28'
_cell_volume   456.14712809
_cell_formula_units_Z   2
loop_
 _symmetry_equiv_pos_site_id
 _symmetry_equiv_pos_as_xyz
  1  'x, y, z'
loop_
 _atom_site_type_symbol
 _atom_site_label
 _atom_site_symmetry_multiplicity
 _atom_site_fract_x
 _atom_site_fract_y
 _atom_site_fract_z
 _atom_site_occupancy
  C  C0  1  0.29358200  0.25780300  0.22143900  1
  C  C1  1  0.22959500  0.26610100  0.74047700  1
  C  C2  1  0.29358200  0.74219700  0.22143900  1
  C  C3  1  0.22959500  0.73389900  0.74047700  1
  C  C4  1  0.74261700  0.26942300  0.26431900  1
  C  C5  1  0.77742900  0.26483400  0.72600000  1
  C  C6  1  0.74261700  0.73057700  0.26431900  1
  C  C7  1  0.77742900  0.73516600  0.72600000  1
  Ni  Ni8  1  0.99595100  0.50000000  0.97703100  1
  Ni  Ni9  1  0.99785200  0.50000000  0.47373700  1
  Ni  Ni10  1  0.55081800  0.00000000  0.99843100  1
  Ni  Ni11  1  0.49025300  0.00000000  0.53250100  1
  Ni  Ni12  1  0.49737000  0.50000000  0.98185300  1
  Ni  Ni13  1  0.49882700  0.50000000  0.49088600  1
  Cu  Cu14  1  0.98726500  0.00000000  0.03952900  1
  Cu  Cu15  1  0.05090200  0.00000000  0.45125000  1
  C  C16  1  0.95140700  0.50000000  0.22346300  1
  C  C17  1  0.02409500  0.50000000  0.72382700  1
  C  C18  1  0.48177200  0.00000000  0.25745800  1
  C  C19  1  0.63359000  0.00000000  0.75987100  1
  C  C20  1  0.52325300  0.50000000  0.23893400  1
  C  C21  1  0.12587000  0.00000000  0.23138900  1
  C  C22  1  0.23526100  0.00000000  0.59340300  1
  C  C23  1  0.25254800  0.50000000  0.99720800  1
  C  C24  1  0.25123200  0.50000000  0.46525500  1
  C  C25  1  0.78465000  0.00000000  0.12434800  1
  C  C26  1  0.73274800  0.50000000  0.92899500  1
  C  C27  1  0.74054800  0.50000000  0.51083500  1
  C  C28  1  0.01794000  0.20216300  0.92938400  1
  C  C29  1  0.94390400  0.20128000  0.48495000  1
  C  C30  1  0.01794000  0.79783700  0.92938400  1
  C  C31  1  0.94390400  0.79872000  0.48495000  1
  C  C32  1  0.46656700  0.24250000  0.96914500  1
  C  C33  1  0.50025900  0.25352900  0.53918700  1
  C  C34  1  0.46656700  0.75750000  0.96914500  1
  C  C35  1  0.50025900  0.74647100  0.53918700  1
