# generated using pymatgen
data_Cu4Ni8C21
_symmetry_space_group_name_H-M   'P 1'
_cell_length_a   5.28711645
_cell_length_b   9.16930300
_cell_length_c   16.00788390
_cell_angle_alpha   90.00000000
_cell_angle_beta   92.49760491
_cell_angle_gamma   90.00000000
_symmetry_Int_Tables_number   1
_chemical_formula_structural   Cu4Ni8C21
_chemical_formula_sum   'Cu8 Ni16 C42'
_cell_volume   775.31175662
_cell_formula_units_Z   2
loop_
 _symmetry_equiv_pos_site_id
 _symmetry_equiv_pos_as_xyz
  1  'x, y, z'
loop_
 _atom_site_type_symbol
 _atom_site_label
 _atom_site_symmetry_multiplicity
 _atom_site_fract_x
 _atom_site_fract_y
 _atom_site_fract_z
 _atom_site_occupancy
  C  C0  1  0.73810000  0.13765700  0.46067600  1
  C  C1  1  0.26190000  0.63765700  0.03932400  1
  C  C2  1  0.26190000  0.86234300  0.53932400  1
  C  C3  1  0.73810000  0.36234300  0.96067600  1
  C  C4  1  0.00000000  0.50000000  0.50000000  1
  C  C5  1  0.00000000  0.00000000  0.00000000  1
  C  C6  1  0.69861000  0.07378500  0.67145100  1
  C  C7  1  0.30139000  0.57378500  0.82854900  1
  C  C8  1  0.30139000  0.92621500  0.32854900  1
  C  C9  1  0.69861000  0.42621500  0.17145100  1
  Ni  Ni10  1  0.73256000  0.78681000  0.59385700  1
  Ni  Ni11  1  0.26744000  0.28681000  0.90614300  1
  Ni  Ni12  1  0.26744000  0.21319000  0.40614300  1
  Ni  Ni13  1  0.73256000  0.71319000  0.09385700  1
  Ni  Ni14  1  0.61795200  0.74867500  0.68085300  1
  Ni  Ni15  1  0.38204800  0.24867500  0.81914700  1
  Ni  Ni16  1  0.38204800  0.25132500  0.31914700  1
  Ni  Ni17  1  0.61795200  0.75132500  0.18085300  1
  Ni  Ni18  1  0.20374400  0.57052700  0.63771600  1
  Ni  Ni19  1  0.79625600  0.07052700  0.86228400  1
  Ni  Ni20  1  0.79625600  0.42947300  0.36228400  1
  Ni  Ni21  1  0.20374400  0.92947300  0.13771600  1
  Ni  Ni22  1  0.44563400  0.53108500  0.58586400  1
  Ni  Ni23  1  0.55436600  0.03108500  0.91413600  1
  Ni  Ni24  1  0.55436600  0.46891500  0.41413600  1
  Ni  Ni25  1  0.44563400  0.96891500  0.08586400  1
  Cu  Cu26  1  0.19926600  0.21803500  0.59820500  1
  Cu  Cu27  1  0.80073500  0.71803500  0.90179500  1
  Cu  Cu28  1  0.80073500  0.78196500  0.40179500  1
  Cu  Cu29  1  0.19926600  0.28196500  0.09820500  1
  Cu  Cu30  1  0.21023900  0.96457200  0.77345200  1
  Cu  Cu31  1  0.78976100  0.46457200  0.72654800  1
  Cu  Cu32  1  0.78976100  0.03542800  0.22654800  1
  Cu  Cu33  1  0.21023900  0.53542800  0.27345200  1
  C  C34  1  0.92155700  0.05936800  0.77308900  1
  C  C35  1  0.07844300  0.55936800  0.72691100  1
  C  C36  1  0.07844300  0.94063200  0.22691100  1
  C  C37  1  0.92155700  0.44063200  0.27308900  1
  C  C38  1  0.98480300  0.07252900  0.59481800  1
  C  C39  1  0.01519700  0.57252900  0.90518200  1
  C  C40  1  0.01519700  0.92747100  0.40518200  1
  C  C41  1  0.98480300  0.42747100  0.09481800  1
  C  C42  1  0.41274400  0.10791900  0.74622300  1
  C  C43  1  0.58725600  0.60791900  0.75377700  1
  C  C44  1  0.58725600  0.89208100  0.25377700  1
  C  C45  1  0.41274400  0.39208100  0.24622300  1
  C  C46  1  0.12550100  0.29504900  0.50032000  1
  C  C47  1  0.87449900  0.79504900  0.99968000  1
  C  C48  1  0.87449900  0.70495100  0.49968000  1
  C  C49  1  0.12550100  0.20495100  0.00032000  1
  C  C50  1  0.62821900  0.82731400  0.63809600  1
  C  C51  1  0.37178100  0.32731400  0.86190400  1
  C  C52  1  0.37178100  0.17268600  0.36190400  1
  C  C53  1  0.62821900  0.67268600  0.13809600  1
  C  C54  1  0.27379300  0.57720200  0.57965700  1
  C  C55  1  0.72620700  0.07720200  0.92034300  1
  C  C56  1  0.72620700  0.42279800  0.42034300  1
  C  C57  1  0.27379300  0.92279800  0.07965700  1
  C  C58  1  0.46650300  0.12076900  0.57309400  1
  C  C59  1  0.53349700  0.62076900  0.92690600  1
  C  C60  1  0.53349700  0.87923100  0.42690600  1
  C  C61  1  0.46650300  0.37923100  0.07309400  1
  C  C62  1  0.27209600  0.94782900  0.87810600  1
  C  C63  1  0.72790400  0.44782900  0.62189400  1
  C  C64  1  0.72790400  0.05217100  0.12189400  1
  C  C65  1  0.27209600  0.55217100  0.37810600  1
