# generated using pymatgen
data_Cu2Ni3C10
_symmetry_space_group_name_H-M   'P 1'
_cell_length_a   7.55450700
_cell_length_b   7.71359900
_cell_length_c   9.61941000
_cell_angle_alpha   90.00000000
_cell_angle_beta   90.00000000
_cell_angle_gamma   90.00000000
_symmetry_Int_Tables_number   1
_chemical_formula_structural   Cu2Ni3C10
_chemical_formula_sum   'Cu4 Ni6 C20'
_cell_volume   560.54646937
_cell_formula_units_Z   2
loop_
 _symmetry_equiv_pos_site_id
 _symmetry_equiv_pos_as_xyz
  1  'x, y, z'
loop_
 _atom_site_type_symbol
 _atom_site_label
 _atom_site_symmetry_multiplicity
 _atom_site_fract_x
 _atom_site_fract_y
 _atom_site_fract_z
 _atom_site_occupancy
  C  C0  1  0.00000000  0.16908400  0.00000000  1
  C  C1  1  0.50000000  0.83091600  0.50000000  1
  Ni  Ni2  1  0.25000000  0.50000000  0.75000000  1
  Ni  Ni3  1  0.25000000  0.50000000  0.25000000  1
  Ni  Ni4  1  0.75000000  0.50000000  0.75000000  1
  Ni  Ni5  1  0.50000000  0.37146800  0.50000000  1
  Ni  Ni6  1  0.00000000  0.62853200  0.00000000  1
  Ni  Ni7  1  0.75000000  0.50000000  0.25000000  1
  Cu  Cu8  1  0.50000000  0.08746400  0.82382400  1
  Cu  Cu9  1  0.00000000  0.91253600  0.67617600  1
  Cu  Cu10  1  0.50000000  0.08746400  0.17617600  1
  Cu  Cu11  1  0.00000000  0.91253600  0.32382400  1
  C  C12  1  0.00000000  0.41669700  0.50000000  1
  C  C13  1  0.50000000  0.58330300  0.00000000  1
  C  C14  1  0.00000000  0.40052500  0.85501100  1
  C  C15  1  0.00000000  0.94025700  0.85558600  1
  C  C16  1  0.50000000  0.05974300  0.35558600  1
  C  C17  1  0.31608800  0.22052200  0.84518800  1
  C  C18  1  0.18391200  0.77947800  0.34518800  1
  C  C19  1  0.81608800  0.77947800  0.34518800  1
  C  C20  1  0.50000000  0.59947500  0.64498900  1
  C  C21  1  0.68391200  0.22052200  0.84518800  1
  C  C22  1  0.68391200  0.22052200  0.15481200  1
  C  C23  1  0.81608800  0.77947800  0.65481200  1
  C  C24  1  0.00000000  0.40052500  0.14498900  1
  C  C25  1  0.50000000  0.59947500  0.35501100  1
  C  C26  1  0.18391200  0.77947800  0.65481200  1
  C  C27  1  0.31608800  0.22052200  0.15481200  1
  C  C28  1  0.50000000  0.05974300  0.64441400  1
  C  C29  1  0.00000000  0.94025700  0.14441400  1
