# generated using pymatgen
data_Cu3NiC3
_symmetry_space_group_name_H-M   'P 1'
_cell_length_a   6.99404257
_cell_length_b   6.99404257
_cell_length_c   6.99404257
_cell_angle_alpha   146.46848131
_cell_angle_beta   146.00246969
_cell_angle_gamma   48.49818692
_symmetry_Int_Tables_number   1
_chemical_formula_structural   Cu3NiC3
_chemical_formula_sum   'Cu3 Ni1 C3'
_cell_volume   105.22506203
_cell_formula_units_Z   1
loop_
 _symmetry_equiv_pos_site_id
 _symmetry_equiv_pos_as_xyz
  1  'x, y, z'
loop_
 _atom_site_type_symbol
 _atom_site_label
 _atom_site_symmetry_multiplicity
 _atom_site_fract_x
 _atom_site_fract_y
 _atom_site_fract_z
 _atom_site_occupancy
  C  C0  1  0.64476600  0.64476600  0.00000000  1
  C  C1  1  0.35523400  0.35523400  0.00000000  1
  C  C2  1  0.00000000  0.00000000  0.00000000  1
  Ni  Ni3  1  0.50000000  0.00000000  0.50000000  1
  Cu  Cu4  1  0.83917700  0.83917700  0.00000000  1
  Cu  Cu5  1  0.16082300  0.16082300  0.00000000  1
  Cu  Cu6  1  0.00000000  0.50000000  0.50000000  1
