# generated using pymatgen
data_Cu6Ni24C53
_symmetry_space_group_name_H-M   'P 1'
_cell_length_a   8.26390400
_cell_length_b   20.42360200
_cell_length_c   7.74371300
_cell_angle_alpha   90.00000000
_cell_angle_beta   90.00000000
_cell_angle_gamma   90.00000000
_symmetry_Int_Tables_number   1
_chemical_formula_structural   Cu6Ni24C53
_chemical_formula_sum   'Cu12 Ni48 C106'
_cell_volume   1306.97370693
_cell_formula_units_Z   2
loop_
 _symmetry_equiv_pos_site_id
 _symmetry_equiv_pos_as_xyz
  1  'x, y, z'
loop_
 _atom_site_type_symbol
 _atom_site_label
 _atom_site_symmetry_multiplicity
 _atom_site_fract_x
 _atom_site_fract_y
 _atom_site_fract_z
 _atom_site_occupancy
  C  C0  1  0.80858200  0.06868600  0.50000000  1
  C  C1  1  0.19141800  0.93131400  0.50000000  1
  C  C2  1  0.30858200  0.43131400  0.50000000  1
  C  C3  1  0.69141800  0.56868600  0.50000000  1
  C  C4  1  0.89956600  0.32684900  0.50000000  1
  C  C5  1  0.10043400  0.67315100  0.50000000  1
  C  C6  1  0.39956600  0.17315100  0.50000000  1
  C  C7  1  0.60043400  0.82684900  0.50000000  1
  C  C8  1  0.59605100  0.11772700  0.00000000  1
  C  C9  1  0.40394900  0.88227300  0.00000000  1
  C  C10  1  0.09605100  0.38227300  0.00000000  1
  C  C11  1  0.90394900  0.61772700  0.00000000  1
  C  C12  1  0.50000000  0.50000000  0.00000000  1
  C  C13  1  0.00000000  0.00000000  0.00000000  1
  Ni  Ni14  1  0.64908300  0.42904800  0.33112100  1
  Ni  Ni15  1  0.35091700  0.57095200  0.33112100  1
  Ni  Ni16  1  0.14908300  0.07095200  0.66887900  1
  Ni  Ni17  1  0.85091700  0.92904800  0.66887900  1
  Ni  Ni18  1  0.35091700  0.57095200  0.66887900  1
  Ni  Ni19  1  0.64908300  0.42904800  0.66887900  1
  Ni  Ni20  1  0.85091700  0.92904800  0.33112100  1
  Ni  Ni21  1  0.14908300  0.07095200  0.33112100  1
  Ni  Ni22  1  0.71229000  0.32230500  0.17778700  1
  Ni  Ni23  1  0.28771000  0.67769500  0.17778700  1
  Ni  Ni24  1  0.21229000  0.17769500  0.82221300  1
  Ni  Ni25  1  0.78771000  0.82230500  0.82221300  1
  Ni  Ni26  1  0.28771000  0.67769500  0.82221300  1
  Ni  Ni27  1  0.71229000  0.32230500  0.82221300  1
  Ni  Ni28  1  0.78771000  0.82230500  0.17778700  1
  Ni  Ni29  1  0.21229000  0.17769500  0.17778700  1
  Ni  Ni30  1  0.73326400  0.20717100  0.33402200  1
  Ni  Ni31  1  0.26673600  0.79282900  0.33402200  1
  Ni  Ni32  1  0.23326400  0.29282900  0.66597800  1
  Ni  Ni33  1  0.76673600  0.70717100  0.66597800  1
  Ni  Ni34  1  0.26673600  0.79282900  0.66597800  1
  Ni  Ni35  1  0.73326400  0.20717100  0.66597800  1
  Ni  Ni36  1  0.76673600  0.70717100  0.33402200  1
  Ni  Ni37  1  0.23326400  0.29282900  0.33402200  1
  Ni  Ni38  1  0.87073500  0.49163100  0.16886600  1
  Ni  Ni39  1  0.12926500  0.50836900  0.16886600  1
  Ni  Ni40  1  0.37073500  0.00836900  0.83113400  1
  Ni  Ni41  1  0.62926500  0.99163100  0.83113400  1
  Ni  Ni42  1  0.12926500  0.50836900  0.83113400  1
  Ni  Ni43  1  0.87073500  0.49163100  0.83113400  1
  Ni  Ni44  1  0.62926500  0.99163100  0.16886600  1
  Ni  Ni45  1  0.37073500  0.00836900  0.16886600  1
  Ni  Ni46  1  0.92200600  0.13088200  0.16823900  1
  Ni  Ni47  1  0.07799400  0.86911800  0.16823900  1
  Ni  Ni48  1  0.42200600  0.36911800  0.83176100  1
  Ni  Ni49  1  0.57799400  0.63088200  0.83176100  1
  Ni  Ni50  1  0.07799400  0.86911800  0.83176100  1
  Ni  Ni51  1  0.92200600  0.13088200  0.83176100  1
  Ni  Ni52  1  0.57799400  0.63088200  0.16823900  1
  Ni  Ni53  1  0.42200600  0.36911800  0.16823900  1
  Ni  Ni54  1  0.98242000  0.26014000  0.16691300  1
  Ni  Ni55  1  0.01758000  0.73986000  0.16691300  1
  Ni  Ni56  1  0.48242000  0.23986000  0.83308700  1
  Ni  Ni57  1  0.51758000  0.76014000  0.83308700  1
  Ni  Ni58  1  0.01758000  0.73986000  0.83308700  1
  Ni  Ni59  1  0.98242000  0.26014000  0.83308700  1
  Ni  Ni60  1  0.51758000  0.76014000  0.16691300  1
  Ni  Ni61  1  0.48242000  0.23986000  0.16691300  1
  Cu  Cu62  1  0.51834100  0.06848100  0.38867900  1
  Cu  Cu63  1  0.48165900  0.93151900  0.38867900  1
  Cu  Cu64  1  0.01834100  0.43151900  0.61132100  1
  Cu  Cu65  1  0.98165900  0.56848100  0.61132100  1
  Cu  Cu66  1  0.48165900  0.93151900  0.61132100  1
  Cu  Cu67  1  0.51834100  0.06848100  0.61132100  1
  Cu  Cu68  1  0.98165900  0.56848100  0.38867900  1
  Cu  Cu69  1  0.01834100  0.43151900  0.38867900  1
  Cu  Cu70  1  0.74928500  0.40046500  0.00000000  1
  Cu  Cu71  1  0.25071500  0.59953500  0.00000000  1
  Cu  Cu72  1  0.24928500  0.09953500  0.00000000  1
  Cu  Cu73  1  0.75071500  0.90046500  0.00000000  1
  C  C74  1  0.52221300  0.42692300  0.19189900  1
  C  C75  1  0.47778700  0.57307700  0.19189900  1
  C  C76  1  0.02221300  0.07307700  0.80810100  1
  C  C77  1  0.97778700  0.92692300  0.80810100  1
  C  C78  1  0.47778700  0.57307700  0.80810100  1
  C  C79  1  0.52221300  0.42692300  0.80810100  1
  C  C80  1  0.97778700  0.92692300  0.19189900  1
  C  C81  1  0.02221300  0.07307700  0.19189900  1
  C  C82  1  0.52423200  0.05238700  0.18127600  1
  C  C83  1  0.47576800  0.94761300  0.18127600  1
  C  C84  1  0.02423200  0.44761300  0.81872400  1
  C  C85  1  0.97576800  0.55238700  0.81872400  1
  C  C86  1  0.47576800  0.94761300  0.81872400  1
  C  C87  1  0.52423200  0.05238700  0.81872400  1
  C  C88  1  0.97576800  0.55238700  0.18127600  1
  C  C89  1  0.02423200  0.44761300  0.18127600  1
  C  C90  1  0.53726900  0.30904700  0.17118800  1
  C  C91  1  0.46273100  0.69095300  0.17118800  1
  C  C92  1  0.03726900  0.19095300  0.82881200  1
  C  C93  1  0.96273100  0.80904700  0.82881200  1
  C  C94  1  0.46273100  0.69095300  0.82881200  1
  C  C95  1  0.53726900  0.30904700  0.82881200  1
  C  C96  1  0.96273100  0.80904700  0.17118800  1
  C  C97  1  0.03726900  0.19095300  0.17118800  1
  C  C98  1  0.55852800  0.20407300  0.30373600  1
  C  C99  1  0.44147200  0.79592700  0.30373600  1
  C  C100  1  0.05852800  0.29592700  0.69626400  1
  C  C101  1  0.94147200  0.70407300  0.69626400  1
  C  C102  1  0.44147200  0.79592700  0.69626400  1
  C  C103  1  0.55852800  0.20407300  0.69626400  1
  C  C104  1  0.94147200  0.70407300  0.30373600  1
  C  C105  1  0.05852800  0.29592700  0.30373600  1
  C  C106  1  0.75102000  0.36746800  0.31015000  1
  C  C107  1  0.24898000  0.63253200  0.31015000  1
  C  C108  1  0.25102000  0.13253200  0.68985000  1
  C  C109  1  0.74898000  0.86746800  0.68985000  1
  C  C110  1  0.24898000  0.63253200  0.68985000  1
  C  C111  1  0.75102000  0.36746800  0.68985000  1
  C  C112  1  0.74898000  0.86746800  0.31015000  1
  C  C113  1  0.25102000  0.13253200  0.31015000  1
  C  C114  1  0.75684700  0.48644000  0.30970900  1
  C  C115  1  0.24315300  0.51356000  0.30970900  1
  C  C116  1  0.25684700  0.01356000  0.69029100  1
  C  C117  1  0.74315300  0.98644000  0.69029100  1
  C  C118  1  0.24315300  0.51356000  0.69029100  1
  C  C119  1  0.75684700  0.48644000  0.69029100  1
  C  C120  1  0.74315300  0.98644000  0.30970900  1
  C  C121  1  0.25684700  0.01356000  0.30970900  1
  C  C122  1  0.80074100  0.25830900  0.19610800  1
  C  C123  1  0.19925900  0.74169100  0.19610800  1
  C  C124  1  0.30074100  0.24169100  0.80389200  1
  C  C125  1  0.69925900  0.75830900  0.80389200  1
  C  C126  1  0.19925900  0.74169100  0.80389200  1
  C  C127  1  0.80074100  0.25830900  0.80389200  1
  C  C128  1  0.69925900  0.75830900  0.19610800  1
  C  C129  1  0.30074100  0.24169100  0.19610800  1
  C  C130  1  0.80677700  0.14268400  0.30497600  1
  C  C131  1  0.19322300  0.85731600  0.30497600  1
  C  C132  1  0.30677700  0.35731600  0.69502400  1
  C  C133  1  0.69322300  0.64268400  0.69502400  1
  C  C134  1  0.19322300  0.85731600  0.69502400  1
  C  C135  1  0.80677700  0.14268400  0.69502400  1
  C  C136  1  0.69322300  0.64268400  0.30497600  1
  C  C137  1  0.30677700  0.35731600  0.30497600  1
  C  C138  1  0.55252500  0.08972400  0.50000000  1
  C  C139  1  0.44747500  0.91027600  0.50000000  1
  C  C140  1  0.05252500  0.41027600  0.50000000  1
  C  C141  1  0.94747500  0.58972400  0.50000000  1
  C  C142  1  0.56708700  0.43108700  0.50000000  1
  C  C143  1  0.43291300  0.56891300  0.50000000  1
  C  C144  1  0.06708700  0.06891300  0.50000000  1
  C  C145  1  0.93291300  0.93108700  0.50000000  1
  C  C146  1  0.77504400  0.23535900  0.50000000  1
  C  C147  1  0.22495600  0.76464100  0.50000000  1
  C  C148  1  0.27504400  0.26464100  0.50000000  1
  C  C149  1  0.72495600  0.73535900  0.50000000  1
  C  C150  1  0.52193000  0.21090500  0.00000000  1
  C  C151  1  0.47807000  0.78909500  0.00000000  1
  C  C152  1  0.02193000  0.28909500  0.00000000  1
  C  C153  1  0.97807000  0.71090500  0.00000000  1
  C  C154  1  0.75838300  0.35130800  0.00000000  1
  C  C155  1  0.24161700  0.64869200  0.00000000  1
  C  C156  1  0.25838300  0.14869200  0.00000000  1
  C  C157  1  0.74161700  0.85130800  0.00000000  1
  C  C158  1  0.78820200  0.48345100  0.00000000  1
  C  C159  1  0.21179800  0.51654900  0.00000000  1
  C  C160  1  0.28820200  0.01654900  0.00000000  1
  C  C161  1  0.71179800  0.98345100  0.00000000  1
  C  C162  1  0.83868300  0.12876100  0.00000000  1
  C  C163  1  0.16131700  0.87123900  0.00000000  1
  C  C164  1  0.33868300  0.37123900  0.00000000  1
  C  C165  1  0.66131700  0.62876100  0.00000000  1
