# generated using pymatgen
data_Cu(NiC3)2
_symmetry_space_group_name_H-M   'P 1'
_cell_length_a   6.90280300
_cell_length_b   7.43131800
_cell_length_c   16.55461600
_cell_angle_alpha   90.00000000
_cell_angle_beta   90.00000000
_cell_angle_gamma   90.00000000
_symmetry_Int_Tables_number   1
_chemical_formula_structural   Cu(NiC3)2
_chemical_formula_sum   'Cu4 Ni8 C24'
_cell_volume   849.20088185
_cell_formula_units_Z   4
loop_
 _symmetry_equiv_pos_site_id
 _symmetry_equiv_pos_as_xyz
  1  'x, y, z'
loop_
 _atom_site_type_symbol
 _atom_site_label
 _atom_site_symmetry_multiplicity
 _atom_site_fract_x
 _atom_site_fract_y
 _atom_site_fract_z
 _atom_site_occupancy
  C  C0  1  0.25000000  0.12800400  0.64931900  1
  C  C1  1  0.25000000  0.37199600  0.14931900  1
  C  C2  1  0.75000000  0.87199600  0.35068100  1
  C  C3  1  0.75000000  0.62800400  0.85068100  1
  Ni  Ni4  1  0.04335900  0.14770700  0.89168500  1
  Ni  Ni5  1  0.45664100  0.35229300  0.39168500  1
  Ni  Ni6  1  0.54335900  0.85229300  0.10831500  1
  Ni  Ni7  1  0.95664100  0.64770700  0.60831500  1
  Ni  Ni8  1  0.95664100  0.85229300  0.10831500  1
  Ni  Ni9  1  0.54335900  0.64770700  0.60831500  1
  Ni  Ni10  1  0.45664100  0.14770700  0.89168500  1
  Ni  Ni11  1  0.04335900  0.35229300  0.39168500  1
  C  C12  1  0.25000000  0.37072000  0.41410300  1
  C  C13  1  0.25000000  0.12928000  0.91410300  1
  C  C14  1  0.75000000  0.62928000  0.58589700  1
  C  C15  1  0.75000000  0.87072000  0.08589700  1
  C  C16  1  0.25000000  0.33965600  0.74439400  1
  C  C17  1  0.25000000  0.16034400  0.24439400  1
  C  C18  1  0.75000000  0.66034400  0.25560600  1
  C  C19  1  0.75000000  0.83965600  0.75560600  1
  C  C20  1  0.25000000  0.84278400  0.69556500  1
  C  C21  1  0.25000000  0.65721600  0.19556500  1
  C  C22  1  0.75000000  0.15721600  0.30443500  1
  C  C23  1  0.75000000  0.34278400  0.80443500  1
  C  C24  1  0.93777400  0.15932400  0.58866600  1
  C  C25  1  0.56222600  0.34067600  0.08866600  1
  C  C26  1  0.43777400  0.84067600  0.41133400  1
  C  C27  1  0.06222600  0.65932400  0.91133400  1
  C  C28  1  0.06222600  0.84067600  0.41133400  1
  C  C29  1  0.43777400  0.65932400  0.91133400  1
  C  C30  1  0.56222600  0.15932400  0.58866600  1
  C  C31  1  0.93777400  0.34067600  0.08866600  1
  Cu  Cu32  1  0.25000000  0.16723800  0.53875600  1
  Cu  Cu33  1  0.25000000  0.33276200  0.03875600  1
  Cu  Cu34  1  0.75000000  0.83276200  0.46124400  1
  Cu  Cu35  1  0.75000000  0.66723800  0.96124400  1
