# generated using pymatgen
data_Cu13(NiC17)2
_symmetry_space_group_name_H-M   'P 1'
_cell_length_a   14.66050448
_cell_length_b   14.66050448
_cell_length_c   10.09293926
_cell_angle_alpha   87.86388840
_cell_angle_beta   87.86388840
_cell_angle_gamma   158.37237644
_symmetry_Int_Tables_number   1
_chemical_formula_structural   Cu13(NiC17)2
_chemical_formula_sum   'Cu13 Ni2 C34'
_cell_volume   783.60017101
_cell_formula_units_Z   1
loop_
 _symmetry_equiv_pos_site_id
 _symmetry_equiv_pos_as_xyz
  1  'x, y, z'
loop_
 _atom_site_type_symbol
 _atom_site_label
 _atom_site_symmetry_multiplicity
 _atom_site_fract_x
 _atom_site_fract_y
 _atom_site_fract_z
 _atom_site_occupancy
  C  C0  1  0.01447500  0.44909700  0.71566800  1
  C  C1  1  0.55090300  0.98552500  0.28433200  1
  C  C2  1  0.98552500  0.55090300  0.28433200  1
  C  C3  1  0.44909700  0.01447500  0.71566800  1
  Ni  Ni4  1  0.25580900  0.25580900  0.28405200  1
  Ni  Ni5  1  0.74419100  0.74419100  0.71594800  1
  Cu  Cu6  1  0.91016200  0.58898000  0.62437700  1
  Cu  Cu7  1  0.66853900  0.81005000  0.33881700  1
  Cu  Cu8  1  0.41102000  0.08983800  0.37562300  1
  Cu  Cu9  1  0.08983800  0.41102000  0.37562300  1
  Cu  Cu10  1  0.33146100  0.18995000  0.66118300  1
  Cu  Cu11  1  0.29630900  0.70369100  0.00000000  1
  Cu  Cu12  1  0.18995000  0.33146100  0.66118300  1
  Cu  Cu13  1  0.00000000  0.00000000  0.00000000  1
  Cu  Cu14  1  0.42628100  0.57371900  0.00000000  1
  Cu  Cu15  1  0.81005000  0.66853900  0.33881700  1
  Cu  Cu16  1  0.58898000  0.91016200  0.62437700  1
  Cu  Cu17  1  0.57371900  0.42628100  0.00000000  1
  Cu  Cu18  1  0.70369100  0.29630900  0.00000000  1
  C  C19  1  0.86068100  0.13931900  0.00000000  1
  C  C20  1  0.13931900  0.86068100  0.00000000  1
  C  C21  1  0.68618600  0.04425600  0.40148100  1
  C  C22  1  0.20834500  0.66943000  0.30718400  1
  C  C23  1  0.93916900  0.93916900  0.31400000  1
  C  C24  1  0.33540900  0.33540900  0.11806700  1
  C  C25  1  0.79165500  0.33057000  0.69281600  1
  C  C26  1  0.31381400  0.95574400  0.59851900  1
  C  C27  1  0.99721300  0.62189300  0.12640800  1
  C  C28  1  0.00278700  0.37810700  0.87359200  1
  C  C29  1  0.66459100  0.66459100  0.88193300  1
  C  C30  1  0.07635300  0.24532800  0.88050700  1
  C  C31  1  0.32228800  0.41628900  0.34096400  1
  C  C32  1  0.95574400  0.31381400  0.59851900  1
  C  C33  1  0.37810700  0.00278700  0.87359200  1
  C  C34  1  0.75467200  0.92364700  0.11949300  1
  C  C35  1  0.58371100  0.67771200  0.65903600  1
  C  C36  1  0.06083100  0.06083100  0.68600000  1
  C  C37  1  0.24532800  0.07635300  0.88050700  1
  C  C38  1  0.92364700  0.75467200  0.11949300  1
  C  C39  1  0.62189300  0.99721300  0.12640800  1
  C  C40  1  0.12856800  0.41981200  0.10181900  1
  C  C41  1  0.87143200  0.58018800  0.89818100  1
  C  C42  1  0.41628900  0.32228800  0.34096400  1
  C  C43  1  0.41981200  0.12856800  0.10181900  1
  C  C44  1  0.66943000  0.20834500  0.30718400  1
  C  C45  1  0.67771200  0.58371100  0.65903600  1
  C  C46  1  0.58018800  0.87143200  0.89818100  1
  C  C47  1  0.04425600  0.68618600  0.40148100  1
  C  C48  1  0.33057000  0.79165500  0.69281600  1
