# generated using pymatgen
data_Cu8Ni3C2
_symmetry_space_group_name_H-M   'P 1'
_cell_length_a   9.02784900
_cell_length_b   8.11562400
_cell_length_c   12.19863733
_cell_angle_alpha   65.33816814
_cell_angle_beta   90.00000000
_cell_angle_gamma   90.00000000
_symmetry_Int_Tables_number   1
_chemical_formula_structural   Cu8Ni3C2
_chemical_formula_sum   'Cu32 Ni12 C8'
_cell_volume   812.23054115
_cell_formula_units_Z   4
loop_
 _symmetry_equiv_pos_site_id
 _symmetry_equiv_pos_as_xyz
  1  'x, y, z'
loop_
 _atom_site_type_symbol
 _atom_site_label
 _atom_site_symmetry_multiplicity
 _atom_site_fract_x
 _atom_site_fract_y
 _atom_site_fract_z
 _atom_site_occupancy
  C  C0  1  0.08543800  0.55921600  0.32177700  1
  C  C1  1  0.41456200  0.55921600  0.82177700  1
  C  C2  1  0.91456200  0.44078400  0.67822300  1
  C  C3  1  0.58543800  0.44078400  0.17822300  1
  C  C4  1  0.31658400  0.12783300  0.60502500  1
  C  C5  1  0.18341600  0.12783300  0.10502500  1
  C  C6  1  0.68341600  0.87216700  0.39497500  1
  C  C7  1  0.81658400  0.87216700  0.89497500  1
  Ni  Ni8  1  0.19304600  0.97651000  0.41246700  1
  Ni  Ni9  1  0.30695400  0.97651000  0.91246700  1
  Ni  Ni10  1  0.80695400  0.02349000  0.58753300  1
  Ni  Ni11  1  0.69304600  0.02349000  0.08753300  1
  Ni  Ni12  1  0.19861200  0.80367400  0.53351600  1
  Ni  Ni13  1  0.30138800  0.80367400  0.03351600  1
  Ni  Ni14  1  0.80138800  0.19632600  0.46648400  1
  Ni  Ni15  1  0.69861200  0.19632600  0.96648400  1
  Ni  Ni16  1  0.51493600  0.48779400  0.56501200  1
  Ni  Ni17  1  0.98506400  0.48779400  0.06501200  1
  Ni  Ni18  1  0.48506400  0.51220600  0.43498800  1
  Ni  Ni19  1  0.01493600  0.51220600  0.93498800  1
  Cu  Cu20  1  0.14063800  0.22747000  0.61473600  1
  Cu  Cu21  1  0.35936200  0.22747000  0.11473600  1
  Cu  Cu22  1  0.85936200  0.77253000  0.38526400  1
  Cu  Cu23  1  0.64063800  0.77253000  0.88526400  1
  Cu  Cu24  1  0.49866900  0.04066900  0.59969300  1
  Cu  Cu25  1  0.00133100  0.04066900  0.09969300  1
  Cu  Cu26  1  0.50133100  0.95933100  0.40030700  1
  Cu  Cu27  1  0.99866900  0.95933100  0.90030700  1
  Cu  Cu28  1  0.21273000  0.12560500  0.42082800  1
  Cu  Cu29  1  0.28727000  0.12560500  0.92082800  1
  Cu  Cu30  1  0.78727000  0.87439500  0.57917200  1
  Cu  Cu31  1  0.71273000  0.87439500  0.07917200  1
  Cu  Cu32  1  0.22658500  0.84194600  0.62470600  1
  Cu  Cu33  1  0.27341500  0.84194600  0.12470600  1
  Cu  Cu34  1  0.77341500  0.15805400  0.37529400  1
  Cu  Cu35  1  0.72658500  0.15805400  0.87529400  1
  Cu  Cu36  1  0.16824800  0.95855700  0.31596100  1
  Cu  Cu37  1  0.33175200  0.95855700  0.81596100  1
  Cu  Cu38  1  0.83175200  0.04144300  0.68403900  1
  Cu  Cu39  1  0.66824800  0.04144300  0.18403900  1
  Cu  Cu40  1  0.17810500  0.65104600  0.53695500  1
  Cu  Cu41  1  0.32189500  0.65104600  0.03695500  1
  Cu  Cu42  1  0.82189500  0.34895400  0.46304500  1
  Cu  Cu43  1  0.67810500  0.34895400  0.96304500  1
  Cu  Cu44  1  0.44958700  0.35770900  0.64854100  1
  Cu  Cu45  1  0.05041300  0.35770900  0.14854100  1
  Cu  Cu46  1  0.55041300  0.64229100  0.35145900  1
  Cu  Cu47  1  0.94958700  0.64229100  0.85145900  1
  Cu  Cu48  1  0.60213300  0.60071800  0.57818300  1
  Cu  Cu49  1  0.89786700  0.60071800  0.07818300  1
  Cu  Cu50  1  0.39786700  0.39928200  0.42181700  1
  Cu  Cu51  1  0.10213300  0.39928200  0.92181700  1
