# generated using pymatgen
data_Cu2NiC9
_symmetry_space_group_name_H-M   'P 1'
_cell_length_a   7.90945800
_cell_length_b   7.90945800
_cell_length_c   10.12681000
_cell_angle_alpha   90.00000000
_cell_angle_beta   90.00000000
_cell_angle_gamma   90.00000000
_symmetry_Int_Tables_number   1
_chemical_formula_structural   Cu2NiC9
_chemical_formula_sum   'Cu8 Ni4 C36'
_cell_volume   633.52843201
_cell_formula_units_Z   4
loop_
 _symmetry_equiv_pos_site_id
 _symmetry_equiv_pos_as_xyz
  1  'x, y, z'
loop_
 _atom_site_type_symbol
 _atom_site_label
 _atom_site_symmetry_multiplicity
 _atom_site_fract_x
 _atom_site_fract_y
 _atom_site_fract_z
 _atom_site_occupancy
  C  C0  1  0.17007700  0.67007800  0.24971100  1
  C  C1  1  0.17007700  0.67007800  0.74971100  1
  C  C2  1  0.82992200  0.32992200  0.24971100  1
  C  C3  1  0.82992200  0.32992200  0.74971100  1
  C  C4  1  0.67007800  0.82992200  0.25028900  1
  C  C5  1  0.67007800  0.82992200  0.75028900  1
  C  C6  1  0.32992200  0.17007700  0.25028900  1
  C  C7  1  0.32992200  0.17007700  0.75028900  1
  Ni  Ni8  1  0.50000000  0.50000000  0.50000000  1
  Ni  Ni9  1  0.00000000  0.00000000  0.00000000  1
  Ni  Ni10  1  0.50000000  0.50000000  0.00000000  1
  Ni  Ni11  1  0.00000000  0.00000000  0.50000000  1
  Cu  Cu12  1  0.85914000  0.64086000  0.46608300  1
  Cu  Cu13  1  0.85914000  0.64086000  0.96608300  1
  Cu  Cu14  1  0.64086000  0.14085900  0.03391700  1
  Cu  Cu15  1  0.64086000  0.14085900  0.53391700  1
  Cu  Cu16  1  0.35914000  0.85914000  0.03391700  1
  Cu  Cu17  1  0.35914000  0.85914000  0.53391700  1
  Cu  Cu18  1  0.14085900  0.35914000  0.46608300  1
  Cu  Cu19  1  0.14085900  0.35914000  0.96608300  1
  C  C20  1  0.50000000  0.00000000  0.09199100  1
  C  C21  1  0.50000000  0.00000000  0.59199100  1
  C  C22  1  0.00000000  0.50000000  0.40800900  1
  C  C23  1  0.00000000  0.50000000  0.90800900  1
  C  C24  1  0.85691300  0.64308800  0.12537900  1
  C  C25  1  0.85691300  0.64308800  0.62537900  1
  C  C26  1  0.64308800  0.14308800  0.37462100  1
  C  C27  1  0.64308800  0.14308800  0.87462200  1
  C  C28  1  0.35691200  0.85691300  0.37462100  1
  C  C29  1  0.35691200  0.85691300  0.87462200  1
  C  C30  1  0.14308800  0.35691200  0.12537900  1
  C  C31  1  0.14308800  0.35691200  0.62537900  1
  C  C32  1  0.68595500  0.58226800  0.38874400  1
  C  C33  1  0.68595500  0.58226800  0.88874400  1
  C  C34  1  0.31404600  0.41773200  0.38874400  1
  C  C35  1  0.31404600  0.41773200  0.88874400  1
  C  C36  1  0.41773200  0.68595500  0.11125500  1
  C  C37  1  0.41773200  0.68595500  0.61125500  1
  C  C38  1  0.58226800  0.31404600  0.11125500  1
  C  C39  1  0.58226800  0.31404600  0.61125500  1
  C  C40  1  0.91773100  0.81404500  0.38874400  1
  C  C41  1  0.91773100  0.81404500  0.88874400  1
  C  C42  1  0.81404500  0.08226900  0.11125500  1
  C  C43  1  0.81404500  0.08226900  0.61125500  1
  C  C44  1  0.18595400  0.91773100  0.11125500  1
  C  C45  1  0.18595400  0.91773100  0.61125500  1
  C  C46  1  0.08226900  0.18595400  0.38874400  1
  C  C47  1  0.08226900  0.18595400  0.88874400  1
