# generated using pymatgen
data_Cu2NiC10
_symmetry_space_group_name_H-M   'P 1'
_cell_length_a   6.42437163
_cell_length_b   8.27989700
_cell_length_c   11.89926957
_cell_angle_alpha   90.00000000
_cell_angle_beta   90.16562257
_cell_angle_gamma   90.00000000
_symmetry_Int_Tables_number   1
_chemical_formula_structural   Cu2NiC10
_chemical_formula_sum   'Cu8 Ni4 C40'
_cell_volume   632.95681230
_cell_formula_units_Z   4
loop_
 _symmetry_equiv_pos_site_id
 _symmetry_equiv_pos_as_xyz
  1  'x, y, z'
loop_
 _atom_site_type_symbol
 _atom_site_label
 _atom_site_symmetry_multiplicity
 _atom_site_fract_x
 _atom_site_fract_y
 _atom_site_fract_z
 _atom_site_occupancy
  Ni  Ni0  1  0.11316600  0.16513300  0.04871300  1
  Ni  Ni1  1  0.88683400  0.83486700  0.95128700  1
  Ni  Ni2  1  0.88683400  0.66513300  0.45128700  1
  Ni  Ni3  1  0.11316600  0.33486700  0.54871300  1
  Cu  Cu4  1  0.09897800  0.46213600  0.84482600  1
  Cu  Cu5  1  0.09897800  0.03786400  0.34482600  1
  Cu  Cu6  1  0.61246200  0.09011300  0.13150100  1
  Cu  Cu7  1  0.90102200  0.96213600  0.65517400  1
  Cu  Cu8  1  0.38753800  0.90988700  0.86849900  1
  Cu  Cu9  1  0.38753800  0.59011300  0.36849900  1
  Cu  Cu10  1  0.61246200  0.40988700  0.63150100  1
  Cu  Cu11  1  0.90102200  0.53786400  0.15517400  1
  C  C12  1  0.76446900  0.17567400  0.86455200  1
  C  C13  1  0.38668600  0.05634700  0.63365000  1
  C  C14  1  0.61331400  0.94365300  0.36635000  1
  C  C15  1  0.23553100  0.82432600  0.13544800  1
  C  C16  1  0.76446900  0.32432600  0.36455200  1
  C  C17  1  0.38668600  0.44365300  0.13365000  1
  C  C18  1  0.23553100  0.67567400  0.63544800  1
  C  C19  1  0.61331400  0.55634700  0.86635000  1
  C  C20  1  0.03375100  0.22933800  0.39399700  1
  C  C21  1  0.67063700  0.01322000  0.59320300  1
  C  C22  1  0.18860300  0.57407900  0.47016100  1
  C  C23  1  0.81139700  0.07407900  0.02983900  1
  C  C24  1  0.03375100  0.27066200  0.89399700  1
  C  C25  1  0.96624900  0.77066200  0.60600300  1
  C  C26  1  0.08747600  0.10380900  0.61691800  1
  C  C27  1  0.51301800  0.89885400  0.14003000  1
  C  C28  1  0.51301800  0.60114600  0.64003000  1
  C  C29  1  0.31971000  0.86911800  0.72896600  1
  C  C30  1  0.68029000  0.36911800  0.77103400  1
  C  C31  1  0.48698200  0.10114600  0.85997000  1
  C  C32  1  0.91252400  0.89619100  0.38308200  1
  C  C33  1  0.87720900  0.53493200  0.29876800  1
  C  C34  1  0.41875100  0.28159500  0.58551900  1
  C  C35  1  0.41875100  0.21840500  0.08551900  1
  C  C36  1  0.12279100  0.03493200  0.20123200  1
  C  C37  1  0.48698200  0.39885400  0.35997000  1
  C  C38  1  0.12279100  0.46506800  0.70123200  1
  C  C39  1  0.81139700  0.42592200  0.52983900  1
  C  C40  1  0.67063700  0.48678000  0.09320300  1
  C  C41  1  0.68029000  0.13088200  0.27103400  1
  C  C42  1  0.96624900  0.72933800  0.10600300  1
  C  C43  1  0.08747600  0.39619100  0.11691800  1
  C  C44  1  0.18860300  0.92592100  0.97016100  1
  C  C45  1  0.58124900  0.78159500  0.91448100  1
  C  C46  1  0.32936300  0.98678000  0.40679700  1
  C  C47  1  0.32936300  0.51322000  0.90679700  1
  C  C48  1  0.91252400  0.60380900  0.88308200  1
  C  C49  1  0.58124900  0.71840500  0.41448100  1
  C  C50  1  0.31971000  0.63088200  0.22896600  1
  C  C51  1  0.87720900  0.96506800  0.79876800  1
