# generated using pymatgen
data_Cu6Ni5C11
_symmetry_space_group_name_H-M   'P 1'
_cell_length_a   7.59497200
_cell_length_b   9.67542037
_cell_length_c   13.57569826
_cell_angle_alpha   102.93469411
_cell_angle_beta   98.26662146
_cell_angle_gamma   102.45791295
_symmetry_Int_Tables_number   1
_chemical_formula_structural   Cu6Ni5C11
_chemical_formula_sum   'Cu24 Ni20 C44'
_cell_volume   929.86182359
_cell_formula_units_Z   4
loop_
 _symmetry_equiv_pos_site_id
 _symmetry_equiv_pos_as_xyz
  1  'x, y, z'
loop_
 _atom_site_type_symbol
 _atom_site_label
 _atom_site_symmetry_multiplicity
 _atom_site_fract_x
 _atom_site_fract_y
 _atom_site_fract_z
 _atom_site_occupancy
  C  C0  1  0.67318900  0.56237500  0.78921900  1
  C  C1  1  0.32681100  0.43762500  0.21078100  1
  Ni  Ni2  1  0.70176200  0.39150500  0.87158500  1
  Ni  Ni3  1  0.29823800  0.60849500  0.12841500  1
  Ni  Ni4  1  0.87282300  0.46409500  0.71659000  1
  Ni  Ni5  1  0.12717700  0.53590500  0.28341000  1
  Ni  Ni6  1  0.81278100  0.28416600  0.76237700  1
  Ni  Ni7  1  0.18721900  0.71583400  0.23762300  1
  Ni  Ni8  1  0.47469500  0.36577300  0.79661900  1
  Ni  Ni9  1  0.52530500  0.63422700  0.20338100  1
  Ni  Ni10  1  0.66172400  0.45332500  0.63011400  1
  Ni  Ni11  1  0.33827600  0.54667500  0.36988600  1
  Ni  Ni12  1  0.57830500  0.21691100  0.78648300  1
  Ni  Ni13  1  0.42169500  0.78308900  0.21351700  1
  Ni  Ni14  1  0.45399900  0.40757900  0.67368100  1
  Ni  Ni15  1  0.54600100  0.59242100  0.32631900  1
  Ni  Ni16  1  0.62207900  0.17006800  0.66238400  1
  Ni  Ni17  1  0.37792100  0.82993200  0.33761600  1
  Ni  Ni18  1  0.52560000  0.27436200  0.58630600  1
  Ni  Ni19  1  0.47440000  0.72563800  0.41369400  1
  Ni  Ni20  1  0.41594300  0.22239100  0.68330100  1
  Ni  Ni21  1  0.58405700  0.77760900  0.31669900  1
  C  C22  1  0.99801400  0.51481200  0.88398000  1
  C  C23  1  0.00198600  0.48518800  0.11602000  1
  C  C24  1  0.72070000  0.39848400  0.96205200  1
  C  C25  1  0.27930000  0.60151600  0.03794800  1
  C  C26  1  0.01328200  0.52244800  0.69607500  1
  C  C27  1  0.98671800  0.47755200  0.30392500  1
  C  C28  1  0.93537100  0.22705700  0.77682100  1
  C  C29  1  0.06462900  0.77294300  0.22317900  1
  C  C30  1  0.36249600  0.38002500  0.84964100  1
  C  C31  1  0.63750400  0.61997500  0.15035900  1
  C  C32  1  0.69378200  0.51904700  0.56714000  1
  C  C33  1  0.30621800  0.48095300  0.43286000  1
  C  C34  1  0.54855700  0.12413400  0.83188500  1
  C  C35  1  0.45144300  0.87586600  0.16811500  1
  C  C36  1  0.32538900  0.44970700  0.64228800  1
  C  C37  1  0.67461100  0.55029300  0.35771200  1
  C  C38  1  0.63186900  0.04867300  0.62462400  1
  C  C39  1  0.36813100  0.95132700  0.37537600  1
  C  C40  1  0.46179100  0.22349100  0.49642000  1
  C  C41  1  0.53820900  0.77650900  0.50358000  1
  C  C42  1  0.26657400  0.13824300  0.65802100  1
  C  C43  1  0.73342600  0.86175700  0.34197900  1
  C  C44  1  0.51457500  0.73590400  0.67926000  1
  C  C45  1  0.48542500  0.26409600  0.32074000  1
  C  C46  1  0.36623400  0.65756900  0.83441500  1
  C  C47  1  0.63376600  0.34243100  0.16558500  1
  C  C48  1  0.64318800  0.69227600  0.99491900  1
  C  C49  1  0.35681200  0.30772400  0.00508100  1
  C  C50  1  0.04704600  0.81415000  0.02820000  1
  C  C51  1  0.95295400  0.18585000  0.97180000  1
  C  C52  1  0.29213300  0.92029100  0.94336500  1
  C  C53  1  0.70786700  0.07970900  0.05663500  1
  C  C54  1  0.21930900  0.95073600  0.76709000  1
  C  C55  1  0.78069100  0.04926400  0.23291000  1
  C  C56  1  0.89636800  0.87044900  0.66661600  1
  C  C57  1  0.10363200  0.12955100  0.33338400  1
  C  C58  1  0.90326400  0.35007200  0.50738500  1
  C  C59  1  0.09673600  0.64992800  0.49261500  1
  C  C60  1  0.99426100  0.24217400  0.58111400  1
  C  C61  1  0.00573900  0.75782600  0.41888600  1
  C  C62  1  0.78573700  0.16156200  0.48721500  1
  C  C63  1  0.21426300  0.83843800  0.51278500  1
  Cu  Cu64  1  0.86752200  0.46217000  0.82984500  1
  Cu  Cu65  1  0.13247800  0.53783000  0.17015500  1
  Cu  Cu66  1  0.75374500  0.30629000  0.62599400  1
  Cu  Cu67  1  0.24625500  0.69371000  0.37400600  1
  Cu  Cu68  1  0.78735800  0.79050300  0.78930400  1
  Cu  Cu69  1  0.21264200  0.20949700  0.21069600  1
  Cu  Cu70  1  0.59060400  0.73632800  0.75346600  1
  Cu  Cu71  1  0.40939600  0.26367200  0.24653400  1
  Cu  Cu72  1  0.51228200  0.69656500  0.83660600  1
  Cu  Cu73  1  0.48771800  0.30343500  0.16339400  1
  Cu  Cu74  1  0.65855300  0.71376000  0.92093200  1
  Cu  Cu75  1  0.34144700  0.28624000  0.07906800  1
  Cu  Cu76  1  0.82968600  0.77545900  0.89353900  1
  Cu  Cu77  1  0.17031400  0.22454100  0.10646100  1
  Cu  Cu78  1  0.01452400  0.82141900  0.94892100  1
  Cu  Cu79  1  0.98547600  0.17858100  0.05107900  1
  Cu  Cu80  1  0.14969700  0.88171100  0.90150800  1
  Cu  Cu81  1  0.85030300  0.11828900  0.09849200  1
  Cu  Cu82  1  0.10785200  0.89868700  0.79954800  1
  Cu  Cu83  1  0.89214800  0.10131300  0.20045200  1
  Cu  Cu84  1  0.92964700  0.85367600  0.74320500  1
  Cu  Cu85  1  0.07035300  0.14632400  0.25679500  1
  Cu  Cu86  1  0.86623300  0.26208000  0.54549400  1
  Cu  Cu87  1  0.13376700  0.73792000  0.45450600  1
