# generated using pymatgen
data_Cu11NiC2
_symmetry_space_group_name_H-M   'P 1'
_cell_length_a   5.77216540
_cell_length_b   5.77216540
_cell_length_c   14.55860964
_cell_angle_alpha   75.13178196
_cell_angle_beta   75.13178196
_cell_angle_gamma   59.90682130
_symmetry_Int_Tables_number   1
_chemical_formula_structural   Cu11NiC2
_chemical_formula_sum   'Cu22 Ni2 C4'
_cell_volume   400.85447532
_cell_formula_units_Z   2
loop_
 _symmetry_equiv_pos_site_id
 _symmetry_equiv_pos_as_xyz
  1  'x, y, z'
loop_
 _atom_site_type_symbol
 _atom_site_label
 _atom_site_symmetry_multiplicity
 _atom_site_fract_x
 _atom_site_fract_y
 _atom_site_fract_z
 _atom_site_occupancy
  Ni  Ni0  1  0.50000000  0.00000000  0.50000000  1
  Ni  Ni1  1  0.00000000  0.50000000  0.00000000  1
  C  C2  1  0.50925200  0.26363400  0.15136000  1
  C  C3  1  0.73636600  0.49074800  0.34864000  1
  C  C4  1  0.49074800  0.73636600  0.84864000  1
  C  C5  1  0.26363400  0.50925200  0.65136000  1
  Cu  Cu6  1  0.49002700  0.17743700  0.25320100  1
  Cu  Cu7  1  0.82256300  0.50997300  0.24679900  1
  Cu  Cu8  1  0.50997300  0.82256300  0.74679900  1
  Cu  Cu9  1  0.17743700  0.49002700  0.75320100  1
  Cu  Cu10  1  0.37462200  0.17122900  0.10774700  1
  Cu  Cu11  1  0.82877100  0.62537800  0.39225300  1
  Cu  Cu12  1  0.62537800  0.82877100  0.89225300  1
  Cu  Cu13  1  0.17122900  0.37462200  0.60774700  1
  Cu  Cu14  1  0.36266500  0.57235200  0.13128600  1
  Cu  Cu15  1  0.42764800  0.63733500  0.36871400  1
  Cu  Cu16  1  0.63733500  0.42764800  0.86871400  1
  Cu  Cu17  1  0.57235200  0.36266500  0.63128600  1
  Cu  Cu18  1  0.78836000  0.17360600  0.10432300  1
  Cu  Cu19  1  0.82639400  0.21164000  0.39567700  1
  Cu  Cu20  1  0.21164000  0.82639400  0.89567700  1
  Cu  Cu21  1  0.17360600  0.78836000  0.60432300  1
  Cu  Cu22  1  0.34463900  0.11498800  0.44826800  1
  Cu  Cu23  1  0.88501200  0.65536100  0.05173200  1
  Cu  Cu24  1  0.65536100  0.88501200  0.55173200  1
  Cu  Cu25  1  0.11498800  0.34463900  0.94826800  1
  Cu  Cu26  1  0.20229600  0.79770400  0.25000000  1
  Cu  Cu27  1  0.79770400  0.20229600  0.75000000  1
