# generated using pymatgen
data_Cu16Ni2C37
_symmetry_space_group_name_H-M   'P 1'
_cell_length_a   7.11100075
_cell_length_b   14.30692766
_cell_length_c   17.25468998
_cell_angle_alpha   90.00000000
_cell_angle_beta   96.26667179
_cell_angle_gamma   90.00000000
_symmetry_Int_Tables_number   1
_chemical_formula_structural   Cu16Ni2C37
_chemical_formula_sum   'Cu32 Ni4 C74'
_cell_volume   1744.94364950
_cell_formula_units_Z   2
loop_
 _symmetry_equiv_pos_site_id
 _symmetry_equiv_pos_as_xyz
  1  'x, y, z'
loop_
 _atom_site_type_symbol
 _atom_site_label
 _atom_site_symmetry_multiplicity
 _atom_site_fract_x
 _atom_site_fract_y
 _atom_site_fract_z
 _atom_site_occupancy
  C  C0  1  0.00000000  0.00000000  0.00000000  1
  C  C1  1  0.50000000  0.50000000  0.50000000  1
  C  C2  1  0.64451424  0.03689896  0.75332869  1
  C  C3  1  0.91288376  0.21552640  0.32900252  1
  C  C4  1  0.05837692  0.18942058  0.63085899  1
  C  C5  1  0.14451424  0.46310104  0.25332869  1
  C  C6  1  0.65254516  0.62976643  0.70845240  1
  C  C7  1  0.94162308  0.81057942  0.36914101  1
  C  C8  1  0.62946898  0.16776821  0.78801282  1
  C  C9  1  0.08711624  0.78447360  0.67099748  1
  C  C10  1  0.34745484  0.37023357  0.29154760  1
  C  C11  1  0.81323075  0.30813263  0.30283167  1
  C  C12  1  0.68676925  0.80813263  0.19716833  1
  C  C13  1  0.61350647  0.87714089  0.79894979  1
  C  C14  1  0.85548576  0.53689896  0.74667131  1
  C  C15  1  0.37053102  0.83223179  0.21198718  1
  C  C16  1  0.58711624  0.71552640  0.17099748  1
  C  C17  1  0.84745484  0.12976643  0.79154760  1
  C  C18  1  0.37036940  0.75548841  0.41495691  1
  C  C19  1  0.88649353  0.37714089  0.70105021  1
  C  C20  1  0.62963060  0.24451159  0.58504309  1
  C  C21  1  0.41288376  0.28447360  0.82900252  1
  C  C22  1  0.35548576  0.96310104  0.24667131  1
  C  C23  1  0.44162308  0.68942058  0.86914101  1
  C  C24  1  0.12963060  0.25548841  0.08504309  1
  C  C25  1  0.18676925  0.69186737  0.69716833  1
  C  C26  1  0.55837692  0.31057942  0.13085899  1
  C  C27  1  0.38649353  0.12285911  0.20105021  1
  C  C28  1  0.87053102  0.66776821  0.71198718  1
  C  C29  1  0.15254516  0.87023357  0.20845240  1
  C  C30  1  0.11350647  0.62285911  0.29894979  1
  C  C31  1  0.87036940  0.74451159  0.91495691  1
  C  C32  1  0.31323075  0.19186737  0.80283167  1
  C  C33  1  0.12946898  0.33223179  0.28801282  1
  C  C34  1  0.91589768  0.86085133  0.41508800  1
  C  C35  1  0.95394135  0.65562309  0.10641037  1
  C  C36  1  0.45394135  0.84437691  0.60641037  1
  C  C37  1  0.04605865  0.34437691  0.89358963  1
  C  C38  1  0.58410232  0.36085133  0.08491200  1
  C  C39  1  0.08410232  0.13914867  0.58491200  1
  C  C40  1  0.54605865  0.15562309  0.39358963  1
  C  C41  1  0.41589768  0.63914867  0.91508800  1
  C  C42  1  0.38718585  0.64668817  0.57656854  1
  C  C43  1  0.36588799  0.67969257  0.36553081  1
  C  C44  1  0.61281415  0.35331183  0.42343146  1
  C  C45  1  0.88718585  0.85331183  0.07656854  1
  C  C46  1  0.13411201  0.17969257  0.13446919  1
  C  C47  1  0.63411201  0.32030743  0.63446919  1
  C  C48  1  0.11281415  0.14668817  0.92343146  1
  C  C49  1  0.86588799  0.82030743  0.86553081  1
  Ni  Ni50  1  0.65488574  0.81784394  0.83255739  1
  Ni  Ni51  1  0.34511426  0.18215606  0.16744261  1
  Ni  Ni52  1  0.15488574  0.68215606  0.33255739  1
  Ni  Ni53  1  0.84511426  0.31784394  0.66744261  1
  Cu  Cu54  1  0.42897612  0.22822368  0.79861830  1
  Cu  Cu55  1  0.18987301  0.95038704  0.74173397  1
  Cu  Cu56  1  0.78214651  0.62343341  0.73413850  1
  Cu  Cu57  1  0.57102388  0.77177632  0.20138170  1
  Cu  Cu58  1  0.55137510  0.39896051  0.58124277  1
  Cu  Cu59  1  0.79367398  0.54841968  0.52164399  1
  Cu  Cu60  1  0.70632602  0.04841968  0.97835601  1
  Cu  Cu61  1  0.09869867  0.13279164  0.83485961  1
  Cu  Cu62  1  0.87246114  0.60547889  0.48001789  1
  Cu  Cu63  1  0.94862490  0.89896051  0.91875723  1
  Cu  Cu64  1  0.44862490  0.60103949  0.41875723  1
  Cu  Cu65  1  0.05137510  0.10103949  0.08124277  1
  Cu  Cu66  1  0.07102388  0.72822368  0.70138170  1
  Cu  Cu67  1  0.20632602  0.45158032  0.47835601  1
  Cu  Cu68  1  0.71785349  0.12343341  0.76586150  1
  Cu  Cu69  1  0.81012699  0.04961296  0.25826603  1
  Cu  Cu70  1  0.01532162  0.95076728  0.73486086  1
  Cu  Cu71  1  0.12753886  0.39452111  0.51998211  1
  Cu  Cu72  1  0.51532162  0.54923272  0.23486086  1
  Cu  Cu73  1  0.92897612  0.27177632  0.29861830  1
  Cu  Cu74  1  0.48467838  0.45076728  0.76513914  1
  Cu  Cu75  1  0.59869867  0.36720836  0.33485961  1
  Cu  Cu76  1  0.37246114  0.89452111  0.98001789  1
  Cu  Cu77  1  0.68987301  0.54961296  0.24173397  1
  Cu  Cu78  1  0.98467838  0.04923272  0.26513914  1
  Cu  Cu79  1  0.28214651  0.87656659  0.23413850  1
  Cu  Cu80  1  0.29367398  0.95158032  0.02164399  1
  Cu  Cu81  1  0.40130133  0.63279164  0.66514039  1
  Cu  Cu82  1  0.90130133  0.86720836  0.16514039  1
  Cu  Cu83  1  0.31012699  0.45038704  0.75826603  1
  Cu  Cu84  1  0.21785349  0.37656659  0.26586150  1
  Cu  Cu85  1  0.62753886  0.10547889  0.01998211  1
  C  C86  1  0.52640961  0.56227022  0.91181490  1
  C  C87  1  0.58085239  0.97226176  0.74072027  1
  C  C88  1  0.23171019  0.61134331  0.90809335  1
  C  C89  1  0.04359994  0.17866709  0.51298073  1
  C  C90  1  0.14153842  0.66348735  0.11886273  1
  C  C91  1  0.26828981  0.11134331  0.59190665  1
  C  C92  1  0.85846158  0.33651265  0.88113727  1
  C  C93  1  0.91914761  0.47226176  0.75927973  1
  C  C94  1  0.45640006  0.67866709  0.98701927  1
  C  C95  1  0.47359039  0.43772978  0.08818510  1
  C  C96  1  0.41914761  0.02773824  0.25927973  1
  C  C97  1  0.97359039  0.06227022  0.58818510  1
  C  C98  1  0.42381984  0.90151263  0.54550313  1
  C  C99  1  0.57618016  0.09848737  0.45449687  1
  C  C100  1  0.76828981  0.38865669  0.09190665  1
  C  C101  1  0.35846158  0.16348735  0.38113727  1
  C  C102  1  0.64153842  0.83651265  0.61886273  1
  C  C103  1  0.08085239  0.52773824  0.24072027  1
  C  C104  1  0.02640961  0.93772978  0.41181490  1
  C  C105  1  0.54359994  0.32133291  0.01298073  1
  C  C106  1  0.07618016  0.40151263  0.95449687  1
  C  C107  1  0.95640006  0.82133291  0.48701927  1
  C  C108  1  0.92381984  0.59848737  0.04550313  1
  C  C109  1  0.73171019  0.88865669  0.40809335  1
