# generated using pymatgen
data_Cu3NiC10
_symmetry_space_group_name_H-M   'P 1'
_cell_length_a   3.46065300
_cell_length_b   5.93637300
_cell_length_c   12.86735657
_cell_angle_alpha   88.41461387
_cell_angle_beta   90.00000000
_cell_angle_gamma   90.00000000
_symmetry_Int_Tables_number   1
_chemical_formula_structural   Cu3NiC10
_chemical_formula_sum   'Cu3 Ni1 C10'
_cell_volume   264.24227143
_cell_formula_units_Z   1
loop_
 _symmetry_equiv_pos_site_id
 _symmetry_equiv_pos_as_xyz
  1  'x, y, z'
loop_
 _atom_site_type_symbol
 _atom_site_label
 _atom_site_symmetry_multiplicity
 _atom_site_fract_x
 _atom_site_fract_y
 _atom_site_fract_z
 _atom_site_occupancy
  Ni  Ni0  1  0.50000000  0.52833400  0.25156000  1
  Cu  Cu1  1  0.00000000  0.01829200  0.75757700  1
  Cu  Cu2  1  0.00000000  0.97214000  0.24736800  1
  Cu  Cu3  1  0.50000000  0.48434600  0.74288000  1
  C  C4  1  0.50000000  0.50478300  0.99442500  1
  C  C5  1  0.00000000  0.01000900  0.50615000  1
  C  C6  1  0.50000000  0.16294400  0.86000200  1
  C  C7  1  0.50000000  0.84676100  0.13217600  1
  C  C8  1  0.00000000  0.65745000  0.37115900  1
  C  C9  1  0.00000000  0.34083100  0.64047600  1
  C  C10  1  0.00000000  0.65902400  0.84710000  1
  C  C11  1  0.00000000  0.32461500  0.14630700  1
  C  C12  1  0.50000000  0.14690200  0.34857300  1
  C  C13  1  0.50000000  0.84356700  0.65424600  1
