# generated using pymatgen
data_Cu3NiC8
_symmetry_space_group_name_H-M   'P 1'
_cell_length_a   10.19147453
_cell_length_b   10.19147453
_cell_length_c   5.75021600
_cell_angle_alpha   90.00000000
_cell_angle_beta   90.00000000
_cell_angle_gamma   120.00000345
_symmetry_Int_Tables_number   1
_chemical_formula_structural   Cu3NiC8
_chemical_formula_sum   'Cu6 Ni2 C16'
_cell_volume   517.23609279
_cell_formula_units_Z   2
loop_
 _symmetry_equiv_pos_site_id
 _symmetry_equiv_pos_as_xyz
  1  'x, y, z'
loop_
 _atom_site_type_symbol
 _atom_site_label
 _atom_site_symmetry_multiplicity
 _atom_site_fract_x
 _atom_site_fract_y
 _atom_site_fract_z
 _atom_site_occupancy
  Ni  Ni0  1  0.00000000  0.00000000  0.02079800  1
  Ni  Ni1  1  0.00000000  0.00000000  0.52079800  1
  Cu  Cu2  1  0.12561700  0.76471900  0.75133300  1
  Cu  Cu3  1  0.36089700  0.12561700  0.25133300  1
  Cu  Cu4  1  0.23528100  0.36089700  0.75133300  1
  Cu  Cu5  1  0.63910300  0.87438300  0.75133300  1
  Cu  Cu6  1  0.76471900  0.63910300  0.25133300  1
  Cu  Cu7  1  0.87438300  0.23528100  0.25133300  1
  C  C8  1  0.66666700  0.33333300  0.66305600  1
  C  C9  1  0.33333300  0.66666700  0.16305600  1
  C  C10  1  0.09020600  0.83045600  0.27240900  1
  C  C11  1  0.74025000  0.90979400  0.27240900  1
  C  C12  1  0.83045600  0.74025000  0.77240900  1
  C  C13  1  0.90979400  0.16954400  0.77240900  1
  C  C14  1  0.52232000  0.40945000  0.51527700  1
  C  C15  1  0.16954400  0.25975000  0.27240900  1
  C  C16  1  0.33333300  0.66666700  0.53089000  1
  C  C17  1  0.66666700  0.33333300  0.03089000  1
  C  C18  1  0.40945000  0.88713100  0.01527700  1
  C  C19  1  0.11286900  0.52232000  0.01527700  1
  C  C20  1  0.47768000  0.59055000  0.01527700  1
  C  C21  1  0.59055000  0.11286900  0.51527700  1
  C  C22  1  0.88713100  0.47768000  0.51527700  1
  C  C23  1  0.25975000  0.09020600  0.77240900  1
