# generated using pymatgen
data_Cu4Ni2C9
_symmetry_space_group_name_H-M   'P 1'
_cell_length_a   6.70091926
_cell_length_b   7.63571691
_cell_length_c   7.63571691
_cell_angle_alpha   105.24705371
_cell_angle_beta   98.33543631
_cell_angle_gamma   98.33543631
_symmetry_Int_Tables_number   1
_chemical_formula_structural   Cu4Ni2C9
_chemical_formula_sum   'Cu8 Ni4 C18'
_cell_volume   366.03349619
_cell_formula_units_Z   2
loop_
 _symmetry_equiv_pos_site_id
 _symmetry_equiv_pos_as_xyz
  1  'x, y, z'
loop_
 _atom_site_type_symbol
 _atom_site_label
 _atom_site_symmetry_multiplicity
 _atom_site_fract_x
 _atom_site_fract_y
 _atom_site_fract_z
 _atom_site_occupancy
  C  C0  1  0.91387500  0.29204300  0.29204300  1
  C  C1  1  0.08612500  0.70795700  0.70795700  1
  C  C2  1  0.50000000  0.50000000  0.50000000  1
  Ni  Ni3  1  0.33072600  0.25353800  0.73621300  1
  Ni  Ni4  1  0.33072600  0.73621300  0.25353800  1
  Ni  Ni5  1  0.66927400  0.74646200  0.26378700  1
  Ni  Ni6  1  0.66927400  0.26378700  0.74646200  1
  Cu  Cu7  1  0.24227600  0.99644600  0.50870900  1
  Cu  Cu8  1  0.24227600  0.50870900  0.99644600  1
  Cu  Cu9  1  0.75772400  0.00355400  0.49129100  1
  Cu  Cu10  1  0.75772400  0.49129100  0.00355400  1
  Cu  Cu11  1  0.60919400  0.72880300  0.86139000  1
  Cu  Cu12  1  0.60919400  0.86139000  0.72880300  1
  Cu  Cu13  1  0.39080600  0.27119700  0.13861000  1
  Cu  Cu14  1  0.39080600  0.13861000  0.27119700  1
  C  C15  1  0.28767700  0.31259300  0.93170200  1
  C  C16  1  0.28767700  0.93170200  0.31259300  1
  C  C17  1  0.71232300  0.68740700  0.06829800  1
  C  C18  1  0.71232300  0.06829800  0.68740700  1
  C  C19  1  0.26769800  0.37039400  0.60980700  1
  C  C20  1  0.26769800  0.60980700  0.37039400  1
  C  C21  1  0.73230200  0.62960600  0.39019300  1
  C  C22  1  0.73230200  0.39019300  0.62960600  1
  C  C23  1  0.22345000  0.04262200  0.64400600  1
  C  C24  1  0.22345000  0.64400600  0.04262200  1
  C  C25  1  0.77655000  0.95737800  0.35599400  1
  C  C26  1  0.77655000  0.35599400  0.95737800  1
  C  C27  1  0.54415100  0.74010000  0.74010000  1
  C  C28  1  0.45584900  0.25990000  0.25990000  1
  C  C29  1  0.00000000  0.00000000  0.00000000  1
