# generated using pymatgen
data_Cu2NiC7
_symmetry_space_group_name_H-M   'P 1'
_cell_length_a   8.16866100
_cell_length_b   8.16866100
_cell_length_c   11.86300203
_cell_angle_alpha   59.80498330
_cell_angle_beta   59.80498330
_cell_angle_gamma   58.16627404
_symmetry_Int_Tables_number   1
_chemical_formula_structural   Cu2NiC7
_chemical_formula_sum   'Cu8 Ni4 C28'
_cell_volume   549.98026787
_cell_formula_units_Z   4
loop_
 _symmetry_equiv_pos_site_id
 _symmetry_equiv_pos_as_xyz
  1  'x, y, z'
loop_
 _atom_site_type_symbol
 _atom_site_label
 _atom_site_symmetry_multiplicity
 _atom_site_fract_x
 _atom_site_fract_y
 _atom_site_fract_z
 _atom_site_occupancy
  Ni  Ni0  1  0.76158600  0.76158600  0.48076300  1
  Ni  Ni1  1  0.26787800  0.26787800  0.15414000  1
  Ni  Ni2  1  0.73212200  0.73212200  0.84586000  1
  Ni  Ni3  1  0.23841400  0.23841400  0.51923700  1
  Cu  Cu4  1  0.24077600  0.75922400  0.50000000  1
  Cu  Cu5  1  0.75922400  0.24077600  0.50000000  1
  Cu  Cu6  1  0.74174300  0.74174300  0.17938100  1
  Cu  Cu7  1  0.25825700  0.25825700  0.82061900  1
  Cu  Cu8  1  0.26433100  0.73944700  0.81976500  1
  Cu  Cu9  1  0.73944700  0.26433100  0.81976500  1
  Cu  Cu10  1  0.26055300  0.73566900  0.18023500  1
  Cu  Cu11  1  0.73566900  0.26055300  0.18023500  1
  C  C12  1  0.37899800  0.85687600  0.26314700  1
  C  C13  1  0.85687600  0.37899800  0.26314700  1
  C  C14  1  0.36640900  0.83140200  0.58620500  1
  C  C15  1  0.83140200  0.36640900  0.58620500  1
  C  C16  1  0.99483000  0.99483000  0.22977400  1
  C  C17  1  0.60344400  0.60344400  0.75301400  1
  C  C18  1  0.89480100  0.89480100  0.57589100  1
  C  C19  1  0.00423500  0.67297500  0.00095100  1
  C  C20  1  0.67297500  0.00423500  0.00095100  1
  C  C21  1  0.39655600  0.39655600  0.24698600  1
  C  C22  1  0.99576500  0.32702500  0.99904900  1
  C  C23  1  0.32702500  0.99576500  0.99904900  1
  C  C24  1  0.14312400  0.62100200  0.73685300  1
  C  C25  1  0.62100200  0.14312400  0.73685300  1
  C  C26  1  0.31999600  0.68000400  0.00000000  1
  C  C27  1  0.68000400  0.31999600  0.00000000  1
  C  C28  1  0.00517000  0.00517000  0.77022600  1
  C  C29  1  0.60378600  0.60378600  0.41248600  1
  C  C30  1  0.99980500  0.65521800  0.23870700  1
  C  C31  1  0.65521800  0.99980500  0.23870700  1
  C  C32  1  0.00019500  0.34478200  0.76129300  1
  C  C33  1  0.34478200  0.00019500  0.76129300  1
  C  C34  1  0.38737400  0.38737400  0.88280900  1
  C  C35  1  0.10519900  0.10519900  0.42410900  1
  C  C36  1  0.39621400  0.39621400  0.58751400  1
  C  C37  1  0.16859800  0.63359100  0.41379500  1
  C  C38  1  0.63359100  0.16859800  0.41379500  1
  C  C39  1  0.61262600  0.61262600  0.11719100  1
