# generated using pymatgen
data_CuNiC9
_symmetry_space_group_name_H-M   'P 1'
_cell_length_a   7.37884654
_cell_length_b   7.37884654
_cell_length_c   7.37884654
_cell_angle_alpha   120.65746156
_cell_angle_beta   119.15475649
_cell_angle_gamma   90.16761343
_symmetry_Int_Tables_number   1
_chemical_formula_structural   CuNiC9
_chemical_formula_sum   'Cu2 Ni2 C18'
_cell_volume   284.42730642
_cell_formula_units_Z   2
loop_
 _symmetry_equiv_pos_site_id
 _symmetry_equiv_pos_as_xyz
  1  'x, y, z'
loop_
 _atom_site_type_symbol
 _atom_site_label
 _atom_site_symmetry_multiplicity
 _atom_site_fract_x
 _atom_site_fract_y
 _atom_site_fract_z
 _atom_site_occupancy
  C  C0  1  0.50000000  0.50000000  0.00000000  1
  C  C1  1  0.00000000  0.50000000  0.50000000  1
  C  C2  1  0.00000000  0.50000000  0.00000000  1
  C  C3  1  0.00000000  0.00000000  0.50000000  1
  Ni  Ni4  1  0.00000000  0.00000000  0.00000000  1
  Ni  Ni5  1  0.50000000  0.00000000  0.50000000  1
  Cu  Cu6  1  0.50000000  0.00000000  0.00000000  1
  Cu  Cu7  1  0.50000000  0.50000000  0.50000000  1
  C  C8  1  0.56244900  0.31244900  0.25000000  1
  C  C9  1  0.14765600  0.89765600  0.25000000  1
  C  C10  1  0.57073700  0.34808400  0.67246400  1
  C  C11  1  0.17562000  0.89827300  0.82753600  1
  C  C12  1  0.17562000  0.34808400  0.27734800  1
  C  C13  1  0.57073700  0.89827300  0.22265200  1
  C  C14  1  0.43755100  0.68755100  0.75000000  1
  C  C15  1  0.85234400  0.10234400  0.75000000  1
  C  C16  1  0.42926300  0.65191600  0.32753600  1
  C  C17  1  0.82438000  0.10172700  0.17246400  1
  C  C18  1  0.82438000  0.65191600  0.72265200  1
  C  C19  1  0.42926300  0.10172700  0.77734800  1
  C  C20  1  0.86527900  0.61527900  0.25000000  1
  C  C21  1  0.13472100  0.38472100  0.75000000  1
