# generated using pymatgen
data_Cu8Ni7C
_symmetry_space_group_name_H-M   'P 1'
_cell_length_a   5.48593900
_cell_length_b   5.48593900
_cell_length_c   10.98939200
_cell_angle_alpha   90.00000000
_cell_angle_beta   90.00000000
_cell_angle_gamma   90.00000000
_symmetry_Int_Tables_number   1
_chemical_formula_structural   Cu8Ni7C
_chemical_formula_sum   'Cu8 Ni7 C1'
_cell_volume   330.73154048
_cell_formula_units_Z   1
loop_
 _symmetry_equiv_pos_site_id
 _symmetry_equiv_pos_as_xyz
  1  'x, y, z'
loop_
 _atom_site_type_symbol
 _atom_site_label
 _atom_site_symmetry_multiplicity
 _atom_site_fract_x
 _atom_site_fract_y
 _atom_site_fract_z
 _atom_site_occupancy
  C  C0  1  0.00000000  0.00000000  0.00000000  1
  Ni  Ni1  1  0.50000000  0.50000000  0.00000000  1
  Ni  Ni2  1  0.50000000  0.50000000  0.50000000  1
  Ni  Ni3  1  0.00000000  0.00000000  0.50000000  1
  Ni  Ni4  1  0.50000000  0.00000000  0.75027400  1
  Ni  Ni5  1  0.00000000  0.50000000  0.24972600  1
  Ni  Ni6  1  0.50000000  0.00000000  0.24972600  1
  Ni  Ni7  1  0.00000000  0.50000000  0.75027400  1
  Cu  Cu8  1  0.75290000  0.24710000  0.87614400  1
  Cu  Cu9  1  0.24710000  0.75290000  0.87614400  1
  Cu  Cu10  1  0.75290000  0.75290000  0.12385600  1
  Cu  Cu11  1  0.24710000  0.24710000  0.12385600  1
  Cu  Cu12  1  0.75009800  0.24990200  0.37515800  1
  Cu  Cu13  1  0.24990200  0.75009800  0.37515800  1
  Cu  Cu14  1  0.75009800  0.75009800  0.62484200  1
  Cu  Cu15  1  0.24990200  0.24990200  0.62484200  1
