# generated using pymatgen
data_CuNiC8
_symmetry_space_group_name_H-M   'P 1'
_cell_length_a   7.81209200
_cell_length_b   5.48028900
_cell_length_c   5.65526217
_cell_angle_alpha   89.65898486
_cell_angle_beta   90.00000000
_cell_angle_gamma   90.00000000
_symmetry_Int_Tables_number   1
_chemical_formula_structural   CuNiC8
_chemical_formula_sum   'Cu2 Ni2 C16'
_cell_volume   242.11174672
_cell_formula_units_Z   2
loop_
 _symmetry_equiv_pos_site_id
 _symmetry_equiv_pos_as_xyz
  1  'x, y, z'
loop_
 _atom_site_type_symbol
 _atom_site_label
 _atom_site_symmetry_multiplicity
 _atom_site_fract_x
 _atom_site_fract_y
 _atom_site_fract_z
 _atom_site_occupancy
  C  C0  1  0.75000000  0.99119900  0.04205000  1
  C  C1  1  0.75000000  0.51220200  0.56521400  1
  C  C2  1  0.25000000  0.48779800  0.43478600  1
  C  C3  1  0.25000000  0.00880100  0.95795000  1
  Ni  Ni4  1  0.00000000  0.00000000  0.50000000  1
  Ni  Ni5  1  0.50000000  0.00000000  0.50000000  1
  Cu  Cu6  1  0.00000000  0.50000000  0.00000000  1
  Cu  Cu7  1  0.50000000  0.50000000  0.00000000  1
  C  C8  1  0.45118400  0.19629000  0.21099200  1
  C  C9  1  0.54577600  0.70877500  0.30293000  1
  C  C10  1  0.54881600  0.80371000  0.78900800  1
  C  C11  1  0.04577600  0.29122500  0.69707000  1
  C  C12  1  0.25000000  0.90792000  0.52924500  1
  C  C13  1  0.45422400  0.29122500  0.69707000  1
  C  C14  1  0.95422400  0.70877500  0.30293000  1
  C  C15  1  0.04881600  0.19629000  0.21099200  1
  C  C16  1  0.75000000  0.40869900  0.97203400  1
  C  C17  1  0.95118400  0.80371000  0.78900800  1
  C  C18  1  0.25000000  0.59130100  0.02796600  1
  C  C19  1  0.75000000  0.09208000  0.47075500  1
