# generated using pymatgen
data_Cu5Ni2C
_symmetry_space_group_name_H-M   'P 1'
_cell_length_a   10.24205900
_cell_length_b   8.33317000
_cell_length_c   9.80786000
_cell_angle_alpha   90.00000000
_cell_angle_beta   90.00000000
_cell_angle_gamma   90.00000000
_symmetry_Int_Tables_number   1
_chemical_formula_structural   Cu5Ni2C
_chemical_formula_sum   'Cu20 Ni8 C4'
_cell_volume   837.08926593
_cell_formula_units_Z   4
loop_
 _symmetry_equiv_pos_site_id
 _symmetry_equiv_pos_as_xyz
  1  'x, y, z'
loop_
 _atom_site_type_symbol
 _atom_site_label
 _atom_site_symmetry_multiplicity
 _atom_site_fract_x
 _atom_site_fract_y
 _atom_site_fract_z
 _atom_site_occupancy
  C  C0  1  0.55002200  0.75000000  0.96868400  1
  C  C1  1  0.44997800  0.25000000  0.03131600  1
  C  C2  1  0.05002200  0.25000000  0.53131600  1
  C  C3  1  0.94997800  0.75000000  0.46868400  1
  Ni  Ni4  1  0.45184500  0.41247700  0.59465900  1
  Ni  Ni5  1  0.54815500  0.58752300  0.40534100  1
  Ni  Ni6  1  0.95184500  0.58752300  0.90534100  1
  Ni  Ni7  1  0.54815500  0.91247700  0.40534100  1
  Ni  Ni8  1  0.04815500  0.41247700  0.09465900  1
  Ni  Ni9  1  0.45184500  0.08752300  0.59465900  1
  Ni  Ni10  1  0.04815500  0.08752300  0.09465900  1
  Ni  Ni11  1  0.95184500  0.91247700  0.90534100  1
  Cu  Cu12  1  0.41692700  0.75000000  0.74110900  1
  Cu  Cu13  1  0.58307300  0.25000000  0.25889100  1
  Cu  Cu14  1  0.91692700  0.25000000  0.75889100  1
  Cu  Cu15  1  0.08307300  0.75000000  0.24110900  1
  Cu  Cu16  1  0.64627300  0.44794900  0.92912600  1
  Cu  Cu17  1  0.35372700  0.55205100  0.07087400  1
  Cu  Cu18  1  0.14627300  0.55205100  0.57087400  1
  Cu  Cu19  1  0.35372700  0.94794900  0.07087400  1
  Cu  Cu20  1  0.85372700  0.44794900  0.42912600  1
  Cu  Cu21  1  0.64627300  0.05205100  0.92912600  1
  Cu  Cu22  1  0.85372700  0.05205100  0.42912600  1
  Cu  Cu23  1  0.14627300  0.94794900  0.57087400  1
  Cu  Cu24  1  0.00064600  0.75000000  0.95802800  1
  Cu  Cu25  1  0.99935400  0.25000000  0.04197200  1
  Cu  Cu26  1  0.50064600  0.25000000  0.54197200  1
  Cu  Cu27  1  0.49935400  0.75000000  0.45802800  1
  Cu  Cu28  1  0.78876300  0.75000000  0.73581300  1
  Cu  Cu29  1  0.21123700  0.25000000  0.26418700  1
  Cu  Cu30  1  0.28876300  0.25000000  0.76418700  1
  Cu  Cu31  1  0.71123700  0.75000000  0.23581300  1
