# generated using pymatgen
data_Cu4NiC
_symmetry_space_group_name_H-M   'P 1'
_cell_length_a   8.59939208
_cell_length_b   8.62363872
_cell_length_c   8.92907570
_cell_angle_alpha   61.14463273
_cell_angle_beta   61.20443933
_cell_angle_gamma   60.08229016
_symmetry_Int_Tables_number   1
_chemical_formula_structural   Cu4NiC
_chemical_formula_sum   'Cu24 Ni6 C6'
_cell_volume   476.66607703
_cell_formula_units_Z   6
loop_
 _symmetry_equiv_pos_site_id
 _symmetry_equiv_pos_as_xyz
  1  'x, y, z'
loop_
 _atom_site_type_symbol
 _atom_site_label
 _atom_site_symmetry_multiplicity
 _atom_site_fract_x
 _atom_site_fract_y
 _atom_site_fract_z
 _atom_site_occupancy
  C  C0  1  0.00168000  0.50116100  0.99605000  1
  C  C1  1  0.50139100  0.00090400  0.49614100  1
  C  C2  1  0.14709600  0.64515300  0.55817200  1
  C  C3  1  0.64962100  0.14512500  0.05824300  1
  C  C4  1  0.34958200  0.85298200  0.94617400  1
  C  C5  1  0.85141800  0.35306600  0.44610600  1
  Ni  Ni6  1  0.24685600  0.04281500  0.25221400  1
  Ni  Ni7  1  0.04643600  0.24772400  0.75248100  1
  Ni  Ni8  1  0.54176800  0.45700100  0.25266700  1
  Ni  Ni9  1  0.45807300  0.54273000  0.75206700  1
  Ni  Ni10  1  0.95334400  0.74746800  0.25262600  1
  Ni  Ni11  1  0.74891200  0.95684600  0.75266300  1
  Cu  Cu12  1  0.07784800  0.22019700  0.26575400  1
  Cu  Cu13  1  0.27700900  0.01944300  0.08298800  1
  Cu  Cu14  1  0.01507200  0.28690500  0.58473200  1
  Cu  Cu15  1  0.11333100  0.78663300  0.08449900  1
  Cu  Cu16  1  0.41135000  0.06878100  0.23655500  1
  Cu  Cu17  1  0.22660200  0.07973500  0.75731600  1
  Cu  Cu18  1  0.07167500  0.40987600  0.74196200  1
  Cu  Cu19  1  0.57046900  0.28434600  0.23198200  1
  Cu  Cu20  1  0.38396200  0.48484200  0.41600000  1
  Cu  Cu21  1  0.21237700  0.88211600  0.40989800  1
  Cu  Cu22  1  0.50870300  0.62339700  0.08891500  1
  Cu  Cu23  1  0.28337100  0.56801700  0.73713200  1
  Cu  Cu24  1  0.72021600  0.43870800  0.26146900  1
  Cu  Cu25  1  0.49588900  0.38195300  0.90986900  1
  Cu  Cu26  1  0.77892000  0.12331700  0.58884700  1
  Cu  Cu27  1  0.62056600  0.51961900  0.58286500  1
  Cu  Cu28  1  0.43593300  0.72032300  0.76563000  1
  Cu  Cu29  1  0.93587100  0.57990900  0.25750400  1
  Cu  Cu30  1  0.77638100  0.91001400  0.24221100  1
  Cu  Cu31  1  0.57969700  0.93803400  0.76195300  1
  Cu  Cu32  1  0.89079900  0.20592800  0.91448600  1
  Cu  Cu33  1  0.98905100  0.70564800  0.41426900  1
  Cu  Cu34  1  0.71531300  0.98482700  0.91580000  1
  Cu  Cu35  1  0.91341800  0.78445700  0.73175900  1
