# generated using pymatgen
data_Cu2NiC9
_symmetry_space_group_name_H-M   'P 1'
_cell_length_a   5.08158266
_cell_length_b   23.75756253
_cell_length_c   23.70800157
_cell_angle_alpha   90.00000000
_cell_angle_beta   90.00000000
_cell_angle_gamma   90.00000000
_symmetry_Int_Tables_number   1
_chemical_formula_structural   Cu2NiC9
_chemical_formula_sum   'Cu36 Ni18 C162'
_cell_volume   2862.17261945
_cell_formula_units_Z   18
loop_
 _symmetry_equiv_pos_site_id
 _symmetry_equiv_pos_as_xyz
  1  'x, y, z'
loop_
 _atom_site_type_symbol
 _atom_site_label
 _atom_site_symmetry_multiplicity
 _atom_site_fract_x
 _atom_site_fract_y
 _atom_site_fract_z
 _atom_site_occupancy
  C  C0  1  0.49926674  0.39241323  0.55323295  1
  C  C1  1  0.49926674  0.60758677  0.44676705  1
  C  C2  1  0.50073326  0.89241323  0.94676705  1
  C  C3  1  0.50073326  0.10758677  0.05323295  1
  C  C4  1  0.51193971  0.38519805  0.89246623  1
  C  C5  1  0.51193971  0.61480195  0.10753377  1
  C  C6  1  0.48806029  0.88519805  0.60753377  1
  C  C7  1  0.48806029  0.11480195  0.39246623  1
  C  C8  1  0.49947613  0.44479943  0.72557251  1
  C  C9  1  0.49947613  0.55520057  0.27442749  1
  C  C10  1  0.50052387  0.94479943  0.77442749  1
  C  C11  1  0.50052387  0.05520057  0.22557251  1
  C  C12  1  0.48663038  0.22515467  0.61096758  1
  C  C13  1  0.48663038  0.77484533  0.38903242  1
  C  C14  1  0.51336962  0.72515467  0.88903242  1
  C  C15  1  0.51336962  0.27484533  0.11096758  1
  C  C16  1  0.52550211  0.23184475  0.95032439  1
  C  C17  1  0.52550211  0.76815525  0.04967561  1
  C  C18  1  0.47449789  0.73184475  0.54967561  1
  C  C19  1  0.47449789  0.26815525  0.45032439  1
  C  C20  1  0.47666959  0.28456856  0.76482218  1
  C  C21  1  0.47666959  0.71543144  0.23517782  1
  C  C22  1  0.52333041  0.78456856  0.73517782  1
  C  C23  1  0.52333041  0.21543144  0.26482218  1
  C  C24  1  0.47802776  0.05895618  0.55259489  1
  C  C25  1  0.47802776  0.94104382  0.44740511  1
  C  C26  1  0.52197224  0.55895618  0.94740511  1
  C  C27  1  0.52197224  0.44104382  0.05259489  1
  C  C28  1  0.48492712  0.04916211  0.89841599  1
  C  C29  1  0.48492712  0.95083789  0.10158401  1
  C  C30  1  0.51507288  0.54916211  0.60158401  1
  C  C31  1  0.51507288  0.45083789  0.39841599  1
  C  C32  1  0.50624940  0.09775229  0.71220175  1
  C  C33  1  0.50624940  0.90224771  0.28779825  1
  C  C34  1  0.49375060  0.59775229  0.78779825  1
  C  C35  1  0.49375060  0.40224771  0.21220175  1
  Ni  Ni36  1  0.00537469  0.50000000  0.50000000  1
  Ni  Ni37  1  0.99462531  -0.00000000  -0.00000000  1
  Ni  Ni38  1  0.99262556  0.49343955  0.83632205  1
  Ni  Ni39  1  0.99262556  0.50656045  0.16367795  1
  Ni  Ni40  1  0.00737444  0.99343955  0.66367795  1
  Ni  Ni41  1  0.00737444  0.00656045  0.33632205  1
  Ni  Ni42  1  0.98931983  0.33667035  0.66126287  1
  Ni  Ni43  1  0.98931983  0.66332965  0.33873713  1
  Ni  Ni44  1  0.01068017  0.83667035  0.83873713  1
  Ni  Ni45  1  0.01068017  0.16332965  0.16126287  1
  Ni  Ni46  1  0.98921164  0.16633104  0.50214042  1
  Ni  Ni47  1  0.98921164  0.83366896  0.49785958  1
  Ni  Ni48  1  0.01078836  0.66633104  0.99785958  1
  Ni  Ni49  1  0.01078836  0.33366896  0.00214042  1
  Ni  Ni50  1  0.99469390  0.16520708  0.83029226  1
  Ni  Ni51  1  0.99469390  0.83479292  0.16970774  1
  Ni  Ni52  1  0.00530610  0.66520708  0.66970774  1
  Ni  Ni53  1  0.00530610  0.33479292  0.33029226  1
  Cu  Cu54  1  0.07011416  0.45805690  0.62072640  1
  Cu  Cu55  1  0.07011416  0.54194310  0.37927360  1
  Cu  Cu56  1  0.92988584  0.95805690  0.87927360  1
  Cu  Cu57  1  0.92988584  0.04194310  0.12072640  1
  Cu  Cu58  1  0.08355028  0.45087750  0.95590512  1
  Cu  Cu59  1  0.08355028  0.54912250  0.04409488  1
  Cu  Cu60  1  0.91644972  0.95087750  0.54409488  1
  Cu  Cu61  1  0.91644972  0.04912250  0.45590512  1
  Cu  Cu62  1  0.93095012  0.37398193  0.78543123  1
  Cu  Cu63  1  0.93095012  0.62601807  0.21456877  1
  Cu  Cu64  1  0.06904988  0.87398193  0.71456877  1
  Cu  Cu65  1  0.06904988  0.12601807  0.28543123  1
  Cu  Cu66  1  0.92544986  0.28793035  0.54122562  1
  Cu  Cu67  1  0.92544986  0.71206965  0.45877438  1
  Cu  Cu68  1  0.07455014  0.78793035  0.95877438  1
  Cu  Cu69  1  0.07455014  0.21206965  0.04122562  1
  Cu  Cu70  1  0.95607579  0.28528323  0.88198279  1
  Cu  Cu71  1  0.95607579  0.71471677  0.11801721  1
  Cu  Cu72  1  0.04392421  0.78528323  0.61801721  1
  Cu  Cu73  1  0.04392421  0.21471677  0.38198279  1
  Cu  Cu74  1  0.03896366  0.21690596  0.70995695  1
  Cu  Cu75  1  0.03896366  0.78309404  0.29004305  1
  Cu  Cu76  1  0.96103634  0.71690596  0.79004305  1
  Cu  Cu77  1  0.96103634  0.28309404  0.20995695  1
  Cu  Cu78  1  0.05312666  0.11865701  0.62272393  1
  Cu  Cu79  1  0.05312666  0.88134299  0.37727607  1
  Cu  Cu80  1  0.94687334  0.61865701  0.87727607  1
  Cu  Cu81  1  0.94687334  0.38134299  0.12272393  1
  Cu  Cu82  1  0.05038593  0.11738156  0.95152529  1
  Cu  Cu83  1  0.05038593  0.88261844  0.04847471  1
  Cu  Cu84  1  0.94961407  0.61738156  0.54847471  1
  Cu  Cu85  1  0.94961407  0.38261844  0.45152529  1
  Cu  Cu86  1  0.94137876  0.04442214  0.77965094  1
  Cu  Cu87  1  0.94137876  0.95557786  0.22034906  1
  Cu  Cu88  1  0.05862124  0.54442214  0.72034906  1
  Cu  Cu89  1  0.05862124  0.45557786  0.27965094  1
  C  C90  1  0.18173228  0.50836392  0.66493039  1
  C  C91  1  0.18173228  0.49163608  0.33506961  1
  C  C92  1  0.81826772  0.00836392  0.83506961  1
  C  C93  1  0.81826772  0.99163608  0.16493039  1
  C  C94  1  0.82460238  0.32616718  0.48543299  1
  C  C95  1  0.82460238  0.67383282  0.51456701  1
  C  C96  1  0.17539762  0.82616718  0.01456701  1
  C  C97  1  0.17539762  0.17383282  0.98543299  1
  C  C98  1  0.82799210  0.32037742  0.82637544  1
  C  C99  1  0.82799210  0.67962258  0.17362456  1
  C  C100  1  0.17200790  0.82037742  0.67362456  1
  C  C101  1  0.17200790  0.17962258  0.32637544  1
  C  C102  1  0.16073276  0.16021053  0.67547396  1
  C  C103  1  0.16073276  0.83978947  0.32452604  1
  C  C104  1  0.83926724  0.66021053  0.82452604  1
  C  C105  1  0.83926724  0.33978947  0.17547396  1
  C  C106  1  0.79555672  -0.00000000  0.50000000  1
  C  C107  1  0.20444328  0.50000000  -0.00000000  1
  C  C108  1  0.75272389  0.45790270  0.61766465  1
  C  C109  1  0.75272389  0.54209730  0.38233535  1
  C  C110  1  0.24727611  0.95790270  0.88233535  1
  C  C111  1  0.24727611  0.04209730  0.11766465  1
  C  C112  1  0.76586452  0.44930436  0.95805321  1
  C  C113  1  0.76586452  0.55069564  0.04194679  1
  C  C114  1  0.23413548  0.94930436  0.54194679  1
  C  C115  1  0.23413548  0.05069564  0.45805321  1
  C  C116  1  0.24780858  0.37537350  0.78088045  1
  C  C117  1  0.24780858  0.62462650  0.21911955  1
  C  C118  1  0.75219142  0.87537350  0.71911955  1
  C  C119  1  0.75219142  0.12462650  0.28088045  1
  C  C120  1  0.24295558  0.28416307  0.54317292  1
  C  C121  1  0.24295558  0.71583693  0.45682708  1
  C  C122  1  0.75704442  0.78416307  0.95682708  1
  C  C123  1  0.75704442  0.21583693  0.04317292  1
  C  C124  1  0.27218936  0.29162710  0.88555434  1
  C  C125  1  0.27218936  0.70837290  0.11444566  1
  C  C126  1  0.72781064  0.79162710  0.61444566  1
  C  C127  1  0.72781064  0.20837290  0.38555434  1
  C  C128  1  0.72317997  0.22129539  0.70312527  1
  C  C129  1  0.72317997  0.77870461  0.29687473  1
  C  C130  1  0.27682003  0.72129539  0.79687473  1
  C  C131  1  0.27682003  0.27870461  0.20312527  1
  C  C132  1  0.73584183  0.11509928  0.62105092  1
  C  C133  1  0.73584183  0.88490072  0.37894908  1
  C  C134  1  0.26415817  0.61509928  0.87894908  1
  C  C135  1  0.26415817  0.38490072  0.12105092  1
  C  C136  1  0.73432273  0.11380268  0.95854000  1
  C  C137  1  0.73432273  0.88619732  0.04146000  1
  C  C138  1  0.26567727  0.61380268  0.54146000  1
  C  C139  1  0.26567727  0.38619732  0.45854000  1
  C  C140  1  0.25674264  0.03776068  0.77456835  1
  C  C141  1  0.25674264  0.96223932  0.22543165  1
  C  C142  1  0.74325736  0.53776068  0.72543165  1
  C  C143  1  0.74325736  0.46223932  0.27456835  1
  C  C144  1  0.22939388  0.47553262  0.56273315  1
  C  C145  1  0.22939388  0.52446738  0.43726685  1
  C  C146  1  0.77060612  0.97553262  0.93726685  1
  C  C147  1  0.77060612  0.02446738  0.06273315  1
  C  C148  1  0.21960816  0.40063462  0.64226558  1
  C  C149  1  0.21960816  0.59936538  0.35773442  1
  C  C150  1  0.78039184  0.90063462  0.85773442  1
  C  C151  1  0.78039184  0.09936538  0.14226558  1
  C  C152  1  0.22652041  0.46645633  0.89612929  1
  C  C153  1  0.22652041  0.53354367  0.10387071  1
  C  C154  1  0.77347959  0.96645633  0.60387071  1
  C  C155  1  0.77347959  0.03354367  0.39612929  1
  C  C156  1  0.24374998  0.39514662  0.97908981  1
  C  C157  1  0.24374998  0.60485338  0.02091019  1
  C  C158  1  0.75625002  0.89514662  0.52091019  1
  C  C159  1  0.75625002  0.10485338  0.47908981  1
  C  C160  1  0.77209516  0.36106149  0.72616652  1
  C  C161  1  0.77209516  0.63893851  0.27383348  1
  C  C162  1  0.22790484  0.86106149  0.77383348  1
  C  C163  1  0.22790484  0.13893851  0.22616652  1
  C  C164  1  0.77788806  0.42855532  0.81288770  1
  C  C165  1  0.77788806  0.57144468  0.18711230  1
  C  C166  1  0.22211194  0.92855532  0.68711230  1
  C  C167  1  0.22211194  0.07144468  0.31288770  1
  C  C168  1  0.77350590  0.31730186  0.59489244  1
  C  C169  1  0.77350590  0.68269814  0.40510756  1
  C  C170  1  0.22649410  0.81730186  0.90510756  1
  C  C171  1  0.22649410  0.18269814  0.09489244  1
  C  C172  1  0.76718072  0.22849525  0.53002003  1
  C  C173  1  0.76718072  0.77150475  0.46997997  1
  C  C174  1  0.23281928  0.72849525  0.96997997  1
  C  C175  1  0.23281928  0.27150475  0.03002003  1
  C  C176  1  0.79595692  0.31442744  0.93576328  1
  C  C177  1  0.79595692  0.68557256  0.06423672  1
  C  C178  1  0.20404308  0.81442744  0.56423672  1
  C  C179  1  0.20404308  0.18557256  0.43576328  1
  C  C180  1  0.82894401  0.22234446  0.87837790  1
  C  C181  1  0.82894401  0.77765554  0.12162210  1
  C  C182  1  0.17105599  0.72234446  0.62162210  1
  C  C183  1  0.17105599  0.27765554  0.37837790  1
  C  C184  1  0.16302861  0.21330595  0.77327603  1
  C  C185  1  0.16302861  0.78669405  0.22672397  1
  C  C186  1  0.83697139  0.71330595  0.72672397  1
  C  C187  1  0.83697139  0.28669405  0.27327603  1
  C  C188  1  0.20250246  0.26956944  0.68014448  1
  C  C189  1  0.20250246  0.73043056  0.31985552  1
  C  C190  1  0.79749754  0.76956944  0.81985552  1
  C  C191  1  0.79749754  0.23043056  0.18014448  1
  C  C192  1  0.20698211  0.14413631  0.56721048  1
  C  C193  1  0.20698211  0.85586369  0.43278952  1
  C  C194  1  0.79301789  0.64413631  0.93278952  1
  C  C195  1  0.79301789  0.35586369  0.06721048  1
  C  C196  1  0.20956953  0.05928507  0.63612145  1
  C  C197  1  0.20956953  0.94071493  0.36387855  1
  C  C198  1  0.79043047  0.55928507  0.86387855  1
  C  C199  1  0.79043047  0.44071493  0.13612145  1
  C  C200  1  0.17102516  0.11916360  0.88779107  1
  C  C201  1  0.17102516  0.88083640  0.11220893  1
  C  C202  1  0.82897484  0.61916360  0.61220893  1
  C  C203  1  0.82897484  0.38083640  0.38779107  1
  C  C204  1  0.21606690  0.06525665  0.98186906  1
  C  C205  1  0.21606690  0.93474335  0.01813094  1
  C  C206  1  0.78393310  0.56525665  0.51813094  1
  C  C207  1  0.78393310  0.43474335  0.48186906  1
  C  C208  1  0.77660821  0.01549078  0.72671434  1
  C  C209  1  0.77660821  0.98450922  0.27328566  1
  C  C210  1  0.22339179  0.51549078  0.77328566  1
  C  C211  1  0.22339179  0.48450922  0.22671434  1
  C  C212  1  0.81674325  0.10762739  0.78440337  1
  C  C213  1  0.81674325  0.89237261  0.21559663  1
  C  C214  1  0.18325675  0.60762739  0.71559663  1
  C  C215  1  0.18325675  0.39237261  0.28440337  1
