# generated using pymatgen
data_Cu5NiC2
_symmetry_space_group_name_H-M   'P 1'
_cell_length_a   10.09531402
_cell_length_b   10.09531402
_cell_length_c   10.09531402
_cell_angle_alpha   60.00000000
_cell_angle_beta   60.00000000
_cell_angle_gamma   60.00000000
_symmetry_Int_Tables_number   1
_chemical_formula_structural   Cu5NiC2
_chemical_formula_sum   'Cu20 Ni4 C8'
_cell_volume   727.51926682
_cell_formula_units_Z   4
loop_
 _symmetry_equiv_pos_site_id
 _symmetry_equiv_pos_as_xyz
  1  'x, y, z'
loop_
 _atom_site_type_symbol
 _atom_site_label
 _atom_site_symmetry_multiplicity
 _atom_site_fract_x
 _atom_site_fract_y
 _atom_site_fract_z
 _atom_site_occupancy
  C  C0  1  0.00442500  0.33185800  0.33185800  1
  C  C1  1  0.33185800  0.00442500  0.33185800  1
  C  C2  1  0.33185800  0.33185800  0.00442500  1
  C  C3  1  0.33185800  0.33185800  0.33185800  1
  C  C4  1  0.24557500  0.91814200  0.91814200  1
  C  C5  1  0.91814200  0.24557500  0.91814200  1
  C  C6  1  0.91814200  0.91814200  0.24557500  1
  C  C7  1  0.91814200  0.91814200  0.91814200  1
  Ni  Ni8  1  0.12500000  0.62500000  0.62500000  1
  Ni  Ni9  1  0.62500000  0.12500000  0.62500000  1
  Ni  Ni10  1  0.62500000  0.62500000  0.12500000  1
  Ni  Ni11  1  0.62500000  0.62500000  0.62500000  1
  Cu  Cu12  1  0.08410500  0.08410500  0.41589500  1
  Cu  Cu13  1  0.41589500  0.41589500  0.08410500  1
  Cu  Cu14  1  0.08410500  0.41589500  0.08410500  1
  Cu  Cu15  1  0.41589500  0.08410500  0.41589500  1
  Cu  Cu16  1  0.41589500  0.08410500  0.08410500  1
  Cu  Cu17  1  0.08410500  0.41589500  0.41589500  1
  Cu  Cu18  1  0.16589500  0.16589500  0.83410500  1
  Cu  Cu19  1  0.83410500  0.83410500  0.16589500  1
  Cu  Cu20  1  0.16589500  0.83410500  0.16589500  1
  Cu  Cu21  1  0.83410500  0.16589500  0.83410500  1
  Cu  Cu22  1  0.83410500  0.16589500  0.16589500  1
  Cu  Cu23  1  0.16589500  0.83410500  0.83410500  1
  Cu  Cu24  1  0.76360300  0.41213200  0.41213200  1
  Cu  Cu25  1  0.41213200  0.76360300  0.41213200  1
  Cu  Cu26  1  0.41213200  0.41213200  0.76360300  1
  Cu  Cu27  1  0.41213200  0.41213200  0.41213200  1
  Cu  Cu28  1  0.48639700  0.83786800  0.83786800  1
  Cu  Cu29  1  0.83786800  0.48639700  0.83786800  1
  Cu  Cu30  1  0.83786800  0.83786800  0.48639700  1
  Cu  Cu31  1  0.83786800  0.83786800  0.83786800  1
