# generated using pymatgen
data_Cu2NiC3
_symmetry_space_group_name_H-M   'P 1'
_cell_length_a   3.31055189
_cell_length_b   3.31055189
_cell_length_c   37.63057300
_cell_angle_alpha   90.00000000
_cell_angle_beta   90.00000000
_cell_angle_gamma   119.99999771
_symmetry_Int_Tables_number   1
_chemical_formula_structural   Cu2NiC3
_chemical_formula_sum   'Cu4 Ni2 C6'
_cell_volume   357.16777700
_cell_formula_units_Z   2
loop_
 _symmetry_equiv_pos_site_id
 _symmetry_equiv_pos_as_xyz
  1  'x, y, z'
loop_
 _atom_site_type_symbol
 _atom_site_label
 _atom_site_symmetry_multiplicity
 _atom_site_fract_x
 _atom_site_fract_y
 _atom_site_fract_z
 _atom_site_occupancy
  C  C0  1  0.33333300  0.66666700  0.33294500  1
  C  C1  1  0.33333300  0.66666700  0.23065100  1
  C  C2  1  0.33333300  0.66666700  0.09389900  1
  C  C3  1  0.33333300  0.66666700  0.46968600  1
  C  C4  1  0.66666700  0.33333300  0.65753200  1
  C  C5  1  0.66666700  0.33333300  0.28180300  1
  Ni  Ni6  1  0.33333300  0.66666700  0.70217400  1
  Ni  Ni7  1  0.33333300  0.66666700  0.61288900  1
  Cu  Cu8  1  0.66666700  0.33333300  0.05331000  1
  Cu  Cu9  1  0.66666700  0.33333300  0.42908000  1
  Cu  Cu10  1  0.66666700  0.33333300  0.13450800  1
  Cu  Cu11  1  0.66666700  0.33333300  0.51027200  1
