# generated using pymatgen
data_Cu(NiC4)3
_symmetry_space_group_name_H-M   'P 1'
_cell_length_a   6.60919182
_cell_length_b   6.60919182
_cell_length_c   10.03651700
_cell_angle_alpha   90.00000000
_cell_angle_beta   90.00000000
_cell_angle_gamma   114.12296117
_symmetry_Int_Tables_number   1
_chemical_formula_structural   Cu(NiC4)3
_chemical_formula_sum   'Cu2 Ni6 C24'
_cell_volume   400.12320132
_cell_formula_units_Z   2
loop_
 _symmetry_equiv_pos_site_id
 _symmetry_equiv_pos_as_xyz
  1  'x, y, z'
loop_
 _atom_site_type_symbol
 _atom_site_label
 _atom_site_symmetry_multiplicity
 _atom_site_fract_x
 _atom_site_fract_y
 _atom_site_fract_z
 _atom_site_occupancy
  Ni  Ni0  1  0.60814200  0.64366000  0.75000000  1
  Ni  Ni1  1  0.64366000  0.60814200  0.25000000  1
  Ni  Ni2  1  0.94488600  0.94488600  0.00000000  1
  Ni  Ni3  1  0.94488600  0.94488600  0.50000000  1
  Ni  Ni4  1  0.21593100  0.80516300  0.75000000  1
  Ni  Ni5  1  0.80516300  0.21593100  0.25000000  1
  Cu  Cu6  1  0.78562000  0.24109000  0.75000000  1
  Cu  Cu7  1  0.24109000  0.78562000  0.25000000  1
  C  C8  1  0.22868100  0.25166200  0.75000000  1
  C  C9  1  0.25166200  0.22868100  0.25000000  1
  C  C10  1  0.48181500  0.89095600  0.00090100  1
  C  C11  1  0.89095600  0.48181500  0.99909900  1
  C  C12  1  0.48181500  0.89095600  0.49909900  1
  C  C13  1  0.89095600  0.48181500  0.50090100  1
  C  C14  1  0.20422400  0.43614900  0.75000000  1
  C  C15  1  0.43614900  0.20422400  0.25000000  1
  C  C16  1  0.57990700  0.91051500  0.88672800  1
  C  C17  1  0.91051500  0.57990700  0.11327200  1
  C  C18  1  0.57990700  0.91051500  0.61327200  1
  C  C19  1  0.91051500  0.57990700  0.38672800  1
  C  C20  1  0.85411500  0.57123200  0.89083800  1
  C  C21  1  0.57123200  0.85411500  0.10916200  1
  C  C22  1  0.85411500  0.57123200  0.60916200  1
  C  C23  1  0.57123200  0.85411500  0.39083800  1
  C  C24  1  0.42177900  0.24654000  0.75000000  1
  C  C25  1  0.24654000  0.42177900  0.25000000  1
  C  C26  1  0.90224100  0.29214000  0.98900800  1
  C  C27  1  0.29214000  0.90224100  0.01099200  1
  C  C28  1  0.90224100  0.29214000  0.51099200  1
  C  C29  1  0.29214000  0.90224100  0.48900800  1
  C  C30  1  0.04713200  0.06611500  0.75000000  1
  C  C31  1  0.06611500  0.04713200  0.25000000  1
