# generated using pymatgen
data_CuNi5C3
_symmetry_space_group_name_H-M   'P 1'
_cell_length_a   8.10593400
_cell_length_b   11.10174700
_cell_length_c   14.49938800
_cell_angle_alpha   90.00000000
_cell_angle_beta   90.00000000
_cell_angle_gamma   90.00000000
_symmetry_Int_Tables_number   1
_chemical_formula_structural   CuNi5C3
_chemical_formula_sum   'Cu4 Ni20 C12'
_cell_volume   1304.80033887
_cell_formula_units_Z   4
loop_
 _symmetry_equiv_pos_site_id
 _symmetry_equiv_pos_as_xyz
  1  'x, y, z'
loop_
 _atom_site_type_symbol
 _atom_site_label
 _atom_site_symmetry_multiplicity
 _atom_site_fract_x
 _atom_site_fract_y
 _atom_site_fract_z
 _atom_site_occupancy
  C  C0  1  0.83493700  0.49294000  0.86123300  1
  C  C1  1  0.16506300  0.50706000  0.13876700  1
  C  C2  1  0.33493700  0.50706000  0.63876700  1
  C  C3  1  0.16506300  0.99294000  0.13876700  1
  C  C4  1  0.66506300  0.49294000  0.36123300  1
  C  C5  1  0.83493700  0.00706000  0.86123300  1
  C  C6  1  0.66506300  0.00706000  0.36123300  1
  C  C7  1  0.33493700  0.99294000  0.63876700  1
  C  C8  1  0.77871200  0.75000000  0.61409300  1
  C  C9  1  0.22128800  0.25000000  0.38590700  1
  C  C10  1  0.27871200  0.25000000  0.88590700  1
  C  C11  1  0.72128800  0.75000000  0.11409300  1
  Ni  Ni12  1  0.54047200  0.75000000  0.49738000  1
  Ni  Ni13  1  0.45952800  0.25000000  0.50262000  1
  Ni  Ni14  1  0.04047200  0.25000000  0.00262000  1
  Ni  Ni15  1  0.95952800  0.75000000  0.99738000  1
  Ni  Ni16  1  0.07383800  0.75000000  0.70414700  1
  Ni  Ni17  1  0.92616200  0.25000000  0.29585300  1
  Ni  Ni18  1  0.57383800  0.25000000  0.79585300  1
  Ni  Ni19  1  0.42616200  0.75000000  0.20414700  1
  Ni  Ni20  1  0.81415100  0.51971700  0.59905700  1
  Ni  Ni21  1  0.18584900  0.48028300  0.40094300  1
  Ni  Ni22  1  0.31415100  0.48028300  0.90094300  1
  Ni  Ni23  1  0.18584900  0.01971700  0.40094300  1
  Ni  Ni24  1  0.68584900  0.51971700  0.09905700  1
  Ni  Ni25  1  0.81415100  0.98028300  0.59905700  1
  Ni  Ni26  1  0.68584900  0.98028300  0.09905700  1
  Ni  Ni27  1  0.31415100  0.01971700  0.90094300  1
  Ni  Ni28  1  0.61259900  0.75000000  0.76473100  1
  Ni  Ni29  1  0.38740100  0.25000000  0.23526900  1
  Ni  Ni30  1  0.11259900  0.25000000  0.73526900  1
  Ni  Ni31  1  0.88740100  0.75000000  0.26473100  1
  Cu  Cu32  1  0.02174900  0.75000000  0.53997300  1
  Cu  Cu33  1  0.97825100  0.25000000  0.46002700  1
  Cu  Cu34  1  0.52174900  0.25000000  0.96002700  1
  Cu  Cu35  1  0.47825100  0.75000000  0.03997300  1
