# generated using pymatgen
data_Cu14Ni2C7
_symmetry_space_group_name_H-M   'P 1'
_cell_length_a   9.73457367
_cell_length_b   9.73457367
_cell_length_c   5.87935800
_cell_angle_alpha   90.00000000
_cell_angle_beta   90.00000000
_cell_angle_gamma   119.99999777
_symmetry_Int_Tables_number   1
_chemical_formula_structural   Cu14Ni2C7
_chemical_formula_sum   'Cu14 Ni2 C7'
_cell_volume   482.49678018
_cell_formula_units_Z   1
loop_
 _symmetry_equiv_pos_site_id
 _symmetry_equiv_pos_as_xyz
  1  'x, y, z'
loop_
 _atom_site_type_symbol
 _atom_site_label
 _atom_site_symmetry_multiplicity
 _atom_site_fract_x
 _atom_site_fract_y
 _atom_site_fract_z
 _atom_site_occupancy
  C  C0  1  0.97134200  0.52567400  0.26001500  1
  C  C1  1  0.55433200  0.02865800  0.26001500  1
  C  C2  1  0.47432600  0.44566800  0.26001500  1
  C  C3  1  0.69096700  0.80655800  0.76513300  1
  C  C4  1  0.11559200  0.30903300  0.76513300  1
  C  C5  1  0.19344200  0.88440800  0.76513300  1
  C  C6  1  0.33333300  0.66666700  0.45443000  1
  Ni  Ni7  1  0.66666700  0.33333300  0.83744500  1
  Ni  Ni8  1  0.00000000  0.00000000  0.34151500  1
  Cu  Cu9  1  0.18250300  0.41391500  0.20868600  1
  Cu  Cu10  1  0.23141200  0.81749700  0.20868600  1
  Cu  Cu11  1  0.58608500  0.76858800  0.20868600  1
  Cu  Cu12  1  0.48193700  0.91845600  0.69235800  1
  Cu  Cu13  1  0.43651900  0.51806300  0.69235800  1
  Cu  Cu14  1  0.08154400  0.56348100  0.69235800  1
  Cu  Cu15  1  0.66666700  0.33333300  0.46150600  1
  Cu  Cu16  1  0.00000000  0.00000000  0.96447900  1
  Cu  Cu17  1  0.42828500  0.18627100  0.99949100  1
  Cu  Cu18  1  0.75798600  0.57171500  0.99949100  1
  Cu  Cu19  1  0.81372900  0.24201400  0.99949100  1
  Cu  Cu20  1  0.23817400  0.14602100  0.50475900  1
  Cu  Cu21  1  0.90784700  0.76182600  0.50475900  1
  Cu  Cu22  1  0.85397900  0.09215300  0.50475900  1
