# generated using pymatgen
data_CuNiC8
_symmetry_space_group_name_H-M   'P 1'
_cell_length_a   8.57096661
_cell_length_b   8.59825879
_cell_length_c   8.59224970
_cell_angle_alpha   90.00000000
_cell_angle_beta   90.00000000
_cell_angle_gamma   90.00000000
_symmetry_Int_Tables_number   1
_chemical_formula_structural   CuNiC8
_chemical_formula_sum   'Cu4 Ni4 C32'
_cell_volume   633.20918397
_cell_formula_units_Z   4
loop_
 _symmetry_equiv_pos_site_id
 _symmetry_equiv_pos_as_xyz
  1  'x, y, z'
loop_
 _atom_site_type_symbol
 _atom_site_label
 _atom_site_symmetry_multiplicity
 _atom_site_fract_x
 _atom_site_fract_y
 _atom_site_fract_z
 _atom_site_occupancy
  Ni  Ni0  1  -0.00000000  0.00000000  -0.00000000  1
  Ni  Ni1  1  0.50000000  0.50000000  0.50000000  1
  Ni  Ni2  1  0.50000000  0.00000000  0.50000000  1
  Ni  Ni3  1  0.00000000  0.50000000  -0.00000000  1
  Cu  Cu4  1  0.75000000  0.75000000  0.75000000  1
  Cu  Cu5  1  0.25000000  0.25000000  0.75000000  1
  Cu  Cu6  1  0.25000000  0.75000000  0.25000000  1
  Cu  Cu7  1  0.75000000  0.25000000  0.25000000  1
  C  C8  1  0.25000000  0.25000000  0.25000000  1
  C  C9  1  0.75000000  0.75000000  0.25000000  1
  C  C10  1  0.75000000  0.25000000  0.75000000  1
  C  C11  1  0.25000000  0.75000000  0.75000000  1
  C  C12  1  0.00000000  0.50000000  0.50000000  1
  C  C13  1  0.50000000  0.50000000  -0.00000000  1
  C  C14  1  0.50000000  0.00000000  -0.00000000  1
  C  C15  1  -0.00000000  0.00000000  0.50000000  1
  C  C16  1  0.01400408  0.23259800  0.25037174  1
  C  C17  1  0.98599592  0.76740200  0.25037174  1
  C  C18  1  0.98599592  0.23259800  0.74962826  1
  C  C19  1  0.01400408  0.76740200  0.74962826  1
  C  C20  1  0.26704551  0.01445739  0.24789673  1
  C  C21  1  0.26704551  0.98554261  0.75210327  1
  C  C22  1  0.73295449  0.98554261  0.24789673  1
  C  C23  1  0.73295449  0.01445739  0.75210327  1
  C  C24  1  0.23077049  0.25088330  0.01332262  1
  C  C25  1  0.76922951  0.25088330  0.98667738  1
  C  C26  1  0.23077049  0.74911670  0.98667738  1
  C  C27  1  0.76922951  0.74911670  0.01332262  1
  C  C28  1  0.48599592  0.26740200  0.24962826  1
  C  C29  1  0.51400408  0.73259800  0.24962826  1
  C  C30  1  0.51400408  0.26740200  0.75037174  1
  C  C31  1  0.48599592  0.73259800  0.75037174  1
  C  C32  1  0.23295449  0.48554261  0.25210327  1
  C  C33  1  0.23295449  0.51445739  0.74789673  1
  C  C34  1  0.76704551  0.51445739  0.25210327  1
  C  C35  1  0.76704551  0.48554261  0.74789673  1
  C  C36  1  0.26922951  0.24911670  0.48667738  1
  C  C37  1  0.73077049  0.24911670  0.51332262  1
  C  C38  1  0.26922951  0.75088330  0.51332262  1
  C  C39  1  0.73077049  0.75088330  0.48667738  1
