# generated using pymatgen
data_CuNi4C3
_symmetry_space_group_name_H-M   'P 1'
_cell_length_a   6.66675800
_cell_length_b   6.94496700
_cell_length_c   12.88316500
_cell_angle_alpha   90.00000000
_cell_angle_beta   90.00000000
_cell_angle_gamma   90.00000000
_symmetry_Int_Tables_number   1
_chemical_formula_structural   CuNi4C3
_chemical_formula_sum   'Cu2 Ni8 C6'
_cell_volume   596.49587709
_cell_formula_units_Z   2
loop_
 _symmetry_equiv_pos_site_id
 _symmetry_equiv_pos_as_xyz
  1  'x, y, z'
loop_
 _atom_site_type_symbol
 _atom_site_label
 _atom_site_symmetry_multiplicity
 _atom_site_fract_x
 _atom_site_fract_y
 _atom_site_fract_z
 _atom_site_occupancy
  C  C0  1  0.55820900  0.00000000  0.00000000  1
  C  C1  1  0.44179100  0.50000000  0.50000000  1
  C  C2  1  0.82801600  0.50000000  0.74685200  1
  C  C3  1  0.82801600  0.50000000  0.25314800  1
  C  C4  1  0.17198400  0.00000000  0.75314800  1
  C  C5  1  0.17198400  0.00000000  0.24685200  1
  Ni  Ni6  1  0.33279000  0.50000000  0.87805700  1
  Ni  Ni7  1  0.33279000  0.50000000  0.12194300  1
  Ni  Ni8  1  0.04006100  0.26829900  0.00000000  1
  Ni  Ni9  1  0.04006100  0.73170100  0.00000000  1
  Ni  Ni10  1  0.95993900  0.76829900  0.50000000  1
  Ni  Ni11  1  0.95993900  0.23170100  0.50000000  1
  Ni  Ni12  1  0.66721000  0.00000000  0.37805700  1
  Ni  Ni13  1  0.66721000  0.00000000  0.62194300  1
  Cu  Cu14  1  0.68728200  0.50000000  0.00000000  1
  Cu  Cu15  1  0.31271800  0.00000000  0.50000000  1
