# generated using pymatgen
data_Cu7NiC28
_symmetry_space_group_name_H-M   'P 1'
_cell_length_a   11.24858167
_cell_length_b   11.58219963
_cell_length_c   17.72105730
_cell_angle_alpha   109.13342489
_cell_angle_beta   108.32306290
_cell_angle_gamma   90.02683286
_symmetry_Int_Tables_number   1
_chemical_formula_structural   Cu7NiC28
_chemical_formula_sum   'Cu28 Ni4 C112'
_cell_volume   2056.79033702
_cell_formula_units_Z   4
loop_
 _symmetry_equiv_pos_site_id
 _symmetry_equiv_pos_as_xyz
  1  'x, y, z'
loop_
 _atom_site_type_symbol
 _atom_site_label
 _atom_site_symmetry_multiplicity
 _atom_site_fract_x
 _atom_site_fract_y
 _atom_site_fract_z
 _atom_site_occupancy
  Ni  Ni0  1  0.30786300  0.06309000  0.11406000  1
  Ni  Ni1  1  0.30786500  0.56236200  0.11363600  1
  Ni  Ni2  1  0.80742300  0.06353700  0.11405000  1
  Ni  Ni3  1  0.05640700  0.80120100  0.11329800  1
  Cu  Cu4  1  0.30580300  0.06423800  0.60879900  1
  Cu  Cu5  1  0.30563100  0.56385900  0.60856000  1
  Cu  Cu6  1  0.80568500  0.06399100  0.60843900  1
  Cu  Cu7  1  0.80571700  0.56179700  0.10839500  1
  Cu  Cu8  1  0.80565200  0.56382100  0.60837100  1
  Cu  Cu9  1  0.19812800  0.43738200  0.39232100  1
  Cu  Cu10  1  0.19754500  0.43531800  0.89044900  1
  Cu  Cu11  1  0.19789600  0.93675100  0.39338200  1
  Cu  Cu12  1  0.19742100  0.93599900  0.89018300  1
  Cu  Cu13  1  0.69726700  0.43652400  0.39158800  1
  Cu  Cu14  1  0.69631900  0.43493300  0.89022900  1
  Cu  Cu15  1  0.69750100  0.93652600  0.39187200  1
  Cu  Cu16  1  0.69611900  0.93619500  0.89038100  1
  Cu  Cu17  1  0.05459100  0.29645100  0.10738800  1
  Cu  Cu18  1  0.05580400  0.29469800  0.60881500  1
  Cu  Cu19  1  0.05559700  0.79470900  0.60853300  1
  Cu  Cu20  1  0.55513800  0.29582900  0.10755900  1
  Cu  Cu21  1  0.55589800  0.29466400  0.60890000  1
  Cu  Cu22  1  0.55706500  0.79423300  0.10791600  1
  Cu  Cu23  1  0.55589900  0.79484300  0.60885600  1
  Cu  Cu24  1  0.44821700  0.20682600  0.39454700  1
  Cu  Cu25  1  0.44770900  0.20517700  0.89024600  1
  Cu  Cu26  1  0.44895200  0.70623200  0.39428700  1
  Cu  Cu27  1  0.44731600  0.70411000  0.89007500  1
  Cu  Cu28  1  0.94865300  0.20705500  0.39377400  1
  Cu  Cu29  1  0.94611300  0.20497200  0.88987000  1
  Cu  Cu30  1  0.94797600  0.70565300  0.39274300  1
  Cu  Cu31  1  0.94622600  0.70389400  0.88999300  1
  C  C32  1  0.99935400  0.99725200  0.99219300  1
  C  C33  1  0.00377000  0.99968600  0.50011100  1
  C  C34  1  0.00025800  0.49705400  0.99558000  1
  C  C35  1  0.00410700  0.50025800  0.50025000  1
  C  C36  1  0.50055000  0.99749600  0.99473300  1
  C  C37  1  0.50439600  0.99968400  0.50013700  1
  C  C38  1  0.50326800  0.49837000  0.99709200  1
  C  C39  1  0.50428100  0.49993500  0.50035900  1
  C  C40  1  0.25174300  0.24794300  0.99579000  1
  C  C41  1  0.25408400  0.25066100  0.50018400  1
  C  C42  1  0.25166900  0.74710600  0.99401900  1
  C  C43  1  0.25417300  0.75020600  0.50054900  1
  C  C44  1  0.75291700  0.25012900  0.99813900  1
  C  C45  1  0.75430300  0.25022000  0.49989300  1
  C  C46  1  0.74976000  0.74615900  0.99458200  1
  C  C47  1  0.75442000  0.75016700  0.49986800  1
  C  C48  1  0.11235100  0.09491600  0.25464200  1
  C  C49  1  0.10736200  0.08926700  0.74928700  1
  C  C50  1  0.10578200  0.58779300  0.25091200  1
  C  C51  1  0.10733000  0.58889900  0.74913600  1
  C  C52  1  0.61195200  0.09181600  0.25275100  1
  C  C53  1  0.60748800  0.08962800  0.74956800  1
  C  C54  1  0.61282000  0.59054400  0.25233300  1
  C  C55  1  0.60694700  0.58877300  0.74908600  1
  C  C56  1  0.35957300  0.41030900  0.25242600  1
  C  C57  1  0.35750200  0.41012000  0.74949400  1
  C  C58  1  0.36506000  0.91144500  0.25443700  1
  C  C59  1  0.35721300  0.91033400  0.74925100  1
  C  C60  1  0.85801700  0.41218800  0.25054200  1
  C  C61  1  0.85720400  0.41008800  0.74929800  1
  C  C62  1  0.85805200  0.90710000  0.25248200  1
  C  C63  1  0.85687200  0.91045600  0.74887500  1
  C  C64  1  0.12444300  0.12209100  0.49180700  1
  C  C65  1  0.12117600  0.12183700  0.98872700  1
  C  C66  1  0.12449400  0.62207800  0.49167800  1
  C  C67  1  0.12161500  0.61979400  0.98729100  1
  C  C68  1  0.62467300  0.12206200  0.49184200  1
  C  C69  1  0.62125600  0.12235900  0.98912600  1
  C  C70  1  0.62455900  0.62184600  0.49173700  1
  C  C71  1  0.62326600  0.62031100  0.99025000  1
  C  C72  1  0.12804300  0.37349800  0.00360700  1
  C  C73  1  0.13293700  0.37881700  0.50943200  1
  C  C74  1  0.12840000  0.87497200  0.00118500  1
  C  C75  1  0.13336700  0.87822100  0.50942100  1
  C  C76  1  0.63235200  0.37849900  0.00752700  1
  C  C77  1  0.63334000  0.37842000  0.50929700  1
  C  C78  1  0.62802400  0.87392800  0.00449800  1
  C  C79  1  0.63376600  0.87840600  0.50973500  1
  C  C80  1  0.37448200  0.11947500  0.49197400  1
  C  C81  1  0.37311100  0.11891500  0.98859000  1
  C  C82  1  0.37439700  0.61963600  0.49183200  1
  C  C83  1  0.37436600  0.61923000  0.98931600  1
  C  C84  1  0.87447400  0.11947800  0.49177900  1
  C  C85  1  0.87348700  0.11999500  0.98872700  1
  C  C86  1  0.87447400  0.61934500  0.49168900  1
  C  C87  1  0.86992000  0.61601100  0.98826700  1
  C  C88  1  0.38284300  0.37668900  0.00427900  1
  C  C89  1  0.38374400  0.38177500  0.51040100  1
  C  C90  1  0.38207800  0.87638900  0.00380000  1
  C  C91  1  0.38293800  0.88093500  0.50968100  1
  C  C92  1  0.88093400  0.37908300  0.00602300  1
  C  C93  1  0.88351400  0.38137700  0.50959400  1
  C  C94  1  0.87790500  0.87722900  0.00152400  1
  C  C95  1  0.88343800  0.88116200  0.50984500  1
  C  C96  1  0.07665000  0.09721200  0.14352700  1
  C  C97  1  0.08157500  0.09642800  0.64039200  1
  C  C98  1  0.07283500  0.58642000  0.13927000  1
  C  C99  1  0.08157800  0.59645300  0.64033600  1
  C  C100  1  0.57633500  0.09825300  0.14252400  1
  C  C101  1  0.58161700  0.09643700  0.64052900  1
  C  C102  1  0.58277000  0.59591100  0.14218800  1
  C  C103  1  0.58163200  0.59653000  0.64038300  1
  C  C104  1  0.44065400  0.40129800  0.36100900  1
  C  C105  1  0.44136700  0.40408700  0.85866000  1
  C  C106  1  0.44462200  0.90075400  0.36249300  1
  C  C107  1  0.44058800  0.90409200  0.85853400  1
  C  C108  1  0.94146500  0.40358900  0.35935800  1
  C  C109  1  0.93960200  0.40336900  0.85837600  1
  C  C110  1  0.94071200  0.90126100  0.36167100  1
  C  C111  1  0.94008100  0.90430800  0.85813700  1
  C  C112  1  0.33163900  0.30556900  0.13964800  1
  C  C113  1  0.33141100  0.29406000  0.64045900  1
  C  C114  1  0.33373300  0.80584000  0.14141600  1
  C  C115  1  0.33143200  0.79393500  0.64032700  1
  C  C116  1  0.83111900  0.30362500  0.13891400  1
  C  C117  1  0.83148500  0.29403700  0.64032800  1
  C  C118  1  0.82439200  0.79528800  0.14079200  1
  C  C119  1  0.83149600  0.79387300  0.64030200  1
  C  C120  1  0.19401800  0.21189400  0.36304200  1
  C  C121  1  0.19067600  0.20491700  0.85835400  1
  C  C122  1  0.19117300  0.70567500  0.35924600  1
  C  C123  1  0.19139500  0.70475600  0.85812900  1
  C  C124  1  0.69628400  0.20833100  0.36158100  1
  C  C125  1  0.68989700  0.20545500  0.85865000  1
  C  C126  1  0.69566700  0.70763800  0.36131200  1
  C  C127  1  0.68898900  0.70440300  0.85849400  1
  C  C128  1  0.44942100  0.05994600  0.26095300  1
  C  C129  1  0.43670600  0.05811900  0.74926400  1
  C  C130  1  0.44841300  0.55823600  0.26000900  1
  C  C131  1  0.43647200  0.55791000  0.74897400  1
  C  C132  1  0.94831300  0.05407500  0.25938300  1
  C  C133  1  0.93669200  0.05821800  0.74913900  1
  C  C134  1  0.93549700  0.56179300  0.25205400  1
  C  C135  1  0.93680200  0.55801600  0.74917300  1
  C  C136  1  0.18776400  0.44091100  0.25080800  1
  C  C137  1  0.18681800  0.44109400  0.74956700  1
  C  C138  1  0.20040200  0.95339500  0.25913800  1
  C  C139  1  0.18670100  0.94114000  0.74925000  1
  C  C140  1  0.68753200  0.44005200  0.25039400  1
  C  C141  1  0.68669600  0.44120600  0.74945900  1
  C  C142  1  0.68842000  0.94212000  0.25053200  1
  C  C143  1  0.68667100  0.94133800  0.74952700  1
