# generated using pymatgen
data_Cu12Ni3C4
_symmetry_space_group_name_H-M   'P 1'
_cell_length_a   10.39362307
_cell_length_b   10.39362307
_cell_length_c   20.86577793
_cell_angle_alpha   79.67882168
_cell_angle_beta   79.67882168
_cell_angle_gamma   77.98851011
_symmetry_Int_Tables_number   1
_chemical_formula_structural   Cu12Ni3C4
_chemical_formula_sum   'Cu48 Ni12 C16'
_cell_volume   2145.34375411
_cell_formula_units_Z   4
loop_
 _symmetry_equiv_pos_site_id
 _symmetry_equiv_pos_as_xyz
  1  'x, y, z'
loop_
 _atom_site_type_symbol
 _atom_site_label
 _atom_site_symmetry_multiplicity
 _atom_site_fract_x
 _atom_site_fract_y
 _atom_site_fract_z
 _atom_site_occupancy
  C  C0  1  0.20009300  0.43658400  0.79089300  1
  C  C1  1  0.56317000  0.80018000  0.70944100  1
  C  C2  1  0.80018000  0.56317000  0.20944100  1
  C  C3  1  0.43658400  0.20009300  0.29089300  1
  C  C4  1  0.98777400  0.49880800  0.52896700  1
  C  C5  1  0.49880800  0.98777400  0.02896700  1
  C  C6  1  0.94478300  0.05420200  0.75041700  1
  C  C7  1  0.05420200  0.94478300  0.25041700  1
  C  C8  1  0.71062900  0.48979500  0.92735600  1
  C  C9  1  0.51057200  0.28952500  0.57222800  1
  C  C10  1  0.28952500  0.51057200  0.07222800  1
  C  C11  1  0.48979500  0.71062900  0.42735600  1
  C  C12  1  0.06939900  0.82713900  0.93273900  1
  C  C13  1  0.17269300  0.93096600  0.56686400  1
  C  C14  1  0.93096600  0.17269300  0.06686400  1
  C  C15  1  0.82713900  0.06939900  0.43273900  1
  Ni  Ni16  1  0.34988500  0.61083400  0.59436400  1
  Ni  Ni17  1  0.38894000  0.65062800  0.90547800  1
  Ni  Ni18  1  0.65062800  0.38894000  0.40547800  1
  Ni  Ni19  1  0.61083400  0.34988500  0.09436400  1
  Ni  Ni20  1  0.85168900  0.75506500  0.83860200  1
  Ni  Ni21  1  0.24570300  0.14794800  0.66124100  1
  Ni  Ni22  1  0.14794800  0.24570300  0.16124100  1
  Ni  Ni23  1  0.75506500  0.85168900  0.33860200  1
  Ni  Ni24  1  0.91296600  0.17282700  0.89854400  1
  Ni  Ni25  1  0.82734900  0.08685000  0.60132300  1
  Ni  Ni26  1  0.08685000  0.82734900  0.10132300  1
  Ni  Ni27  1  0.17282700  0.91296600  0.39854400  1
  Cu  Cu28  1  0.04310600  0.78809600  0.80668700  1
  Cu  Cu29  1  0.21166600  0.95718700  0.69336100  1
  Cu  Cu30  1  0.95718700  0.21166600  0.19336100  1
  Cu  Cu31  1  0.78809600  0.04310600  0.30668700  1
  Cu  Cu32  1  0.22278600  0.56499900  0.94213400  1
  Cu  Cu33  1  0.43485500  0.77723700  0.55801700  1
  Cu  Cu34  1  0.77723700  0.43485500  0.05801700  1
  Cu  Cu35  1  0.56499900  0.22278600  0.44213400  1
  Cu  Cu36  1  0.47238600  0.48393700  0.65228400  1
  Cu  Cu37  1  0.51612400  0.52766000  0.84784700  1
  Cu  Cu38  1  0.52766000  0.51612400  0.34784700  1
  Cu  Cu39  1  0.48393700  0.47238600  0.15228400  1
  Cu  Cu40  1  0.33386600  0.52334000  0.51476700  1
  Cu  Cu41  1  0.47659500  0.66588700  0.98531100  1
  Cu  Cu42  1  0.66588700  0.47659500  0.48531100  1
  Cu  Cu43  1  0.52334000  0.33386600  0.01476700  1
  Cu  Cu44  1  0.82455200  0.59518800  0.80251000  1
  Cu  Cu45  1  0.40465700  0.17558100  0.69751900  1
  Cu  Cu46  1  0.17558100  0.40465700  0.19751900  1
  Cu  Cu47  1  0.59518800  0.82455200  0.30251000  1
  Cu  Cu48  1  0.83677600  0.70067600  0.93991500  1
  Cu  Cu49  1  0.29898700  0.16349900  0.56001800  1
  Cu  Cu50  1  0.16349900  0.29898700  0.06001800  1
  Cu  Cu51  1  0.70067600  0.83677600  0.43991500  1
  Cu  Cu52  1  0.77970300  0.25646600  0.83683400  1
  Cu  Cu53  1  0.74360200  0.22054600  0.66307900  1
  Cu  Cu54  1  0.22054600  0.74360200  0.16307900  1
  Cu  Cu55  1  0.25646600  0.77970300  0.33683400  1
  Cu  Cu56  1  0.16438700  0.67717500  0.63962900  1
  Cu  Cu57  1  0.32253400  0.83540500  0.86038900  1
  Cu  Cu58  1  0.83540500  0.32253400  0.36038900  1
  Cu  Cu59  1  0.67717500  0.16438700  0.13962900  1
  Cu  Cu60  1  0.06713200  0.26935600  0.68485600  1
  Cu  Cu61  1  0.73082700  0.93289600  0.81526600  1
  Cu  Cu62  1  0.93289600  0.73082700  0.31526600  1
  Cu  Cu63  1  0.26935600  0.06713200  0.18485600  1
  Cu  Cu64  1  0.96592600  0.31875300  0.93706400  1
  Cu  Cu65  1  0.68120400  0.03400600  0.56301600  1
  Cu  Cu66  1  0.03400600  0.68120400  0.06301600  1
  Cu  Cu67  1  0.31875300  0.96592600  0.43706400  1
  Cu  Cu68  1  0.92728900  0.91654800  0.64981100  1
  Cu  Cu69  1  0.08333500  0.07268300  0.85021200  1
  Cu  Cu70  1  0.07268300  0.08333500  0.35021200  1
  Cu  Cu71  1  0.91654800  0.92728900  0.14981100  1
  Cu  Cu72  1  0.96103100  0.15678100  0.52356800  1
  Cu  Cu73  1  0.84352200  0.03895400  0.97646900  1
  Cu  Cu74  1  0.03895400  0.84352200  0.47646900  1
  Cu  Cu75  1  0.15678100  0.96103100  0.02356800  1
