# generated using pymatgen
data_CuNiC8
_symmetry_space_group_name_H-M   'P 1'
_cell_length_a   4.04884500
_cell_length_b   12.08185600
_cell_length_c   20.24638900
_cell_angle_alpha   90.00000000
_cell_angle_beta   90.00000000
_cell_angle_gamma   90.00000000
_symmetry_Int_Tables_number   1
_chemical_formula_structural   CuNiC8
_chemical_formula_sum   'Cu4 Ni4 C32'
_cell_volume   990.40399437
_cell_formula_units_Z   4
loop_
 _symmetry_equiv_pos_site_id
 _symmetry_equiv_pos_as_xyz
  1  'x, y, z'
loop_
 _atom_site_type_symbol
 _atom_site_label
 _atom_site_symmetry_multiplicity
 _atom_site_fract_x
 _atom_site_fract_y
 _atom_site_fract_z
 _atom_site_occupancy
  Ni  Ni0  1  0.50000000  0.31821600  0.07849300  1
  Ni  Ni1  1  0.50000000  0.81821600  0.92150700  1
  Ni  Ni2  1  0.50000000  0.75311400  0.36187600  1
  Ni  Ni3  1  0.50000000  0.25311400  0.63812400  1
  Cu  Cu4  1  0.50000000  0.68374100  0.12022400  1
  Cu  Cu5  1  0.50000000  0.18374100  0.87977600  1
  Cu  Cu6  1  0.50000000  0.87432500  0.58106800  1
  Cu  Cu7  1  0.50000000  0.37432500  0.41893200  1
  C  C8  1  0.50000000  0.10209700  0.25484800  1
  C  C9  1  0.50000000  0.60209700  0.74515200  1
  C  C10  1  0.00000000  0.99397500  0.09296000  1
  C  C11  1  0.00000000  0.49397500  0.90704000  1
  C  C12  1  0.00000000  0.50071300  0.24808200  1
  C  C13  1  0.00000000  0.00071300  0.75191800  1
  C  C14  1  0.00000000  0.54809100  0.57550700  1
  C  C15  1  0.00000000  0.04809100  0.42449300  1
  C  C16  1  0.50000000  0.06016000  0.01639900  1
  C  C17  1  0.50000000  0.56016000  0.98360100  1
  C  C18  1  0.50000000  0.92094400  0.16710800  1
  C  C19  1  0.50000000  0.42094400  0.83289200  1
  C  C20  1  0.50000000  0.59614700  0.50704700  1
  C  C21  1  0.50000000  0.09614700  0.49295300  1
  C  C22  1  0.50000000  0.87862900  0.74160800  1
  C  C23  1  0.50000000  0.37862900  0.25839200  1
  C  C24  1  0.00000000  0.79657700  0.04332100  1
  C  C25  1  0.00000000  0.29657700  0.95667900  1
  C  C26  1  0.00000000  0.50605900  0.12099900  1
  C  C27  1  0.00000000  0.00605900  0.87900100  1
  C  C28  1  0.00000000  0.16900000  0.16176700  1
  C  C29  1  0.00000000  0.66900000  0.83823300  1
  C  C30  1  0.00000000  0.70353200  0.23042400  1
  C  C31  1  0.00000000  0.20353200  0.76957600  1
  C  C32  1  0.00000000  0.95220100  0.31763900  1
  C  C33  1  0.00000000  0.45220100  0.68236100  1
  C  C34  1  0.00000000  0.53544300  0.37212200  1
  C  C35  1  0.00000000  0.03544300  0.62787800  1
  C  C36  1  0.00000000  0.85245500  0.47709400  1
  C  C37  1  0.00000000  0.35245500  0.52290600  1
  C  C38  1  0.00000000  0.73071000  0.63713600  1
  C  C39  1  0.00000000  0.23071000  0.36286400  1
