# generated using pymatgen
data_Cu19NiC10
_symmetry_space_group_name_H-M   'P 1'
_cell_length_a   4.80959000
_cell_length_b   5.83016790
_cell_length_c   13.81570729
_cell_angle_alpha   80.20827702
_cell_angle_beta   89.78845351
_cell_angle_gamma   89.81046714
_symmetry_Int_Tables_number   1
_chemical_formula_structural   Cu19NiC10
_chemical_formula_sum   'Cu19 Ni1 C10'
_cell_volume   381.75483496
_cell_formula_units_Z   1
loop_
 _symmetry_equiv_pos_site_id
 _symmetry_equiv_pos_as_xyz
  1  'x, y, z'
loop_
 _atom_site_type_symbol
 _atom_site_label
 _atom_site_symmetry_multiplicity
 _atom_site_fract_x
 _atom_site_fract_y
 _atom_site_fract_z
 _atom_site_occupancy
  C  C0  1  0.51562000  0.49053400  0.99664300  1
  C  C1  1  0.49563400  0.30082800  0.60231600  1
  C  C2  1  0.50346800  0.89618100  0.80096000  1
  C  C3  1  0.50101100  0.69947300  0.39947200  1
  C  C4  1  0.49820200  0.10235000  0.19918800  1
  C  C5  1  0.99874500  0.79815800  0.60178000  1
  C  C6  1  0.00468700  0.60274600  0.19519200  1
  C  C7  1  0.98774100  0.39698000  0.80768000  1
  C  C8  1  0.99875000  0.20104500  0.39999100  1
  C  C9  1  0.98539500  0.02314300  0.99589600  1
  Ni  Ni10  1  0.81029500  0.30020700  0.94593400  1
  Cu  Cu11  1  0.79924600  0.71859100  0.74076000  1
  Cu  Cu12  1  0.80497100  0.93141100  0.13210300  1
  Cu  Cu13  1  0.80153800  0.52354800  0.33703300  1
  Cu  Cu14  1  0.79632400  0.12121900  0.53940200  1
  Cu  Cu15  1  0.71261800  0.81897100  0.94193700  1
  Cu  Cu16  1  0.69895000  0.62040400  0.54030100  1
  Cu  Cu17  1  0.70305100  0.02035300  0.33706600  1
  Cu  Cu18  1  0.69157500  0.42778900  0.14232200  1
  Cu  Cu19  1  0.70192900  0.21481200  0.74001400  1
  Cu  Cu20  1  0.29779800  0.97742800  0.66148900  1
  Cu  Cu21  1  0.30318800  0.77952300  0.25653700  1
  Cu  Cu22  1  0.30541000  0.57755100  0.85982700  1
  Cu  Cu23  1  0.29061600  0.17650300  0.06220100  1
  Cu  Cu24  1  0.29807800  0.38042400  0.46014200  1
  Cu  Cu25  1  0.20372600  0.06130400  0.86836400  1
  Cu  Cu26  1  0.19910600  0.70342700  0.05261500  1
  Cu  Cu27  1  0.19937000  0.87804800  0.45982200  1
  Cu  Cu28  1  0.19584000  0.47574500  0.66466900  1
  Cu  Cu29  1  0.19711800  0.28130900  0.25834300  1
