# generated using pymatgen
data_Cu4Ni4C29
_symmetry_space_group_name_H-M   'P 1'
_cell_length_a   5.15845193
_cell_length_b   5.99474765
_cell_length_c   14.86031188
_cell_angle_alpha   88.29224163
_cell_angle_beta   91.78817725
_cell_angle_gamma   89.80809301
_symmetry_Int_Tables_number   1
_chemical_formula_structural   Cu4Ni4C29
_chemical_formula_sum   'Cu4 Ni4 C29'
_cell_volume   459.10259563
_cell_formula_units_Z   1
loop_
 _symmetry_equiv_pos_site_id
 _symmetry_equiv_pos_as_xyz
  1  'x, y, z'
loop_
 _atom_site_type_symbol
 _atom_site_label
 _atom_site_symmetry_multiplicity
 _atom_site_fract_x
 _atom_site_fract_y
 _atom_site_fract_z
 _atom_site_occupancy
  C  C0  1  0.77005683  0.44628528  0.65837124  1
  Ni  Ni1  1  0.27577495  0.65247741  0.16301323  1
  Ni  Ni2  1  0.79038659  0.79524750  0.33132247  1
  Ni  Ni3  1  0.69934694  0.91828152  0.67161009  1
  Ni  Ni4  1  0.21392699  0.68508582  0.83778742  1
  C  C5  1  0.24515543  0.15584009  0.00274044  1
  C  C6  1  0.81763328  0.28183870  0.48056356  1
  C  C7  1  0.74759757  0.81439379  0.00284892  1
  C  C8  1  0.27544585  0.64239208  0.49996176  1
  Cu  Cu9  1  0.71446579  0.33702084  0.85422891  1
  Cu  Cu10  1  0.25149639  0.16595348  0.66847723  1
  Cu  Cu11  1  0.30182802  0.15160769  0.33502570  1
  Cu  Cu12  1  0.77925239  0.30256675  0.16024897  1
  C  C13  1  0.88065743  0.18067076  0.74857947  1
  C  C14  1  0.41634790  0.40012763  0.75869752  1
  C  C15  1  0.11531161  0.34424233  0.24217780  1
  C  C16  1  0.61948880  0.10500483  0.25461731  1
  C  C17  1  0.10571016  0.83656852  0.25112745  1
  C  C18  1  0.60562309  0.60874299  0.24365515  1
  C  C19  1  0.90248494  0.66145858  0.75551281  1
  C  C20  1  0.40790870  0.89335038  0.76254174  1
  C  C21  1  0.58675022  0.11687952  0.92805788  1
  C  C22  1  0.08046264  0.40762451  0.58249315  1
  C  C23  1  0.43567001  0.35081344  0.41435563  1
  C  C24  1  0.90966125  0.10365719  0.08259572  1
  C  C25  1  0.40725161  0.86049639  0.08375739  1
  C  C26  1  0.93431718  0.58908031  0.41231281  1
  C  C27  1  0.58011952  0.69825361  0.59410554  1
  C  C28  1  0.08278022  0.87617302  0.92026213  1
  C  C29  1  0.05687109  0.40458566  0.90434773  1
  C  C30  1  0.58482152  0.19139968  0.59344625  1
  C  C31  1  0.98272959  0.05770979  0.39347850  1
  C  C32  1  0.44794646  0.38337516  0.10148354  1
  C  C33  1  0.94850009  0.58015746  0.09995732  1
  C  C34  1  0.47883585  0.87120065  0.39594246  1
  C  C35  1  0.05080340  0.94663854  0.60738361  1
  C  C36  1  0.54657969  0.59946508  0.90826817  1
