# generated using pymatgen
data_CuNiC
_symmetry_space_group_name_H-M   'P 1'
_cell_length_a   5.87065300
_cell_length_b   5.87065300
_cell_length_c   5.87065300
_cell_angle_alpha   90.00000000
_cell_angle_beta   90.00000000
_cell_angle_gamma   90.00000000
_symmetry_Int_Tables_number   1
_chemical_formula_structural   CuNiC
_chemical_formula_sum   'Cu4 Ni4 C4'
_cell_volume   202.32951158
_cell_formula_units_Z   4
loop_
 _symmetry_equiv_pos_site_id
 _symmetry_equiv_pos_as_xyz
  1  'x, y, z'
loop_
 _atom_site_type_symbol
 _atom_site_label
 _atom_site_symmetry_multiplicity
 _atom_site_fract_x
 _atom_site_fract_y
 _atom_site_fract_z
 _atom_site_occupancy
  C  C0  1  0.00328700  0.00328700  0.00328700  1
  C  C1  1  0.49671300  0.99671300  0.50328700  1
  C  C2  1  0.50328700  0.49671300  0.99671300  1
  C  C3  1  0.99671300  0.50328700  0.49671300  1
  Ni  Ni4  1  0.62350100  0.62350100  0.62350100  1
  Ni  Ni5  1  0.87649900  0.37649900  0.12350100  1
  Ni  Ni6  1  0.12350100  0.87649900  0.37649900  1
  Ni  Ni7  1  0.37649900  0.12350100  0.87649900  1
  Cu  Cu8  1  0.37822500  0.37822500  0.37822500  1
  Cu  Cu9  1  0.12177500  0.62177500  0.87822500  1
  Cu  Cu10  1  0.87822500  0.12177500  0.62177500  1
  Cu  Cu11  1  0.62177500  0.87822500  0.12177500  1
