# generated using pymatgen
data_Cu31Ni15C16
_symmetry_space_group_name_H-M   'P 1'
_cell_length_a   10.15757386
_cell_length_b   10.15757386
_cell_length_c   10.15757386
_cell_angle_alpha   109.47122063
_cell_angle_beta   109.47122063
_cell_angle_gamma   109.47122063
_symmetry_Int_Tables_number   1
_chemical_formula_structural   Cu31Ni15C16
_chemical_formula_sum   'Cu31 Ni15 C16'
_cell_volume   806.76690720
_cell_formula_units_Z   1
loop_
 _symmetry_equiv_pos_site_id
 _symmetry_equiv_pos_as_xyz
  1  'x, y, z'
loop_
 _atom_site_type_symbol
 _atom_site_label
 _atom_site_symmetry_multiplicity
 _atom_site_fract_x
 _atom_site_fract_y
 _atom_site_fract_z
 _atom_site_occupancy
  C  C0  1  0.00000000  0.00000000  0.50000000  1
  C  C1  1  0.50000000  0.00000000  0.00000000  1
  C  C2  1  0.00000000  0.50000000  0.00000000  1
  C  C3  1  0.50000000  0.50000000  0.50000000  1
  C  C4  1  0.67593700  0.78355500  0.45949200  1
  C  C5  1  0.67593700  0.21644500  0.89238100  1
  C  C6  1  0.32406300  0.78355500  0.10761900  1
  C  C7  1  0.32406300  0.21644500  0.54050800  1
  C  C8  1  0.78355500  0.45949200  0.67593700  1
  C  C9  1  0.21644500  0.89238100  0.67593700  1
  C  C10  1  0.78355500  0.10761900  0.32406300  1
  C  C11  1  0.21644500  0.54050800  0.32406300  1
  C  C12  1  0.45949200  0.67593700  0.78355500  1
  C  C13  1  0.89238100  0.67593700  0.21644500  1
  C  C14  1  0.10761900  0.32406300  0.78355500  1
  C  C15  1  0.54050800  0.32406300  0.21644500  1
  Ni  Ni16  1  0.75749100  0.73690900  0.49440100  1
  Ni  Ni17  1  0.75749100  0.26309100  0.02058200  1
  Ni  Ni18  1  0.24250900  0.73690900  0.97941800  1
  Ni  Ni19  1  0.24250900  0.26309100  0.50559900  1
  Ni  Ni20  1  0.73690900  0.49440100  0.75749100  1
  Ni  Ni21  1  0.26309100  0.02058200  0.75749100  1
  Ni  Ni22  1  0.73690900  0.97941800  0.24250900  1
  Ni  Ni23  1  0.26309100  0.50559900  0.24250900  1
  Ni  Ni24  1  0.49440100  0.75749100  0.73690900  1
  Ni  Ni25  1  0.02058200  0.75749100  0.26309100  1
  Ni  Ni26  1  0.97941800  0.24250900  0.73690900  1
  Ni  Ni27  1  0.50559900  0.24250900  0.26309100  1
  Ni  Ni28  1  0.50000000  0.00000000  0.50000000  1
  Ni  Ni29  1  0.00000000  0.50000000  0.50000000  1
  Ni  Ni30  1  0.50000000  0.50000000  0.00000000  1
  Cu  Cu31  1  0.89818500  0.80432800  0.51419800  1
  Cu  Cu32  1  0.70986900  0.19567200  0.09385700  1
  Cu  Cu33  1  0.10181500  0.61601200  0.90614300  1
  Cu  Cu34  1  0.29013100  0.38398800  0.48580200  1
  Cu  Cu35  1  0.80432800  0.51419800  0.89818500  1
  Cu  Cu36  1  0.19567200  0.09385700  0.70986900  1
  Cu  Cu37  1  0.61601200  0.90614300  0.10181500  1
  Cu  Cu38  1  0.38398800  0.48580200  0.29013100  1
  Cu  Cu39  1  0.51419800  0.89818500  0.80432800  1
  Cu  Cu40  1  0.09385700  0.70986900  0.19567200  1
  Cu  Cu41  1  0.90614300  0.10181500  0.61601200  1
  Cu  Cu42  1  0.48580200  0.29013100  0.38398800  1
  Cu  Cu43  1  0.10181500  0.19567200  0.48580200  1
  Cu  Cu44  1  0.29013100  0.80432800  0.90614300  1
  Cu  Cu45  1  0.89818500  0.38398800  0.09385700  1
  Cu  Cu46  1  0.70986900  0.61601200  0.51419800  1
  Cu  Cu47  1  0.19567200  0.48580200  0.10181500  1
  Cu  Cu48  1  0.80432800  0.90614300  0.29013100  1
  Cu  Cu49  1  0.38398800  0.09385700  0.89818500  1
  Cu  Cu50  1  0.61601200  0.51419800  0.70986900  1
  Cu  Cu51  1  0.48580200  0.10181500  0.19567200  1
  Cu  Cu52  1  0.90614300  0.29013100  0.80432800  1
  Cu  Cu53  1  0.09385700  0.89818500  0.38398800  1
  Cu  Cu54  1  0.51419800  0.70986900  0.61601200  1
  Cu  Cu55  1  0.50000000  0.89966800  0.39966800  1
  Cu  Cu56  1  0.50000000  0.10033200  0.60033200  1
  Cu  Cu57  1  0.89966800  0.39966800  0.50000000  1
  Cu  Cu58  1  0.10033200  0.60033200  0.50000000  1
  Cu  Cu59  1  0.39966800  0.50000000  0.89966800  1
  Cu  Cu60  1  0.60033200  0.50000000  0.10033200  1
  Cu  Cu61  1  0.00000000  0.00000000  0.00000000  1
