# generated using pymatgen
data_Cu5NiC11
_symmetry_space_group_name_H-M   'P 1'
_cell_length_a   8.25119235
_cell_length_b   8.25119235
_cell_length_c   8.25119235
_cell_angle_alpha   135.27099621
_cell_angle_beta   117.56914050
_cell_angle_gamma   80.02246836
_symmetry_Int_Tables_number   1
_chemical_formula_structural   Cu5NiC11
_chemical_formula_sum   'Cu10 Ni2 C22'
_cell_volume   339.38284537
_cell_formula_units_Z   2
loop_
 _symmetry_equiv_pos_site_id
 _symmetry_equiv_pos_as_xyz
  1  'x, y, z'
loop_
 _atom_site_type_symbol
 _atom_site_label
 _atom_site_symmetry_multiplicity
 _atom_site_fract_x
 _atom_site_fract_y
 _atom_site_fract_z
 _atom_site_occupancy
  C  C0  1  0.25000000  0.75000000  0.50000000  1
  C  C1  1  0.75000000  0.25000000  0.50000000  1
  Ni  Ni2  1  0.00000000  0.50000000  0.50000000  1
  Ni  Ni3  1  0.50000000  0.00000000  0.50000000  1
  Cu  Cu4  1  0.09288500  0.78359400  0.07630100  1
  Cu  Cu5  1  0.25000000  0.25000000  0.00000000  1
  Cu  Cu6  1  0.75000000  0.75000000  0.00000000  1
  Cu  Cu7  1  0.29270700  0.98341500  0.07630100  1
  Cu  Cu8  1  0.90711500  0.21640600  0.92369900  1
  Cu  Cu9  1  0.70729300  0.01658500  0.92369900  1
  Cu  Cu10  1  0.59288500  0.51658500  0.30929100  1
  Cu  Cu11  1  0.20729300  0.28359400  0.69070900  1
  Cu  Cu12  1  0.40711500  0.48341500  0.69070900  1
  Cu  Cu13  1  0.79270700  0.71640600  0.30929100  1
  C  C14  1  0.45838600  0.05196200  0.28260900  1
  C  C15  1  0.26935300  0.55196200  0.59357500  1
  C  C16  1  0.95838600  0.67577700  0.40642500  1
  C  C17  1  0.76935300  0.17577700  0.71739100  1
  C  C18  1  0.23064700  0.82422300  0.28260900  1
  C  C19  1  0.54161400  0.94803800  0.71739100  1
  C  C20  1  0.73064700  0.44803800  0.40642500  1
  C  C21  1  0.04161400  0.32422300  0.59357500  1
  C  C22  1  0.90803300  0.66313900  0.94403500  1
  C  C23  1  0.71910400  0.96399800  0.05596500  1
  C  C24  1  0.40803300  0.46399800  0.24489400  1
  C  C25  1  0.21910400  0.16313900  0.75510600  1
  C  C26  1  0.37232500  0.35247200  0.72479600  1
  C  C27  1  0.62767500  0.64752800  0.27520400  1
  C  C28  1  0.87232500  0.14752800  0.01985300  1
  C  C29  1  0.12767500  0.85247200  0.98014700  1
  C  C30  1  0.59196700  0.53600200  0.75510600  1
  C  C31  1  0.78089600  0.83686100  0.24489400  1
  C  C32  1  0.09196700  0.33686100  0.05596500  1
  C  C33  1  0.28089600  0.03600200  0.94403500  1
