# generated using pymatgen
data_CuNi2C
_symmetry_space_group_name_H-M   'P 1'
_cell_length_a   8.46858200
_cell_length_b   8.46858200
_cell_length_c   6.97787700
_cell_angle_alpha   90.00000000
_cell_angle_beta   90.00000000
_cell_angle_gamma   133.59910733
_symmetry_Int_Tables_number   1
_chemical_formula_structural   CuNi2C
_chemical_formula_sum   'Cu2 Ni4 C2'
_cell_volume   362.40384192
_cell_formula_units_Z   2
loop_
 _symmetry_equiv_pos_site_id
 _symmetry_equiv_pos_as_xyz
  1  'x, y, z'
loop_
 _atom_site_type_symbol
 _atom_site_label
 _atom_site_symmetry_multiplicity
 _atom_site_fract_x
 _atom_site_fract_y
 _atom_site_fract_z
 _atom_site_occupancy
  Ni  Ni0  1  0.91350600  0.08649400  0.80632500  1
  Ni  Ni1  1  0.08649400  0.91350600  0.19367500  1
  Ni  Ni2  1  0.41350600  0.58649400  0.19367500  1
  Ni  Ni3  1  0.58649400  0.41350600  0.80632500  1
  Cu  Cu4  1  0.75000000  0.25000000  0.31206700  1
  Cu  Cu5  1  0.25000000  0.75000000  0.68793300  1
  C  C6  1  0.25000000  0.25000000  0.00000000  1
  C  C7  1  0.75000000  0.75000000  0.00000000  1
