# generated using pymatgen
data_Cu4Ni4C13
_symmetry_space_group_name_H-M   'P 1'
_cell_length_a   7.99712543
_cell_length_b   8.41854825
_cell_length_c   11.35568200
_cell_angle_alpha   90.00000000
_cell_angle_beta   90.00000000
_cell_angle_gamma   99.62146696
_symmetry_Int_Tables_number   1
_chemical_formula_structural   Cu4Ni4C13
_chemical_formula_sum   'Cu4 Ni4 C13'
_cell_volume   753.75803000
_cell_formula_units_Z   1
loop_
 _symmetry_equiv_pos_site_id
 _symmetry_equiv_pos_as_xyz
  1  'x, y, z'
loop_
 _atom_site_type_symbol
 _atom_site_label
 _atom_site_symmetry_multiplicity
 _atom_site_fract_x
 _atom_site_fract_y
 _atom_site_fract_z
 _atom_site_occupancy
  C  C0  1  0.09823000  0.50045700  0.25000000  1
  C  C1  1  0.24355300  0.16506600  0.48657600  1
  C  C2  1  0.24355300  0.16506600  0.01342400  1
  C  C3  1  0.28945600  0.69128700  0.95039600  1
  C  C4  1  0.28945600  0.69128700  0.54960400  1
  C  C5  1  0.45184600  0.95610100  0.25000000  1
  C  C6  1  0.56268200  0.04579800  0.75000000  1
  C  C7  1  0.73487700  0.30176000  0.03119700  1
  C  C8  1  0.73487700  0.30176000  0.46880300  1
  C  C9  1  0.77198700  0.84485300  0.05122500  1
  C  C10  1  0.77198700  0.84485300  0.44877500  1
  C  C11  1  0.85499800  0.60049900  0.75000000  1
  C  C12  1  0.10336300  0.32109100  0.75000000  1
  Ni  Ni13  1  0.92943700  0.12957900  0.25000000  1
  Ni  Ni14  1  0.50689000  0.50628800  0.25000000  1
  Ni  Ni15  1  0.45920000  0.41255800  0.75000000  1
  Ni  Ni16  1  0.04852300  0.98097100  0.75000000  1
  Cu  Cu17  1  0.02451100  0.42562700  0.90634500  1
  Cu  Cu18  1  0.02451100  0.42562700  0.59365500  1
  Cu  Cu19  1  0.51136500  0.99473500  0.99998300  1
  Cu  Cu20  1  0.51136500  0.99473500  0.50001700  1
