# generated using pymatgen
data_Cu(Ni4C3)2
_symmetry_space_group_name_H-M   'P 1'
_cell_length_a   10.09773178
_cell_length_b   10.09773178
_cell_length_c   10.09773178
_cell_angle_alpha   95.61040634
_cell_angle_beta   95.61040634
_cell_angle_gamma   143.55936056
_symmetry_Int_Tables_number   1
_chemical_formula_structural   Cu(Ni4C3)2
_chemical_formula_sum   'Cu1 Ni8 C6'
_cell_volume   580.91223422
_cell_formula_units_Z   1
loop_
 _symmetry_equiv_pos_site_id
 _symmetry_equiv_pos_as_xyz
  1  'x, y, z'
loop_
 _atom_site_type_symbol
 _atom_site_label
 _atom_site_symmetry_multiplicity
 _atom_site_fract_x
 _atom_site_fract_y
 _atom_site_fract_z
 _atom_site_occupancy
  Ni  Ni0  1  0.66515100  0.47429700  0.63425700  1
  Ni  Ni1  1  0.84004000  0.03089500  0.36574300  1
  Ni  Ni2  1  0.15996000  0.52570300  0.19085500  1
  Ni  Ni3  1  0.33484900  0.96910500  0.80914500  1
  Ni  Ni4  1  0.96910500  0.33484900  0.80914500  1
  Ni  Ni5  1  0.52570300  0.15996000  0.19085500  1
  Ni  Ni6  1  0.03089500  0.84004000  0.36574300  1
  Ni  Ni7  1  0.47429700  0.66515100  0.63425700  1
  Cu  Cu8  1  0.50000000  0.50000000  0.00000000  1
  C  C9  1  0.58882600  0.88171400  0.00000000  1
  C  C10  1  0.88171400  0.58882600  0.00000000  1
  C  C11  1  0.11828600  0.11828600  0.70711200  1
  C  C12  1  0.41117400  0.41117400  0.29288800  1
  C  C13  1  0.50000000  0.00000000  0.50000000  1
  C  C14  1  0.00000000  0.50000000  0.50000000  1
