# generated using pymatgen
data_Cu3Ni2C19
_symmetry_space_group_name_H-M   'P 1'
_cell_length_a   16.52403600
_cell_length_b   10.25195100
_cell_length_c   13.63999234
_cell_angle_alpha   49.62221158
_cell_angle_beta   90.00000000
_cell_angle_gamma   90.00000000
_symmetry_Int_Tables_number   1
_chemical_formula_structural   Cu3Ni2C19
_chemical_formula_sum   'Cu12 Ni8 C76'
_cell_volume   1760.23951192
_cell_formula_units_Z   4
loop_
 _symmetry_equiv_pos_site_id
 _symmetry_equiv_pos_as_xyz
  1  'x, y, z'
loop_
 _atom_site_type_symbol
 _atom_site_label
 _atom_site_symmetry_multiplicity
 _atom_site_fract_x
 _atom_site_fract_y
 _atom_site_fract_z
 _atom_site_occupancy
  Ni  Ni0  1  0.15489300  0.60769200  0.63692900  1
  Ni  Ni1  1  0.34510700  0.60769200  0.13692900  1
  Ni  Ni2  1  0.84510700  0.39230800  0.36307100  1
  Ni  Ni3  1  0.65489300  0.39230800  0.86307100  1
  Ni  Ni4  1  0.55829200  0.07044600  0.69408300  1
  Ni  Ni5  1  0.94170800  0.07044600  0.19408300  1
  Ni  Ni6  1  0.44170800  0.92955400  0.30591700  1
  Ni  Ni7  1  0.05829200  0.92955400  0.80591700  1
  Cu  Cu8  1  0.38375500  0.22102400  0.90488100  1
  Cu  Cu9  1  0.11624500  0.22102400  0.40488100  1
  Cu  Cu10  1  0.61624500  0.77897600  0.09511900  1
  Cu  Cu11  1  0.88375500  0.77897600  0.59511900  1
  Cu  Cu12  1  0.20710100  0.32820700  0.03333200  1
  Cu  Cu13  1  0.29289900  0.32820700  0.53333200  1
  Cu  Cu14  1  0.79289900  0.67179300  0.96666800  1
  Cu  Cu15  1  0.70710100  0.67179300  0.46666800  1
  Cu  Cu16  1  0.19930900  0.16165400  0.96374800  1
  Cu  Cu17  1  0.30069100  0.16165400  0.46374800  1
  Cu  Cu18  1  0.80069100  0.83834600  0.03625200  1
  Cu  Cu19  1  0.69930900  0.83834600  0.53625200  1
  C  C20  1  0.19063600  0.95883200  0.24192900  1
  C  C21  1  0.30936400  0.95883200  0.74192900  1
  C  C22  1  0.80936400  0.04116800  0.75807100  1
  C  C23  1  0.69063600  0.04116800  0.25807100  1
  C  C24  1  0.39851200  0.58839700  0.69661600  1
  C  C25  1  0.10148800  0.58839700  0.19661600  1
  C  C26  1  0.60148800  0.41160300  0.30338400  1
  C  C27  1  0.89851200  0.41160300  0.80338400  1
  C  C28  1  0.38736900  0.39141800  0.96261400  1
  C  C29  1  0.11263100  0.39141800  0.46261400  1
  C  C30  1  0.61263100  0.60858200  0.03738600  1
  C  C31  1  0.88736900  0.60858200  0.53738600  1
  C  C32  1  0.39273300  0.40534200  0.73841000  1
  C  C33  1  0.10726700  0.40534200  0.23841000  1
  C  C34  1  0.60726700  0.59465800  0.26159000  1
  C  C35  1  0.89273300  0.59465800  0.76159000  1
  C  C36  1  0.18905500  0.96386200  0.12466100  1
  C  C37  1  0.31094500  0.96386200  0.62466100  1
  C  C38  1  0.81094500  0.03613800  0.87533900  1
  C  C39  1  0.68905500  0.03613800  0.37533900  1
  C  C40  1  0.39757400  0.57170300  0.82009300  1
  C  C41  1  0.10242600  0.57170300  0.32009300  1
  C  C42  1  0.60242600  0.42829700  0.17990700  1
  C  C43  1  0.89757400  0.42829700  0.67990700  1
  C  C44  1  0.19807500  0.14093800  0.19999200  1
  C  C45  1  0.30192500  0.14093800  0.69999200  1
  C  C46  1  0.80192500  0.85906200  0.80000800  1
  C  C47  1  0.69807500  0.85906200  0.30000800  1
  C  C48  1  0.24130100  0.68447600  0.53663000  1
  C  C49  1  0.25869900  0.68447600  0.03663000  1
  C  C50  1  0.75869900  0.31552400  0.46337000  1
  C  C51  1  0.74130100  0.31552400  0.96337000  1
  C  C52  1  0.07133000  0.52476000  0.74261600  1
  C  C53  1  0.42867000  0.52476000  0.24261600  1
  C  C54  1  0.92867000  0.47524000  0.25738400  1
  C  C55  1  0.57133000  0.47524000  0.75738400  1
  C  C56  1  0.49236600  0.09416200  0.78403800  1
  C  C57  1  0.00763400  0.09416200  0.28403800  1
  C  C58  1  0.50763400  0.90583800  0.21596200  1
  C  C59  1  0.99236600  0.90583800  0.71596200  1
  C  C60  1  0.60688200  0.26443300  0.62964700  1
  C  C61  1  0.89311800  0.26443300  0.12964700  1
  C  C62  1  0.39311800  0.73556700  0.37035300  1
  C  C63  1  0.10688200  0.73556700  0.87035300  1
  C  C64  1  0.51264300  0.87246300  0.76113000  1
  C  C65  1  0.98735700  0.87246300  0.26113000  1
  C  C66  1  0.48735700  0.12753700  0.23887000  1
  C  C67  1  0.01264300  0.12753700  0.73887000  1
  C  C68  1  0.62666600  0.04186500  0.60887400  1
  C  C69  1  0.87333400  0.04186500  0.10887400  1
  C  C70  1  0.37333400  0.95813500  0.39112600  1
  C  C71  1  0.12666600  0.95813500  0.89112600  1
  C  C72  1  0.13877800  0.81234400  0.58733500  1
  C  C73  1  0.36122200  0.81234400  0.08733500  1
  C  C74  1  0.86122200  0.18765600  0.41266500  1
  C  C75  1  0.63877800  0.18765600  0.91266500  1
  C  C76  1  0.62838200  0.95518700  0.82994300  1
  C  C77  1  0.87161800  0.95518700  0.32994300  1
  C  C78  1  0.37161800  0.04481300  0.17005700  1
  C  C79  1  0.12838200  0.04481300  0.67005700  1
  C  C80  1  0.09264800  0.65300800  0.51293900  1
  C  C81  1  0.40735200  0.65300800  0.01293900  1
  C  C82  1  0.90735200  0.34699200  0.48706100  1
  C  C83  1  0.59264800  0.34699200  0.98706100  1
  C  C84  1  0.21905000  0.55126800  0.76739700  1
  C  C85  1  0.28095000  0.55126800  0.26739700  1
  C  C86  1  0.78095000  0.44873200  0.23260300  1
  C  C87  1  0.71905000  0.44873200  0.73260300  1
  C  C88  1  0.48946000  0.18042100  0.56271400  1
  C  C89  1  0.01054000  0.18042100  0.06271400  1
  C  C90  1  0.51054000  0.81957900  0.43728600  1
  C  C91  1  0.98946000  0.81957900  0.93728600  1
  C  C92  1  0.17492500  0.39903400  0.69026300  1
  C  C93  1  0.32507500  0.39903400  0.19026300  1
  C  C94  1  0.82507500  0.60096600  0.30973700  1
  C  C95  1  0.67492500  0.60096600  0.80973700  1
