# generated using pymatgen
data_Cu2NiC6
_symmetry_space_group_name_H-M   'P 1'
_cell_length_a   8.76646811
_cell_length_b   8.76646811
_cell_length_c   8.76646811
_cell_angle_alpha   126.45383576
_cell_angle_beta   126.45383576
_cell_angle_gamma   79.14350256
_symmetry_Int_Tables_number   1
_chemical_formula_structural   Cu2NiC6
_chemical_formula_sum   'Cu4 Ni2 C12'
_cell_volume   421.50236410
_cell_formula_units_Z   2
loop_
 _symmetry_equiv_pos_site_id
 _symmetry_equiv_pos_as_xyz
  1  'x, y, z'
loop_
 _atom_site_type_symbol
 _atom_site_label
 _atom_site_symmetry_multiplicity
 _atom_site_fract_x
 _atom_site_fract_y
 _atom_site_fract_z
 _atom_site_occupancy
  Ni  Ni0  1  0.25000000  0.25000000  0.00000000  1
  Ni  Ni1  1  0.75000000  0.75000000  0.00000000  1
  Cu  Cu2  1  0.33809200  0.16190800  0.50000000  1
  Cu  Cu3  1  0.16190800  0.66190800  0.82381600  1
  Cu  Cu4  1  0.83809200  0.33809200  0.17618400  1
  Cu  Cu5  1  0.66190800  0.83809200  0.50000000  1
  C  C6  1  0.75000000  0.25000000  0.50000000  1
  C  C7  1  0.25000000  0.75000000  0.50000000  1
  C  C8  1  0.48766200  0.98766200  0.20457900  1
  C  C9  1  0.21691600  0.71691600  0.20457900  1
  C  C10  1  0.51233800  0.01233800  0.79542100  1
  C  C11  1  0.01233800  0.21691600  0.50000000  1
  C  C12  1  0.71691600  0.51233800  0.50000000  1
  C  C13  1  0.98766200  0.78308400  0.50000000  1
  C  C14  1  0.28308400  0.48766200  0.50000000  1
  C  C15  1  0.78308400  0.28308400  0.79542100  1
  C  C16  1  0.50000000  0.50000000  0.00000000  1
  C  C17  1  0.00000000  0.00000000  0.00000000  1
