# generated using pymatgen
data_Cu4NiC
_symmetry_space_group_name_H-M   'P 1'
_cell_length_a   5.04120337
_cell_length_b   5.04120337
_cell_length_c   8.66155400
_cell_angle_alpha   90.00000000
_cell_angle_beta   90.00000000
_cell_angle_gamma   119.99999171
_symmetry_Int_Tables_number   1
_chemical_formula_structural   Cu4NiC
_chemical_formula_sum   'Cu8 Ni2 C2'
_cell_volume   190.63161220
_cell_formula_units_Z   2
loop_
 _symmetry_equiv_pos_site_id
 _symmetry_equiv_pos_as_xyz
  1  'x, y, z'
loop_
 _atom_site_type_symbol
 _atom_site_label
 _atom_site_symmetry_multiplicity
 _atom_site_fract_x
 _atom_site_fract_y
 _atom_site_fract_z
 _atom_site_occupancy
  C  C0  1  0.00000000  0.00000000  0.50000000  1
  C  C1  1  0.00000000  0.00000000  0.00000000  1
  Ni  Ni2  1  0.66666700  0.33333300  0.78707000  1
  Ni  Ni3  1  0.33333300  0.66666700  0.21293000  1
  Cu  Cu4  1  0.90144600  0.26185400  0.84722800  1
  Cu  Cu5  1  0.36040900  0.09855400  0.84722800  1
  Cu  Cu6  1  0.63959100  0.73814600  0.15277200  1
  Cu  Cu7  1  0.73814600  0.63959100  0.84722800  1
  Cu  Cu8  1  0.26185400  0.90144600  0.15277200  1
  Cu  Cu9  1  0.09855400  0.36040900  0.15277200  1
  Cu  Cu10  1  0.66666700  0.33333300  0.61833200  1
  Cu  Cu11  1  0.33333300  0.66666700  0.38166800  1
