# generated using pymatgen
data_Cu30Ni9C5
_symmetry_space_group_name_H-M   'P 1'
_cell_length_a   13.29426943
_cell_length_b   13.29426943
_cell_length_c   13.29426943
_cell_angle_alpha   90.00000000
_cell_angle_beta   90.00000000
_cell_angle_gamma   90.00000000
_symmetry_Int_Tables_number   1
_chemical_formula_structural   Cu30Ni9C5
_chemical_formula_sum   'Cu120 Ni36 C20'
_cell_volume   2349.59726852
_cell_formula_units_Z   4
loop_
 _symmetry_equiv_pos_site_id
 _symmetry_equiv_pos_as_xyz
  1  'x, y, z'
loop_
 _atom_site_type_symbol
 _atom_site_label
 _atom_site_symmetry_multiplicity
 _atom_site_fract_x
 _atom_site_fract_y
 _atom_site_fract_z
 _atom_site_occupancy
  C  C0  1  0.20122004  0.54906072  0.47227838  1
  C  C1  1  0.29877996  0.45093928  0.97227838  1
  C  C2  1  0.79877996  0.04906072  0.02772162  1
  C  C3  1  0.47227838  0.20122004  0.54906072  1
  C  C4  1  0.70122004  0.95093928  0.52772162  1
  C  C5  1  0.97227838  0.29877996  0.45093928  1
  C  C6  1  0.02772162  0.79877996  0.04906072  1
  C  C7  1  0.52772162  0.70122004  0.95093928  1
  C  C8  1  0.54906072  0.47227838  0.20122004  1
  C  C9  1  0.04906072  0.02772162  0.79877996  1
  C  C10  1  0.95093928  0.52772162  0.70122004  1
  C  C11  1  0.45093928  0.97227838  0.29877996  1
  C  C12  1  0.21578871  0.21578871  0.21578871  1
  C  C13  1  0.28421129  0.78421129  0.71578871  1
  C  C14  1  0.78421129  0.71578871  0.28421129  1
  C  C15  1  0.71578871  0.28421129  0.78421129  1
  C  C16  1  0.52853394  0.52853394  0.52853394  1
  C  C17  1  0.97146606  0.47146606  0.02853394  1
  C  C18  1  0.47146606  0.02853394  0.97146606  1
  C  C19  1  0.02853394  0.97146606  0.47146606  1
  Ni  Ni20  1  0.10419192  0.17228472  0.54245490  1
  Ni  Ni21  1  0.39580808  0.82771528  0.04245490  1
  Ni  Ni22  1  0.89580808  0.67228472  0.95754510  1
  Ni  Ni23  1  0.54245490  0.10419192  0.17228472  1
  Ni  Ni24  1  0.60419192  0.32771528  0.45754510  1
  Ni  Ni25  1  0.04245490  0.39580808  0.82771528  1
  Ni  Ni26  1  0.95754510  0.89580808  0.67228472  1
  Ni  Ni27  1  0.45754510  0.60419192  0.32771528  1
  Ni  Ni28  1  0.17228472  0.54245490  0.10419192  1
  Ni  Ni29  1  0.67228472  0.95754510  0.89580808  1
  Ni  Ni30  1  0.32771528  0.45754510  0.60419192  1
  Ni  Ni31  1  0.82771528  0.04245490  0.39580808  1
  Ni  Ni32  1  0.00990694  0.25935708  0.12369646  1
  Ni  Ni33  1  0.49009306  0.74064292  0.62369646  1
  Ni  Ni34  1  0.99009306  0.75935708  0.37630354  1
  Ni  Ni35  1  0.12369646  0.00990694  0.25935708  1
  Ni  Ni36  1  0.50990694  0.24064292  0.87630354  1
  Ni  Ni37  1  0.62369646  0.49009306  0.74064292  1
  Ni  Ni38  1  0.37630354  0.99009306  0.75935708  1
  Ni  Ni39  1  0.87630354  0.50990694  0.24064292  1
  Ni  Ni40  1  0.25935708  0.12369646  0.00990694  1
  Ni  Ni41  1  0.75935708  0.37630354  0.99009306  1
  Ni  Ni42  1  0.24064292  0.87630354  0.50990694  1
  Ni  Ni43  1  0.74064292  0.62369646  0.49009306  1
  Ni  Ni44  1  0.13703354  0.37958469  0.35612140  1
  Ni  Ni45  1  0.36296646  0.62041531  0.85612140  1
  Ni  Ni46  1  0.86296646  0.87958469  0.14387860  1
  Ni  Ni47  1  0.35612140  0.13703354  0.37958469  1
  Ni  Ni48  1  0.63703354  0.12041531  0.64387860  1
  Ni  Ni49  1  0.85612140  0.36296646  0.62041531  1
  Ni  Ni50  1  0.14387860  0.86296646  0.87958469  1
  Ni  Ni51  1  0.64387860  0.63703354  0.12041531  1
  Ni  Ni52  1  0.37958469  0.35612140  0.13703354  1
  Ni  Ni53  1  0.87958469  0.14387860  0.86296646  1
  Ni  Ni54  1  0.12041531  0.64387860  0.63703354  1
  Ni  Ni55  1  0.62041531  0.85612140  0.36296646  1
  Cu  Cu56  1  0.09146559  0.55411942  0.15449134  1
  Cu  Cu57  1  0.40853441  0.44588058  0.65449134  1
  Cu  Cu58  1  0.90853441  0.05411942  0.34550866  1
  Cu  Cu59  1  0.15449134  0.09146559  0.55411942  1
  Cu  Cu60  1  0.59146559  0.94588058  0.84550866  1
  Cu  Cu61  1  0.65449134  0.40853441  0.44588058  1
  Cu  Cu62  1  0.34550866  0.90853441  0.05411942  1
  Cu  Cu63  1  0.84550866  0.59146559  0.94588058  1
  Cu  Cu64  1  0.55411942  0.15449134  0.09146559  1
  Cu  Cu65  1  0.05411942  0.34550866  0.90853441  1
  Cu  Cu66  1  0.94588058  0.84550866  0.59146559  1
  Cu  Cu67  1  0.44588058  0.65449134  0.40853441  1
  Cu  Cu68  1  0.13725745  0.25646662  0.56135018  1
  Cu  Cu69  1  0.36274255  0.74353338  0.06135018  1
  Cu  Cu70  1  0.86274255  0.75646662  0.93864982  1
  Cu  Cu71  1  0.56135018  0.13725745  0.25646662  1
  Cu  Cu72  1  0.63725745  0.24353338  0.43864982  1
  Cu  Cu73  1  0.06135018  0.36274255  0.74353338  1
  Cu  Cu74  1  0.93864982  0.86274255  0.75646662  1
  Cu  Cu75  1  0.43864982  0.63725745  0.24353338  1
  Cu  Cu76  1  0.25646662  0.56135018  0.13725745  1
  Cu  Cu77  1  0.75646662  0.93864982  0.86274255  1
  Cu  Cu78  1  0.24353338  0.43864982  0.63725745  1
  Cu  Cu79  1  0.74353338  0.06135018  0.36274255  1
  Cu  Cu80  1  0.08906655  0.29599632  0.34453282  1
  Cu  Cu81  1  0.41093345  0.70400368  0.84453282  1
  Cu  Cu82  1  0.91093345  0.79599632  0.15546718  1
  Cu  Cu83  1  0.34453282  0.08906655  0.29599632  1
  Cu  Cu84  1  0.58906655  0.20400368  0.65546718  1
  Cu  Cu85  1  0.84453282  0.41093345  0.70400368  1
  Cu  Cu86  1  0.15546718  0.91093345  0.79599632  1
  Cu  Cu87  1  0.65546718  0.58906655  0.20400368  1
  Cu  Cu88  1  0.29599632  0.34453282  0.08906655  1
  Cu  Cu89  1  0.79599632  0.15546718  0.91093345  1
  Cu  Cu90  1  0.20400368  0.65546718  0.58906655  1
  Cu  Cu91  1  0.70400368  0.84453282  0.41093345  1
  Cu  Cu92  1  0.01303482  0.16099652  0.50696646  1
  Cu  Cu93  1  0.48696518  0.83900348  0.00696646  1
  Cu  Cu94  1  0.98696518  0.66099652  0.99303354  1
  Cu  Cu95  1  0.50696646  0.01303482  0.16099652  1
  Cu  Cu96  1  0.51303482  0.33900348  0.49303354  1
  Cu  Cu97  1  0.00696646  0.48696518  0.83900348  1
  Cu  Cu98  1  0.99303354  0.98696518  0.66099652  1
  Cu  Cu99  1  0.49303354  0.51303482  0.33900348  1
  Cu  Cu100  1  0.16099652  0.50696646  0.01303482  1
  Cu  Cu101  1  0.66099652  0.99303354  0.98696518  1
  Cu  Cu102  1  0.33900348  0.49303354  0.51303482  1
  Cu  Cu103  1  0.83900348  0.00696646  0.48696518  1
  Cu  Cu104  1  0.20993303  0.64296925  0.34217293  1
  Cu  Cu105  1  0.29006697  0.35703075  0.84217293  1
  Cu  Cu106  1  0.79006697  0.14296925  0.15782707  1
  Cu  Cu107  1  0.34217293  0.20993303  0.64296925  1
  Cu  Cu108  1  0.70993303  0.85703075  0.65782707  1
  Cu  Cu109  1  0.84217293  0.29006697  0.35703075  1
  Cu  Cu110  1  0.15782707  0.79006697  0.14296925  1
  Cu  Cu111  1  0.65782707  0.70993303  0.85703075  1
  Cu  Cu112  1  0.64296925  0.34217293  0.20993303  1
  Cu  Cu113  1  0.14296925  0.15782707  0.79006697  1
  Cu  Cu114  1  0.85703075  0.65782707  0.70993303  1
  Cu  Cu115  1  0.35703075  0.84217293  0.29006697  1
  Cu  Cu116  1  0.07000399  0.77631270  0.42316356  1
  Cu  Cu117  1  0.42999601  0.22368730  0.92316356  1
  Cu  Cu118  1  0.92999601  0.27631270  0.07683644  1
  Cu  Cu119  1  0.42316356  0.07000399  0.77631270  1
  Cu  Cu120  1  0.57000399  0.72368730  0.57683644  1
  Cu  Cu121  1  0.92316356  0.42999601  0.22368730  1
  Cu  Cu122  1  0.07683644  0.92999601  0.27631270  1
  Cu  Cu123  1  0.57683644  0.57000399  0.72368730  1
  Cu  Cu124  1  0.77631270  0.42316356  0.07000399  1
  Cu  Cu125  1  0.27631270  0.07683644  0.92999601  1
  Cu  Cu126  1  0.72368730  0.57683644  0.57000399  1
  Cu  Cu127  1  0.22368730  0.92316356  0.42999601  1
  Cu  Cu128  1  0.02659508  0.17885744  0.16955414  1
  Cu  Cu129  1  0.47340492  0.82114256  0.66955414  1
  Cu  Cu130  1  0.97340492  0.67885744  0.33044586  1
  Cu  Cu131  1  0.16955414  0.02659508  0.17885744  1
  Cu  Cu132  1  0.52659508  0.32114256  0.83044586  1
  Cu  Cu133  1  0.66955414  0.47340492  0.82114256  1
  Cu  Cu134  1  0.33044586  0.97340492  0.67885744  1
  Cu  Cu135  1  0.83044586  0.52659508  0.32114256  1
  Cu  Cu136  1  0.17885744  0.16955414  0.02659508  1
  Cu  Cu137  1  0.67885744  0.33044586  0.97340492  1
  Cu  Cu138  1  0.32114256  0.83044586  0.52659508  1
  Cu  Cu139  1  0.82114256  0.66955414  0.47340492  1
  Cu  Cu140  1  0.21520153  0.39293295  0.30375471  1
  Cu  Cu141  1  0.28479847  0.60706705  0.80375471  1
  Cu  Cu142  1  0.78479847  0.89293295  0.19624529  1
  Cu  Cu143  1  0.30375471  0.21520153  0.39293295  1
  Cu  Cu144  1  0.71520153  0.10706705  0.69624529  1
  Cu  Cu145  1  0.80375471  0.28479847  0.60706705  1
  Cu  Cu146  1  0.19624529  0.78479847  0.89293295  1
  Cu  Cu147  1  0.69624529  0.71520153  0.10706705  1
  Cu  Cu148  1  0.39293295  0.30375471  0.21520153  1
  Cu  Cu149  1  0.89293295  0.19624529  0.78479847  1
  Cu  Cu150  1  0.10706705  0.69624529  0.71520153  1
  Cu  Cu151  1  0.60706705  0.80375471  0.28479847  1
  Cu  Cu152  1  0.07868734  0.32835278  0.12467739  1
  Cu  Cu153  1  0.42131266  0.67164722  0.62467739  1
  Cu  Cu154  1  0.92131266  0.82835278  0.37532261  1
  Cu  Cu155  1  0.12467739  0.07868734  0.32835278  1
  Cu  Cu156  1  0.57868734  0.17164722  0.87532261  1
  Cu  Cu157  1  0.62467739  0.42131266  0.67164722  1
  Cu  Cu158  1  0.37532261  0.92131266  0.82835278  1
  Cu  Cu159  1  0.87532261  0.57868734  0.17164722  1
  Cu  Cu160  1  0.32835278  0.12467739  0.07868734  1
  Cu  Cu161  1  0.82835278  0.37532261  0.92131266  1
  Cu  Cu162  1  0.17164722  0.87532261  0.57868734  1
  Cu  Cu163  1  0.67164722  0.62467739  0.42131266  1
  Cu  Cu164  1  0.10524969  0.44266223  0.41802548  1
  Cu  Cu165  1  0.39475031  0.55733777  0.91802548  1
  Cu  Cu166  1  0.89475031  0.94266223  0.08197452  1
  Cu  Cu167  1  0.41802548  0.10524969  0.44266223  1
  Cu  Cu168  1  0.60524969  0.05733777  0.58197452  1
  Cu  Cu169  1  0.91802548  0.39475031  0.55733777  1
  Cu  Cu170  1  0.08197452  0.89475031  0.94266223  1
  Cu  Cu171  1  0.58197452  0.60524969  0.05733777  1
  Cu  Cu172  1  0.44266223  0.41802548  0.10524969  1
  Cu  Cu173  1  0.94266223  0.08197452  0.89475031  1
  Cu  Cu174  1  0.05733777  0.58197452  0.60524969  1
  Cu  Cu175  1  0.55733777  0.91802548  0.39475031  1
