# generated using pymatgen
data_Cu8(NiC3)3
_symmetry_space_group_name_H-M   'P 1'
_cell_length_a   6.49762461
_cell_length_b   8.19300300
_cell_length_c   14.67490736
_cell_angle_alpha   90.00000000
_cell_angle_beta   106.10797541
_cell_angle_gamma   90.00000000
_symmetry_Int_Tables_number   1
_chemical_formula_structural   Cu8(NiC3)3
_chemical_formula_sum   'Cu32 Ni12 C36'
_cell_volume   750.54928856
_cell_formula_units_Z   4
loop_
 _symmetry_equiv_pos_site_id
 _symmetry_equiv_pos_as_xyz
  1  'x, y, z'
loop_
 _atom_site_type_symbol
 _atom_site_label
 _atom_site_symmetry_multiplicity
 _atom_site_fract_x
 _atom_site_fract_y
 _atom_site_fract_z
 _atom_site_occupancy
  Ni  Ni0  1  0.50128100  0.11532500  0.75425200  1
  Ni  Ni1  1  0.49871900  0.61532500  0.74574800  1
  Ni  Ni2  1  0.49871900  0.88467500  0.24574800  1
  Ni  Ni3  1  0.50128100  0.38467500  0.25425200  1
  Ni  Ni4  1  0.86174900  0.88495800  0.52209800  1
  Ni  Ni5  1  0.13825100  0.38495800  0.97790200  1
  Ni  Ni6  1  0.13825100  0.11504200  0.47790200  1
  Ni  Ni7  1  0.86174900  0.61504200  0.02209800  1
  Ni  Ni8  1  0.84073300  0.35372800  0.52836400  1
  Ni  Ni9  1  0.15926700  0.85372800  0.97163600  1
  Ni  Ni10  1  0.15926700  0.64627200  0.47163600  1
  Ni  Ni11  1  0.84073300  0.14627200  0.02836400  1
  Cu  Cu12  1  0.56565700  0.87420300  0.06991100  1
  Cu  Cu13  1  0.43434300  0.37420300  0.43008900  1
  Cu  Cu14  1  0.43434300  0.12579700  0.93008900  1
  Cu  Cu15  1  0.56565700  0.62579700  0.56991100  1
  Cu  Cu16  1  0.59474400  0.11898600  0.56888000  1
  Cu  Cu17  1  0.40525600  0.61898600  0.93112000  1
  Cu  Cu18  1  0.40525600  0.88101400  0.43112000  1
  Cu  Cu19  1  0.59474400  0.38101400  0.06888000  1
  Cu  Cu20  1  0.77323000  0.87298800  0.70686300  1
  Cu  Cu21  1  0.22677000  0.37298800  0.79313700  1
  Cu  Cu22  1  0.22677000  0.12701200  0.29313700  1
  Cu  Cu23  1  0.77323000  0.62701200  0.20686300  1
  Cu  Cu24  1  0.77486200  0.37640800  0.70254200  1
  Cu  Cu25  1  0.22513800  0.87640800  0.79745800  1
  Cu  Cu26  1  0.22513800  0.62359200  0.29745800  1
  Cu  Cu27  1  0.77486200  0.12359200  0.20254200  1
  Cu  Cu28  1  0.70353700  0.37349400  0.89516900  1
  Cu  Cu29  1  0.29646300  0.87349400  0.60483100  1
  Cu  Cu30  1  0.29646300  0.62650600  0.10483100  1
  Cu  Cu31  1  0.70353700  0.12650600  0.39516900  1
  Cu  Cu32  1  0.94868100  0.12201100  0.83623300  1
  Cu  Cu33  1  0.05131900  0.62201100  0.66376700  1
  Cu  Cu34  1  0.05131900  0.87798900  0.16376700  1
  Cu  Cu35  1  0.94868100  0.37798900  0.33623300  1
  Cu  Cu36  1  0.04149900  0.12005200  0.65447100  1
  Cu  Cu37  1  0.95850100  0.62005200  0.84552900  1
  Cu  Cu38  1  0.95850100  0.87994800  0.34552900  1
  Cu  Cu39  1  0.04149900  0.37994800  0.15447100  1
  Cu  Cu40  1  0.31500900  0.37224300  0.62216600  1
  Cu  Cu41  1  0.68499100  0.87224300  0.87783400  1
  Cu  Cu42  1  0.68499100  0.62775700  0.37783400  1
  Cu  Cu43  1  0.31500900  0.12775700  0.12216600  1
  C  C44  1  0.58036400  0.37400200  0.56794900  1
  C  C45  1  0.41963600  0.87400200  0.93205100  1
  C  C46  1  0.41963600  0.62599800  0.43205100  1
  C  C47  1  0.58036400  0.12599800  0.06794900  1
  C  C48  1  0.51010800  0.36615800  0.75506700  1
  C  C49  1  0.48989200  0.86615800  0.74493300  1
  C  C50  1  0.48989200  0.63384200  0.24493300  1
  C  C51  1  0.51010800  0.13384200  0.25506700  1
  C  C52  1  0.70495500  0.12056800  0.89492300  1
  C  C53  1  0.29504500  0.62056800  0.60507700  1
  C  C54  1  0.29504500  0.87943200  0.10507700  1
  C  C55  1  0.70495500  0.37943200  0.39492300  1
  C  C56  1  0.59356500  0.87155600  0.56791800  1
  C  C57  1  0.40643600  0.37155600  0.93208200  1
  C  C58  1  0.40643600  0.12844400  0.43208200  1
  C  C59  1  0.59356500  0.62844400  0.06791800  1
  C  C60  1  0.77190000  0.12327800  0.70469800  1
  C  C61  1  0.22810000  0.62327800  0.79530200  1
  C  C62  1  0.22810000  0.87672200  0.29530200  1
  C  C63  1  0.77190000  0.37672200  0.20469800  1
  C  C64  1  0.03793100  0.37232400  0.65153400  1
  C  C65  1  0.96206900  0.87232400  0.84846600  1
  C  C66  1  0.96206900  0.62767600  0.34846600  1
  C  C67  1  0.03793100  0.12767600  0.15153400  1
  C  C68  1  0.96217100  0.37106700  0.84509400  1
  C  C69  1  0.03782900  0.87106700  0.65490600  1
  C  C70  1  0.03782900  0.62893300  0.15490600  1
  C  C71  1  0.96217100  0.12893300  0.34509400  1
  C  C72  1  0.31292800  0.12268900  0.60831700  1
  C  C73  1  0.68707200  0.62268900  0.89168300  1
  C  C74  1  0.68707200  0.87731100  0.39168300  1
  C  C75  1  0.31292800  0.37731100  0.10831700  1
  C  C76  1  0.22488300  0.12406000  0.79336600  1
  C  C77  1  0.77511700  0.62406000  0.70663400  1
  C  C78  1  0.77511700  0.87594000  0.20663400  1
  C  C79  1  0.22488300  0.37594000  0.29336600  1
