# generated using pymatgen
data_CuNiC6
_symmetry_space_group_name_H-M   'P 1'
_cell_length_a   5.93942700
_cell_length_b   7.46442700
_cell_length_c   8.85481500
_cell_angle_alpha   90.00000000
_cell_angle_beta   90.00000000
_cell_angle_gamma   90.00000000
_symmetry_Int_Tables_number   1
_chemical_formula_structural   CuNiC6
_chemical_formula_sum   'Cu4 Ni4 C24'
_cell_volume   392.57308071
_cell_formula_units_Z   4
loop_
 _symmetry_equiv_pos_site_id
 _symmetry_equiv_pos_as_xyz
  1  'x, y, z'
loop_
 _atom_site_type_symbol
 _atom_site_label
 _atom_site_symmetry_multiplicity
 _atom_site_fract_x
 _atom_site_fract_y
 _atom_site_fract_z
 _atom_site_occupancy
  C  C0  1  0.00000000  0.63361200  0.32924500  1
  C  C1  1  0.00000000  0.36638800  0.67075500  1
  C  C2  1  0.00000000  0.13361200  0.17075500  1
  C  C3  1  0.00000000  0.86638800  0.82924500  1
  Ni  Ni4  1  0.25199800  0.50000000  0.00000000  1
  Ni  Ni5  1  0.74800200  0.00000000  0.50000000  1
  Ni  Ni6  1  0.74800200  0.50000000  0.00000000  1
  Ni  Ni7  1  0.25199800  0.00000000  0.50000000  1
  Cu  Cu8  1  0.50000000  0.59966300  0.64527200  1
  Cu  Cu9  1  0.50000000  0.40033700  0.35472800  1
  Cu  Cu10  1  0.50000000  0.09966300  0.85472800  1
  Cu  Cu11  1  0.50000000  0.90033700  0.14527200  1
  C  C12  1  0.24766400  0.60579300  0.79617300  1
  C  C13  1  0.24766400  0.39420700  0.20382700  1
  C  C14  1  0.75233600  0.10579300  0.70382700  1
  C  C15  1  0.75233600  0.89420700  0.29617300  1
  C  C16  1  0.75233600  0.39420700  0.20382700  1
  C  C17  1  0.75233600  0.60579300  0.79617300  1
  C  C18  1  0.24766400  0.89420700  0.29617300  1
  C  C19  1  0.24766400  0.10579300  0.70382700  1
  C  C20  1  0.00000000  0.66126300  0.05438200  1
  C  C21  1  0.00000000  0.33873700  0.94561800  1
  C  C22  1  0.00000000  0.16126300  0.44561800  1
  C  C23  1  0.00000000  0.83873700  0.55438200  1
  C  C24  1  0.50000000  0.65652500  0.07136900  1
  C  C25  1  0.50000000  0.34347500  0.92863100  1
  C  C26  1  0.50000000  0.15652500  0.42863100  1
  C  C27  1  0.50000000  0.84347500  0.57136900  1
  C  C28  1  0.27548300  0.50000000  0.50000000  1
  C  C29  1  0.72451700  0.00000000  0.00000000  1
  C  C30  1  0.72451700  0.50000000  0.50000000  1
  C  C31  1  0.27548300  0.00000000  0.00000000  1
