# generated using pymatgen
data_Cu(NiC8)2
_symmetry_space_group_name_H-M   'P 1'
_cell_length_a   8.93565400
_cell_length_b   7.17948500
_cell_length_c   8.88372875
_cell_angle_alpha   75.96288369
_cell_angle_beta   90.00000000
_cell_angle_gamma   90.00000000
_symmetry_Int_Tables_number   1
_chemical_formula_structural   Cu(NiC8)2
_chemical_formula_sum   'Cu2 Ni4 C32'
_cell_volume   552.90281730
_cell_formula_units_Z   2
loop_
 _symmetry_equiv_pos_site_id
 _symmetry_equiv_pos_as_xyz
  1  'x, y, z'
loop_
 _atom_site_type_symbol
 _atom_site_label
 _atom_site_symmetry_multiplicity
 _atom_site_fract_x
 _atom_site_fract_y
 _atom_site_fract_z
 _atom_site_occupancy
  Ni  Ni0  1  0.25000000  0.91793400  0.51394900  1
  Ni  Ni1  1  0.75000000  0.08206600  0.48605100  1
  Ni  Ni2  1  0.75000000  0.90594800  0.01992500  1
  Ni  Ni3  1  0.25000000  0.09405200  0.98007500  1
  Cu  Cu4  1  0.75000000  0.52282700  0.87006300  1
  Cu  Cu5  1  0.25000000  0.47717300  0.12993700  1
  C  C6  1  0.49958200  0.00689200  0.74826700  1
  C  C7  1  0.99958200  0.99310800  0.25173300  1
  C  C8  1  0.50041800  0.99310800  0.25173300  1
  C  C9  1  0.00041800  0.00689200  0.74826700  1
  C  C10  1  0.59713500  0.87152400  0.87156500  1
  C  C11  1  0.09713500  0.12847600  0.12843500  1
  C  C12  1  0.40286500  0.12847600  0.12843500  1
  C  C13  1  0.90286500  0.87152400  0.87156500  1
  C  C14  1  0.40026100  0.87587900  0.67428500  1
  C  C15  1  0.90026100  0.12412100  0.32571500  1
  C  C16  1  0.59973900  0.12412100  0.32571500  1
  C  C17  1  0.09973900  0.87587900  0.67428500  1
  C  C18  1  0.40128200  0.13878200  0.82224800  1
  C  C19  1  0.90128200  0.86121800  0.17775200  1
  C  C20  1  0.59871800  0.86121800  0.17775200  1
  C  C21  1  0.09871800  0.13878200  0.82224800  1
  C  C22  1  0.59941000  0.13894000  0.62393000  1
  C  C23  1  0.09941000  0.86106000  0.37607000  1
  C  C24  1  0.40059000  0.86106000  0.37607000  1
  C  C25  1  0.90059000  0.13894000  0.62393000  1
  C  C26  1  0.25000000  0.14827400  0.46233500  1
  C  C27  1  0.75000000  0.85172600  0.53766500  1
  C  C28  1  0.75000000  0.13914600  0.97225000  1
  C  C29  1  0.25000000  0.86085400  0.02775000  1
  C  C30  1  0.25000000  0.58293200  0.60710800  1
  C  C31  1  0.75000000  0.41706800  0.39289200  1
  C  C32  1  0.75000000  0.58895000  0.04692900  1
  C  C33  1  0.25000000  0.41105000  0.95307100  1
  C  C34  1  0.90674100  0.50450900  0.75874600  1
  C  C35  1  0.40674100  0.49549100  0.24125400  1
  C  C36  1  0.09325900  0.49549100  0.24125400  1
  C  C37  1  0.59325900  0.50450900  0.75874600  1
