# generated using pymatgen
data_Cu4NiC3
_symmetry_space_group_name_H-M   'P 1'
_cell_length_a   14.55605100
_cell_length_b   11.46937900
_cell_length_c   16.21338214
_cell_angle_alpha   69.96188223
_cell_angle_beta   90.00000000
_cell_angle_gamma   90.00000000
_symmetry_Int_Tables_number   1
_chemical_formula_structural   Cu4NiC3
_chemical_formula_sum   'Cu32 Ni8 C24'
_cell_volume   2542.94892773
_cell_formula_units_Z   8
loop_
 _symmetry_equiv_pos_site_id
 _symmetry_equiv_pos_as_xyz
  1  'x, y, z'
loop_
 _atom_site_type_symbol
 _atom_site_label
 _atom_site_symmetry_multiplicity
 _atom_site_fract_x
 _atom_site_fract_y
 _atom_site_fract_z
 _atom_site_occupancy
  C  C0  1  0.09749400  0.56903000  0.41708500  1
  C  C1  1  0.05752800  0.96140400  0.10207800  1
  C  C2  1  0.08137900  0.76312900  0.51105600  1
  C  C3  1  0.11119700  0.24440200  0.00046200  1
  C  C4  1  0.18467900  0.66292400  0.72091100  1
  C  C5  1  0.13714200  0.35001800  0.77255400  1
  C  C6  1  0.36285800  0.85001800  0.77255400  1
  C  C7  1  0.31532100  0.16292400  0.72091100  1
  C  C8  1  0.38880300  0.74440200  0.00046200  1
  C  C9  1  0.41862100  0.26312900  0.51105600  1
  C  C10  1  0.44247200  0.46140400  0.10207800  1
  C  C11  1  0.40250600  0.06903000  0.41708500  1
  C  C12  1  0.59749400  0.93097000  0.58291500  1
  C  C13  1  0.55752800  0.53859600  0.89792200  1
  C  C14  1  0.58137900  0.73687100  0.48894400  1
  C  C15  1  0.61119700  0.25559800  0.99953800  1
  C  C16  1  0.68467900  0.83707600  0.27908900  1
  C  C17  1  0.63714200  0.14998200  0.22744600  1
  C  C18  1  0.86285800  0.64998200  0.22744600  1
  C  C19  1  0.81532100  0.33707600  0.27908900  1
  C  C20  1  0.88880300  0.75559800  0.99953800  1
  C  C21  1  0.91862100  0.23687100  0.48894400  1
  C  C22  1  0.94247200  0.03859600  0.89792200  1
  C  C23  1  0.90250600  0.43097000  0.58291500  1
  Ni  Ni24  1  0.19239800  0.78483800  0.09937700  1
  Ni  Ni25  1  0.29191900  0.51456500  0.45208900  1
  Ni  Ni26  1  0.20808100  0.01456500  0.45208900  1
  Ni  Ni27  1  0.30760200  0.28483800  0.09937700  1
  Ni  Ni28  1  0.69239800  0.71516200  0.90062300  1
  Ni  Ni29  1  0.79191900  0.98543500  0.54791100  1
  Ni  Ni30  1  0.70808100  0.48543500  0.54791100  1
  Ni  Ni31  1  0.80760200  0.21516200  0.90062300  1
  Cu  Cu32  1  0.04457400  0.57923900  0.52890600  1
  Cu  Cu33  1  0.01800500  0.11048400  0.99063100  1
  Cu  Cu34  1  0.34089800  0.59108500  0.08802700  1
  Cu  Cu35  1  0.37244900  0.24697900  0.39951600  1
  Cu  Cu36  1  0.31953700  0.75217600  0.89318600  1
  Cu  Cu37  1  0.31518700  0.19753300  0.59287000  1
  Cu  Cu38  1  0.30592700  0.74102900  0.71683200  1
  Cu  Cu39  1  0.27192600  0.98743300  0.75152100  1
  Cu  Cu40  1  0.22807400  0.48743300  0.75152100  1
  Cu  Cu41  1  0.19407300  0.24102900  0.71683200  1
  Cu  Cu42  1  0.18481300  0.69753300  0.59287000  1
  Cu  Cu43  1  0.18046300  0.25217600  0.89318600  1
  Cu  Cu44  1  0.12755100  0.74697900  0.39951600  1
  Cu  Cu45  1  0.15910200  0.09108500  0.08802700  1
  Cu  Cu46  1  0.48199500  0.61048400  0.99063100  1
  Cu  Cu47  1  0.45542600  0.07923900  0.52890600  1
  Cu  Cu48  1  0.54457400  0.92076100  0.47109400  1
  Cu  Cu49  1  0.51800500  0.38951600  0.00936900  1
  Cu  Cu50  1  0.84089800  0.90891500  0.91197300  1
  Cu  Cu51  1  0.87244900  0.25302100  0.60048400  1
  Cu  Cu52  1  0.81953700  0.74782400  0.10681400  1
  Cu  Cu53  1  0.81518700  0.30246700  0.40713000  1
  Cu  Cu54  1  0.80592700  0.75897100  0.28316800  1
  Cu  Cu55  1  0.77192600  0.51256700  0.24847900  1
  Cu  Cu56  1  0.72807400  0.01256700  0.24847900  1
  Cu  Cu57  1  0.69407300  0.25897100  0.28316800  1
  Cu  Cu58  1  0.68481300  0.80246700  0.40713000  1
  Cu  Cu59  1  0.68046300  0.24782400  0.10681400  1
  Cu  Cu60  1  0.62755100  0.75302100  0.60048400  1
  Cu  Cu61  1  0.65910200  0.40891500  0.91197300  1
  Cu  Cu62  1  0.98199500  0.88951600  0.00936900  1
  Cu  Cu63  1  0.95542600  0.42076100  0.47109400  1
