# generated using pymatgen
data_Cu9(Ni6C19)2
_symmetry_space_group_name_H-M   'P 1'
_cell_length_a   6.44420588
_cell_length_b   10.51308119
_cell_length_c   10.51308119
_cell_angle_alpha   60.00000000
_cell_angle_beta   90.00000000
_cell_angle_gamma   90.00000000
_symmetry_Int_Tables_number   1
_chemical_formula_structural   Cu9(Ni6C19)2
_chemical_formula_sum   'Cu9 Ni12 C38'
_cell_volume   616.82231262
_cell_formula_units_Z   1
loop_
 _symmetry_equiv_pos_site_id
 _symmetry_equiv_pos_as_xyz
  1  'x, y, z'
loop_
 _atom_site_type_symbol
 _atom_site_label
 _atom_site_symmetry_multiplicity
 _atom_site_fract_x
 _atom_site_fract_y
 _atom_site_fract_z
 _atom_site_occupancy
  C  C0  1  0.00385300  0.00000000  0.00000000  1
  C  C1  1  0.66281400  0.33333300  0.33333300  1
  Ni  Ni2  1  0.83333300  0.16666700  0.16666700  1
  Ni  Ni3  1  0.49670600  0.50636200  0.50841100  1
  Ni  Ni4  1  0.16996100  0.82697100  0.82492200  1
  Ni  Ni5  1  0.83333300  0.66666700  0.66666700  1
  Ni  Ni6  1  0.49282600  0.00000000  0.00000000  1
  Ni  Ni7  1  0.17384100  0.33333300  0.33333300  1
  Ni  Ni8  1  0.83333300  0.16666700  0.66666700  1
  Ni  Ni9  1  0.49670600  0.50841100  0.98522800  1
  Ni  Ni10  1  0.16996100  0.82492200  0.34810500  1
  Ni  Ni11  1  0.16996100  0.34810500  0.82697100  1
  Ni  Ni12  1  0.83333300  0.66666700  0.16666700  1
  Ni  Ni13  1  0.49670600  0.98522800  0.50636200  1
  Cu  Cu14  1  0.99673700  0.49919100  0.49867600  1
  Cu  Cu15  1  0.66993000  0.83414200  0.83465700  1
  Cu  Cu16  1  0.33333300  0.16666700  0.16666700  1
  Cu  Cu17  1  0.66993000  0.33120000  0.83414200  1
  Cu  Cu18  1  0.33333300  0.66666700  0.16666700  1
  Cu  Cu19  1  0.99673700  0.00213300  0.49919100  1
  Cu  Cu20  1  0.33333300  0.16666700  0.66666700  1
  Cu  Cu21  1  0.99673700  0.49867600  0.00213300  1
  Cu  Cu22  1  0.66993000  0.83465700  0.33120000  1
  C  C23  1  0.24535600  0.44277900  0.62281200  1
  C  C24  1  0.91860500  0.78348800  0.95918600  1
  C  C25  1  0.58371700  0.11639600  0.29228900  1
  C  C26  1  0.34898900  0.35028400  0.17527900  1
  C  C27  1  0.00445400  0.68333400  0.50282300  1
  C  C28  1  0.68524600  0.01675700  0.84221900  1
  C  C29  1  0.98142000  0.31657700  0.49111500  1
  C  C30  1  0.66221300  0.64999900  0.83051000  1
  C  C31  1  0.31767800  0.98304900  0.15805400  1
  C  C32  1  0.08294900  0.21693800  0.04104500  1
  C  C33  1  0.74806200  0.54984500  0.37414700  1
  C  C34  1  0.42131100  0.89055400  0.71052100  1
  C  C35  1  0.42131100  0.39892400  0.89055400  1
  C  C36  1  0.08294900  0.74201900  0.21693800  1
  C  C37  1  0.74806200  0.07600900  0.54984500  1
  C  C38  1  0.66221300  0.51949100  0.64999900  1
  C  C39  1  0.31767800  0.85889600  0.98304900  1
  C  C40  1  0.98142000  0.19230900  0.31657700  1
  C  C41  1  0.68524600  0.14102500  0.01675700  1
  C  C42  1  0.34898900  0.47443800  0.35028400  1
  C  C43  1  0.00445400  0.81384200  0.68333400  1
  C  C44  1  0.91860500  0.25732400  0.78348800  1
  C  C45  1  0.58371700  0.59131500  0.11639600  1
  C  C46  1  0.24535600  0.93440900  0.44277900  1
  C  C47  1  0.00445400  0.50282300  0.81384200  1
  C  C48  1  0.68524600  0.84221900  0.14102500  1
  C  C49  1  0.34898900  0.17527900  0.47443800  1
  C  C50  1  0.58371700  0.29228900  0.59131500  1
  C  C51  1  0.24535600  0.62281200  0.93440900  1
  C  C52  1  0.91860500  0.95918600  0.25732400  1
  C  C53  1  0.74806200  0.37414700  0.07600900  1
  C  C54  1  0.42131100  0.71052100  0.39892400  1
  C  C55  1  0.08294900  0.04104500  0.74201900  1
  C  C56  1  0.31767800  0.15805400  0.85889600  1
  C  C57  1  0.98142000  0.49111500  0.19230900  1
  C  C58  1  0.66221300  0.83051000  0.51949100  1
