# generated using pymatgen
data_Cu2(NiC8)3
_symmetry_space_group_name_H-M   'P 1'
_cell_length_a   4.00049879
_cell_length_b   4.00049879
_cell_length_c   24.66923968
_cell_angle_alpha   85.68327893
_cell_angle_beta   85.68327893
_cell_angle_gamma   88.28901083
_symmetry_Int_Tables_number   1
_chemical_formula_structural   Cu2(NiC8)3
_chemical_formula_sum   'Cu2 Ni3 C24'
_cell_volume   392.45327967
_cell_formula_units_Z   1
loop_
 _symmetry_equiv_pos_site_id
 _symmetry_equiv_pos_as_xyz
  1  'x, y, z'
loop_
 _atom_site_type_symbol
 _atom_site_label
 _atom_site_symmetry_multiplicity
 _atom_site_fract_x
 _atom_site_fract_y
 _atom_site_fract_z
 _atom_site_occupancy
  Ni  Ni0  1  0.43702900  0.43702900  0.16568800  1
  Ni  Ni1  1  0.68193000  0.68193000  0.66427300  1
  Ni  Ni2  1  0.34883400  0.34883400  0.33270500  1
  Cu  Cu3  1  0.50835200  0.50835200  0.00119100  1
  Cu  Cu4  1  0.59424400  0.59424400  0.83437600  1
  C  C5  1  0.04080900  0.04080900  0.07425200  1
  C  C6  1  0.13393800  0.13393800  0.90797500  1
  C  C7  1  0.89070800  0.89070800  0.44545300  1
  C  C8  1  0.33282500  0.33282500  0.54783200  1
  C  C9  1  0.95004400  0.95004400  0.25166800  1
  C  C10  1  0.21386200  0.21386200  0.74384700  1
  C  C11  1  0.62935400  0.14677500  0.67838900  1
  C  C12  1  0.82092600  0.30565100  0.31999700  1
  C  C13  1  0.30565100  0.82092600  0.31999700  1
  C  C14  1  0.14677500  0.62935400  0.67838900  1
  C  C15  1  0.54032200  0.07240700  0.84138000  1
  C  C16  1  0.89199000  0.37620400  0.16655400  1
  C  C17  1  0.37620400  0.89199000  0.16655400  1
  C  C18  1  0.07240700  0.54032200  0.84138000  1
  C  C19  1  0.68379900  0.68379900  0.59267500  1
  C  C20  1  0.27589500  0.27589500  0.40567600  1
  C  C21  1  0.58780200  0.58780200  0.75476600  1
  C  C22  1  0.33471700  0.33471700  0.24474300  1
  C  C23  1  0.30871300  0.81050200  0.49821700  1
  C  C24  1  0.81050200  0.30871300  0.49821700  1
  C  C25  1  0.50725400  0.50725400  0.92050300  1
  C  C26  1  0.41782000  0.41782000  0.08673500  1
  C  C27  1  0.45832100  0.98677300  0.00828300  1
  C  C28  1  0.98677300  0.45832100  0.00828300  1
