# generated using pymatgen
data_Cu7Ni2C
_symmetry_space_group_name_H-M   'P 1'
_cell_length_a   13.26315900
_cell_length_b   5.32554500
_cell_length_c   9.94979600
_cell_angle_alpha   58.82701293
_cell_angle_beta   90.00000000
_cell_angle_gamma   90.00000000
_symmetry_Int_Tables_number   1
_chemical_formula_structural   Cu7Ni2C
_chemical_formula_sum   'Cu28 Ni8 C4'
_cell_volume   601.31252370
_cell_formula_units_Z   4
loop_
 _symmetry_equiv_pos_site_id
 _symmetry_equiv_pos_as_xyz
  1  'x, y, z'
loop_
 _atom_site_type_symbol
 _atom_site_label
 _atom_site_symmetry_multiplicity
 _atom_site_fract_x
 _atom_site_fract_y
 _atom_site_fract_z
 _atom_site_occupancy
  C  C0  1  0.34970700  0.12482700  0.67168100  1
  C  C1  1  0.84970700  0.87517300  0.82831900  1
  C  C2  1  0.65029300  0.87517300  0.32831900  1
  C  C3  1  0.15029300  0.12482700  0.17168100  1
  Ni  Ni4  1  0.52560200  0.62656600  0.69224000  1
  Ni  Ni5  1  0.02560200  0.37343400  0.80776000  1
  Ni  Ni6  1  0.47439800  0.37343400  0.30776000  1
  Ni  Ni7  1  0.97439800  0.62656600  0.19224000  1
  Ni  Ni8  1  0.18599200  0.71484800  0.58619100  1
  Ni  Ni9  1  0.68599200  0.28515200  0.91380900  1
  Ni  Ni10  1  0.81400800  0.28515200  0.41380900  1
  Ni  Ni11  1  0.31400800  0.71484800  0.08619100  1
  Cu  Cu12  1  0.44554700  0.50900400  0.64065200  1
  Cu  Cu13  1  0.94554700  0.49099600  0.85934800  1
  Cu  Cu14  1  0.55445300  0.49099600  0.35934800  1
  Cu  Cu15  1  0.05445300  0.50900400  0.14065200  1
  Cu  Cu16  1  0.61058500  0.74986100  0.58395000  1
  Cu  Cu17  1  0.11058500  0.25013900  0.91605000  1
  Cu  Cu18  1  0.38941500  0.25013900  0.41605000  1
  Cu  Cu19  1  0.88941500  0.74986100  0.08395000  1
  Cu  Cu20  1  0.82505600  0.02474200  0.56906100  1
  Cu  Cu21  1  0.32505600  0.97525800  0.93093900  1
  Cu  Cu22  1  0.17494400  0.97525800  0.43093900  1
  Cu  Cu23  1  0.67494400  0.02474200  0.06906100  1
  Cu  Cu24  1  0.43221800  0.67032900  0.14894200  1
  Cu  Cu25  1  0.93221800  0.32967100  0.35105800  1
  Cu  Cu26  1  0.56778200  0.32967100  0.85105800  1
  Cu  Cu27  1  0.06778200  0.67032900  0.64894200  1
  Cu  Cu28  1  0.51005500  0.18444300  0.25160300  1
  Cu  Cu29  1  0.01005500  0.81555700  0.24839700  1
  Cu  Cu30  1  0.48994500  0.81555700  0.74839700  1
  Cu  Cu31  1  0.98994500  0.18444300  0.75160300  1
  Cu  Cu32  1  0.28700200  0.44669000  0.08902600  1
  Cu  Cu33  1  0.78700200  0.55331000  0.41097400  1
  Cu  Cu34  1  0.71299800  0.55331000  0.91097400  1
  Cu  Cu35  1  0.21299800  0.44669000  0.58902600  1
  Cu  Cu36  1  0.25632500  0.76533200  0.19497800  1
  Cu  Cu37  1  0.75632500  0.23466800  0.30502200  1
  Cu  Cu38  1  0.74367500  0.23466800  0.80502200  1
  Cu  Cu39  1  0.24367500  0.76533200  0.69497800  1
