# generated using pymatgen
data_CuNiC18
_symmetry_space_group_name_H-M   'P 1'
_cell_length_a   8.37598800
_cell_length_b   8.78706187
_cell_length_c   12.63026662
_cell_angle_alpha   91.09618207
_cell_angle_beta   91.93560907
_cell_angle_gamma   90.80202453
_symmetry_Int_Tables_number   1
_chemical_formula_structural   CuNiC18
_chemical_formula_sum   'Cu4 Ni4 C72'
_cell_volume   928.79153772
_cell_formula_units_Z   4
loop_
 _symmetry_equiv_pos_site_id
 _symmetry_equiv_pos_as_xyz
  1  'x, y, z'
loop_
 _atom_site_type_symbol
 _atom_site_label
 _atom_site_symmetry_multiplicity
 _atom_site_fract_x
 _atom_site_fract_y
 _atom_site_fract_z
 _atom_site_occupancy
  C  C0  1  0.00008600  0.99981700  0.99691000  1
  C  C1  1  0.00172500  0.89401500  0.75474500  1
  C  C2  1  0.99678900  0.98960300  0.50248700  1
  C  C3  1  0.98803900  0.10479700  0.24240000  1
  C  C4  1  0.28682400  0.18989700  0.95474600  1
  C  C5  1  0.28904600  0.81359500  0.45189800  1
  C  C6  1  0.50361600  0.49619000  0.99793200  1
  C  C7  1  0.50141900  0.60777700  0.74518000  1
  C  C8  1  0.51044200  0.50522400  0.49738400  1
  C  C9  1  0.49774300  0.39946500  0.25162700  1
  C  C10  1  0.71461800  0.18006000  0.55083000  1
  C  C11  1  0.70947300  0.80854500  0.04605800  1
  Ni  Ni12  1  0.21023600  0.50018000  0.85361000  1
  Ni  Ni13  1  0.71636300  0.99860600  0.35585600  1
  Ni  Ni14  1  0.78863400  0.49647600  0.64677700  1
  Ni  Ni15  1  0.78868000  0.50129500  0.14595800  1
  Cu  Cu16  1  0.21207600  0.49790200  0.35727800  1
  Cu  Cu17  1  0.28494400  0.00274900  0.64133400  1
  Cu  Cu18  1  0.28484800  0.99869400  0.14313700  1
  Cu  Cu19  1  0.71621800  0.00246600  0.85720800  1
  C  C20  1  0.00099900  0.20129100  0.75023700  1
  C  C21  1  0.00053300  0.79582000  0.25076200  1
  C  C22  1  0.15795000  0.64250100  0.60417400  1
  C  C23  1  0.15774000  0.35688900  0.10806200  1
  C  C24  1  0.34197400  0.85563900  0.89632400  1
  C  C25  1  0.35068800  0.14430300  0.39763300  1
  C  C26  1  0.50157900  0.29716800  0.75236700  1
  C  C27  1  0.50293400  0.70806400  0.25043900  1
  C  C28  1  0.65296000  0.85431000  0.60410200  1
  C  C29  1  0.65986200  0.14942800  0.10102800  1
  C  C30  1  0.84067100  0.64398100  0.89267100  1
  C  C31  1  0.83084700  0.35317600  0.39427600  1
  C  C32  1  0.00731500  0.57449300  0.89388700  1
  C  C33  1  0.00081400  0.41670100  0.39173700  1
  C  C34  1  0.07077300  0.09016300  0.66561400  1
  C  C35  1  0.06961200  0.90413100  0.16611600  1
  C  C36  1  0.13032400  0.29761000  0.81155200  1
  C  C37  1  0.12611000  0.70200200  0.31000800  1
  C  C38  1  0.13993300  0.81973000  0.59131500  1
  C  C39  1  0.13559700  0.17835000  0.09710000  1
  C  C40  1  0.25882600  0.60036400  0.70208200  1
  C  C41  1  0.24701700  0.94333200  0.98240000  1
  C  C42  1  0.25041600  0.59217100  0.50431700  1
  C  C43  1  0.24885100  0.40221600  0.21306900  1
  C  C44  1  0.25071700  0.05600300  0.47956800  1
  C  C45  1  0.26820000  0.90736700  0.78960100  1
  C  C46  1  0.26256200  0.40329800  0.01512300  1
  C  C47  1  0.27922000  0.09491600  0.28783100  1
  C  C48  1  0.33360400  0.67964400  0.90958800  1
  C  C49  1  0.34593200  0.32016500  0.41326200  1
  C  C50  1  0.38117500  0.20105400  0.68632000  1
  C  C51  1  0.38675800  0.80550700  0.18732800  1
  C  C52  1  0.42813700  0.40946500  0.83570000  1
  C  C53  1  0.43055500  0.60187200  0.33470200  1
  C  C54  1  0.47462900  0.90056800  0.59014900  1
  C  C55  1  0.47952500  0.10717400  0.09326600  1
  C  C56  1  0.52239200  0.89313600  0.90912500  1
  C  C57  1  0.52989000  0.10365400  0.41072000  1
  C  C58  1  0.57781200  0.40369300  0.66748500  1
  C  C59  1  0.57552600  0.59843900  0.16483800  1
  C  C60  1  0.61672700  0.19926900  0.81555200  1
  C  C61  1  0.62494000  0.80666200  0.31499800  1
  C  C62  1  0.64914900  0.67996200  0.58603400  1
  C  C63  1  0.66039800  0.32605000  0.08703700  1
  C  C64  1  0.72120700  0.89944400  0.71646000  1
  C  C65  1  0.73680400  0.59688900  0.98604600  1
  C  C66  1  0.74363900  0.09925100  0.20400700  1
  C  C67  1  0.75711600  0.94511500  0.52757000  1
  C  C68  1  0.74741800  0.60280300  0.78856100  1
  C  C69  1  0.73792600  0.39785300  0.49450300  1
  C  C70  1  0.75198000  0.06439300  0.01250200  1
  C  C71  1  0.73112500  0.39770100  0.29637300  1
  C  C72  1  0.86569700  0.82214400  0.90605900  1
  C  C73  1  0.85410000  0.17393500  0.40327400  1
  C  C74  1  0.87336300  0.28939200  0.69001900  1
  C  C75  1  0.87113800  0.70214500  0.18813800  1
  C  C76  1  0.93523600  0.09217700  0.83564800  1
  C  C77  1  0.93164900  0.90690800  0.33606000  1
  C  C78  1  0.98765700  0.57750500  0.60634700  1
  C  C79  1  0.98995700  0.42326000  0.10557400  1
