# generated using pymatgen
data_Cu2NiC
_symmetry_space_group_name_H-M   'P 1'
_cell_length_a   4.89273100
_cell_length_b   8.09643106
_cell_length_c   8.31718371
_cell_angle_alpha   108.86120534
_cell_angle_beta   90.00000000
_cell_angle_gamma   90.00000000
_symmetry_Int_Tables_number   1
_chemical_formula_structural   Cu2NiC
_chemical_formula_sum   'Cu16 Ni8 C8'
_cell_volume   311.78279396
_cell_formula_units_Z   8
loop_
 _symmetry_equiv_pos_site_id
 _symmetry_equiv_pos_as_xyz
  1  'x, y, z'
loop_
 _atom_site_type_symbol
 _atom_site_label
 _atom_site_symmetry_multiplicity
 _atom_site_fract_x
 _atom_site_fract_y
 _atom_site_fract_z
 _atom_site_occupancy
  C  C0  1  0.71178900  0.31813800  0.26437300  1
  C  C1  1  0.71178900  0.68186200  0.23562700  1
  C  C2  1  0.28821100  0.68186200  0.73562700  1
  C  C3  1  0.28821100  0.31813800  0.76437300  1
  C  C4  1  0.80742700  0.18178100  0.87814300  1
  C  C5  1  0.80742700  0.81821900  0.62185700  1
  C  C6  1  0.19257300  0.81821900  0.12185700  1
  C  C7  1  0.19257300  0.18178100  0.37814300  1
  Ni  Ni8  1  0.30120200  0.45520100  0.36928200  1
  Ni  Ni9  1  0.30120200  0.54479900  0.13071800  1
  Ni  Ni10  1  0.69879800  0.54479900  0.63071800  1
  Ni  Ni11  1  0.69879800  0.45520100  0.86928200  1
  Ni  Ni12  1  0.68982500  0.04381600  0.06844400  1
  Ni  Ni13  1  0.68982500  0.95618400  0.43155600  1
  Ni  Ni14  1  0.31017500  0.95618400  0.93155600  1
  Ni  Ni15  1  0.31017500  0.04381600  0.56844400  1
  Cu  Cu16  1  0.79946000  0.50000000  0.25000000  1
  Cu  Cu17  1  0.20054000  0.50000000  0.75000000  1
  Cu  Cu18  1  0.71926700  0.16910400  0.06919000  1
  Cu  Cu19  1  0.71926700  0.83089600  0.43081000  1
  Cu  Cu20  1  0.28073300  0.83089600  0.93081000  1
  Cu  Cu21  1  0.28073300  0.16910400  0.56919000  1
  Cu  Cu22  1  0.38645400  0.33383900  0.33541700  1
  Cu  Cu23  1  0.38645400  0.66616100  0.16458300  1
  Cu  Cu24  1  0.61354600  0.66616100  0.66458300  1
  Cu  Cu25  1  0.61354600  0.33383900  0.83541700  1
  Cu  Cu26  1  0.71647600  0.00000000  0.75000000  1
  Cu  Cu27  1  0.28352400  0.00000000  0.25000000  1
  Cu  Cu28  1  0.88235500  0.24570800  0.39096900  1
  Cu  Cu29  1  0.88235500  0.75429200  0.10903100  1
  Cu  Cu30  1  0.11764500  0.75429200  0.60903100  1
  Cu  Cu31  1  0.11764500  0.24570800  0.89096900  1
