# generated using pymatgen
data_Cu(NiC3)2
_symmetry_space_group_name_H-M   'P 1'
_cell_length_a   3.42275631
_cell_length_b   3.42275631
_cell_length_c   31.60515900
_cell_angle_alpha   90.00000000
_cell_angle_beta   90.00000000
_cell_angle_gamma   120.00000591
_symmetry_Int_Tables_number   1
_chemical_formula_structural   Cu(NiC3)2
_chemical_formula_sum   'Cu1 Ni2 C6'
_cell_volume   320.65686617
_cell_formula_units_Z   1
loop_
 _symmetry_equiv_pos_site_id
 _symmetry_equiv_pos_as_xyz
  1  'x, y, z'
loop_
 _atom_site_type_symbol
 _atom_site_label
 _atom_site_symmetry_multiplicity
 _atom_site_fract_x
 _atom_site_fract_y
 _atom_site_fract_z
 _atom_site_occupancy
  C  C0  1  0.66666700  0.33333300  0.70984100  1
  C  C1  1  0.66666700  0.33333300  0.17247400  1
  C  C2  1  0.66666700  0.33333300  0.82752600  1
  C  C3  1  0.66666700  0.33333300  0.29015900  1
  Ni  Ni4  1  0.33333300  0.66666700  0.76868300  1
  Ni  Ni5  1  0.33333300  0.66666700  0.23131700  1
  Cu  Cu6  1  0.66666700  0.33333300  0.00000000  1
  C  C7  1  0.33333300  0.66666700  0.04750900  1
  C  C8  1  0.33333300  0.66666700  0.95249100  1
