# generated using pymatgen
data_Cu4NiC2
_symmetry_space_group_name_H-M   'P 1'
_cell_length_a   5.56518600
_cell_length_b   9.39143700
_cell_length_c   9.48580600
_cell_angle_alpha   90.00000000
_cell_angle_beta   90.00000000
_cell_angle_gamma   90.00000000
_symmetry_Int_Tables_number   1
_chemical_formula_structural   Cu4NiC2
_chemical_formula_sum   'Cu16 Ni4 C8'
_cell_volume   495.77653953
_cell_formula_units_Z   4
loop_
 _symmetry_equiv_pos_site_id
 _symmetry_equiv_pos_as_xyz
  1  'x, y, z'
loop_
 _atom_site_type_symbol
 _atom_site_label
 _atom_site_symmetry_multiplicity
 _atom_site_fract_x
 _atom_site_fract_y
 _atom_site_fract_z
 _atom_site_occupancy
  C  C0  1  0.99619000  0.31919000  0.40105300  1
  C  C1  1  0.49619000  0.68081000  0.59894700  1
  C  C2  1  0.99619000  0.81919000  0.09894700  1
  C  C3  1  0.49619000  0.18081000  0.90105300  1
  C  C4  1  0.00119100  0.18323600  0.08212000  1
  C  C5  1  0.50119100  0.81676400  0.91788000  1
  C  C6  1  0.00119100  0.68323600  0.41788000  1
  C  C7  1  0.50119100  0.31676400  0.58212000  1
  Ni  Ni8  1  0.49490200  0.00399900  0.29376500  1
  Ni  Ni9  1  0.99490200  0.99600100  0.70623500  1
  Ni  Ni10  1  0.49490200  0.50399900  0.20623500  1
  Ni  Ni11  1  0.99490200  0.49600100  0.79376500  1
  Cu  Cu12  1  0.32736000  0.29985500  0.46429500  1
  Cu  Cu13  1  0.82736000  0.70014500  0.53570500  1
  Cu  Cu14  1  0.32736000  0.79985500  0.03570500  1
  Cu  Cu15  1  0.82736000  0.20014500  0.96429500  1
  Cu  Cu16  1  0.41968200  0.24041200  0.70862800  1
  Cu  Cu17  1  0.91968200  0.75958800  0.29137200  1
  Cu  Cu18  1  0.41968200  0.74041200  0.79137200  1
  Cu  Cu19  1  0.91968200  0.25958800  0.20862800  1
  Cu  Cu20  1  0.24196900  0.23152600  0.03783200  1
  Cu  Cu21  1  0.74196900  0.76847400  0.96216800  1
  Cu  Cu22  1  0.24196900  0.73152600  0.46216800  1
  Cu  Cu23  1  0.74196900  0.26847400  0.53783200  1
  Cu  Cu24  1  0.01530500  0.02876700  0.11905000  1
  Cu  Cu25  1  0.51530500  0.97123300  0.88095000  1
  Cu  Cu26  1  0.01530500  0.52876700  0.38095000  1
  Cu  Cu27  1  0.51530500  0.47123300  0.61905000  1
