# generated using pymatgen
data_Cu3Ni27C19
_symmetry_space_group_name_H-M   'P 1'
_cell_length_a   16.27389772
_cell_length_b   16.27389772
_cell_length_c   16.27389777
_cell_angle_alpha   114.00550813
_cell_angle_beta   114.00550813
_cell_angle_gamma   114.00550724
_symmetry_Int_Tables_number   1
_chemical_formula_structural   Cu3Ni27C19
_chemical_formula_sum   'Cu6 Ni54 C38'
_cell_volume   2617.46338507
_cell_formula_units_Z   2
loop_
 _symmetry_equiv_pos_site_id
 _symmetry_equiv_pos_as_xyz
  1  'x, y, z'
loop_
 _atom_site_type_symbol
 _atom_site_label
 _atom_site_symmetry_multiplicity
 _atom_site_fract_x
 _atom_site_fract_y
 _atom_site_fract_z
 _atom_site_occupancy
  C  C0  1  0.96425000  0.01526200  0.25914600  1
  C  C1  1  0.29836200  0.35732500  0.58961100  1
  C  C2  1  0.63983600  0.69322400  0.93401000  1
  C  C3  1  0.69322400  0.93401000  0.63983600  1
  C  C4  1  0.01526200  0.25914600  0.96425000  1
  C  C5  1  0.35732500  0.58961100  0.29836200  1
  C  C6  1  0.58961100  0.29836200  0.35732500  1
  C  C7  1  0.93401000  0.63983600  0.69322400  1
  C  C8  1  0.25914600  0.96425000  0.01526200  1
  C  C9  1  0.37117600  0.31837800  0.07693000  1
  C  C10  1  0.69512200  0.64420800  0.40162900  1
  C  C11  1  0.03161500  0.97274800  0.74079400  1
  C  C12  1  0.64420800  0.40162900  0.69512200  1
  C  C13  1  0.97274800  0.74079400  0.03161500  1
  C  C14  1  0.31837800  0.07693000  0.37117600  1
  C  C15  1  0.74079400  0.03161500  0.97274800  1
  C  C16  1  0.07693000  0.37117600  0.31837800  1
  C  C17  1  0.40162900  0.69512200  0.64420800  1
  C  C18  1  0.15579100  0.15579100  0.15579100  1
  C  C19  1  0.65150600  0.65150600  0.65150600  1
  C  C20  1  0.16191900  0.04168200  0.55385600  1
  C  C21  1  0.82807600  0.70707600  0.21968000  1
  C  C22  1  0.49158800  0.37161200  0.88203300  1
  C  C23  1  0.37161200  0.88203300  0.49158800  1
  C  C24  1  0.04168200  0.55385600  0.16191900  1
  C  C25  1  0.70707600  0.21968000  0.82807600  1
  C  C26  1  0.21968000  0.82807600  0.70707600  1
  C  C27  1  0.88203300  0.49158800  0.37161200  1
  C  C28  1  0.55385600  0.16191900  0.04168200  1
  C  C29  1  0.50575500  0.62698600  0.11446200  1
  C  C30  1  0.17376400  0.29347700  0.78248300  1
  C  C31  1  0.84308800  0.96378900  0.45291200  1
  C  C32  1  0.29347700  0.78248300  0.17376400  1
  C  C33  1  0.96378900  0.45291200  0.84308800  1
  C  C34  1  0.62698600  0.11446200  0.50575500  1
  C  C35  1  0.45291200  0.84308800  0.96378900  1
  C  C36  1  0.11446200  0.50575500  0.62698600  1
  C  C37  1  0.78248300  0.17376400  0.29347700  1
  Ni  Ni38  1  0.53680900  0.51638300  0.70241000  1
  Ni  Ni39  1  0.86970000  0.85187800  0.03437300  1
  Ni  Ni40  1  0.20023000  0.18105400  0.36196900  1
  Ni  Ni41  1  0.85187800  0.03437300  0.86970000  1
  Ni  Ni42  1  0.18105400  0.36196900  0.20023000  1
  Ni  Ni43  1  0.51638300  0.70241000  0.53680900  1
  Ni  Ni44  1  0.36196900  0.20023000  0.18105400  1
  Ni  Ni45  1  0.70241000  0.53680900  0.51638300  1
  Ni  Ni46  1  0.03437300  0.86970000  0.85187800  1
  Ni  Ni47  1  0.79393300  0.81361800  0.63398700  1
  Ni  Ni48  1  0.13285400  0.15308200  0.96760000  1
  Ni  Ni49  1  0.46684900  0.48493200  0.30268000  1
  Ni  Ni50  1  0.48493200  0.30268000  0.46684900  1
  Ni  Ni51  1  0.81361800  0.63398700  0.79393300  1
  Ni  Ni52  1  0.15308200  0.96760000  0.13285400  1
  Ni  Ni53  1  0.96760000  0.13285400  0.15308200  1
  Ni  Ni54  1  0.30268000  0.46684900  0.48493200  1
  Ni  Ni55  1  0.63398700  0.79393300  0.81361800  1
  Ni  Ni56  1  0.07799600  0.14647900  0.53290000  1
  Ni  Ni57  1  0.40613900  0.47531600  0.86253200  1
  Ni  Ni58  1  0.74327200  0.81098000  0.19808000  1
  Ni  Ni59  1  0.81098000  0.19808000  0.74327200  1
  Ni  Ni60  1  0.14647900  0.53290000  0.07799600  1
  Ni  Ni61  1  0.47531600  0.86253200  0.40613900  1
  Ni  Ni62  1  0.86253200  0.40613900  0.47531600  1
  Ni  Ni63  1  0.19808000  0.74327200  0.81098000  1
  Ni  Ni64  1  0.53290000  0.07799600  0.14647900  1
  Ni  Ni65  1  0.25667700  0.18788700  0.80266300  1
  Ni  Ni66  1  0.59005100  0.52239500  0.13529800  1
  Ni  Ni67  1  0.92675300  0.85846800  0.47128500  1
  Ni  Ni68  1  0.52239500  0.13529800  0.59005100  1
  Ni  Ni69  1  0.85846800  0.47128500  0.92675300  1
  Ni  Ni70  1  0.18788700  0.80266300  0.25667700  1
  Ni  Ni71  1  0.47128500  0.92675300  0.85846800  1
  Ni  Ni72  1  0.80266300  0.25667700  0.18788700  1
  Ni  Ni73  1  0.13529800  0.59005100  0.52239500  1
  Ni  Ni74  1  0.37151500  0.24224200  0.63492900  1
  Ni  Ni75  1  0.70574200  0.57494700  0.97156200  1
  Ni  Ni76  1  0.04025600  0.90775800  0.30516600  1
  Ni  Ni77  1  0.57494700  0.97156200  0.70574200  1
  Ni  Ni78  1  0.90775800  0.30516600  0.04025600  1
  Ni  Ni79  1  0.24224200  0.63492900  0.37151500  1
  Ni  Ni80  1  0.30516600  0.04025600  0.90775800  1
  Ni  Ni81  1  0.63492900  0.37151500  0.24224200  1
  Ni  Ni82  1  0.97156200  0.70574200  0.57494700  1
  Ni  Ni83  1  0.95956100  0.08891700  0.69681600  1
  Ni  Ni84  1  0.29524700  0.42682100  0.03075800  1
  Ni  Ni85  1  0.62843800  0.76071400  0.36333800  1
  Ni  Ni86  1  0.76071400  0.36333800  0.62843800  1
  Ni  Ni87  1  0.08891700  0.69681600  0.95956100  1
  Ni  Ni88  1  0.42682100  0.03075800  0.29524700  1
  Ni  Ni89  1  0.03075800  0.29524700  0.42682100  1
  Ni  Ni90  1  0.36333800  0.62843800  0.76071400  1
  Ni  Ni91  1  0.69681600  0.95956100  0.08891700  1
  Cu  Cu92  1  0.91791400  0.25104200  0.58432200  1
  Cu  Cu93  1  0.25104200  0.58432200  0.91791400  1
  Cu  Cu94  1  0.58432200  0.91791400  0.25104200  1
  Cu  Cu95  1  0.41915400  0.08597300  0.75269300  1
  Cu  Cu96  1  0.75269300  0.41915400  0.08597300  1
  Cu  Cu97  1  0.08597300  0.75269300  0.41915400  1
