# generated using pymatgen
data_Cu2Ni2C9
_symmetry_space_group_name_H-M   'P 1'
_cell_length_a   5.41742900
_cell_length_b   9.24882800
_cell_length_c   12.16213600
_cell_angle_alpha   90.00000000
_cell_angle_beta   90.00000000
_cell_angle_gamma   90.00000000
_symmetry_Int_Tables_number   1
_chemical_formula_structural   Cu2Ni2C9
_chemical_formula_sum   'Cu8 Ni8 C36'
_cell_volume   609.38223132
_cell_formula_units_Z   4
loop_
 _symmetry_equiv_pos_site_id
 _symmetry_equiv_pos_as_xyz
  1  'x, y, z'
loop_
 _atom_site_type_symbol
 _atom_site_label
 _atom_site_symmetry_multiplicity
 _atom_site_fract_x
 _atom_site_fract_y
 _atom_site_fract_z
 _atom_site_occupancy
  C  C0  1  0.25000000  0.72368400  0.09521700  1
  C  C1  1  0.25000000  0.77631600  0.59521700  1
  C  C2  1  0.75000000  0.27631600  0.90478300  1
  C  C3  1  0.75000000  0.22368400  0.40478300  1
  C  C4  1  0.25000000  0.17568400  0.72188800  1
  C  C5  1  0.25000000  0.32431600  0.22188800  1
  C  C6  1  0.75000000  0.82431600  0.27811200  1
  C  C7  1  0.75000000  0.67568400  0.77811200  1
  C  C8  1  0.25000000  0.86464600  0.83993300  1
  C  C9  1  0.25000000  0.63535400  0.33993300  1
  C  C10  1  0.75000000  0.13535400  0.16006700  1
  C  C11  1  0.75000000  0.36464600  0.66006700  1
  Ni  Ni12  1  0.75000000  0.87635500  0.98223900  1
  Ni  Ni13  1  0.75000000  0.62364500  0.48223900  1
  Ni  Ni14  1  0.25000000  0.12364500  0.01776100  1
  Ni  Ni15  1  0.25000000  0.37635500  0.51776100  1
  Ni  Ni16  1  0.25000000  0.49956300  0.81379900  1
  Ni  Ni17  1  0.25000000  0.00043700  0.31379900  1
  Ni  Ni18  1  0.75000000  0.50043700  0.18620100  1
  Ni  Ni19  1  0.75000000  0.99956300  0.68620100  1
  Cu  Cu20  1  0.25000000  0.50602200  0.93021800  1
  Cu  Cu21  1  0.25000000  0.99397800  0.43021800  1
  Cu  Cu22  1  0.75000000  0.49397800  0.06978200  1
  Cu  Cu23  1  0.75000000  0.00602200  0.56978200  1
  Cu  Cu24  1  0.75000000  0.00312800  0.91865500  1
  Cu  Cu25  1  0.75000000  0.49687200  0.41865500  1
  Cu  Cu26  1  0.25000000  0.99687200  0.08134500  1
  Cu  Cu27  1  0.25000000  0.50312800  0.58134500  1
  C  C28  1  0.98295900  0.79072000  0.94920200  1
  C  C29  1  0.51704100  0.70928000  0.44920200  1
  C  C30  1  0.48295900  0.20928000  0.05079800  1
  C  C31  1  0.01704100  0.29072000  0.55079800  1
  C  C32  1  0.01704100  0.20928000  0.05079800  1
  C  C33  1  0.48295900  0.29072000  0.55079800  1
  C  C34  1  0.51704100  0.79072000  0.94920200  1
  C  C35  1  0.98295900  0.70928000  0.44920200  1
  C  C36  1  0.25000000  0.65538600  0.76996600  1
  C  C37  1  0.25000000  0.84461400  0.26996600  1
  C  C38  1  0.75000000  0.34461400  0.23003400  1
  C  C39  1  0.75000000  0.15538600  0.73003400  1
  C  C40  1  0.98738100  0.91633600  0.71551200  1
  C  C41  1  0.51261900  0.58366400  0.21551200  1
  C  C42  1  0.48738100  0.08366400  0.28448800  1
  C  C43  1  0.01261900  0.41633600  0.78448800  1
  C  C44  1  0.01261900  0.08366400  0.28448800  1
  C  C45  1  0.48738100  0.41633600  0.78448800  1
  C  C46  1  0.51261900  0.91633600  0.71551200  1
  C  C47  1  0.98738100  0.58366400  0.21551200  1
  C  C48  1  0.25000000  0.07786600  0.89629000  1
  C  C49  1  0.25000000  0.42213400  0.39629000  1
  C  C50  1  0.75000000  0.92213400  0.10371000  1
  C  C51  1  0.75000000  0.57786600  0.60371000  1
