# generated using pymatgen
data_Cu16NiC2
_symmetry_space_group_name_H-M   'P 1'
_cell_length_a   6.88850171
_cell_length_b   6.88850171
_cell_length_c   6.88850128
_cell_angle_alpha   82.93859848
_cell_angle_beta   82.93859848
_cell_angle_gamma   82.93859324
_symmetry_Int_Tables_number   1
_chemical_formula_structural   Cu16NiC2
_chemical_formula_sum   'Cu16 Ni1 C2'
_cell_volume   319.99465594
_cell_formula_units_Z   1
loop_
 _symmetry_equiv_pos_site_id
 _symmetry_equiv_pos_as_xyz
  1  'x, y, z'
loop_
 _atom_site_type_symbol
 _atom_site_label
 _atom_site_symmetry_multiplicity
 _atom_site_fract_x
 _atom_site_fract_y
 _atom_site_fract_z
 _atom_site_occupancy
  C  C0  1  0.66320200  0.66320200  0.66320200  1
  C  C1  1  0.33709500  0.33709500  0.33709500  1
  Ni  Ni2  1  0.09975800  0.09975800  0.09975800  1
  Cu  Cu3  1  0.34839300  0.84011200  0.34839300  1
  Cu  Cu4  1  0.34839300  0.34839300  0.84011200  1
  Cu  Cu5  1  0.84011200  0.34839300  0.34839300  1
  Cu  Cu6  1  0.65177500  0.16036000  0.65177500  1
  Cu  Cu7  1  0.65177500  0.65177500  0.16036000  1
  Cu  Cu8  1  0.16036000  0.65177500  0.65177500  1
  Cu  Cu9  1  0.29764600  0.70210800  0.00008300  1
  Cu  Cu10  1  0.00008300  0.29764600  0.70210800  1
  Cu  Cu11  1  0.70210800  0.00008300  0.29764600  1
  Cu  Cu12  1  0.00008300  0.70210800  0.29764600  1
  Cu  Cu13  1  0.29764600  0.00008300  0.70210800  1
  Cu  Cu14  1  0.70210800  0.29764600  0.00008300  1
  Cu  Cu15  1  0.99994400  0.99994400  0.50082200  1
  Cu  Cu16  1  0.50082200  0.99994400  0.99994400  1
  Cu  Cu17  1  0.99994400  0.50082200  0.99994400  1
  Cu  Cu18  1  0.89875400  0.89875400  0.89875400  1
