# generated using pymatgen
data_CuNiC8
_symmetry_space_group_name_H-M   'P 1'
_cell_length_a   8.47632255
_cell_length_b   8.46621624
_cell_length_c   8.47824276
_cell_angle_alpha   90.00000000
_cell_angle_beta   90.00000000
_cell_angle_gamma   90.00000000
_symmetry_Int_Tables_number   1
_chemical_formula_structural   CuNiC8
_chemical_formula_sum   'Cu4 Ni4 C32'
_cell_volume   608.41887552
_cell_formula_units_Z   4
loop_
 _symmetry_equiv_pos_site_id
 _symmetry_equiv_pos_as_xyz
  1  'x, y, z'
loop_
 _atom_site_type_symbol
 _atom_site_label
 _atom_site_symmetry_multiplicity
 _atom_site_fract_x
 _atom_site_fract_y
 _atom_site_fract_z
 _atom_site_occupancy
  C  C0  1  0.00000000  0.50000000  0.50000000  1
  C  C1  1  0.50000000  0.00000000  -0.00000000  1
  C  C2  1  0.00000000  0.50000000  -0.00000000  1
  C  C3  1  0.00000000  0.00000000  0.50000000  1
  Ni  Ni4  1  0.50000000  0.00000000  0.50000000  1
  Ni  Ni5  1  0.50000000  0.50000000  -0.00000000  1
  Ni  Ni6  1  0.00000000  0.00000000  -0.00000000  1
  Ni  Ni7  1  0.50000000  0.50000000  0.50000000  1
  Cu  Cu8  1  0.25225620  0.25033148  0.24992639  1
  Cu  Cu9  1  0.74774380  0.74966852  0.24992639  1
  Cu  Cu10  1  0.74774380  0.25033148  0.75007361  1
  Cu  Cu11  1  0.25225620  0.74966852  0.75007361  1
  C  C12  1  0.74743486  0.74970143  0.75018980  1
  C  C13  1  0.25256514  0.25029857  0.75018980  1
  C  C14  1  0.25256514  0.74970143  0.24981020  1
  C  C15  1  0.74743486  0.25029857  0.24981020  1
  C  C16  1  0.99274748  0.20555786  0.28642257  1
  C  C17  1  0.00725252  0.79444214  0.28642257  1
  C  C18  1  0.00725252  0.20555786  0.71357743  1
  C  C19  1  0.99274748  0.79444214  0.71357743  1
  C  C20  1  0.28649898  0.99351702  0.20327111  1
  C  C21  1  0.28649898  0.00648298  0.79672889  1
  C  C22  1  0.71350102  0.00648298  0.20327111  1
  C  C23  1  0.71350102  0.99351702  0.79672889  1
  C  C24  1  0.20260997  0.28396180  0.99347354  1
  C  C25  1  0.79739003  0.28396180  0.00652646  1
  C  C26  1  0.20260997  0.71603820  0.00652646  1
  C  C27  1  0.79739003  0.71603820  0.99347354  1
  C  C28  1  0.50678010  0.30593043  0.20411682  1
  C  C29  1  0.49321990  0.69406957  0.20411682  1
  C  C30  1  0.49321990  0.30593043  0.79588318  1
  C  C31  1  0.50678010  0.69406957  0.79588318  1
  C  C32  1  0.21515701  0.50684367  0.29988608  1
  C  C33  1  0.21515701  0.49315633  0.70011392  1
  C  C34  1  0.78484299  0.49315633  0.29988608  1
  C  C35  1  0.78484299  0.50684367  0.70011392  1
  C  C36  1  0.30762226  0.20652330  0.50757926  1
  C  C37  1  0.69237774  0.20652330  0.49242074  1
  C  C38  1  0.30762226  0.79347670  0.49242074  1
  C  C39  1  0.69237774  0.79347670  0.50757926  1
