# generated using pymatgen
data_Cu2NiC34
_symmetry_space_group_name_H-M   'P 1'
_cell_length_a   9.61557702
_cell_length_b   8.46068651
_cell_length_c   9.05473056
_cell_angle_alpha   60.66651144
_cell_angle_beta   51.90236324
_cell_angle_gamma   57.93444132
_symmetry_Int_Tables_number   1
_chemical_formula_structural   Cu2NiC34
_chemical_formula_sum   'Cu2 Ni1 C34'
_cell_volume   476.49277649
_cell_formula_units_Z   1
loop_
 _symmetry_equiv_pos_site_id
 _symmetry_equiv_pos_as_xyz
  1  'x, y, z'
loop_
 _atom_site_type_symbol
 _atom_site_label
 _atom_site_symmetry_multiplicity
 _atom_site_fract_x
 _atom_site_fract_y
 _atom_site_fract_z
 _atom_site_occupancy
  C  C0  1  0.12081100  0.62528100  0.72571200  1
  C  C1  1  0.87246100  0.63580600  0.64760600  1
  C  C2  1  0.42349400  0.86819400  0.87743000  1
  C  C3  1  0.97412500  0.36566000  0.38830400  1
  Ni  Ni4  1  0.57231800  0.14239000  0.12382000  1
  Cu  Cu5  1  0.00282300  0.00031800  0.99035800  1
  Cu  Cu6  1  0.52095600  0.48502200  0.49329900  1
  C  C7  1  0.26035000  0.25573200  0.56930500  1
  C  C8  1  0.29088300  0.92605500  0.28758100  1
  C  C9  1  0.27805900  0.53859000  0.96506800  1
  C  C10  1  0.74907800  0.45296400  0.03024100  1
  C  C11  1  0.73099800  0.05300300  0.72279600  1
  C  C12  1  0.73276300  0.76660100  0.40499400  1
  C  C13  1  0.12762300  0.08761300  0.38145100  1
  C  C14  1  0.09153300  0.50461200  0.08928000  1
  C  C15  1  0.07477300  0.36115300  0.56190800  1
  C  C16  1  0.22883500  0.08934100  0.75807800  1
  C  C17  1  0.42241600  0.18175100  0.38377500  1
  C  C18  1  0.31239600  0.39250000  0.58339700  1
  C  C19  1  0.27057100  0.89815400  0.14584600  1
  C  C20  1  0.31305000  0.73644100  0.44736600  1
  C  C21  1  0.62920600  0.60909500  0.92966200  1
  C  C22  1  0.34509700  0.54714200  0.75548700  1
  C  C23  1  0.77475300  0.25323600  0.02801100  1
  C  C24  1  0.54051900  0.03623400  0.80802000  1
  C  C25  1  0.47748400  0.96927900  0.17617700  1
  C  C26  1  0.24458200  0.74297900  0.96513300  1
  C  C27  1  0.66614500  0.45199600  0.23568600  1
  C  C28  1  0.42712900  0.38578300  0.02702400  1
  C  C29  1  0.73582600  0.23922600  0.55398100  1
  C  C30  1  0.74624600  0.08805300  0.86629200  1
  C  C31  1  0.69451300  0.60472100  0.41487200  1
  C  C32  1  0.59710100  0.83478500  0.59229900  1
  C  C33  1  0.75419200  0.92531400  0.21071300  1
  C  C34  1  0.93296800  0.68080300  0.37454700  1
  C  C35  1  0.94282600  0.47980400  0.89442100  1
  C  C36  1  0.89453200  0.86294200  0.66862900  1
