# generated using pymatgen
data_CuNiC
_symmetry_space_group_name_H-M   'P 1'
_cell_length_a   4.37578500
_cell_length_b   7.44047400
_cell_length_c   21.10242100
_cell_angle_alpha   90.00000000
_cell_angle_beta   90.00000000
_cell_angle_gamma   90.00000000
_symmetry_Int_Tables_number   1
_chemical_formula_structural   CuNiC
_chemical_formula_sum   'Cu12 Ni12 C12'
_cell_volume   687.05081913
_cell_formula_units_Z   12
loop_
 _symmetry_equiv_pos_site_id
 _symmetry_equiv_pos_as_xyz
  1  'x, y, z'
loop_
 _atom_site_type_symbol
 _atom_site_label
 _atom_site_symmetry_multiplicity
 _atom_site_fract_x
 _atom_site_fract_y
 _atom_site_fract_z
 _atom_site_occupancy
  C  C0  1  0.25000000  0.70653400  0.33283100  1
  C  C1  1  0.75000000  0.29346600  0.66716900  1
  C  C2  1  0.75000000  0.20653400  0.16716900  1
  C  C3  1  0.25000000  0.79346600  0.83283100  1
  C  C4  1  0.25000000  0.79184400  0.16636900  1
  C  C5  1  0.75000000  0.20815600  0.83363100  1
  C  C6  1  0.75000000  0.29184400  0.33363100  1
  C  C7  1  0.25000000  0.70815600  0.66636900  1
  C  C8  1  0.25000000  0.71244100  0.00138500  1
  C  C9  1  0.75000000  0.28755900  0.99861500  1
  C  C10  1  0.75000000  0.21244100  0.49861500  1
  C  C11  1  0.25000000  0.78755900  0.50138500  1
  Ni  Ni12  1  0.25000000  0.08839500  0.07120600  1
  Ni  Ni13  1  0.75000000  0.91160500  0.92879400  1
  Ni  Ni14  1  0.75000000  0.58839500  0.42879400  1
  Ni  Ni15  1  0.25000000  0.41160500  0.57120600  1
  Ni  Ni16  1  0.25000000  0.08381800  0.27152300  1
  Ni  Ni17  1  0.75000000  0.91618200  0.72847700  1
  Ni  Ni18  1  0.75000000  0.58381800  0.22847700  1
  Ni  Ni19  1  0.25000000  0.41618200  0.77152300  1
  Ni  Ni20  1  0.25000000  0.08558200  0.39548200  1
  Ni  Ni21  1  0.75000000  0.91441800  0.60451800  1
  Ni  Ni22  1  0.75000000  0.58558200  0.10451800  1
  Ni  Ni23  1  0.25000000  0.41441800  0.89548200  1
  Cu  Cu24  1  0.25000000  0.41624700  0.23723700  1
  Cu  Cu25  1  0.75000000  0.58375300  0.76276300  1
  Cu  Cu26  1  0.75000000  0.91624700  0.26276300  1
  Cu  Cu27  1  0.25000000  0.08375300  0.73723700  1
  Cu  Cu28  1  0.25000000  0.41698700  0.43658900  1
  Cu  Cu29  1  0.75000000  0.58301300  0.56341100  1
  Cu  Cu30  1  0.75000000  0.91698700  0.06341100  1
  Cu  Cu31  1  0.25000000  0.08301300  0.93658900  1
  Cu  Cu32  1  0.25000000  0.41954000  0.09329800  1
  Cu  Cu33  1  0.75000000  0.58046000  0.90670200  1
  Cu  Cu34  1  0.75000000  0.91954000  0.40670200  1
  Cu  Cu35  1  0.25000000  0.08046000  0.59329800  1
