# generated using pymatgen
data_Cu(NiC6)4
_symmetry_space_group_name_H-M   'P 1'
_cell_length_a   5.39283445
_cell_length_b   8.65793010
_cell_length_c   9.47408485
_cell_angle_alpha   63.70410851
_cell_angle_beta   89.38138310
_cell_angle_gamma   74.23789199
_symmetry_Int_Tables_number   1
_chemical_formula_structural   Cu(NiC6)4
_chemical_formula_sum   'Cu1 Ni4 C24'
_cell_volume   378.57629757
_cell_formula_units_Z   1
loop_
 _symmetry_equiv_pos_site_id
 _symmetry_equiv_pos_as_xyz
  1  'x, y, z'
loop_
 _atom_site_type_symbol
 _atom_site_label
 _atom_site_symmetry_multiplicity
 _atom_site_fract_x
 _atom_site_fract_y
 _atom_site_fract_z
 _atom_site_occupancy
  C  C0  1  0.34041900  0.35663200  0.63683600  1
  C  C1  1  0.65958100  0.64336800  0.36316400  1
  C  C2  1  0.70295800  0.54821200  0.73591200  1
  C  C3  1  0.29704200  0.45178800  0.26408800  1
  C  C4  1  0.00000000  0.00000000  0.00000000  1
  C  C5  1  0.83265800  0.25301600  0.20632600  1
  C  C6  1  0.16734200  0.74698400  0.79367400  1
  C  C7  1  0.50000000  0.00000000  0.50000000  1
  Ni  Ni8  1  0.26016100  0.31087700  0.97910400  1
  Ni  Ni9  1  0.73983900  0.68912300  0.02089600  1
  Ni  Ni10  1  0.93516100  0.17583100  0.57400900  1
  Ni  Ni11  1  0.06483900  0.82416900  0.42599100  1
  Cu  Cu12  1  0.50000000  0.00000000  0.00000000  1
  C  C13  1  0.93093700  0.33125200  0.98947600  1
  C  C14  1  0.06906300  0.66874800  0.01052400  1
  C  C15  1  0.77122600  0.80025500  0.49772000  1
  C  C16  1  0.22877400  0.19974500  0.50228000  1
  C  C17  1  0.27668600  0.50280200  0.80946400  1
  C  C18  1  0.72331400  0.49719800  0.19053600  1
  C  C19  1  0.57485000  0.74231100  0.84793300  1
  C  C20  1  0.42515000  0.25768900  0.15206700  1
  C  C21  1  0.97542400  0.99114700  0.75527400  1
  C  C22  1  0.02457600  0.00885300  0.24472600  1
  C  C23  1  0.78576500  0.36426700  0.59435900  1
  C  C24  1  0.21423500  0.63573300  0.40564100  1
  C  C25  1  0.73791200  0.16127900  0.43419000  1
  C  C26  1  0.26208800  0.83872100  0.56581000  1
  C  C27  1  0.36961600  0.15067300  0.90933600  1
  C  C28  1  0.63038400  0.84932700  0.09066400  1
