# generated using pymatgen
data_CuNi5C6
_symmetry_space_group_name_H-M   'P 1'
_cell_length_a   8.99499000
_cell_length_b   9.21402600
_cell_length_c   12.27369500
_cell_angle_alpha   90.00000000
_cell_angle_beta   90.00000000
_cell_angle_gamma   90.00000000
_symmetry_Int_Tables_number   1
_chemical_formula_structural   CuNi5C6
_chemical_formula_sum   'Cu4 Ni20 C24'
_cell_volume   1017.24472199
_cell_formula_units_Z   4
loop_
 _symmetry_equiv_pos_site_id
 _symmetry_equiv_pos_as_xyz
  1  'x, y, z'
loop_
 _atom_site_type_symbol
 _atom_site_label
 _atom_site_symmetry_multiplicity
 _atom_site_fract_x
 _atom_site_fract_y
 _atom_site_fract_z
 _atom_site_occupancy
  C  C0  1  0.25000000  0.37586200  0.64837600  1
  C  C1  1  0.25000000  0.12413800  0.14837600  1
  C  C2  1  0.75000000  0.62413800  0.35162400  1
  C  C3  1  0.75000000  0.87586200  0.85162400  1
  C  C4  1  0.25000000  0.81839100  0.54390300  1
  C  C5  1  0.25000000  0.68160900  0.04390300  1
  C  C6  1  0.75000000  0.18160900  0.45609700  1
  C  C7  1  0.75000000  0.31839100  0.95609700  1
  Ni  Ni8  1  0.09017600  0.28162500  0.60825600  1
  Ni  Ni9  1  0.40982400  0.21837500  0.10825600  1
  Ni  Ni10  1  0.59017600  0.71837500  0.39174400  1
  Ni  Ni11  1  0.90982400  0.78162500  0.89174400  1
  Ni  Ni12  1  0.90982400  0.71837500  0.39174400  1
  Ni  Ni13  1  0.59017600  0.78162500  0.89174400  1
  Ni  Ni14  1  0.40982400  0.28162500  0.60825600  1
  Ni  Ni15  1  0.09017600  0.21837500  0.10825600  1
  Ni  Ni16  1  0.05266900  0.59423500  0.69686100  1
  Ni  Ni17  1  0.44733100  0.90576500  0.19686100  1
  Ni  Ni18  1  0.55266900  0.40576500  0.30313900  1
  Ni  Ni19  1  0.94733100  0.09423500  0.80313900  1
  Ni  Ni20  1  0.94733100  0.40576500  0.30313900  1
  Ni  Ni21  1  0.55266900  0.09423500  0.80313900  1
  Ni  Ni22  1  0.44733100  0.59423500  0.69686100  1
  Ni  Ni23  1  0.05266900  0.90576500  0.19686100  1
  Ni  Ni24  1  0.25000000  0.39263700  0.79145700  1
  Ni  Ni25  1  0.25000000  0.10736300  0.29145700  1
  Ni  Ni26  1  0.75000000  0.60736300  0.20854300  1
  Ni  Ni27  1  0.75000000  0.89263700  0.70854300  1
  Cu  Cu28  1  0.25000000  0.55156200  0.49039100  1
  Cu  Cu29  1  0.25000000  0.94843800  0.99039100  1
  Cu  Cu30  1  0.75000000  0.44843800  0.50960900  1
  Cu  Cu31  1  0.75000000  0.05156200  0.00960900  1
  C  C32  1  0.25000000  0.97749000  0.62192600  1
  C  C33  1  0.25000000  0.52251000  0.12192600  1
  C  C34  1  0.75000000  0.02251000  0.37807400  1
  C  C35  1  0.75000000  0.47749000  0.87807400  1
  C  C36  1  0.08278000  0.71570300  0.67312500  1
  C  C37  1  0.41722000  0.78429700  0.17312500  1
  C  C38  1  0.58278000  0.28429700  0.32687500  1
  C  C39  1  0.91722000  0.21570300  0.82687500  1
  C  C40  1  0.91722000  0.28429700  0.32687500  1
  C  C41  1  0.58278000  0.21570300  0.82687500  1
  C  C42  1  0.41722000  0.71570300  0.67312500  1
  C  C43  1  0.08278000  0.78429700  0.17312500  1
  C  C44  1  0.25000000  0.86539400  0.40595400  1
  C  C45  1  0.25000000  0.63460600  0.90595400  1
  C  C46  1  0.75000000  0.13460600  0.59404600  1
  C  C47  1  0.75000000  0.36539400  0.09404600  1
