# generated using pymatgen
data_Cu3NiC5
_symmetry_space_group_name_H-M   'P 1'
_cell_length_a   6.12838670
_cell_length_b   6.12838670
_cell_length_c   6.16099775
_cell_angle_alpha   68.85408637
_cell_angle_beta   68.85408637
_cell_angle_gamma   68.64567069
_symmetry_Int_Tables_number   1
_chemical_formula_structural   Cu3NiC5
_chemical_formula_sum   'Cu6 Ni2 C10'
_cell_volume   193.85781427
_cell_formula_units_Z   2
loop_
 _symmetry_equiv_pos_site_id
 _symmetry_equiv_pos_as_xyz
  1  'x, y, z'
loop_
 _atom_site_type_symbol
 _atom_site_label
 _atom_site_symmetry_multiplicity
 _atom_site_fract_x
 _atom_site_fract_y
 _atom_site_fract_z
 _atom_site_occupancy
  C  C0  1  0.00000000  0.00000000  0.50000000  1
  C  C1  1  0.00000000  0.00000000  0.00000000  1
  C  C2  1  0.50000000  0.00000000  0.50000000  1
  C  C3  1  0.00000000  0.50000000  0.50000000  1
  C  C4  1  0.27627700  0.67370500  0.77402500  1
  C  C5  1  0.67370500  0.27627700  0.77402500  1
  C  C6  1  0.72372300  0.32629500  0.22597500  1
  C  C7  1  0.32629500  0.72372300  0.22597500  1
  C  C8  1  0.73623200  0.73623200  0.82516800  1
  C  C9  1  0.26376800  0.26376800  0.17483200  1
  Ni  Ni10  1  0.31375600  0.31375600  0.81265000  1
  Ni  Ni11  1  0.68624400  0.68624400  0.18735000  1
  Cu  Cu12  1  0.23550300  0.85377300  0.73380500  1
  Cu  Cu13  1  0.85377300  0.23550300  0.73380500  1
  Cu  Cu14  1  0.76449700  0.14622700  0.26619500  1
  Cu  Cu15  1  0.14622700  0.76449700  0.26619500  1
  Cu  Cu16  1  0.77893200  0.77893200  0.64552800  1
  Cu  Cu17  1  0.22106800  0.22106800  0.35447200  1
