# generated using pymatgen
data_Cu5NiC36
_symmetry_space_group_name_H-M   'P 1'
_cell_length_a   7.36912350
_cell_length_b   7.80505503
_cell_length_c   10.18060752
_cell_angle_alpha   107.00914629
_cell_angle_beta   88.04875649
_cell_angle_gamma   94.84645360
_symmetry_Int_Tables_number   1
_chemical_formula_structural   Cu5NiC36
_chemical_formula_sum   'Cu5 Ni1 C36'
_cell_volume   557.91013328
_cell_formula_units_Z   1
loop_
 _symmetry_equiv_pos_site_id
 _symmetry_equiv_pos_as_xyz
  1  'x, y, z'
loop_
 _atom_site_type_symbol
 _atom_site_label
 _atom_site_symmetry_multiplicity
 _atom_site_fract_x
 _atom_site_fract_y
 _atom_site_fract_z
 _atom_site_occupancy
  Ni  Ni0  1  0.95280994  0.19869291  0.72471321  1
  Cu  Cu1  1  0.26737779  0.85644615  0.58557979  1
  Cu  Cu2  1  0.25065770  0.84413961  0.06135076  1
  Cu  Cu3  1  0.49438167  0.49798414  0.00195066  1
  Cu  Cu4  1  0.70864887  0.14840029  0.95743733  1
  Cu  Cu5  1  0.75238598  0.14784247  0.40307428  1
  C  C6  1  0.14798965  0.20571294  0.01963098  1
  C  C7  1  0.15837859  0.18313898  0.30043019  1
  C  C8  1  0.28877764  0.53535699  0.74115593  1
  C  C9  1  0.47504274  0.76676676  0.30776935  1
  C  C10  1  0.53716729  0.24466337  0.68883993  1
  C  C11  1  0.70342854  0.45654463  0.26054448  1
  C  C12  1  0.85736388  0.82848728  0.69516288  1
  C  C13  1  0.84041386  0.78083490  0.97483729  1
  C  C14  1  0.00846906  0.76919167  0.05951293  1
  C  C15  1  0.99545072  0.10727254  0.37544557  1
  C  C16  1  0.12293219  0.40563719  0.72533919  1
  C  C17  1  0.06029066  0.21565305  0.16699308  1
  C  C18  1  0.27933908  0.37179054  0.03361781  1
  C  C19  1  0.24872092  0.34999540  0.39193355  1
  C  C20  1  0.28455604  0.67622803  0.66404331  1
  C  C21  1  0.30251724  0.79529288  0.39954083  1
  C  C22  1  0.34286867  0.63230386  0.89368023  1
  C  C23  1  0.39651086  0.08959397  0.62997487  1
  C  C24  1  0.24707238  0.03043150  0.96704559  1
  C  C25  1  0.42085419  0.72067614  0.15325521  1
  C  C26  1  0.28323327  0.03122762  0.23375011  1
  C  C27  1  0.46266265  0.42487837  0.67438226  1
  C  C28  1  0.54424242  0.58931183  0.32513396  1
  C  C29  1  0.73815858  0.98655547  0.75746957  1
  C  C30  1  0.56736309  0.27894285  0.84446509  1
  C  C31  1  0.74076661  0.94946795  0.03489897  1
  C  C32  1  0.62180951  0.91804190  0.34931703  1
  C  C33  1  0.63630231  0.36607307  0.10820230  1
  C  C34  1  0.72364031  0.23058494  0.61132470  1
  C  C35  1  0.65967463  0.31057163  0.33515927  1
  C  C36  1  0.78515965  0.66819542  0.58896308  1
  C  C37  1  0.71481876  0.61016454  0.95849448  1
  C  C38  1  0.92786345  0.77256823  0.82759187  1
  C  C39  1  0.88663005  0.55149017  0.27266081  1
  C  C40  1  0.03557883  0.93698331  0.65426767  1
  C  C41  1  0.98750972  0.21169751  0.92855963  1
