# generated using pymatgen
data_Cu4NiC4
_symmetry_space_group_name_H-M   'P 1'
_cell_length_a   18.42966022
_cell_length_b   18.42966022
_cell_length_c   13.42008300
_cell_angle_alpha   90.00000000
_cell_angle_beta   90.00000000
_cell_angle_gamma   120.00000080
_symmetry_Int_Tables_number   1
_chemical_formula_structural   Cu4NiC4
_chemical_formula_sum   'Cu48 Ni12 C48'
_cell_volume   3947.48498659
_cell_formula_units_Z   12
loop_
 _symmetry_equiv_pos_site_id
 _symmetry_equiv_pos_as_xyz
  1  'x, y, z'
loop_
 _atom_site_type_symbol
 _atom_site_label
 _atom_site_symmetry_multiplicity
 _atom_site_fract_x
 _atom_site_fract_y
 _atom_site_fract_z
 _atom_site_occupancy
  Ni  Ni0  1  0.00000000  0.00000000  0.13026100  1
  Ni  Ni1  1  0.00000000  0.00000000  0.63026100  1
  Ni  Ni2  1  0.05483800  0.69391400  0.41254700  1
  Ni  Ni3  1  0.30608600  0.36092400  0.41254700  1
  Ni  Ni4  1  0.63907600  0.94516200  0.41254700  1
  Ni  Ni5  1  0.94516200  0.30608600  0.91254700  1
  Ni  Ni6  1  0.69391400  0.63907600  0.91254700  1
  Ni  Ni7  1  0.36092400  0.05483800  0.91254700  1
  Ni  Ni8  1  0.66666700  0.33333300  0.21897100  1
  Ni  Ni9  1  0.33333300  0.66666700  0.71897100  1
  Ni  Ni10  1  0.66666700  0.33333300  0.68766700  1
  Ni  Ni11  1  0.33333300  0.66666700  0.18766700  1
  Cu  Cu12  1  0.05110100  0.31566600  0.55046800  1
  Cu  Cu13  1  0.68433400  0.73543500  0.55046800  1
  Cu  Cu14  1  0.26456500  0.94889900  0.55046800  1
  Cu  Cu15  1  0.94889900  0.68433400  0.05046800  1
  Cu  Cu16  1  0.31566600  0.26456500  0.05046800  1
  Cu  Cu17  1  0.73543500  0.05110100  0.05046800  1
  Cu  Cu18  1  0.95825500  0.42413800  0.28158800  1
  Cu  Cu19  1  0.57586200  0.53411700  0.28158800  1
  Cu  Cu20  1  0.46588300  0.04174500  0.28158800  1
  Cu  Cu21  1  0.04174500  0.57586200  0.78158800  1
  Cu  Cu22  1  0.42413800  0.46588300  0.78158800  1
  Cu  Cu23  1  0.53411700  0.95825500  0.78158800  1
  Cu  Cu24  1  0.85787300  0.23116100  0.27285600  1
  Cu  Cu25  1  0.76883900  0.62671200  0.27285600  1
  Cu  Cu26  1  0.37328800  0.14212700  0.27285600  1
  Cu  Cu27  1  0.14212700  0.76883900  0.77285600  1
  Cu  Cu28  1  0.23116100  0.37328800  0.77285600  1
  Cu  Cu29  1  0.62671200  0.85787300  0.77285600  1
  Cu  Cu30  1  0.85608100  0.22387600  0.50251600  1
  Cu  Cu31  1  0.77612400  0.63220500  0.50251600  1
  Cu  Cu32  1  0.36779500  0.14391900  0.50251600  1
  Cu  Cu33  1  0.14391900  0.77612400  0.00251600  1
  Cu  Cu34  1  0.22387600  0.36779500  0.00251600  1
  Cu  Cu35  1  0.63220500  0.85608100  0.00251600  1
  Cu  Cu36  1  0.05398100  0.32626000  0.22992100  1
  Cu  Cu37  1  0.67374000  0.72772100  0.22992100  1
  Cu  Cu38  1  0.27227900  0.94601900  0.22992100  1
  Cu  Cu39  1  0.94601900  0.67374000  0.72992100  1
  Cu  Cu40  1  0.32626000  0.27227900  0.72992100  1
  Cu  Cu41  1  0.72772100  0.05398100  0.72992100  1
  Cu  Cu42  1  0.12468300  0.46016100  0.39583200  1
  Cu  Cu43  1  0.53983900  0.66452200  0.39583200  1
  Cu  Cu44  1  0.33547800  0.87531700  0.39583200  1
  Cu  Cu45  1  0.87531700  0.53983900  0.89583200  1
  Cu  Cu46  1  0.46016100  0.33547800  0.89583200  1
  Cu  Cu47  1  0.66452200  0.12468300  0.89583200  1
  Cu  Cu48  1  0.95713400  0.41688500  0.51229100  1
  Cu  Cu49  1  0.58311500  0.54024900  0.51229100  1
  Cu  Cu50  1  0.45975100  0.04286600  0.51229100  1
  Cu  Cu51  1  0.04286600  0.58311500  0.01229100  1
  Cu  Cu52  1  0.41688500  0.45975100  0.01229100  1
  Cu  Cu53  1  0.54024900  0.95713400  0.01229100  1
  Cu  Cu54  1  0.98059100  0.18219200  0.38409300  1
  Cu  Cu55  1  0.81780800  0.79840000  0.38409300  1
  Cu  Cu56  1  0.20160000  0.01940900  0.38409300  1
  Cu  Cu57  1  0.01940900  0.81780800  0.88409300  1
  Cu  Cu58  1  0.18219200  0.20160000  0.88409300  1
  Cu  Cu59  1  0.79840000  0.98059100  0.88409300  1
  C  C60  1  0.78063500  0.44227200  0.16590200  1
  C  C61  1  0.55772800  0.33836300  0.16590200  1
  C  C62  1  0.66163700  0.21936500  0.16590200  1
  C  C63  1  0.21936500  0.55772800  0.66590200  1
  C  C64  1  0.44227200  0.66163700  0.66590200  1
  C  C65  1  0.33836300  0.78063500  0.66590200  1
  C  C66  1  0.93025500  0.58376900  0.40418700  1
  C  C67  1  0.41623100  0.34648700  0.40418700  1
  C  C68  1  0.65351300  0.06974500  0.40418700  1
  C  C69  1  0.06974500  0.41623100  0.90418700  1
  C  C70  1  0.58376900  0.65351300  0.90418700  1
  C  C71  1  0.34648700  0.93025500  0.90418700  1
  C  C72  1  0.78138400  0.44110700  0.63488800  1
  C  C73  1  0.55889300  0.34027700  0.63488800  1
  C  C74  1  0.65972300  0.21861600  0.63488800  1
  C  C75  1  0.21861600  0.55889300  0.13488800  1
  C  C76  1  0.44110700  0.65972300  0.13488800  1
  C  C77  1  0.34027700  0.78138400  0.13488800  1
  C  C78  1  0.12976200  0.67607000  0.52269700  1
  C  C79  1  0.32393000  0.45369200  0.52269700  1
  C  C80  1  0.54630800  0.87023800  0.52269700  1
  C  C81  1  0.87023800  0.32393000  0.02269700  1
  C  C82  1  0.67607000  0.54630800  0.02269700  1
  C  C83  1  0.45369200  0.12976200  0.02269700  1
  C  C84  1  0.88377700  0.29004800  0.77029400  1
  C  C85  1  0.70995200  0.59372900  0.77029400  1
  C  C86  1  0.40627100  0.11622300  0.77029400  1
  C  C87  1  0.11622300  0.70995200  0.27029400  1
  C  C88  1  0.29004800  0.40627100  0.27029400  1
  C  C89  1  0.59372900  0.88377700  0.27029400  1
  C  C90  1  0.66666700  0.33333300  0.84865900  1
  C  C91  1  0.33333300  0.66666700  0.34865900  1
  C  C92  1  0.00000000  0.00000000  0.96848800  1
  C  C93  1  0.00000000  0.00000000  0.46848800  1
  C  C94  1  0.09841600  0.12001500  0.18365000  1
  C  C95  1  0.87998500  0.97840100  0.18365000  1
  C  C96  1  0.02159900  0.90158400  0.18365000  1
  C  C97  1  0.90158400  0.87998500  0.68365000  1
  C  C98  1  0.12001500  0.02159900  0.68365000  1
  C  C99  1  0.97840100  0.09841600  0.68365000  1
  C  C100  1  0.66666700  0.33333300  0.37854600  1
  C  C101  1  0.33333300  0.66666700  0.87854600  1
  C  C102  1  0.03909500  0.79824000  0.45259800  1
  C  C103  1  0.20176000  0.24085400  0.45259800  1
  C  C104  1  0.75914600  0.96090500  0.45259800  1
  C  C105  1  0.96090500  0.20176000  0.95259800  1
  C  C106  1  0.79824000  0.75914600  0.95259800  1
  C  C107  1  0.24085400  0.03909500  0.95259800  1
