# generated using pymatgen
data_Cu4NiC5
_symmetry_space_group_name_H-M   'P 1'
_cell_length_a   5.75554400
_cell_length_b   11.68845200
_cell_length_c   18.00063200
_cell_angle_alpha   90.00000000
_cell_angle_beta   90.00000000
_cell_angle_gamma   90.00000000
_symmetry_Int_Tables_number   1
_chemical_formula_structural   Cu4NiC5
_chemical_formula_sum   'Cu32 Ni8 C40'
_cell_volume   1210.96371279
_cell_formula_units_Z   8
loop_
 _symmetry_equiv_pos_site_id
 _symmetry_equiv_pos_as_xyz
  1  'x, y, z'
loop_
 _atom_site_type_symbol
 _atom_site_label
 _atom_site_symmetry_multiplicity
 _atom_site_fract_x
 _atom_site_fract_y
 _atom_site_fract_z
 _atom_site_occupancy
  C  C0  1  0.31101400  0.86900900  0.98535700  1
  C  C1  1  0.68898600  0.63099100  0.48535700  1
  C  C2  1  0.18898600  0.36900900  0.01464300  1
  C  C3  1  0.81101400  0.13099100  0.51464300  1
  C  C4  1  0.68898600  0.13099100  0.01464300  1
  C  C5  1  0.31101400  0.36900900  0.51464300  1
  C  C6  1  0.81101400  0.63099100  0.98535700  1
  C  C7  1  0.18898600  0.86900900  0.48535700  1
  C  C8  1  0.65568600  0.40017100  0.86586900  1
  C  C9  1  0.34431400  0.09982900  0.36586900  1
  C  C10  1  0.84431400  0.90017100  0.13413100  1
  C  C11  1  0.15568600  0.59982900  0.63413100  1
  C  C12  1  0.34431400  0.59982900  0.13413100  1
  C  C13  1  0.65568600  0.90017100  0.63413100  1
  C  C14  1  0.15568600  0.09982900  0.86586900  1
  C  C15  1  0.84431400  0.40017100  0.36586900  1
  Ni  Ni16  1  0.22607200  0.36575000  0.75942200  1
  Ni  Ni17  1  0.77392800  0.13425000  0.25942200  1
  Ni  Ni18  1  0.27392800  0.86575000  0.24057800  1
  Ni  Ni19  1  0.72607200  0.63425000  0.74057800  1
  Ni  Ni20  1  0.77392800  0.63425000  0.24057800  1
  Ni  Ni21  1  0.22607200  0.86575000  0.74057800  1
  Ni  Ni22  1  0.72607200  0.13425000  0.75942200  1
  Ni  Ni23  1  0.27392800  0.36575000  0.25942200  1
  Cu  Cu24  1  0.64805300  0.29094200  0.58980900  1
  Cu  Cu25  1  0.35194700  0.20905800  0.08980900  1
  Cu  Cu26  1  0.85194700  0.79094200  0.41019100  1
  Cu  Cu27  1  0.14805300  0.70905800  0.91019100  1
  Cu  Cu28  1  0.35194700  0.70905800  0.41019100  1
  Cu  Cu29  1  0.64805300  0.79094200  0.91019100  1
  Cu  Cu30  1  0.14805300  0.20905800  0.58980900  1
  Cu  Cu31  1  0.85194700  0.29094200  0.08980900  1
  Cu  Cu32  1  0.35621300  0.43496100  0.72516500  1
  Cu  Cu33  1  0.64378700  0.06503900  0.22516500  1
  Cu  Cu34  1  0.14378700  0.93496100  0.27483500  1
  Cu  Cu35  1  0.85621300  0.56503900  0.77483500  1
  Cu  Cu36  1  0.64378700  0.56503900  0.27483500  1
  Cu  Cu37  1  0.35621300  0.93496100  0.77483500  1
  Cu  Cu38  1  0.85621300  0.06503900  0.72516500  1
  Cu  Cu39  1  0.14378700  0.43496100  0.22516500  1
  Cu  Cu40  1  0.26464700  0.34789100  0.82977300  1
  Cu  Cu41  1  0.73535300  0.15210900  0.32977300  1
  Cu  Cu42  1  0.23535300  0.84789100  0.17022700  1
  Cu  Cu43  1  0.76464700  0.65210900  0.67022700  1
  Cu  Cu44  1  0.73535300  0.65210900  0.17022700  1
  Cu  Cu45  1  0.26464700  0.84789100  0.67022700  1
  Cu  Cu46  1  0.76464700  0.15210900  0.82977300  1
  Cu  Cu47  1  0.23535300  0.34789100  0.32977300  1
  Cu  Cu48  1  0.06178300  0.31402700  0.72966500  1
  Cu  Cu49  1  0.93821700  0.18597300  0.22966500  1
  Cu  Cu50  1  0.43821700  0.81402700  0.27033500  1
  Cu  Cu51  1  0.56178300  0.68597300  0.77033500  1
  Cu  Cu52  1  0.93821700  0.68597300  0.27033500  1
  Cu  Cu53  1  0.06178300  0.81402700  0.77033500  1
  Cu  Cu54  1  0.56178300  0.18597300  0.72966500  1
  Cu  Cu55  1  0.43821700  0.31402700  0.22966500  1
  C  C56  1  0.52660900  0.30589400  0.94932500  1
  C  C57  1  0.47339100  0.19410600  0.44932500  1
  C  C58  1  0.97339100  0.80589400  0.05067500  1
  C  C59  1  0.02660900  0.69410600  0.55067500  1
  C  C60  1  0.47339100  0.69410600  0.05067500  1
  C  C61  1  0.52660900  0.80589400  0.55067500  1
  C  C62  1  0.02660900  0.19410600  0.94932500  1
  C  C63  1  0.97339100  0.30589400  0.44932500  1
  C  C64  1  0.49551800  0.53198200  0.90906100  1
  C  C65  1  0.50448200  0.96801800  0.40906100  1
  C  C66  1  0.00448200  0.03198200  0.09093900  1
  C  C67  1  0.99551800  0.46801800  0.59093900  1
  C  C68  1  0.50448200  0.46801800  0.09093900  1
  C  C69  1  0.49551800  0.03198200  0.59093900  1
  C  C70  1  0.99551800  0.96801800  0.90906100  1
  C  C71  1  0.00448200  0.53198200  0.40906100  1
  C  C72  1  0.90393700  0.44584200  0.93953500  1
  C  C73  1  0.09606300  0.05415800  0.43953500  1
  C  C74  1  0.59606300  0.94584200  0.06046500  1
  C  C75  1  0.40393700  0.55415800  0.56046500  1
  C  C76  1  0.09606300  0.55415800  0.06046500  1
  C  C77  1  0.90393700  0.94584200  0.56046500  1
  C  C78  1  0.40393700  0.05415800  0.93953500  1
  C  C79  1  0.59606300  0.44584200  0.43953500  1
