# generated using pymatgen
data_Cu4NiC
_symmetry_space_group_name_H-M   'P 1'
_cell_length_a   4.94203984
_cell_length_b   4.94203984
_cell_length_c   8.42441300
_cell_angle_alpha   90.00000000
_cell_angle_beta   90.00000000
_cell_angle_gamma   119.99999784
_symmetry_Int_Tables_number   1
_chemical_formula_structural   Cu4NiC
_chemical_formula_sum   'Cu8 Ni2 C2'
_cell_volume   178.18977308
_cell_formula_units_Z   2
loop_
 _symmetry_equiv_pos_site_id
 _symmetry_equiv_pos_as_xyz
  1  'x, y, z'
loop_
 _atom_site_type_symbol
 _atom_site_label
 _atom_site_symmetry_multiplicity
 _atom_site_fract_x
 _atom_site_fract_y
 _atom_site_fract_z
 _atom_site_occupancy
  C  C0  1  0.00000000  0.00000000  0.50000000  1
  C  C1  1  0.00000000  0.00000000  0.00000000  1
  Ni  Ni2  1  0.66666700  0.33333300  0.80148200  1
  Ni  Ni3  1  0.33333300  0.66666700  0.19851800  1
  Cu  Cu4  1  0.87876400  0.22339000  0.86068600  1
  Cu  Cu5  1  0.34462500  0.12123600  0.86068600  1
  Cu  Cu6  1  0.65537500  0.77661000  0.13931400  1
  Cu  Cu7  1  0.77661000  0.65537500  0.86068600  1
  Cu  Cu8  1  0.22339000  0.87876400  0.13931400  1
  Cu  Cu9  1  0.12123600  0.34462500  0.13931400  1
  Cu  Cu10  1  0.66666700  0.33333300  0.62838700  1
  Cu  Cu11  1  0.33333300  0.66666700  0.37161300  1
