# generated using pymatgen
data_Cu6Ni3C2
_symmetry_space_group_name_H-M   'P 1'
_cell_length_a   6.83815017
_cell_length_b   6.83815017
_cell_length_c   14.92435781
_cell_angle_alpha   110.78934427
_cell_angle_beta   110.78934427
_cell_angle_gamma   51.08594904
_symmetry_Int_Tables_number   1
_chemical_formula_structural   Cu6Ni3C2
_chemical_formula_sum   'Cu12 Ni6 C4'
_cell_volume   499.22363808
_cell_formula_units_Z   2
loop_
 _symmetry_equiv_pos_site_id
 _symmetry_equiv_pos_as_xyz
  1  'x, y, z'
loop_
 _atom_site_type_symbol
 _atom_site_label
 _atom_site_symmetry_multiplicity
 _atom_site_fract_x
 _atom_site_fract_y
 _atom_site_fract_z
 _atom_site_occupancy
  C  C0  1  0.27572700  0.72427300  0.75000000  1
  C  C1  1  0.72427300  0.27572700  0.25000000  1
  C  C2  1  0.00000000  0.00000000  0.00000000  1
  C  C3  1  0.00000000  0.00000000  0.50000000  1
  Ni  Ni4  1  0.50000000  0.50000000  0.00000000  1
  Ni  Ni5  1  0.50000000  0.50000000  0.50000000  1
  Ni  Ni6  1  0.53513700  0.09858400  0.80102700  1
  Ni  Ni7  1  0.90141600  0.46486300  0.69897300  1
  Ni  Ni8  1  0.46486300  0.90141600  0.19897300  1
  Ni  Ni9  1  0.09858400  0.53513700  0.30102700  1
  Cu  Cu10  1  0.35461300  0.78230100  0.95621500  1
  Cu  Cu11  1  0.21769900  0.64538700  0.54378500  1
  Cu  Cu12  1  0.64538700  0.21769900  0.04378500  1
  Cu  Cu13  1  0.78230100  0.35461300  0.45621500  1
  Cu  Cu14  1  0.20527200  0.61928200  0.02271900  1
  Cu  Cu15  1  0.38071800  0.79472800  0.47728100  1
  Cu  Cu16  1  0.79472800  0.38071800  0.97728100  1
  Cu  Cu17  1  0.61928200  0.20527200  0.52271900  1
  Cu  Cu18  1  0.13129600  0.07292500  0.15063300  1
  Cu  Cu19  1  0.92707500  0.86870400  0.34936700  1
  Cu  Cu20  1  0.86870400  0.92707500  0.84936700  1
  Cu  Cu21  1  0.07292500  0.13129600  0.65063300  1
