# generated using pymatgen
data_Cu3(NiC2)2
_symmetry_space_group_name_H-M   'P 1'
_cell_length_a   7.07236100
_cell_length_b   7.35872200
_cell_length_c   13.96095000
_cell_angle_alpha   90.00000000
_cell_angle_beta   90.00000000
_cell_angle_gamma   90.00000000
_symmetry_Int_Tables_number   1
_chemical_formula_structural   Cu3(NiC2)2
_chemical_formula_sum   'Cu12 Ni8 C16'
_cell_volume   726.57723858
_cell_formula_units_Z   4
loop_
 _symmetry_equiv_pos_site_id
 _symmetry_equiv_pos_as_xyz
  1  'x, y, z'
loop_
 _atom_site_type_symbol
 _atom_site_label
 _atom_site_symmetry_multiplicity
 _atom_site_fract_x
 _atom_site_fract_y
 _atom_site_fract_z
 _atom_site_occupancy
  Ni  Ni0  1  0.01193100  0.17465000  0.09706500  1
  Ni  Ni1  1  0.98806900  0.82535000  0.90293500  1
  Ni  Ni2  1  0.48806900  0.67465000  0.90293500  1
  Ni  Ni3  1  0.98806900  0.82535000  0.59706500  1
  Ni  Ni4  1  0.51193100  0.32535000  0.09706500  1
  Ni  Ni5  1  0.01193100  0.17465000  0.40293500  1
  Ni  Ni6  1  0.51193100  0.32535000  0.40293500  1
  Ni  Ni7  1  0.48806900  0.67465000  0.59706500  1
  Cu  Cu8  1  0.16095200  0.50348600  0.75000000  1
  Cu  Cu9  1  0.83904800  0.49651400  0.25000000  1
  Cu  Cu10  1  0.33904800  0.00348600  0.25000000  1
  Cu  Cu11  1  0.66095200  0.99651400  0.75000000  1
  Cu  Cu12  1  0.32985400  0.17685600  0.62467200  1
  Cu  Cu13  1  0.67014600  0.82314400  0.37532800  1
  Cu  Cu14  1  0.17014600  0.67685600  0.37532800  1
  Cu  Cu15  1  0.67014600  0.82314400  0.12467200  1
  Cu  Cu16  1  0.82985400  0.32314400  0.62467200  1
  Cu  Cu17  1  0.32985400  0.17685600  0.87532800  1
  Cu  Cu18  1  0.82985400  0.32314400  0.87532800  1
  Cu  Cu19  1  0.17014600  0.67685600  0.12467200  1
  C  C20  1  0.03279500  0.11812200  0.75000000  1
  C  C21  1  0.96720500  0.88187800  0.25000000  1
  C  C22  1  0.46720500  0.61812200  0.25000000  1
  C  C23  1  0.53279500  0.38187800  0.75000000  1
  C  C24  1  0.28557400  0.87339800  0.75000000  1
  C  C25  1  0.71442600  0.12660200  0.25000000  1
  C  C26  1  0.21442600  0.37339800  0.25000000  1
  C  C27  1  0.78557400  0.62660200  0.75000000  1
  C  C28  1  0.15803500  0.46481800  0.53947200  1
  C  C29  1  0.84196500  0.53518200  0.46052800  1
  C  C30  1  0.34196500  0.96481800  0.46052800  1
  C  C31  1  0.84196500  0.53518200  0.03947200  1
  C  C32  1  0.65803500  0.03518200  0.53947200  1
  C  C33  1  0.15803500  0.46481800  0.96052800  1
  C  C34  1  0.65803500  0.03518200  0.96052800  1
  C  C35  1  0.34196500  0.96481800  0.03947200  1
