# generated using pymatgen
data_CuNiC4
_symmetry_space_group_name_H-M   'P 1'
_cell_length_a   3.25796076
_cell_length_b   3.25796076
_cell_length_c   36.70940600
_cell_angle_alpha   90.00000000
_cell_angle_beta   90.00000000
_cell_angle_gamma   120.00001540
_symmetry_Int_Tables_number   1
_chemical_formula_structural   CuNiC4
_chemical_formula_sum   'Cu2 Ni2 C8'
_cell_volume   337.44237528
_cell_formula_units_Z   2
loop_
 _symmetry_equiv_pos_site_id
 _symmetry_equiv_pos_as_xyz
  1  'x, y, z'
loop_
 _atom_site_type_symbol
 _atom_site_label
 _atom_site_symmetry_multiplicity
 _atom_site_fract_x
 _atom_site_fract_y
 _atom_site_fract_z
 _atom_site_occupancy
  Ni  Ni0  1  0.33333300  0.66666700  0.09388700  1
  Ni  Ni1  1  0.33333300  0.66666700  0.46967600  1
  Cu  Cu2  1  0.66666700  0.33333300  0.28178000  1
  Cu  Cu3  1  0.66666700  0.33333300  0.65757000  1
  C  C4  1  0.33333300  0.66666700  0.32826500  1
  C  C5  1  0.33333300  0.66666700  0.70404700  1
  C  C6  1  0.33333300  0.66666700  0.23530300  1
  C  C7  1  0.33333300  0.66666700  0.61106700  1
  C  C8  1  0.66666700  0.33333300  0.05187600  1
  C  C9  1  0.66666700  0.33333300  0.42765500  1
  C  C10  1  0.66666700  0.33333300  0.13593700  1
  C  C11  1  0.66666700  0.33333300  0.51168400  1
