# generated using pymatgen
data_CuNiC
_symmetry_space_group_name_H-M   'P 1'
_cell_length_a   3.59733900
_cell_length_b   6.15331000
_cell_length_c   6.97595000
_cell_angle_alpha   90.00000000
_cell_angle_beta   90.00000000
_cell_angle_gamma   90.00000000
_symmetry_Int_Tables_number   1
_chemical_formula_structural   CuNiC
_chemical_formula_sum   'Cu4 Ni4 C4'
_cell_volume   154.41643451
_cell_formula_units_Z   4
loop_
 _symmetry_equiv_pos_site_id
 _symmetry_equiv_pos_as_xyz
  1  'x, y, z'
loop_
 _atom_site_type_symbol
 _atom_site_label
 _atom_site_symmetry_multiplicity
 _atom_site_fract_x
 _atom_site_fract_y
 _atom_site_fract_z
 _atom_site_occupancy
  Ni  Ni0  1  0.25000000  0.52257500  0.17651000  1
  Ni  Ni1  1  0.75000000  0.47742500  0.82349000  1
  Ni  Ni2  1  0.75000000  0.97742500  0.67651000  1
  Ni  Ni3  1  0.25000000  0.02257500  0.32349000  1
  Cu  Cu4  1  0.25000000  0.64110200  0.56202900  1
  Cu  Cu5  1  0.75000000  0.35889800  0.43797100  1
  Cu  Cu6  1  0.75000000  0.85889800  0.06202900  1
  Cu  Cu7  1  0.25000000  0.14110200  0.93797100  1
  C  C8  1  0.25000000  0.77779300  0.88137300  1
  C  C9  1  0.75000000  0.22220700  0.11862700  1
  C  C10  1  0.75000000  0.72220700  0.38137300  1
  C  C11  1  0.25000000  0.27779300  0.61862700  1
