# generated using pymatgen
data_Cu8Ni4C9
_symmetry_space_group_name_H-M   'P 1'
_cell_length_a   21.69838401
_cell_length_b   21.69838401
_cell_length_c   21.69838401
_cell_angle_alpha   169.67797475
_cell_angle_beta   169.67797475
_cell_angle_gamma   14.61742564
_symmetry_Int_Tables_number   1
_chemical_formula_structural   Cu8Ni4C9
_chemical_formula_sum   'Cu8 Ni4 C9'
_cell_volume   327.98110304
_cell_formula_units_Z   1
loop_
 _symmetry_equiv_pos_site_id
 _symmetry_equiv_pos_as_xyz
  1  'x, y, z'
loop_
 _atom_site_type_symbol
 _atom_site_label
 _atom_site_symmetry_multiplicity
 _atom_site_fract_x
 _atom_site_fract_y
 _atom_site_fract_z
 _atom_site_occupancy
  C  C0  1  0.46315400  0.46315400  0.00000000  1
  C  C1  1  0.53684600  0.53684600  0.00000000  1
  C  C2  1  0.14375400  0.14375400  0.00000000  1
  C  C3  1  0.85624600  0.85624600  0.00000000  1
  C  C4  1  0.22188500  0.22188500  0.00000000  1
  C  C5  1  0.77811500  0.77811500  0.00000000  1
  C  C6  1  0.32005100  0.32005100  0.00000000  1
  C  C7  1  0.67994900  0.67994900  0.00000000  1
  C  C8  1  0.00000000  0.00000000  0.00000000  1
  Ni  Ni9  1  0.38468400  0.38468400  0.00000000  1
  Ni  Ni10  1  0.61531600  0.61531600  0.00000000  1
  Ni  Ni11  1  0.06453200  0.06453200  0.00000000  1
  Ni  Ni12  1  0.93546800  0.93546800  0.00000000  1
  Cu  Cu13  1  0.50000000  0.00000000  0.50000000  1
  Cu  Cu14  1  0.00000000  0.50000000  0.50000000  1
  Cu  Cu15  1  0.75000000  0.25000000  0.50000000  1
  Cu  Cu16  1  0.25000000  0.75000000  0.50000000  1
  Cu  Cu17  1  0.67903800  0.17903800  0.50000000  1
  Cu  Cu18  1  0.32096200  0.82096200  0.50000000  1
  Cu  Cu19  1  0.17903800  0.67903800  0.50000000  1
  Cu  Cu20  1  0.82096200  0.32096200  0.50000000  1
