# generated using pymatgen
data_Cu4(Ni2C5)3
_symmetry_space_group_name_H-M   'P 1'
_cell_length_a   10.39463300
_cell_length_b   11.64020500
_cell_length_c   18.79571500
_cell_angle_alpha   90.00000000
_cell_angle_beta   90.00000000
_cell_angle_gamma   90.00000000
_symmetry_Int_Tables_number   1
_chemical_formula_structural   Cu4(Ni2C5)3
_chemical_formula_sum   'Cu32 Ni48 C120'
_cell_volume   2274.19992317
_cell_formula_units_Z   8
loop_
 _symmetry_equiv_pos_site_id
 _symmetry_equiv_pos_as_xyz
  1  'x, y, z'
loop_
 _atom_site_type_symbol
 _atom_site_label
 _atom_site_symmetry_multiplicity
 _atom_site_fract_x
 _atom_site_fract_y
 _atom_site_fract_z
 _atom_site_occupancy
  C  C0  1  0.01475500  0.24136500  0.48566400  1
  C  C1  1  0.51475500  0.25863500  0.51433600  1
  C  C2  1  0.98524500  0.74136500  0.01433600  1
  C  C3  1  0.48524500  0.75863500  0.98566400  1
  C  C4  1  0.98524500  0.75863500  0.51433600  1
  C  C5  1  0.48524500  0.74136500  0.48566400  1
  C  C6  1  0.01475500  0.25863500  0.98566400  1
  C  C7  1  0.51475500  0.24136500  0.01433600  1
  C  C8  1  0.25465100  0.37293200  0.88193200  1
  C  C9  1  0.75465100  0.12706800  0.11806800  1
  C  C10  1  0.74534900  0.87293200  0.61806800  1
  C  C11  1  0.24534900  0.62706800  0.38193200  1
  C  C12  1  0.74534900  0.62706800  0.11806800  1
  C  C13  1  0.24534900  0.87293200  0.88193200  1
  C  C14  1  0.25465100  0.12706800  0.38193200  1
  C  C15  1  0.75465100  0.37293200  0.61806800  1
  C  C16  1  0.25026500  0.44201800  0.80821000  1
  C  C17  1  0.75026500  0.05798200  0.19179000  1
  C  C18  1  0.74973500  0.94201800  0.69179000  1
  C  C19  1  0.24973500  0.55798200  0.30821000  1
  C  C20  1  0.74973500  0.55798200  0.19179000  1
  C  C21  1  0.24973500  0.94201800  0.80821000  1
  C  C22  1  0.25026500  0.05798200  0.30821000  1
  C  C23  1  0.75026500  0.44201800  0.69179000  1
  C  C24  1  0.93313500  0.14220800  0.67487300  1
  C  C25  1  0.43313500  0.35779200  0.32512700  1
  C  C26  1  0.06686500  0.64220800  0.82512700  1
  C  C27  1  0.56686500  0.85779200  0.17487300  1
  C  C28  1  0.06686500  0.85779200  0.32512700  1
  C  C29  1  0.56686500  0.64220800  0.67487300  1
  C  C30  1  0.93313500  0.35779200  0.17487300  1
  C  C31  1  0.43313500  0.14220800  0.82512700  1
  C  C32  1  0.96522500  0.05161800  0.55871100  1
  C  C33  1  0.46522500  0.44838200  0.44128900  1
  C  C34  1  0.03477500  0.55161800  0.94128900  1
  C  C35  1  0.53477500  0.94838200  0.05871100  1
  C  C36  1  0.03477500  0.94838200  0.44128900  1
  C  C37  1  0.53477500  0.55161800  0.55871100  1
  C  C38  1  0.96522500  0.44838200  0.05871100  1
  C  C39  1  0.46522500  0.05161800  0.94128900  1
  C  C40  1  0.84279500  0.14704700  0.56164600  1
  C  C41  1  0.34279500  0.35295300  0.43835400  1
  C  C42  1  0.15720500  0.64704700  0.93835400  1
  C  C43  1  0.65720500  0.85295300  0.06164600  1
  C  C44  1  0.15720500  0.85295300  0.43835400  1
  C  C45  1  0.65720500  0.64704700  0.56164600  1
  C  C46  1  0.84279500  0.35295300  0.06164600  1
  C  C47  1  0.34279500  0.14704700  0.93835400  1
  C  C48  1  0.15331700  0.45469000  0.52104100  1
  C  C49  1  0.65331700  0.04531000  0.47895900  1
  C  C50  1  0.84668300  0.95469000  0.97895900  1
  C  C51  1  0.34668300  0.54531000  0.02104100  1
  C  C52  1  0.84668300  0.54531000  0.47895900  1
  C  C53  1  0.34668300  0.95469000  0.52104100  1
  C  C54  1  0.15331700  0.04531000  0.02104100  1
  C  C55  1  0.65331700  0.45469000  0.97895900  1
  C  C56  1  0.09559000  0.50113200  0.59785700  1
  C  C57  1  0.59559000  0.99886800  0.40214300  1
  C  C58  1  0.90441000  0.00113200  0.90214300  1
  C  C59  1  0.40441000  0.49886800  0.09785700  1
  C  C60  1  0.90441000  0.49886800  0.40214300  1
  C  C61  1  0.40441000  0.00113200  0.59785700  1
  C  C62  1  0.09559000  0.99886800  0.09785700  1
  C  C63  1  0.59559000  0.50113200  0.90214300  1
  C  C64  1  0.23190500  0.41344500  0.59461800  1
  C  C65  1  0.73190500  0.08655500  0.40538200  1
  C  C66  1  0.76809500  0.91344500  0.90538200  1
  C  C67  1  0.26809500  0.58655500  0.09461800  1
  C  C68  1  0.76809500  0.58655500  0.40538200  1
  C  C69  1  0.26809500  0.91344500  0.59461800  1
  C  C70  1  0.23190500  0.08655500  0.09461800  1
  C  C71  1  0.73190500  0.41344500  0.90538200  1
  C  C72  1  0.11256000  0.39925700  0.70730800  1
  C  C73  1  0.61256000  0.10074300  0.29269200  1
  C  C74  1  0.88744000  0.89925700  0.79269200  1
  C  C75  1  0.38744000  0.60074300  0.20730800  1
  C  C76  1  0.88744000  0.60074300  0.29269200  1
  C  C77  1  0.38744000  0.89925700  0.70730800  1
  C  C78  1  0.11256000  0.10074300  0.20730800  1
  C  C79  1  0.61256000  0.39925700  0.79269200  1
  C  C80  1  0.15433900  0.29145200  0.79728400  1
  C  C81  1  0.65433900  0.20854800  0.20271600  1
  C  C82  1  0.84566100  0.79145200  0.70271600  1
  C  C83  1  0.34566100  0.70854800  0.29728400  1
  C  C84  1  0.84566100  0.70854800  0.20271600  1
  C  C85  1  0.34566100  0.79145200  0.79728400  1
  C  C86  1  0.15433900  0.20854800  0.29728400  1
  C  C87  1  0.65433900  0.29145200  0.70271600  1
  C  C88  1  0.00900500  0.21650900  0.77802600  1
  C  C89  1  0.50900500  0.28349100  0.22197400  1
  C  C90  1  0.99099500  0.71650900  0.72197400  1
  C  C91  1  0.49099500  0.78349100  0.27802600  1
  C  C92  1  0.99099500  0.78349100  0.22197400  1
  C  C93  1  0.49099500  0.71650900  0.77802600  1
  C  C94  1  0.00900500  0.28349100  0.27802600  1
  C  C95  1  0.50900500  0.21650900  0.72197400  1
  C  C96  1  0.15539300  0.17036900  0.74612200  1
  C  C97  1  0.65539300  0.32963100  0.25387800  1
  C  C98  1  0.84460700  0.67036900  0.75387800  1
  C  C99  1  0.34460700  0.82963100  0.24612200  1
  C  C100  1  0.84460700  0.82963100  0.25387800  1
  C  C101  1  0.34460700  0.67036900  0.74612200  1
  C  C102  1  0.15539300  0.32963100  0.24612200  1
  C  C103  1  0.65539300  0.17036900  0.75387800  1
  C  C104  1  0.04366200  0.27635500  0.63428700  1
  C  C105  1  0.54366200  0.22364500  0.36571300  1
  C  C106  1  0.95633800  0.77635500  0.86571300  1
  C  C107  1  0.45633800  0.72364500  0.13428700  1
  C  C108  1  0.95633800  0.72364500  0.36571300  1
  C  C109  1  0.45633800  0.77635500  0.63428700  1
  C  C110  1  0.04366200  0.22364500  0.13428700  1
  C  C111  1  0.54366200  0.27635500  0.86571300  1
  Ni  Ni112  1  0.98498500  0.17287500  0.63178800  1
  Ni  Ni113  1  0.48498500  0.32712500  0.36821200  1
  Ni  Ni114  1  0.01501500  0.67287500  0.86821200  1
  Ni  Ni115  1  0.51501500  0.82712500  0.13178800  1
  Ni  Ni116  1  0.01501500  0.82712500  0.36821200  1
  Ni  Ni117  1  0.51501500  0.67287500  0.63178800  1
  Ni  Ni118  1  0.98498500  0.32712500  0.13178800  1
  Ni  Ni119  1  0.48498500  0.17287500  0.86821200  1
  Ni  Ni120  1  0.94120800  0.13714400  0.56414700  1
  Ni  Ni121  1  0.44120800  0.36285600  0.43585300  1
  Ni  Ni122  1  0.05879200  0.63714400  0.93585300  1
  Ni  Ni123  1  0.55879200  0.86285600  0.06414700  1
  Ni  Ni124  1  0.05879200  0.86285600  0.43585300  1
  Ni  Ni125  1  0.55879200  0.63714400  0.56414700  1
  Ni  Ni126  1  0.94120800  0.36285600  0.06414700  1
  Ni  Ni127  1  0.44120800  0.13714400  0.93585300  1
  Ni  Ni128  1  0.05752100  0.33232900  0.57353900  1
  Ni  Ni129  1  0.55752100  0.16767100  0.42646100  1
  Ni  Ni130  1  0.94247900  0.83232900  0.92646100  1
  Ni  Ni131  1  0.44247900  0.66767100  0.07353900  1
  Ni  Ni132  1  0.94247900  0.66767100  0.42646100  1
  Ni  Ni133  1  0.44247900  0.83232900  0.57353900  1
  Ni  Ni134  1  0.05752100  0.16767100  0.07353900  1
  Ni  Ni135  1  0.55752100  0.33232900  0.92646100  1
  Ni  Ni136  1  0.13913400  0.43008400  0.57401100  1
  Ni  Ni137  1  0.63913400  0.06991600  0.42598900  1
  Ni  Ni138  1  0.86086600  0.93008400  0.92598900  1
  Ni  Ni139  1  0.36086600  0.56991600  0.07401100  1
  Ni  Ni140  1  0.86086600  0.56991600  0.42598900  1
  Ni  Ni141  1  0.36086600  0.93008400  0.57401100  1
  Ni  Ni142  1  0.13913400  0.06991600  0.07401100  1
  Ni  Ni143  1  0.63913400  0.43008400  0.92598900  1
  Ni  Ni144  1  0.08801300  0.31465100  0.69780100  1
  Ni  Ni145  1  0.58801300  0.18534900  0.30219900  1
  Ni  Ni146  1  0.91198700  0.81465100  0.80219900  1
  Ni  Ni147  1  0.41198700  0.68534900  0.19780100  1
  Ni  Ni148  1  0.91198700  0.68534900  0.30219900  1
  Ni  Ni149  1  0.41198700  0.81465100  0.69780100  1
  Ni  Ni150  1  0.08801300  0.18534900  0.19780100  1
  Ni  Ni151  1  0.58801300  0.31465100  0.80219900  1
  Ni  Ni152  1  0.09727800  0.24195800  0.75776700  1
  Ni  Ni153  1  0.59727800  0.25804200  0.24223300  1
  Ni  Ni154  1  0.90272200  0.74195800  0.74223300  1
  Ni  Ni155  1  0.40272200  0.75804200  0.25776700  1
  Ni  Ni156  1  0.90272200  0.75804200  0.24223300  1
  Ni  Ni157  1  0.40272200  0.74195800  0.75776700  1
  Ni  Ni158  1  0.09727800  0.25804200  0.25776700  1
  Ni  Ni159  1  0.59727800  0.24195800  0.74223300  1
  Cu  Cu160  1  0.24681000  0.13417000  0.49015500  1
  Cu  Cu161  1  0.74681000  0.36583000  0.50984500  1
  Cu  Cu162  1  0.75319000  0.63417000  0.00984500  1
  Cu  Cu163  1  0.25319000  0.86583000  0.99015500  1
  Cu  Cu164  1  0.75319000  0.86583000  0.50984500  1
  Cu  Cu165  1  0.25319000  0.63417000  0.49015500  1
  Cu  Cu166  1  0.24681000  0.36583000  0.99015500  1
  Cu  Cu167  1  0.74681000  0.13417000  0.00984500  1
  Cu  Cu168  1  0.09007100  0.38118600  0.41076800  1
  Cu  Cu169  1  0.59007100  0.11881400  0.58923200  1
  Cu  Cu170  1  0.90992900  0.88118600  0.08923200  1
  Cu  Cu171  1  0.40992900  0.61881400  0.91076800  1
  Cu  Cu172  1  0.90992900  0.61881400  0.58923200  1
  Cu  Cu173  1  0.40992900  0.88118600  0.41076800  1
  Cu  Cu174  1  0.09007100  0.11881400  0.91076800  1
  Cu  Cu175  1  0.59007100  0.38118600  0.08923200  1
  Cu  Cu176  1  0.93276000  0.12508800  0.39803800  1
  Cu  Cu177  1  0.43276000  0.37491200  0.60196200  1
  Cu  Cu178  1  0.06724000  0.62508800  0.10196200  1
  Cu  Cu179  1  0.56724000  0.87491200  0.89803800  1
  Cu  Cu180  1  0.06724000  0.87491200  0.60196200  1
  Cu  Cu181  1  0.56724000  0.62508800  0.39803800  1
  Cu  Cu182  1  0.93276000  0.37491200  0.89803800  1
  Cu  Cu183  1  0.43276000  0.12508800  0.10196200  1
  Cu  Cu184  1  0.32934200  0.07430200  0.73414100  1
  Cu  Cu185  1  0.82934200  0.42569800  0.26585900  1
  Cu  Cu186  1  0.67065800  0.57430200  0.76585900  1
  Cu  Cu187  1  0.17065800  0.92569800  0.23414100  1
  Cu  Cu188  1  0.67065800  0.92569800  0.26585900  1
  Cu  Cu189  1  0.17065800  0.57430200  0.73414100  1
  Cu  Cu190  1  0.32934200  0.42569800  0.23414100  1
  Cu  Cu191  1  0.82934200  0.07430200  0.76585900  1
  C  C192  1  0.26018100  0.36455900  0.82876100  1
  C  C193  1  0.76018100  0.13544100  0.17123900  1
  C  C194  1  0.73981900  0.86455900  0.67123900  1
  C  C195  1  0.23981900  0.63544100  0.32876100  1
  C  C196  1  0.73981900  0.63544100  0.17123900  1
  C  C197  1  0.23981900  0.86455900  0.82876100  1
  C  C198  1  0.26018100  0.13544100  0.32876100  1
  C  C199  1  0.76018100  0.36455900  0.67123900  1
