# generated using pymatgen
data_CuNiC3
_symmetry_space_group_name_H-M   'P 1'
_cell_length_a   6.06353604
_cell_length_b   6.06353604
_cell_length_c   6.06353615
_cell_angle_alpha   56.91439183
_cell_angle_beta   56.91439183
_cell_angle_gamma   56.91440088
_symmetry_Int_Tables_number   1
_chemical_formula_structural   CuNiC3
_chemical_formula_sum   'Cu2 Ni2 C6'
_cell_volume   146.41846843
_cell_formula_units_Z   2
loop_
 _symmetry_equiv_pos_site_id
 _symmetry_equiv_pos_as_xyz
  1  'x, y, z'
loop_
 _atom_site_type_symbol
 _atom_site_label
 _atom_site_symmetry_multiplicity
 _atom_site_fract_x
 _atom_site_fract_y
 _atom_site_fract_z
 _atom_site_occupancy
  Ni  Ni0  1  0.85742500  0.85742500  0.85742500  1
  Ni  Ni1  1  0.14257500  0.14257500  0.14257500  1
  Cu  Cu2  1  0.35416500  0.35416500  0.35416500  1
  Cu  Cu3  1  0.64583500  0.64583500  0.64583500  1
  C  C4  1  0.54382100  0.95190100  0.26113100  1
  C  C5  1  0.73886900  0.45617900  0.04809900  1
  C  C6  1  0.04809900  0.73886900  0.45617900  1
  C  C7  1  0.95190100  0.26113100  0.54382100  1
  C  C8  1  0.26113100  0.54382100  0.95190100  1
  C  C9  1  0.45617900  0.04809900  0.73886900  1
