# generated using pymatgen
data_Cu7Ni2C
_symmetry_space_group_name_H-M   'P 1'
_cell_length_a   17.15469879
_cell_length_b   17.15469980
_cell_length_c   12.00814495
_cell_angle_alpha   89.99998828
_cell_angle_beta   89.99993637
_cell_angle_gamma   120.00005092
_symmetry_Int_Tables_number   1
_chemical_formula_structural   Cu7Ni2C
_chemical_formula_sum   'Cu126 Ni36 C18'
_cell_volume   3060.36023149
_cell_formula_units_Z   18
loop_
 _symmetry_equiv_pos_site_id
 _symmetry_equiv_pos_as_xyz
  1  'x, y, z'
loop_
 _atom_site_type_symbol
 _atom_site_label
 _atom_site_symmetry_multiplicity
 _atom_site_fract_x
 _atom_site_fract_y
 _atom_site_fract_z
 _atom_site_occupancy
  C  C0  1  0.69457724  0.00591793  0.41889330  1
  C  C1  1  0.31133785  0.30542496  0.41889524  1
  C  C2  1  0.99408559  0.68865336  0.41889770  1
  C  C3  1  0.30542276  0.99408207  0.58110670  1
  C  C4  1  0.68866215  0.69457504  0.58110476  1
  C  C5  1  0.00591441  0.31134664  0.58110230  1
  C  C6  1  0.64261669  0.99323815  0.92258561  1
  C  C7  1  0.35061925  0.35738506  0.92258312  1
  C  C8  1  0.00676361  0.64937687  0.92258392  1
  C  C9  1  0.35738331  0.00676185  0.07741439  1
  C  C10  1  0.64938075  0.64261494  0.07741688  1
  C  C11  1  0.99323639  0.35062313  0.07741608  1
  C  C12  1  0.99999996  0.99999995  0.20915687  1
  C  C13  1  0.00000004  0.00000005  0.79084313  1
  C  C14  1  0.33333568  0.66666799  0.28310887  1
  C  C15  1  0.66666432  0.33333201  0.71689113  1
  C  C16  1  0.66666389  0.33333173  0.28113843  1
  C  C17  1  0.33333611  0.66666827  0.71886157  1
  Ni  Ni18  1  0.80892357  0.94257640  0.13076976  1
  Ni  Ni19  1  0.13365280  0.19107685  0.13076965  1
  Ni  Ni20  1  0.05742304  0.86634665  0.13077153  1
  Ni  Ni21  1  0.19107643  0.05742360  0.86923024  1
  Ni  Ni22  1  0.86634720  0.80892315  0.86923035  1
  Ni  Ni23  1  0.94257696  0.13365335  0.86922847  1
  Ni  Ni24  1  0.82717078  0.85005542  0.32248661  1
  Ni  Ni25  1  0.02288479  0.17282917  0.32248763  1
  Ni  Ni26  1  0.14994345  0.97711430  0.32248709  1
  Ni  Ni27  1  0.17282922  0.14994458  0.67751339  1
  Ni  Ni28  1  0.97711521  0.82717083  0.67751237  1
  Ni  Ni29  1  0.85005655  0.02288570  0.67751291  1
  Ni  Ni30  1  0.61899758  0.14530161  0.63406610  1
  Ni  Ni31  1  0.52630165  0.38099990  0.63406631  1
  Ni  Ni32  1  0.85469425  0.47369483  0.63406513  1
  Ni  Ni33  1  0.38100242  0.85469839  0.36593390  1
  Ni  Ni34  1  0.47369835  0.61900010  0.36593369  1
  Ni  Ni35  1  0.14530575  0.52630517  0.36593487  1
  Ni  Ni36  1  0.48291497  0.84568646  0.17871261  1
  Ni  Ni37  1  0.36277439  0.51708731  0.17871274  1
  Ni  Ni38  1  0.15431745  0.63722931  0.17871345  1
  Ni  Ni39  1  0.51708503  0.15431354  0.82128739  1
  Ni  Ni40  1  0.63722561  0.48291269  0.82128726  1
  Ni  Ni41  1  0.84568255  0.36277069  0.82128655  1
  Ni  Ni42  1  0.47796170  0.19266649  0.36071102  1
  Ni  Ni43  1  0.71470253  0.52203432  0.36071067  1
  Ni  Ni44  1  0.80732966  0.28529571  0.36071120  1
  Ni  Ni45  1  0.52203830  0.80733351  0.63928898  1
  Ni  Ni46  1  0.28529747  0.47796568  0.63928933  1
  Ni  Ni47  1  0.19267034  0.71470429  0.63928880  1
  Ni  Ni48  1  0.29875629  0.80772056  0.83496453  1
  Ni  Ni49  1  0.50896939  0.70124863  0.83496463  1
  Ni  Ni50  1  0.19228150  0.49103453  0.83496287  1
  Ni  Ni51  1  0.70124371  0.19227944  0.16503547  1
  Ni  Ni52  1  0.49103061  0.29875137  0.16503537  1
  Ni  Ni53  1  0.80771850  0.50896547  0.16503713  1
  Cu  Cu54  1  0.78716926  0.99882484  0.19644742  1
  Cu  Cu55  1  0.21165580  0.21283051  0.19644805  1
  Cu  Cu56  1  0.00117588  0.78834540  0.19644760  1
  Cu  Cu57  1  0.21283074  0.00117516  0.80355258  1
  Cu  Cu58  1  0.78834420  0.78716949  0.80355195  1
  Cu  Cu59  1  0.99882412  0.21165460  0.80355240  1
  Cu  Cu60  1  0.90975284  0.98107303  0.11882617  1
  Cu  Cu61  1  0.07132011  0.09024729  0.11882654  1
  Cu  Cu62  1  0.01892734  0.92868038  0.11882626  1
  Cu  Cu63  1  0.09024716  0.01892697  0.88117383  1
  Cu  Cu64  1  0.92867989  0.90975271  0.88117346  1
  Cu  Cu65  1  0.98107266  0.07131962  0.88117374  1
  Cu  Cu66  1  0.76578245  0.90893224  0.02563454  1
  Cu  Cu67  1  0.14315006  0.23421746  0.02563545  1
  Cu  Cu68  1  0.09106823  0.85685077  0.02563439  1
  Cu  Cu69  1  0.23421755  0.09106776  0.97436546  1
  Cu  Cu70  1  0.85684994  0.76578254  0.97436455  1
  Cu  Cu71  1  0.90893177  0.14314923  0.97436561  1
  Cu  Cu72  1  0.92709601  0.90778961  0.29703346  1
  Cu  Cu73  1  0.98069328  0.07290400  0.29703357  1
  Cu  Cu74  1  0.09220991  0.01930641  0.29703346  1
  Cu  Cu75  1  0.07290399  0.09221039  0.70296654  1
  Cu  Cu76  1  0.01930672  0.92709600  0.70296643  1
  Cu  Cu77  1  0.90779009  0.98069359  0.70296654  1
  Cu  Cu78  1  0.79806104  0.89087168  0.40482244  1
  Cu  Cu79  1  0.09280994  0.20193879  0.40482324  1
  Cu  Cu80  1  0.10912845  0.90718966  0.40482142  1
  Cu  Cu81  1  0.20193896  0.10912832  0.59517756  1
  Cu  Cu82  1  0.90719006  0.79806121  0.59517676  1
  Cu  Cu83  1  0.89087155  0.09281034  0.59517858  1
  Cu  Cu84  1  0.77904256  0.84826116  0.20206305  1
  Cu  Cu85  1  0.06921882  0.22095783  0.20206335  1
  Cu  Cu86  1  0.15173934  0.93078205  0.20206243  1
  Cu  Cu87  1  0.22095744  0.15173884  0.79793695  1
  Cu  Cu88  1  0.93078118  0.77904217  0.79793665  1
  Cu  Cu89  1  0.84826066  0.06921795  0.79793757  1
  Cu  Cu90  1  0.52145929  0.11266043  0.69773596  1
  Cu  Cu91  1  0.59120080  0.47853913  0.69773570  1
  Cu  Cu92  1  0.88733327  0.40879601  0.69773458  1
  Cu  Cu93  1  0.47854071  0.88733957  0.30226404  1
  Cu  Cu94  1  0.40879920  0.52146087  0.30226430  1
  Cu  Cu95  1  0.11266673  0.59120399  0.30226542  1
  Cu  Cu96  1  0.65790434  0.24661616  0.62656249  1
  Cu  Cu97  1  0.58870720  0.34209047  0.62656322  1
  Cu  Cu98  1  0.75337905  0.41128885  0.62656336  1
  Cu  Cu99  1  0.34209566  0.75338384  0.37343751  1
  Cu  Cu100  1  0.41129280  0.65790953  0.37343678  1
  Cu  Cu101  1  0.24662095  0.58871115  0.37343664  1
  Cu  Cu102  1  0.59147194  0.10595411  0.52569523  1
  Cu  Cu103  1  0.51448206  0.40852694  0.52569508  1
  Cu  Cu104  1  0.89404132  0.48551687  0.52569541  1
  Cu  Cu105  1  0.40852806  0.89404589  0.47430477  1
  Cu  Cu106  1  0.48551794  0.59147306  0.47430492  1
  Cu  Cu107  1  0.10595868  0.51448313  0.47430459  1
  Cu  Cu108  1  0.42190813  0.74488002  0.19438155  1
  Cu  Cu109  1  0.32297799  0.57809747  0.19438008  1
  Cu  Cu110  1  0.25512419  0.67702809  0.19438063  1
  Cu  Cu111  1  0.57809187  0.25511998  0.80561845  1
  Cu  Cu112  1  0.67702201  0.42190253  0.80561992  1
  Cu  Cu113  1  0.74487581  0.32297191  0.80561937  1
  Cu  Cu114  1  0.67189404  0.12122944  0.70303039  1
  Cu  Cu115  1  0.44933290  0.32810630  0.70303154  1
  Cu  Cu116  1  0.87876785  0.55066407  0.70303145  1
  Cu  Cu117  1  0.32810596  0.87877056  0.29696961  1
  Cu  Cu118  1  0.55066710  0.67189370  0.29696846  1
  Cu  Cu119  1  0.12123215  0.44933593  0.29696855  1
  Cu  Cu120  1  0.44785810  0.88049688  0.09597371  1
  Cu  Cu121  1  0.43264057  0.55214163  0.09597220  1
  Cu  Cu122  1  0.11950632  0.56736198  0.09597421  1
  Cu  Cu123  1  0.55214190  0.11950312  0.90402629  1
  Cu  Cu124  1  0.56735943  0.44785837  0.90402780  1
  Cu  Cu125  1  0.88049368  0.43263802  0.90402579  1
  Cu  Cu126  1  0.57540424  0.86907698  0.17264003  1
  Cu  Cu127  1  0.29367387  0.42459989  0.17264111  1
  Cu  Cu128  1  0.13092819  0.70632826  0.17264269  1
  Cu  Cu129  1  0.42459576  0.13092302  0.82735997  1
  Cu  Cu130  1  0.70632613  0.57540011  0.82735889  1
  Cu  Cu131  1  0.86907181  0.29367174  0.82735731  1
  Cu  Cu132  1  0.80355628  0.75796833  0.33624057  1
  Cu  Cu133  1  0.95441243  0.19644475  0.33624362  1
  Cu  Cu134  1  0.24203196  0.04558787  0.33624056  1
  Cu  Cu135  1  0.19644372  0.24203167  0.66375943  1
  Cu  Cu136  1  0.04558757  0.80355525  0.66375638  1
  Cu  Cu137  1  0.75796804  0.95441213  0.66375944  1
  Cu  Cu138  1  0.57800454  0.25881202  0.37191438  1
  Cu  Cu139  1  0.68080218  0.42199122  0.37191370  1
  Cu  Cu140  1  0.74118408  0.31919258  0.37191496  1
  Cu  Cu141  1  0.42199546  0.74118798  0.62808562  1
  Cu  Cu142  1  0.31919782  0.57800878  0.62808630  1
  Cu  Cu143  1  0.25881592  0.68080742  0.62808504  1
  Cu  Cu144  1  0.34875457  0.75790904  0.80587575  1
  Cu  Cu145  1  0.40915872  0.65125065  0.80587562  1
  Cu  Cu146  1  0.24209624  0.59084550  0.80587677  1
  Cu  Cu147  1  0.65124543  0.24209096  0.19412425  1
  Cu  Cu148  1  0.59084128  0.34874935  0.19412438  1
  Cu  Cu149  1  0.75790376  0.40915450  0.19412323  1
  Cu  Cu150  1  0.43417255  0.18424825  0.46535161  1
  Cu  Cu151  1  0.75007392  0.56582279  0.46535154  1
  Cu  Cu152  1  0.81575038  0.24992625  0.46535189  1
  Cu  Cu153  1  0.56582745  0.81575175  0.53464839  1
  Cu  Cu154  1  0.24992608  0.43417721  0.53464846  1
  Cu  Cu155  1  0.18424962  0.75007375  0.53464811  1
  Cu  Cu156  1  0.45922527  0.11357908  0.29937254  1
  Cu  Cu157  1  0.65435321  0.54077288  0.29937175  1
  Cu  Cu158  1  0.88641693  0.34564759  0.29937308  1
  Cu  Cu159  1  0.54077473  0.88642092  0.70062746  1
  Cu  Cu160  1  0.34564679  0.45922712  0.70062825  1
  Cu  Cu161  1  0.11358307  0.65435241  0.70062692  1
  Cu  Cu162  1  0.44331888  0.25116094  0.28577527  1
  Cu  Cu163  1  0.80783958  0.55667536  0.28577651  1
  Cu  Cu164  1  0.74883555  0.19215989  0.28577575  1
  Cu  Cu165  1  0.55668112  0.74883906  0.71422473  1
  Cu  Cu166  1  0.19216042  0.44332464  0.71422349  1
  Cu  Cu167  1  0.25116445  0.80784011  0.71422425  1
  Cu  Cu168  1  0.36138974  0.90150569  0.85052395  1
  Cu  Cu169  1  0.54011851  0.63861226  0.85052469  1
  Cu  Cu170  1  0.09849763  0.45988669  0.85052274  1
  Cu  Cu171  1  0.63861026  0.09849431  0.14947605  1
  Cu  Cu172  1  0.45988149  0.36138774  0.14947531  1
  Cu  Cu173  1  0.90150237  0.54011331  0.14947726  1
  Cu  Cu174  1  0.22898263  0.76023034  0.91538469  1
  Cu  Cu175  1  0.53125237  0.77101997  0.91538570  1
  Cu  Cu176  1  0.23977010  0.46875016  0.91538538  1
  Cu  Cu177  1  0.77101737  0.23976966  0.08461531  1
  Cu  Cu178  1  0.46874763  0.22898003  0.08461430  1
  Cu  Cu179  1  0.76022990  0.53124984  0.08461462  1
