# generated using pymatgen
data_Cu19NiC44
_symmetry_space_group_name_H-M   'P 1'
_cell_length_a   4.23082600
_cell_length_b   4.23082600
_cell_length_c   49.78427900
_cell_angle_alpha   90.00000000
_cell_angle_beta   90.00000000
_cell_angle_gamma   90.00000000
_symmetry_Int_Tables_number   1
_chemical_formula_structural   Cu19NiC44
_chemical_formula_sum   'Cu19 Ni1 C44'
_cell_volume   891.13305024
_cell_formula_units_Z   1
loop_
 _symmetry_equiv_pos_site_id
 _symmetry_equiv_pos_as_xyz
  1  'x, y, z'
loop_
 _atom_site_type_symbol
 _atom_site_label
 _atom_site_symmetry_multiplicity
 _atom_site_fract_x
 _atom_site_fract_y
 _atom_site_fract_z
 _atom_site_occupancy
  C  C0  1  0.00000000  0.00000000  0.20796800  1
  C  C1  1  0.00000000  0.00000000  0.45798900  1
  C  C2  1  0.00000000  0.00000000  0.70801000  1
  C  C3  1  0.00000000  0.00000000  0.95813300  1
  C  C4  1  0.00000000  0.00000000  0.04186700  1
  C  C5  1  0.00000000  0.00000000  0.29199000  1
  C  C6  1  0.00000000  0.00000000  0.54201100  1
  C  C7  1  0.00000000  0.00000000  0.79203200  1
  Ni  Ni8  1  0.50000000  0.50000000  0.00000000  1
  Cu  Cu9  1  0.50000000  0.00000000  0.12518000  1
  Cu  Cu10  1  0.50000000  0.00000000  0.37499200  1
  Cu  Cu11  1  0.50000000  0.00000000  0.62500800  1
  Cu  Cu12  1  0.50000000  0.00000000  0.87482000  1
  Cu  Cu13  1  0.00000000  0.50000000  0.12518000  1
  Cu  Cu14  1  0.00000000  0.50000000  0.37499200  1
  Cu  Cu15  1  0.00000000  0.50000000  0.62500800  1
  Cu  Cu16  1  0.00000000  0.50000000  0.87482000  1
  Cu  Cu17  1  0.50000000  0.50000000  0.16578000  1
  Cu  Cu18  1  0.50000000  0.50000000  0.41569400  1
  Cu  Cu19  1  0.50000000  0.50000000  0.66571100  1
  Cu  Cu20  1  0.50000000  0.50000000  0.91548400  1
  Cu  Cu21  1  0.50000000  0.50000000  0.08451600  1
  Cu  Cu22  1  0.50000000  0.50000000  0.33428900  1
  Cu  Cu23  1  0.50000000  0.50000000  0.58430600  1
  Cu  Cu24  1  0.50000000  0.50000000  0.83422000  1
  Cu  Cu25  1  0.50000000  0.50000000  0.24999100  1
  Cu  Cu26  1  0.50000000  0.50000000  0.50000000  1
  Cu  Cu27  1  0.50000000  0.50000000  0.75000900  1
  C  C28  1  0.50000000  0.50000000  0.20969200  1
  C  C29  1  0.50000000  0.50000000  0.45966400  1
  C  C30  1  0.50000000  0.50000000  0.70963400  1
  C  C31  1  0.50000000  0.50000000  0.95771100  1
  C  C32  1  0.50000000  0.50000000  0.04228900  1
  C  C33  1  0.50000000  0.50000000  0.29036600  1
  C  C34  1  0.50000000  0.50000000  0.54033600  1
  C  C35  1  0.50000000  0.50000000  0.79030800  1
  C  C36  1  0.00000000  0.50000000  0.00000000  1
  C  C37  1  0.00000000  0.50000000  0.25002600  1
  C  C38  1  0.00000000  0.50000000  0.50000000  1
  C  C39  1  0.00000000  0.50000000  0.74997400  1
  C  C40  1  0.50000000  0.00000000  0.00000000  1
  C  C41  1  0.50000000  0.00000000  0.25002600  1
  C  C42  1  0.50000000  0.00000000  0.50000000  1
  C  C43  1  0.50000000  0.00000000  0.74997400  1
  C  C44  1  0.00000000  0.50000000  0.16807500  1
  C  C45  1  0.00000000  0.50000000  0.41788100  1
  C  C46  1  0.00000000  0.50000000  0.66788000  1
  C  C47  1  0.00000000  0.50000000  0.91750100  1
  C  C48  1  0.50000000  0.00000000  0.16807500  1
  C  C49  1  0.50000000  0.00000000  0.41788100  1
  C  C50  1  0.50000000  0.00000000  0.66788000  1
  C  C51  1  0.50000000  0.00000000  0.91750100  1
  C  C52  1  0.00000000  0.50000000  0.08249900  1
  C  C53  1  0.00000000  0.50000000  0.33212000  1
  C  C54  1  0.00000000  0.50000000  0.58211900  1
  C  C55  1  0.00000000  0.50000000  0.83192500  1
  C  C56  1  0.50000000  0.00000000  0.08249900  1
  C  C57  1  0.50000000  0.00000000  0.33212000  1
  C  C58  1  0.50000000  0.00000000  0.58211900  1
  C  C59  1  0.50000000  0.00000000  0.83192500  1
  C  C60  1  0.00000000  0.00000000  0.12524900  1
  C  C61  1  0.00000000  0.00000000  0.37500600  1
  C  C62  1  0.00000000  0.00000000  0.62499400  1
  C  C63  1  0.00000000  0.00000000  0.87475100  1
