# generated using pymatgen
data_Cu2Ni2C
_symmetry_space_group_name_H-M   'P 1'
_cell_length_a   8.28502906
_cell_length_b   8.28502906
_cell_length_c   5.01062738
_cell_angle_alpha   88.46322688
_cell_angle_beta   88.46322688
_cell_angle_gamma   105.10599706
_symmetry_Int_Tables_number   1
_chemical_formula_structural   Cu2Ni2C
_chemical_formula_sum   'Cu8 Ni8 C4'
_cell_volume   331.73020310
_cell_formula_units_Z   4
loop_
 _symmetry_equiv_pos_site_id
 _symmetry_equiv_pos_as_xyz
  1  'x, y, z'
loop_
 _atom_site_type_symbol
 _atom_site_label
 _atom_site_symmetry_multiplicity
 _atom_site_fract_x
 _atom_site_fract_y
 _atom_site_fract_z
 _atom_site_occupancy
  C  C0  1  0.70956500  0.70956500  0.43322500  1
  C  C1  1  0.29043500  0.29043500  0.56677500  1
  C  C2  1  0.79976900  0.20023100  0.00000000  1
  C  C3  1  0.20023100  0.79976900  0.00000000  1
  Ni  Ni4  1  0.56487400  0.75095400  0.33480000  1
  Ni  Ni5  1  0.43512600  0.24904600  0.66520000  1
  Ni  Ni6  1  0.24904600  0.43512600  0.66520000  1
  Ni  Ni7  1  0.75095400  0.56487400  0.33480000  1
  Ni  Ni8  1  0.65763600  0.16926800  0.17882600  1
  Ni  Ni9  1  0.34236400  0.83073200  0.82117400  1
  Ni  Ni10  1  0.83073200  0.34236400  0.82117400  1
  Ni  Ni11  1  0.16926800  0.65763600  0.17882600  1
  Cu  Cu12  1  0.35901500  0.35901500  0.22053900  1
  Cu  Cu13  1  0.64098500  0.64098500  0.77946100  1
  Cu  Cu14  1  0.87963400  0.87963400  0.28021400  1
  Cu  Cu15  1  0.12036600  0.12036600  0.71978600  1
  Cu  Cu16  1  0.26198600  0.97432400  0.22820100  1
  Cu  Cu17  1  0.73801400  0.02567600  0.77179900  1
  Cu  Cu18  1  0.02567600  0.73801400  0.77179900  1
  Cu  Cu19  1  0.97432400  0.26198600  0.22820100  1
