# generated using pymatgen
data_CuNi2C11
_symmetry_space_group_name_H-M   'P 1'
_cell_length_a   7.52499574
_cell_length_b   7.57909030
_cell_length_c   7.52615563
_cell_angle_alpha   55.45903313
_cell_angle_beta   55.17332120
_cell_angle_gamma   55.38655244
_symmetry_Int_Tables_number   1
_chemical_formula_structural   CuNi2C11
_chemical_formula_sum   'Cu1 Ni2 C11'
_cell_volume   270.64722433
_cell_formula_units_Z   1
loop_
 _symmetry_equiv_pos_site_id
 _symmetry_equiv_pos_as_xyz
  1  'x, y, z'
loop_
 _atom_site_type_symbol
 _atom_site_label
 _atom_site_symmetry_multiplicity
 _atom_site_fract_x
 _atom_site_fract_y
 _atom_site_fract_z
 _atom_site_occupancy
  Ni  Ni0  1  0.88590500  0.88337400  0.88550900  1
  Ni  Ni1  1  0.13966800  0.13683100  0.13928800  1
  Cu  Cu2  1  0.48422500  0.48217800  0.48417000  1
  C  C3  1  0.53439500  0.52923400  0.93983200  1
  C  C4  1  0.93885400  0.52988000  0.53431000  1
  C  C5  1  0.52916000  0.94812800  0.52841800  1
  C  C6  1  0.75544000  0.75817900  0.75609500  1
  C  C7  1  0.24383400  0.24684600  0.72317100  1
  C  C8  1  0.24401000  0.72367200  0.24512600  1
  C  C9  1  0.72317700  0.24596600  0.24416100  1
  C  C10  1  0.72936800  0.28572200  0.72888900  1
  C  C11  1  0.29248000  0.72901500  0.72886000  1
  C  C12  1  0.27054700  0.27246500  0.27063400  1
  C  C13  1  0.72894000  0.72850600  0.29154000  1
