# generated using pymatgen
data_Cu3Ni3C19
_symmetry_space_group_name_H-M   'P 1'
_cell_length_a   8.99598861
_cell_length_b   8.99598861
_cell_length_c   8.99598806
_cell_angle_alpha   90.47674119
_cell_angle_beta   90.47674119
_cell_angle_gamma   90.47674229
_symmetry_Int_Tables_number   1
_chemical_formula_structural   Cu3Ni3C19
_chemical_formula_sum   'Cu6 Ni6 C38'
_cell_volume   727.94959461
_cell_formula_units_Z   2
loop_
 _symmetry_equiv_pos_site_id
 _symmetry_equiv_pos_as_xyz
  1  'x, y, z'
loop_
 _atom_site_type_symbol
 _atom_site_label
 _atom_site_symmetry_multiplicity
 _atom_site_fract_x
 _atom_site_fract_y
 _atom_site_fract_z
 _atom_site_occupancy
  C  C0  1  0.31697900  0.67991000  0.32000700  1
  C  C1  1  0.67991000  0.32000700  0.31697900  1
  C  C2  1  0.32000700  0.31697900  0.67991000  1
  C  C3  1  0.17991000  0.81697900  0.82000700  1
  C  C4  1  0.82000700  0.17991000  0.81697900  1
  C  C5  1  0.81697900  0.82000700  0.17991000  1
  Ni  Ni6  1  0.99505500  0.75173500  0.50291600  1
  Ni  Ni7  1  0.50291600  0.99505500  0.75173500  1
  Ni  Ni8  1  0.75173500  0.50291600  0.99505500  1
  Ni  Ni9  1  0.49505500  0.00291600  0.25173500  1
  Ni  Ni10  1  0.25173500  0.49505500  0.00291600  1
  Ni  Ni11  1  0.00291600  0.25173500  0.49505500  1
  Cu  Cu12  1  0.50019200  0.75002000  0.00121500  1
  Cu  Cu13  1  0.00121500  0.50019200  0.75002000  1
  Cu  Cu14  1  0.75002000  0.00121500  0.50019200  1
  Cu  Cu15  1  0.00019200  0.50121500  0.25002000  1
  Cu  Cu16  1  0.25002000  0.00019200  0.50121500  1
  Cu  Cu17  1  0.50121500  0.25002000  0.00019200  1
  C  C18  1  0.94761500  0.64111000  0.65328800  1
  C  C19  1  0.65328800  0.94761500  0.64111000  1
  C  C20  1  0.64111000  0.65328800  0.94761500  1
  C  C21  1  0.05837200  0.64009300  0.35510600  1
  C  C22  1  0.35039800  0.93606500  0.36389700  1
  C  C23  1  0.36390800  0.64673000  0.06252100  1
  C  C24  1  0.93606500  0.36389700  0.35039800  1
  C  C25  1  0.64673000  0.06252100  0.36390800  1
  C  C26  1  0.64009300  0.35510600  0.05837200  1
  C  C27  1  0.06252100  0.36390800  0.64673000  1
  C  C28  1  0.35510600  0.05837200  0.64009300  1
  C  C29  1  0.36389700  0.35039800  0.93606500  1
  C  C30  1  0.43606500  0.85039800  0.86389700  1
  C  C31  1  0.14673000  0.86390800  0.56252100  1
  C  C32  1  0.14009300  0.55837200  0.85510600  1
  C  C33  1  0.56252100  0.14673000  0.86390800  1
  C  C34  1  0.85510600  0.14009300  0.55837200  1
  C  C35  1  0.86389700  0.43606500  0.85039800  1
  C  C36  1  0.44761500  0.15328800  0.14111000  1
  C  C37  1  0.15328800  0.14111000  0.44761500  1
  C  C38  1  0.14111000  0.44761500  0.15328800  1
  C  C39  1  0.55837200  0.85510600  0.14009300  1
  C  C40  1  0.85039800  0.86389700  0.43606500  1
  C  C41  1  0.86390800  0.56252100  0.14673000  1
  C  C42  1  0.93536600  0.93536600  0.93536600  1
  C  C43  1  0.07232500  0.91149700  0.07287900  1
  C  C44  1  0.91149700  0.07287900  0.07232500  1
  C  C45  1  0.07287900  0.07232500  0.91149700  1
  C  C46  1  0.41149700  0.57232500  0.57287900  1
  C  C47  1  0.57287900  0.41149700  0.57232500  1
  C  C48  1  0.43536600  0.43536600  0.43536600  1
  C  C49  1  0.57232500  0.57287900  0.41149700  1
