# generated using pymatgen
data_Cu4Ni3C16
_symmetry_space_group_name_H-M   'P 1'
_cell_length_a   8.61132700
_cell_length_b   8.61132700
_cell_length_c   8.61132700
_cell_angle_alpha   90.00000000
_cell_angle_beta   90.00000000
_cell_angle_gamma   90.00000000
_symmetry_Int_Tables_number   1
_chemical_formula_structural   Cu4Ni3C16
_chemical_formula_sum   'Cu8 Ni6 C32'
_cell_volume   638.57254638
_cell_formula_units_Z   2
loop_
 _symmetry_equiv_pos_site_id
 _symmetry_equiv_pos_as_xyz
  1  'x, y, z'
loop_
 _atom_site_type_symbol
 _atom_site_label
 _atom_site_symmetry_multiplicity
 _atom_site_fract_x
 _atom_site_fract_y
 _atom_site_fract_z
 _atom_site_occupancy
  Ni  Ni0  1  0.25000000  0.50000000  0.00000000  1
  Ni  Ni1  1  0.50000000  0.00000000  0.75000000  1
  Ni  Ni2  1  0.50000000  0.00000000  0.25000000  1
  Ni  Ni3  1  0.00000000  0.25000000  0.50000000  1
  Ni  Ni4  1  0.00000000  0.75000000  0.50000000  1
  Ni  Ni5  1  0.75000000  0.50000000  0.00000000  1
  Cu  Cu6  1  0.32369000  0.67631000  0.32369000  1
  Cu  Cu7  1  0.67631000  0.32369000  0.32369000  1
  Cu  Cu8  1  0.82369000  0.82369000  0.17631000  1
  Cu  Cu9  1  0.17631000  0.82369000  0.82369000  1
  Cu  Cu10  1  0.82369000  0.17631000  0.82369000  1
  Cu  Cu11  1  0.67631000  0.67631000  0.67631000  1
  Cu  Cu12  1  0.17631000  0.17631000  0.17631000  1
  Cu  Cu13  1  0.32369000  0.32369000  0.67631000  1
  C  C14  1  0.75000000  0.00000000  0.50000000  1
  C  C15  1  0.50000000  0.75000000  0.00000000  1
  C  C16  1  0.50000000  0.25000000  0.00000000  1
  C  C17  1  0.25000000  0.00000000  0.50000000  1
  C  C18  1  0.00000000  0.50000000  0.25000000  1
  C  C19  1  0.00000000  0.50000000  0.75000000  1
  C  C20  1  0.00000000  0.00000000  0.00000000  1
  C  C21  1  0.50000000  0.50000000  0.50000000  1
  C  C22  1  0.85511600  0.43265400  0.85522100  1
  C  C23  1  0.85511600  0.56734600  0.14477900  1
  C  C24  1  0.43265400  0.85522100  0.85511600  1
  C  C25  1  0.56734600  0.85522100  0.14488400  1
  C  C26  1  0.85522100  0.85511600  0.43265400  1
  C  C27  1  0.14477900  0.14488400  0.43265400  1
  C  C28  1  0.35511600  0.35522100  0.93265400  1
  C  C29  1  0.14488400  0.43265400  0.14477900  1
  C  C30  1  0.14488400  0.56734600  0.85522100  1
  C  C31  1  0.56734600  0.14477900  0.85511600  1
  C  C32  1  0.43265400  0.14477900  0.14488400  1
  C  C33  1  0.85522100  0.14488400  0.56734600  1
  C  C34  1  0.14477900  0.85511600  0.56734600  1
  C  C35  1  0.93265400  0.35511600  0.35522100  1
  C  C36  1  0.35522100  0.93265400  0.35511600  1
  C  C37  1  0.64477900  0.06734600  0.35511600  1
  C  C38  1  0.93265400  0.64488400  0.64477900  1
  C  C39  1  0.64477900  0.93265400  0.64488400  1
  C  C40  1  0.06734600  0.64488400  0.35522100  1
  C  C41  1  0.06734600  0.35511600  0.64477900  1
  C  C42  1  0.35522100  0.06734600  0.64488400  1
  C  C43  1  0.35511600  0.64477900  0.06734600  1
  C  C44  1  0.64488400  0.35522100  0.06734600  1
  C  C45  1  0.64488400  0.64477900  0.93265400  1
