# generated using pymatgen
data_Cu48Ni62C59
_symmetry_space_group_name_H-M   'P 1'
_cell_length_a   15.02155604
_cell_length_b   15.02155604
_cell_length_c   15.02155604
_cell_angle_alpha   90.00000000
_cell_angle_beta   90.00000000
_cell_angle_gamma   90.00000000
_symmetry_Int_Tables_number   1
_chemical_formula_structural   Cu48Ni62C59
_chemical_formula_sum   'Cu48 Ni62 C59'
_cell_volume   3389.57124685
_cell_formula_units_Z   1
loop_
 _symmetry_equiv_pos_site_id
 _symmetry_equiv_pos_as_xyz
  1  'x, y, z'
loop_
 _atom_site_type_symbol
 _atom_site_label
 _atom_site_symmetry_multiplicity
 _atom_site_fract_x
 _atom_site_fract_y
 _atom_site_fract_z
 _atom_site_occupancy
  C  C0  1  0.09800953  0.24993743  0.75006257  1
  C  C1  1  0.24993743  0.24993743  0.90199047  1
  C  C2  1  0.24993743  0.09800953  0.75006257  1
  C  C3  1  0.09800953  0.75006257  0.24993743  1
  C  C4  1  0.24993743  0.75006257  0.09800953  1
  C  C5  1  0.24993743  0.90199047  0.24993743  1
  C  C6  1  0.90199047  0.24993743  0.24993743  1
  C  C7  1  0.75006257  0.24993743  0.09800953  1
  C  C8  1  0.75006257  0.09800953  0.24993743  1
  C  C9  1  0.90199047  0.75006257  0.75006257  1
  C  C10  1  0.75006257  0.75006257  0.90199047  1
  C  C11  1  0.75006257  0.90199047  0.75006257  1
  C  C12  1  0.90199047  0.75006257  0.24993743  1
  C  C13  1  0.75006257  0.75006257  0.09800953  1
  C  C14  1  0.75006257  0.90199047  0.24993743  1
  C  C15  1  0.90199047  0.24993743  0.75006257  1
  C  C16  1  0.75006257  0.24993743  0.90199047  1
  C  C17  1  0.75006257  0.09800953  0.75006257  1
  C  C18  1  0.09800953  0.75006257  0.75006257  1
  C  C19  1  0.24993743  0.75006257  0.90199047  1
  C  C20  1  0.24993743  0.90199047  0.75006257  1
  C  C21  1  0.09800953  0.24993743  0.24993743  1
  C  C22  1  0.24993743  0.24993743  0.09800953  1
  C  C23  1  0.24993743  0.09800953  0.24993743  1
  C  C24  1  -0.00000000  0.17052226  -0.00000000  1
  C  C25  1  0.17052226  0.00000000  -0.00000000  1
  C  C26  1  -0.00000000  0.00000000  0.82947774  1
  C  C27  1  -0.00000000  0.82947774  -0.00000000  1
  C  C28  1  -0.00000000  0.00000000  0.17052226  1
  C  C29  1  0.82947774  0.00000000  -0.00000000  1
  C  C30  1  -0.00000000  0.50000000  -0.00000000  1
  C  C31  1  0.50000000  0.00000000  -0.00000000  1
  C  C32  1  -0.00000000  0.00000000  0.50000000  1
  C  C33  1  0.50000000  0.50000000  0.77163120  1
  C  C34  1  0.50000000  0.22836880  0.50000000  1
  C  C35  1  0.22836880  0.50000000  0.50000000  1
  C  C36  1  0.50000000  0.50000000  0.22836880  1
  C  C37  1  0.50000000  0.77163120  0.50000000  1
  C  C38  1  0.77163120  0.50000000  0.50000000  1
  C  C39  1  0.29947487  0.29947487  0.70052513  1
  C  C40  1  0.29947487  0.70052513  0.29947487  1
  C  C41  1  0.70052513  0.29947487  0.29947487  1
  C  C42  1  0.70052513  0.70052513  0.70052513  1
  C  C43  1  0.70052513  0.70052513  0.29947487  1
  C  C44  1  0.70052513  0.29947487  0.70052513  1
  C  C45  1  0.29947487  0.70052513  0.70052513  1
  C  C46  1  0.29947487  0.29947487  0.29947487  1
  C  C47  1  -0.00000000  0.50000000  0.73229698  1
  C  C48  1  0.50000000  0.26770302  -0.00000000  1
  C  C49  1  0.26770302  0.00000000  0.50000000  1
  C  C50  1  -0.00000000  0.26770302  0.50000000  1
  C  C51  1  0.50000000  0.00000000  0.73229698  1
  C  C52  1  0.26770302  0.50000000  -0.00000000  1
  C  C53  1  -0.00000000  0.50000000  0.26770302  1
  C  C54  1  0.50000000  0.73229698  -0.00000000  1
  C  C55  1  -0.00000000  0.73229698  0.50000000  1
  C  C56  1  0.50000000  0.00000000  0.26770302  1
  C  C57  1  0.73229698  0.00000000  0.50000000  1
  C  C58  1  0.73229698  0.50000000  -0.00000000  1
  Ni  Ni59  1  0.11784122  0.11784122  0.88215878  1
  Ni  Ni60  1  0.11784122  0.88215878  0.11784122  1
  Ni  Ni61  1  0.88215878  0.11784122  0.11784122  1
  Ni  Ni62  1  0.88215878  0.88215878  0.88215878  1
  Ni  Ni63  1  0.88215878  0.88215878  0.11784122  1
  Ni  Ni64  1  0.88215878  0.11784122  0.88215878  1
  Ni  Ni65  1  0.11784122  0.88215878  0.88215878  1
  Ni  Ni66  1  0.11784122  0.11784122  0.11784122  1
  Ni  Ni67  1  0.12310558  0.38418336  0.61581664  1
  Ni  Ni68  1  0.38418336  0.38418336  0.87689442  1
  Ni  Ni69  1  0.38418336  0.12310558  0.61581664  1
  Ni  Ni70  1  0.12310558  0.61581664  0.38418336  1
  Ni  Ni71  1  0.38418336  0.61581664  0.12310558  1
  Ni  Ni72  1  0.38418336  0.87689442  0.38418336  1
  Ni  Ni73  1  0.87689442  0.38418336  0.38418336  1
  Ni  Ni74  1  0.61581664  0.38418336  0.12310558  1
  Ni  Ni75  1  0.61581664  0.12310558  0.38418336  1
  Ni  Ni76  1  0.87689442  0.61581664  0.61581664  1
  Ni  Ni77  1  0.61581664  0.61581664  0.87689442  1
  Ni  Ni78  1  0.61581664  0.87689442  0.61581664  1
  Ni  Ni79  1  0.87689442  0.61581664  0.38418336  1
  Ni  Ni80  1  0.61581664  0.61581664  0.12310558  1
  Ni  Ni81  1  0.61581664  0.87689442  0.38418336  1
  Ni  Ni82  1  0.87689442  0.38418336  0.61581664  1
  Ni  Ni83  1  0.61581664  0.38418336  0.87689442  1
  Ni  Ni84  1  0.61581664  0.12310558  0.61581664  1
  Ni  Ni85  1  0.12310558  0.61581664  0.61581664  1
  Ni  Ni86  1  0.38418336  0.61581664  0.87689442  1
  Ni  Ni87  1  0.38418336  0.87689442  0.61581664  1
  Ni  Ni88  1  0.12310558  0.38418336  0.38418336  1
  Ni  Ni89  1  0.38418336  0.38418336  0.12310558  1
  Ni  Ni90  1  0.38418336  0.12310558  0.38418336  1
  Ni  Ni91  1  -0.00000000  0.33476002  -0.00000000  1
  Ni  Ni92  1  0.33476002  0.00000000  -0.00000000  1
  Ni  Ni93  1  -0.00000000  0.00000000  0.66523998  1
  Ni  Ni94  1  -0.00000000  0.66523998  -0.00000000  1
  Ni  Ni95  1  -0.00000000  0.00000000  0.33476002  1
  Ni  Ni96  1  0.66523998  0.00000000  -0.00000000  1
  Ni  Ni97  1  0.12599619  0.50000000  0.87400381  1
  Ni  Ni98  1  0.50000000  0.12599619  0.87400381  1
  Ni  Ni99  1  0.12599619  0.12599619  0.50000000  1
  Ni  Ni100  1  0.12599619  0.50000000  0.12599619  1
  Ni  Ni101  1  0.50000000  0.87400381  0.12599619  1
  Ni  Ni102  1  0.12599619  0.87400381  0.50000000  1
  Ni  Ni103  1  0.87400381  0.50000000  0.12599619  1
  Ni  Ni104  1  0.50000000  0.12599619  0.12599619  1
  Ni  Ni105  1  0.87400381  0.12599619  0.50000000  1
  Ni  Ni106  1  0.87400381  0.50000000  0.87400381  1
  Ni  Ni107  1  0.50000000  0.87400381  0.87400381  1
  Ni  Ni108  1  0.87400381  0.87400381  0.50000000  1
  Ni  Ni109  1  0.32270609  0.50000000  0.67729391  1
  Ni  Ni110  1  0.50000000  0.32270609  0.67729391  1
  Ni  Ni111  1  0.32270609  0.32270609  0.50000000  1
  Ni  Ni112  1  0.32270609  0.50000000  0.32270609  1
  Ni  Ni113  1  0.50000000  0.67729391  0.32270609  1
  Ni  Ni114  1  0.32270609  0.67729391  0.50000000  1
  Ni  Ni115  1  0.67729391  0.50000000  0.32270609  1
  Ni  Ni116  1  0.50000000  0.32270609  0.32270609  1
  Ni  Ni117  1  0.67729391  0.32270609  0.50000000  1
  Ni  Ni118  1  0.67729391  0.50000000  0.67729391  1
  Ni  Ni119  1  0.50000000  0.67729391  0.67729391  1
  Ni  Ni120  1  0.67729391  0.67729391  0.50000000  1
  Cu  Cu121  1  0.21261168  0.31705842  -0.00000000  1
  Cu  Cu122  1  0.31705842  0.00000000  0.78738832  1
  Cu  Cu123  1  -0.00000000  0.21261168  0.68294158  1
  Cu  Cu124  1  0.21261168  0.00000000  0.68294158  1
  Cu  Cu125  1  0.31705842  0.21261168  -0.00000000  1
  Cu  Cu126  1  -0.00000000  0.31705842  0.78738832  1
  Cu  Cu127  1  0.21261168  0.68294158  -0.00000000  1
  Cu  Cu128  1  0.31705842  0.00000000  0.21261168  1
  Cu  Cu129  1  -0.00000000  0.78738832  0.31705842  1
  Cu  Cu130  1  0.21261168  0.00000000  0.31705842  1
  Cu  Cu131  1  0.31705842  0.78738832  -0.00000000  1
  Cu  Cu132  1  -0.00000000  0.68294158  0.21261168  1
  Cu  Cu133  1  0.78738832  0.31705842  -0.00000000  1
  Cu  Cu134  1  0.68294158  0.00000000  0.21261168  1
  Cu  Cu135  1  -0.00000000  0.21261168  0.31705842  1
  Cu  Cu136  1  0.78738832  0.00000000  0.31705842  1
  Cu  Cu137  1  0.68294158  0.21261168  -0.00000000  1
  Cu  Cu138  1  -0.00000000  0.31705842  0.21261168  1
  Cu  Cu139  1  0.78738832  0.68294158  -0.00000000  1
  Cu  Cu140  1  0.68294158  0.00000000  0.78738832  1
  Cu  Cu141  1  -0.00000000  0.78738832  0.68294158  1
  Cu  Cu142  1  0.78738832  0.00000000  0.68294158  1
  Cu  Cu143  1  0.68294158  0.78738832  -0.00000000  1
  Cu  Cu144  1  -0.00000000  0.68294158  0.78738832  1
  Cu  Cu145  1  0.31022782  0.18649994  0.81350006  1
  Cu  Cu146  1  0.18649994  0.18649994  0.68977218  1
  Cu  Cu147  1  0.18649994  0.31022782  0.81350006  1
  Cu  Cu148  1  0.31022782  0.81350006  0.18649994  1
  Cu  Cu149  1  0.18649994  0.81350006  0.31022782  1
  Cu  Cu150  1  0.18649994  0.68977218  0.18649994  1
  Cu  Cu151  1  0.68977218  0.18649994  0.18649994  1
  Cu  Cu152  1  0.81350006  0.18649994  0.31022782  1
  Cu  Cu153  1  0.81350006  0.31022782  0.18649994  1
  Cu  Cu154  1  0.68977218  0.81350006  0.81350006  1
  Cu  Cu155  1  0.81350006  0.81350006  0.68977218  1
  Cu  Cu156  1  0.81350006  0.68977218  0.81350006  1
  Cu  Cu157  1  0.68977218  0.81350006  0.18649994  1
  Cu  Cu158  1  0.81350006  0.81350006  0.31022782  1
  Cu  Cu159  1  0.81350006  0.68977218  0.18649994  1
  Cu  Cu160  1  0.68977218  0.18649994  0.81350006  1
  Cu  Cu161  1  0.81350006  0.18649994  0.68977218  1
  Cu  Cu162  1  0.81350006  0.31022782  0.81350006  1
  Cu  Cu163  1  0.31022782  0.81350006  0.81350006  1
  Cu  Cu164  1  0.18649994  0.81350006  0.68977218  1
  Cu  Cu165  1  0.18649994  0.68977218  0.81350006  1
  Cu  Cu166  1  0.31022782  0.18649994  0.18649994  1
  Cu  Cu167  1  0.18649994  0.18649994  0.31022782  1
  Cu  Cu168  1  0.18649994  0.31022782  0.18649994  1
