# generated using pymatgen
data_Cu15NiC8
_symmetry_space_group_name_H-M   'P 1'
_cell_length_a   7.88862140
_cell_length_b   19.00000815
_cell_length_c   18.99977044
_cell_angle_alpha   120.00048747
_cell_angle_beta   89.99995199
_cell_angle_gamma   90.00172080
_symmetry_Int_Tables_number   1
_chemical_formula_structural   Cu15NiC8
_chemical_formula_sum   'Cu90 Ni6 C48'
_cell_volume   2466.21964326
_cell_formula_units_Z   6
loop_
 _symmetry_equiv_pos_site_id
 _symmetry_equiv_pos_as_xyz
  1  'x, y, z'
loop_
 _atom_site_type_symbol
 _atom_site_label
 _atom_site_symmetry_multiplicity
 _atom_site_fract_x
 _atom_site_fract_y
 _atom_site_fract_z
 _atom_site_occupancy
  C  C0  1  0.76735035  0.08889892  0.17564563  1
  C  C1  1  0.76645275  0.75189046  0.50748227  1
  C  C2  1  0.76677036  0.41961977  0.84105996  1
  C  C3  1  0.76739274  0.42007198  0.57775441  1
  C  C4  1  0.76651641  0.08892905  0.91478025  1
  C  C5  1  0.76670423  0.75477096  0.24703171  1
  C  C6  1  0.76732533  0.49100578  0.24657725  1
  C  C7  1  0.76646255  0.15918271  0.57773472  1
  C  C8  1  0.76672520  0.82560621  0.91190476  1
  C  C9  1  0.26755380  0.91180046  0.82523769  1
  C  C10  1  0.26727347  0.57777435  0.15896372  1
  C  C11  1  0.26750309  0.24645942  0.49101919  1
  C  C12  1  0.26745273  0.57789095  0.42018432  1
  C  C13  1  0.26753300  0.24676221  0.75486508  1
  C  C14  1  0.26725375  0.91452283  0.08890880  1
  C  C15  1  0.26734478  0.17567335  0.08878382  1
  C  C16  1  0.26757152  0.84141896  0.41989520  1
  C  C17  1  0.26723902  0.50771385  0.75214760  1
  C  C18  1  0.51484627  0.33291720  0.00135140  1
  C  C19  1  0.51476095  0.00175767  0.33377185  1
  C  C20  1  0.51482311  0.66530816  0.66490788  1
  C  C21  1  0.51023649  0.99997831  0.66665485  1
  C  C22  1  0.51031442  0.66667858  0.00002320  1
  C  C23  1  0.51456879  0.33334241  0.33335963  1
  C  C24  1  0.01037192  -0.00001088  0.66667543  1
  C  C25  1  0.01020208  0.66665618  0.00000669  1
  C  C26  1  0.02410001  0.33333062  0.33334608  1
  C  C27  1  0.02362789  0.33263158  0.99884898  1
  C  C28  1  0.02356726  0.99954134  0.33401215  1
  C  C29  1  0.02356506  0.66781155  0.66713156  1
  C  C30  1  0.20035064  0.13155018  0.26249254  1
  C  C31  1  0.20591776  0.79357238  0.59423266  1
  C  C32  1  0.20585313  0.46046525  0.92792380  1
  C  C33  1  0.20035043  0.46416281  0.53502494  1
  C  C34  1  0.20584325  0.13393402  0.87301314  1
  C  C35  1  0.20557807  0.80078001  0.20616757  1
  C  C36  1  0.20028988  0.40422281  0.20249647  1
  C  C37  1  0.20579360  0.07239877  0.53262768  1
  C  C38  1  0.20556493  0.73869404  0.86588665  1
  C  C39  1  0.71802554  0.86920654  0.74150357  1
  C  C40  1  0.71799274  0.53586833  0.07523286  1
  C  C41  1  0.72301627  0.20461731  0.40812247  1
  C  C42  1  0.72284069  0.53681992  0.46194345  1
  C  C43  1  0.71821027  0.20551378  0.79735895  1
  C  C44  1  0.71794986  0.87268595  0.13080392  1
  C  C45  1  0.72286109  0.25846977  0.12987843  1
  C  C46  1  0.71794308  0.92518649  0.46106828  1
  C  C47  1  0.71807955  0.59139779  0.79396855  1
  Ni  Ni48  1  0.05131730  0.99977883  0.00013211  1
  Ni  Ni49  1  0.05130154  0.66654032  0.33296283  1
  Ni  Ni50  1  0.05129248  0.33369858  0.66689928  1
  Ni  Ni51  1  0.54900935  0.99998835  0.00050022  1
  Ni  Ni52  1  0.54898659  0.66616490  0.33282217  1
  Ni  Ni53  1  0.54901489  0.33383481  0.66664661  1
  Cu  Cu54  1  0.06275398  0.70474790  0.55129776  1
  Cu  Cu55  1  0.06251803  0.37155218  0.88446906  1
  Cu  Cu56  1  0.06075682  0.04186673  0.21775345  1
  Cu  Cu57  1  0.06071928  0.50923259  0.62482112  1
  Cu  Cu58  1  0.06272276  0.17991642  0.96194713  1
  Cu  Cu59  1  0.06240600  0.84630223  0.29516958  1
  Cu  Cu60  1  0.06244465  0.78217982  0.82037757  1
  Cu  Cu61  1  0.06072785  0.44892846  0.15743639  1
  Cu  Cu62  1  0.06266817  0.11532781  0.48671928  1
  Cu  Cu63  1  0.06014116  0.17723980  0.21833998  1
  Cu  Cu64  1  0.06606713  0.83801743  0.54901744  1
  Cu  Cu65  1  0.06609214  0.50497257  0.88264924  1
  Cu  Cu66  1  0.06014302  0.44832094  0.29219660  1
  Cu  Cu67  1  0.06599704  0.11761779  0.62229658  1
  Cu  Cu68  1  0.06607150  0.78396841  0.95560118  1
  Cu  Cu69  1  0.06016564  0.37447603  0.48943852  1
  Cu  Cu70  1  0.06607890  0.04435327  0.82866807  1
  Cu  Cu71  1  0.06605069  0.71107486  0.16173434  1
  Cu  Cu72  1  0.57179601  0.29152709  0.44953548  1
  Cu  Cu73  1  0.57232637  0.95783242  0.78487212  1
  Cu  Cu74  1  0.57198496  0.62449214  0.11840083  1
  Cu  Cu75  1  0.57188237  0.49133139  0.37518780  1
  Cu  Cu76  1  0.57221040  0.16037838  0.70880644  1
  Cu  Cu77  1  0.57198291  0.82722897  0.04217631  1
  Cu  Cu78  1  0.57186112  0.21719881  0.17531085  1
  Cu  Cu79  1  0.57224979  0.88175007  0.50628157  1
  Cu  Cu80  1  0.57198573  0.54829724  0.83945816  1
  Cu  Cu81  1  0.56971533  0.82389508  0.78298382  1
  Cu  Cu82  1  0.56919280  0.49095121  0.11747206  1
  Cu  Cu83  1  0.57234119  0.15911332  0.44950364  1
  Cu  Cu84  1  0.56925302  0.54923342  0.70687023  1
  Cu  Cu85  1  0.57237093  0.21722334  0.04296135  1
  Cu  Cu86  1  0.56961275  0.88366195  0.37422850  1
  Cu  Cu87  1  0.57239622  0.62367448  0.50756651  1
  Cu  Cu88  1  0.56951139  0.29248151  0.84279840  1
  Cu  Cu89  1  0.56924768  0.95980936  0.17571566  1
  Cu  Cu90  1  0.24199514  0.76741533  0.67601539  1
  Cu  Cu91  1  0.24052989  0.43419504  0.00978987  1
  Cu  Cu92  1  0.24165889  0.10514154  0.34331037  1
  Cu  Cu93  1  0.24169136  0.57154201  0.56154373  1
  Cu  Cu94  1  0.24200160  0.24196756  0.89926357  1
  Cu  Cu95  1  0.24044887  0.90900756  0.23250478  1
  Cu  Cu96  1  0.24044699  0.65681824  0.75767110  1
  Cu  Cu97  1  0.24166249  0.32336060  0.09513070  1
  Cu  Cu98  1  0.24191910  0.99059741  0.42467450  1
  Cu  Cu99  1  0.24016853  0.23970585  0.34348701  1
  Cu  Cu100  1  0.25410798  0.89987288  0.67468929  1
  Cu  Cu101  1  0.25421212  0.56666706  0.00838063  1
  Cu  Cu102  1  0.24013212  0.32320833  0.22955279  1
  Cu  Cu103  1  0.25405150  0.99195428  0.55847932  1
  Cu  Cu104  1  0.25411428  0.65826918  0.89158639  1
  Cu  Cu105  1  0.24017016  0.43712342  0.42697974  1
  Cu  Cu106  1  0.25409252  0.10816096  0.76681444  1
  Cu  Cu107  1  0.25411291  0.77507895  0.10004712  1
  Cu  Cu108  1  0.77611761  0.23329142  0.33043094  1
  Cu  Cu109  1  0.75542738  0.89256055  0.65849195  1
  Cu  Cu110  1  0.75525453  0.55922480  0.99229541  1
  Cu  Cu111  1  0.77611750  0.43042658  0.43340282  1
  Cu  Cu112  1  0.75533664  0.09933492  0.77410284  1
  Cu  Cu113  1  0.75527578  0.76637056  0.10742926  1
  Cu  Cu114  1  0.77613199  0.33628328  0.23621764  1
  Cu  Cu115  1  0.75537818  0.00812001  0.56737768  1
  Cu  Cu116  1  0.75526720  0.67441211  0.90032195  1
  Cu  Cu117  1  0.77844206  0.76296120  0.66534830  1
  Cu  Cu118  1  0.77757677  0.42969478  0.99921040  1
  Cu  Cu119  1  0.77499444  0.09866860  0.32993442  1
  Cu  Cu120  1  0.77761680  0.66748727  0.76385532  1
  Cu  Cu121  1  0.77502493  0.33684823  0.10208612  1
  Cu  Cu122  1  0.77839147  0.00129536  0.43094959  1
  Cu  Cu123  1  0.77504292  0.56457969  0.56807102  1
  Cu  Cu124  1  0.77838069  0.23573376  0.90369954  1
  Cu  Cu125  1  0.77761792  0.90283021  0.23696944  1
  Cu  Cu126  1  0.37794010  0.09906028  0.19705530  1
  Cu  Cu127  1  0.38235606  0.75973185  0.52814452  1
  Cu  Cu128  1  0.38182653  0.42662623  0.86176679  1
  Cu  Cu129  1  0.37796006  0.43134723  0.56760674  1
  Cu  Cu130  1  0.38233369  0.10177336  0.90694718  1
  Cu  Cu131  1  0.38172474  0.76851131  0.24006643  1
  Cu  Cu132  1  0.37792701  0.46963699  0.23534554  1
  Cu  Cu133  1  0.38223465  0.13847205  0.56485532  1
  Cu  Cu134  1  0.38176131  0.80488124  0.89817739  1
  Cu  Cu135  1  0.88725483  0.24081503  0.48085440  1
  Cu  Cu136  1  0.88754456  0.90690687  0.81134423  1
  Cu  Cu137  1  0.88772974  0.57352500  0.14473501  1
  Cu  Cu138  1  0.88724520  0.57335843  0.42588249  1
  Cu  Cu139  1  0.88736279  0.23779620  0.75977376  1
  Cu  Cu140  1  0.88776655  0.90454174  0.09314274  1
  Cu  Cu141  1  0.88723760  0.18586944  0.09329649  1
  Cu  Cu142  1  0.88748585  0.85529405  0.42887680  1
  Cu  Cu143  1  0.88775945  0.52198089  0.76217518  1
