# generated using pymatgen
data_CuNiC8
_symmetry_space_group_name_H-M   'P 1'
_cell_length_a   5.38623803
_cell_length_b   7.68470472
_cell_length_c   10.84207509
_cell_angle_alpha   78.05894735
_cell_angle_beta   100.94843132
_cell_angle_gamma   72.70592709
_symmetry_Int_Tables_number   1
_chemical_formula_structural   CuNiC8
_chemical_formula_sum   'Cu4 Ni4 C32'
_cell_volume   403.74002530
_cell_formula_units_Z   4
loop_
 _symmetry_equiv_pos_site_id
 _symmetry_equiv_pos_as_xyz
  1  'x, y, z'
loop_
 _atom_site_type_symbol
 _atom_site_label
 _atom_site_symmetry_multiplicity
 _atom_site_fract_x
 _atom_site_fract_y
 _atom_site_fract_z
 _atom_site_occupancy
  C  C0  1  0.01809900  0.49917400  0.34571800  1
  C  C1  1  0.51828300  0.99830800  0.84604900  1
  C  C2  1  0.98190400  0.50058900  0.65438600  1
  C  C3  1  0.48183200  0.00160000  0.15403900  1
  C  C4  1  0.22401300  0.53648000  0.14794200  1
  C  C5  1  0.72406900  0.03673400  0.64819600  1
  C  C6  1  0.77599800  0.46337600  0.85212100  1
  C  C7  1  0.27581700  0.96333700  0.35183600  1
  C  C8  1  0.49977300  0.50013900  0.49990900  1
  C  C9  1  0.74975600  0.25004500  0.25026500  1
  C  C10  1  0.24994800  0.75020300  0.74961300  1
  C  C11  1  0.00028400  0.99977400  0.00004300  1
  Ni  Ni12  1  0.36633800  0.30653200  0.93475900  1
  Ni  Ni13  1  0.86600600  0.80670900  0.43454500  1
  Ni  Ni14  1  0.63364300  0.69343300  0.06530800  1
  Ni  Ni15  1  0.13393100  0.19342400  0.56538100  1
  Cu  Cu16  1  0.10987900  0.22330700  0.13790400  1
  Cu  Cu17  1  0.61163900  0.72301400  0.63819000  1
  Cu  Cu18  1  0.89020400  0.77654900  0.86210900  1
  Cu  Cu19  1  0.38843200  0.27691800  0.36187500  1
  C  C20  1  0.42235500  0.39423100  0.32938100  1
  C  C21  1  0.92393000  0.89386800  0.82960300  1
  C  C22  1  0.57764300  0.60578100  0.67061000  1
  C  C23  1  0.07610100  0.10610900  0.17040500  1
  C  C24  1  0.40469100  0.31913900  0.07889300  1
  C  C25  1  0.90447600  0.82025000  0.57841200  1
  C  C26  1  0.59530400  0.68084600  0.92110600  1
  C  C27  1  0.09536900  0.18028900  0.42140000  1
  C  C28  1  0.84124500  0.50369200  0.16302600  1
  C  C29  1  0.34217300  0.00394600  0.66315700  1
  C  C30  1  0.15880300  0.49627800  0.83699600  1
  C  C31  1  0.65790400  0.99611300  0.33671900  1
  C  C32  1  0.24782000  0.14777300  0.92246100  1
  C  C33  1  0.74787500  0.64768600  0.42256200  1
  C  C34  1  0.75221500  0.85217900  0.07755800  1
  C  C35  1  0.25211200  0.35227900  0.57748400  1
  C  C36  1  0.63981100  0.25433200  0.89977600  1
  C  C37  1  0.13957500  0.75440800  0.39968800  1
  C  C38  1  0.36035300  0.74555200  0.10026500  1
  C  C39  1  0.86039700  0.24561200  0.60031100  1
