# generated using pymatgen
data_Cu18Ni36C43
_symmetry_space_group_name_H-M   'P 1'
_cell_length_a   11.73583934
_cell_length_b   11.73583934
_cell_length_c   11.73583934
_cell_angle_alpha   109.47122063
_cell_angle_beta   109.47122063
_cell_angle_gamma   109.47122063
_symmetry_Int_Tables_number   1
_chemical_formula_structural   Cu18Ni36C43
_chemical_formula_sum   'Cu18 Ni36 C43'
_cell_volume   1244.28703338
_cell_formula_units_Z   1
loop_
 _symmetry_equiv_pos_site_id
 _symmetry_equiv_pos_as_xyz
  1  'x, y, z'
loop_
 _atom_site_type_symbol
 _atom_site_label
 _atom_site_symmetry_multiplicity
 _atom_site_fract_x
 _atom_site_fract_y
 _atom_site_fract_z
 _atom_site_occupancy
  C  C0  1  0.74922200  0.42440600  0.42440600  1
  C  C1  1  0.25077800  0.67518400  0.67518400  1
  C  C2  1  0.00000000  0.57559400  0.32481600  1
  C  C3  1  0.42440600  0.42440600  0.74922200  1
  C  C4  1  0.00000000  0.32481600  0.57559400  1
  C  C5  1  0.67518400  0.67518400  0.25077800  1
  C  C6  1  0.57559400  0.32481600  0.00000000  1
  C  C7  1  0.32481600  0.57559400  0.00000000  1
  C  C8  1  0.42440600  0.74922200  0.42440600  1
  C  C9  1  0.32481600  0.00000000  0.57559400  1
  C  C10  1  0.57559400  0.00000000  0.32481600  1
  C  C11  1  0.67518400  0.25077800  0.67518400  1
  C  C12  1  0.00000000  0.00000000  0.00000000  1
  C  C13  1  0.59227100  0.75411800  0.75411800  1
  C  C14  1  0.40772900  0.16184600  0.16184600  1
  C  C15  1  0.00000000  0.24588200  0.83815400  1
  C  C16  1  0.75411800  0.75411800  0.59227100  1
  C  C17  1  0.00000000  0.83815400  0.24588200  1
  C  C18  1  0.16184600  0.16184600  0.40772900  1
  C  C19  1  0.24588200  0.83815400  0.00000000  1
  C  C20  1  0.83815400  0.24588200  0.00000000  1
  C  C21  1  0.75411800  0.59227100  0.75411800  1
  C  C22  1  0.83815400  0.00000000  0.24588200  1
  C  C23  1  0.24588200  0.00000000  0.83815400  1
  C  C24  1  0.16184600  0.40772900  0.16184600  1
  C  C25  1  0.70123500  0.70123500  0.00000000  1
  C  C26  1  0.29876500  0.29876500  0.00000000  1
  C  C27  1  0.70123500  0.00000000  0.70123500  1
  C  C28  1  0.29876500  0.00000000  0.29876500  1
  C  C29  1  0.00000000  0.70123500  0.70123500  1
  C  C30  1  0.00000000  0.29876500  0.29876500  1
  C  C31  1  0.30061300  0.45974200  0.45974200  1
  C  C32  1  0.69938700  0.15912900  0.15912900  1
  C  C33  1  0.00000000  0.54025800  0.84087100  1
  C  C34  1  0.45974200  0.45974200  0.30061300  1
  C  C35  1  0.00000000  0.84087100  0.54025800  1
  C  C36  1  0.15912900  0.15912900  0.69938700  1
  C  C37  1  0.54025800  0.84087100  0.00000000  1
  C  C38  1  0.84087100  0.54025800  0.00000000  1
  C  C39  1  0.45974200  0.30061300  0.45974200  1
  C  C40  1  0.84087100  0.00000000  0.54025800  1
  C  C41  1  0.54025800  0.00000000  0.84087100  1
  C  C42  1  0.15912900  0.69938700  0.15912900  1
  Ni  Ni43  1  0.14604900  0.44833400  0.44833400  1
  Ni  Ni44  1  0.85395100  0.30228500  0.30228500  1
  Ni  Ni45  1  0.00000000  0.55166600  0.69771500  1
  Ni  Ni46  1  0.44833400  0.44833400  0.14604900  1
  Ni  Ni47  1  0.00000000  0.69771500  0.55166600  1
  Ni  Ni48  1  0.30228500  0.30228500  0.85395100  1
  Ni  Ni49  1  0.55166600  0.69771500  0.00000000  1
  Ni  Ni50  1  0.69771500  0.55166600  0.00000000  1
  Ni  Ni51  1  0.44833400  0.14604900  0.44833400  1
  Ni  Ni52  1  0.69771500  0.00000000  0.55166600  1
  Ni  Ni53  1  0.55166600  0.00000000  0.69771500  1
  Ni  Ni54  1  0.30228500  0.85395100  0.30228500  1
  Ni  Ni55  1  0.47627400  0.32626000  0.32626000  1
  Ni  Ni56  1  0.52372600  0.84998600  0.84998600  1
  Ni  Ni57  1  0.00000000  0.67374000  0.15001400  1
  Ni  Ni58  1  0.32626000  0.32626000  0.47627400  1
  Ni  Ni59  1  0.00000000  0.15001400  0.67374000  1
  Ni  Ni60  1  0.84998600  0.84998600  0.52372600  1
  Ni  Ni61  1  0.67374000  0.15001400  0.00000000  1
  Ni  Ni62  1  0.15001400  0.67374000  0.00000000  1
  Ni  Ni63  1  0.32626000  0.47627400  0.32626000  1
  Ni  Ni64  1  0.15001400  0.00000000  0.67374000  1
  Ni  Ni65  1  0.67374000  0.00000000  0.15001400  1
  Ni  Ni66  1  0.84998600  0.52372600  0.84998600  1
  Ni  Ni67  1  0.84499200  0.68737400  0.68737400  1
  Ni  Ni68  1  0.15500800  0.84238200  0.84238200  1
  Ni  Ni69  1  0.00000000  0.31262600  0.15761800  1
  Ni  Ni70  1  0.68737400  0.68737400  0.84499200  1
  Ni  Ni71  1  0.00000000  0.15761800  0.31262600  1
  Ni  Ni72  1  0.84238200  0.84238200  0.15500800  1
  Ni  Ni73  1  0.31262600  0.15761800  0.00000000  1
  Ni  Ni74  1  0.15761800  0.31262600  0.00000000  1
  Ni  Ni75  1  0.68737400  0.84499200  0.68737400  1
  Ni  Ni76  1  0.15761800  0.00000000  0.31262600  1
  Ni  Ni77  1  0.31262600  0.00000000  0.15761800  1
  Ni  Ni78  1  0.84238200  0.15500800  0.84238200  1
  Cu  Cu79  1  0.42376600  0.60818400  0.60818400  1
  Cu  Cu80  1  0.57623400  0.18441800  0.18441800  1
  Cu  Cu81  1  0.00000000  0.39181600  0.81558200  1
  Cu  Cu82  1  0.60818400  0.60818400  0.42376600  1
  Cu  Cu83  1  0.00000000  0.81558200  0.39181600  1
  Cu  Cu84  1  0.18441800  0.18441800  0.57623400  1
  Cu  Cu85  1  0.39181600  0.81558200  0.00000000  1
  Cu  Cu86  1  0.81558200  0.39181600  0.00000000  1
  Cu  Cu87  1  0.60818400  0.42376600  0.60818400  1
  Cu  Cu88  1  0.81558200  0.00000000  0.39181600  1
  Cu  Cu89  1  0.39181600  0.00000000  0.81558200  1
  Cu  Cu90  1  0.18441800  0.57623400  0.18441800  1
  Cu  Cu91  1  0.25000000  0.75000000  0.50000000  1
  Cu  Cu92  1  0.75000000  0.25000000  0.50000000  1
  Cu  Cu93  1  0.75000000  0.50000000  0.25000000  1
  Cu  Cu94  1  0.25000000  0.50000000  0.75000000  1
  Cu  Cu95  1  0.50000000  0.25000000  0.75000000  1
  Cu  Cu96  1  0.50000000  0.75000000  0.25000000  1
