# generated using pymatgen
data_Cu13NiC6
_symmetry_space_group_name_H-M   'P 1'
_cell_length_a   8.03793000
_cell_length_b   8.03793000
_cell_length_c   12.86219814
_cell_angle_alpha   108.20773916
_cell_angle_beta   108.20773916
_cell_angle_gamma   90.00000000
_symmetry_Int_Tables_number   1
_chemical_formula_structural   Cu13NiC6
_chemical_formula_sum   'Cu26 Ni2 C12'
_cell_volume   745.46912975
_cell_formula_units_Z   2
loop_
 _symmetry_equiv_pos_site_id
 _symmetry_equiv_pos_as_xyz
  1  'x, y, z'
loop_
 _atom_site_type_symbol
 _atom_site_label
 _atom_site_symmetry_multiplicity
 _atom_site_fract_x
 _atom_site_fract_y
 _atom_site_fract_z
 _atom_site_occupancy
  C  C0  1  0.97652500  0.47652500  0.62827500  1
  C  C1  1  0.65175000  0.15175000  0.62827500  1
  C  C2  1  0.15175000  0.97652500  0.62827500  1
  C  C3  1  0.47652500  0.65175000  0.62827500  1
  C  C4  1  0.02347500  0.52347500  0.37172500  1
  C  C5  1  0.34825000  0.84825000  0.37172500  1
  C  C6  1  0.84825000  0.02347500  0.37172500  1
  C  C7  1  0.52347500  0.34825000  0.37172500  1
  C  C8  1  0.60523800  0.60523800  0.21047600  1
  C  C9  1  0.10523800  0.10523800  0.21047600  1
  C  C10  1  0.39476200  0.39476200  0.78952400  1
  C  C11  1  0.89476200  0.89476200  0.78952400  1
  Ni  Ni12  1  0.25000000  0.25000000  0.50000000  1
  Ni  Ni13  1  0.75000000  0.75000000  0.50000000  1
  Cu  Cu14  1  0.11930300  0.61930300  0.88191900  1
  Cu  Cu15  1  0.76261500  0.26261500  0.88191900  1
  Cu  Cu16  1  0.26261500  0.11930300  0.88191900  1
  Cu  Cu17  1  0.61930300  0.76261500  0.88191900  1
  Cu  Cu18  1  0.88069700  0.38069700  0.11808100  1
  Cu  Cu19  1  0.23738500  0.73738500  0.11808100  1
  Cu  Cu20  1  0.73738500  0.88069700  0.11808100  1
  Cu  Cu21  1  0.38069700  0.23738500  0.11808100  1
  Cu  Cu22  1  0.71133700  0.56698800  0.00000000  1
  Cu  Cu23  1  0.28866300  0.43301200  0.00000000  1
  Cu  Cu24  1  0.78866300  0.06698800  0.00000000  1
  Cu  Cu25  1  0.21133700  0.93301200  0.00000000  1
  Cu  Cu26  1  0.56698800  0.28866300  0.00000000  1
  Cu  Cu27  1  0.43301200  0.71133700  0.00000000  1
  Cu  Cu28  1  0.06698800  0.21133700  0.00000000  1
  Cu  Cu29  1  0.93301200  0.78866300  0.00000000  1
  Cu  Cu30  1  0.29106600  0.79106600  0.80989200  1
  Cu  Cu31  1  0.51882700  0.01882700  0.80989200  1
  Cu  Cu32  1  0.01882700  0.29106600  0.80989200  1
  Cu  Cu33  1  0.79106600  0.51882700  0.80989200  1
  Cu  Cu34  1  0.70893400  0.20893400  0.19010800  1
  Cu  Cu35  1  0.48117300  0.98117300  0.19010800  1
  Cu  Cu36  1  0.98117300  0.70893400  0.19010800  1
  Cu  Cu37  1  0.20893400  0.48117300  0.19010800  1
  Cu  Cu38  1  0.00000000  0.50000000  0.00000000  1
  Cu  Cu39  1  0.50000000  0.00000000  0.00000000  1
