# generated using pymatgen
data_CuNiC10
_symmetry_space_group_name_H-M   'P 1'
_cell_length_a   8.55890600
_cell_length_b   9.56413200
_cell_length_c   12.93242053
_cell_angle_alpha   85.20462408
_cell_angle_beta   90.00000000
_cell_angle_gamma   90.00000000
_symmetry_Int_Tables_number   1
_chemical_formula_structural   CuNiC10
_chemical_formula_sum   'Cu4 Ni4 C40'
_cell_volume   1054.92301910
_cell_formula_units_Z   4
loop_
 _symmetry_equiv_pos_site_id
 _symmetry_equiv_pos_as_xyz
  1  'x, y, z'
loop_
 _atom_site_type_symbol
 _atom_site_label
 _atom_site_symmetry_multiplicity
 _atom_site_fract_x
 _atom_site_fract_y
 _atom_site_fract_z
 _atom_site_occupancy
  C  C0  1  0.00646400  0.74862000  0.77538100  1
  C  C1  1  0.50646400  0.25138000  0.72461900  1
  C  C2  1  0.99353600  0.25138000  0.22461900  1
  C  C3  1  0.49353600  0.74862000  0.27538100  1
  Ni  Ni4  1  0.37027100  0.68908900  0.87683400  1
  Ni  Ni5  1  0.87027100  0.31091100  0.62316600  1
  Ni  Ni6  1  0.62972900  0.31091100  0.12316600  1
  Ni  Ni7  1  0.12972900  0.68908900  0.37683400  1
  Cu  Cu8  1  0.77955600  0.81398600  0.55541000  1
  Cu  Cu9  1  0.27955600  0.18601400  0.94459000  1
  Cu  Cu10  1  0.22044400  0.18601400  0.44459000  1
  Cu  Cu11  1  0.72044400  0.81398600  0.05541000  1
  C  C12  1  0.37888300  0.75690900  0.59126000  1
  C  C13  1  0.87888300  0.24309100  0.90874000  1
  C  C14  1  0.62111700  0.24309100  0.40874000  1
  C  C15  1  0.12111700  0.75690900  0.09126000  1
  C  C16  1  0.01019200  0.58728700  0.79355400  1
  C  C17  1  0.51019200  0.41271300  0.70644600  1
  C  C18  1  0.98980800  0.41271300  0.20644600  1
  C  C19  1  0.48980800  0.58728700  0.29355400  1
  C  C20  1  0.94167100  0.84246400  0.44912200  1
  C  C21  1  0.44167100  0.15753600  0.05087800  1
  C  C22  1  0.05832900  0.15753600  0.55087800  1
  C  C23  1  0.55832900  0.84246400  0.94912200  1
  C  C24  1  0.15932900  0.84044300  0.81462300  1
  C  C25  1  0.65932900  0.15955700  0.68537700  1
  C  C26  1  0.84067100  0.15955700  0.18537700  1
  C  C27  1  0.34067100  0.84044300  0.31462300  1
  C  C28  1  0.30542900  0.66199400  0.58453400  1
  C  C29  1  0.80542900  0.33800600  0.91546600  1
  C  C30  1  0.69457100  0.33800600  0.41546600  1
  C  C31  1  0.19457100  0.66199400  0.08453400  1
  C  C32  1  0.31385700  0.58279400  0.85058900  1
  C  C33  1  0.81385700  0.41720600  0.64941100  1
  C  C34  1  0.68614300  0.41720600  0.14941100  1
  C  C35  1  0.18614300  0.58279400  0.35058900  1
  C  C36  1  0.29869100  0.82879900  0.85532800  1
  C  C37  1  0.79869100  0.17120100  0.64467200  1
  C  C38  1  0.70130900  0.17120100  0.14467200  1
  C  C39  1  0.20130900  0.82879900  0.35532800  1
  C  C40  1  0.50490300  0.69849900  0.92679100  1
  C  C41  1  0.00490300  0.30150100  0.57320900  1
  C  C42  1  0.49509700  0.30150100  0.07320900  1
  C  C43  1  0.99509700  0.69849900  0.42679100  1
  C  C44  1  0.85252500  0.82952400  0.70350000  1
  C  C45  1  0.35252500  0.17047600  0.79650000  1
  C  C46  1  0.14747500  0.17047600  0.29650000  1
  C  C47  1  0.64747500  0.82952400  0.20350000  1
