# generated using pymatgen
data_Cu5NiC3
_symmetry_space_group_name_H-M   'P 1'
_cell_length_a   5.51588700
_cell_length_b   8.99205700
_cell_length_c   18.07430600
_cell_angle_alpha   90.00000000
_cell_angle_beta   90.00000000
_cell_angle_gamma   90.00000000
_symmetry_Int_Tables_number   1
_chemical_formula_structural   Cu5NiC3
_chemical_formula_sum   'Cu20 Ni4 C12'
_cell_volume   896.47058152
_cell_formula_units_Z   4
loop_
 _symmetry_equiv_pos_site_id
 _symmetry_equiv_pos_as_xyz
  1  'x, y, z'
loop_
 _atom_site_type_symbol
 _atom_site_label
 _atom_site_symmetry_multiplicity
 _atom_site_fract_x
 _atom_site_fract_y
 _atom_site_fract_z
 _atom_site_occupancy
  C  C0  1  0.25000000  0.27441700  0.47031900  1
  C  C1  1  0.25000000  0.77441700  0.02968100  1
  C  C2  1  0.75000000  0.72558300  0.52968100  1
  C  C3  1  0.75000000  0.22558300  0.97031900  1
  C  C4  1  0.25000000  0.34458700  0.19982600  1
  C  C5  1  0.25000000  0.84458700  0.30017400  1
  C  C6  1  0.75000000  0.65541300  0.80017400  1
  C  C7  1  0.75000000  0.15541300  0.69982600  1
  Ni  Ni8  1  0.75000000  0.51382400  0.33093700  1
  Ni  Ni9  1  0.75000000  0.01382400  0.16906300  1
  Ni  Ni10  1  0.25000000  0.48617600  0.66906300  1
  Ni  Ni11  1  0.25000000  0.98617600  0.83093700  1
  Cu  Cu12  1  0.06122500  0.15486500  0.32673300  1
  Cu  Cu13  1  0.43877500  0.65486500  0.17326700  1
  Cu  Cu14  1  0.56122500  0.84513500  0.67326700  1
  Cu  Cu15  1  0.93877500  0.34513500  0.82673300  1
  Cu  Cu16  1  0.93877500  0.84513500  0.67326700  1
  Cu  Cu17  1  0.56122500  0.34513500  0.82673300  1
  Cu  Cu18  1  0.43877500  0.15486500  0.32673300  1
  Cu  Cu19  1  0.06122500  0.65486500  0.17326700  1
  Cu  Cu20  1  0.75000000  0.42647700  0.45728200  1
  Cu  Cu21  1  0.75000000  0.92647700  0.04271800  1
  Cu  Cu22  1  0.25000000  0.57352300  0.54271800  1
  Cu  Cu23  1  0.25000000  0.07352300  0.95728200  1
  Cu  Cu24  1  0.25000000  0.52033200  0.34638800  1
  Cu  Cu25  1  0.25000000  0.02033200  0.15361200  1
  Cu  Cu26  1  0.75000000  0.47966800  0.65361200  1
  Cu  Cu27  1  0.75000000  0.97966800  0.84638800  1
  Cu  Cu28  1  0.75000000  0.78180700  0.35777600  1
  Cu  Cu29  1  0.75000000  0.28180700  0.14222400  1
  Cu  Cu30  1  0.25000000  0.21819300  0.64222400  1
  Cu  Cu31  1  0.25000000  0.71819300  0.85777600  1
  C  C32  1  0.25000000  0.40368100  0.02801400  1
  C  C33  1  0.25000000  0.90368100  0.47198600  1
  C  C34  1  0.75000000  0.59631900  0.97198600  1
  C  C35  1  0.75000000  0.09631900  0.52801400  1
