# generated using pymatgen
data_CuNiC34
_symmetry_space_group_name_H-M   'P 1'
_cell_length_a   9.26120539
_cell_length_b   9.26120539
_cell_length_c   9.26120549
_cell_angle_alpha   54.32073407
_cell_angle_beta   54.32073407
_cell_angle_gamma   54.32073431
_symmetry_Int_Tables_number   1
_chemical_formula_structural   CuNiC34
_chemical_formula_sum   'Cu1 Ni1 C34'
_cell_volume   487.25890240
_cell_formula_units_Z   1
loop_
 _symmetry_equiv_pos_site_id
 _symmetry_equiv_pos_as_xyz
  1  'x, y, z'
loop_
 _atom_site_type_symbol
 _atom_site_label
 _atom_site_symmetry_multiplicity
 _atom_site_fract_x
 _atom_site_fract_y
 _atom_site_fract_z
 _atom_site_occupancy
  Ni  Ni0  1  0.00000000  0.00000000  0.00000000  1
  Cu  Cu1  1  0.50000000  0.50000000  0.50000000  1
  C  C2  1  0.65033700  0.65033700  0.65033700  1
  C  C3  1  0.15017200  0.15017200  0.15017200  1
  C  C4  1  0.34966300  0.34966300  0.34966300  1
  C  C5  1  0.84982800  0.84982800  0.84982800  1
  C  C6  1  0.46873800  0.75013900  0.03089700  1
  C  C7  1  0.75013900  0.03089700  0.46873800  1
  C  C8  1  0.03089700  0.46873800  0.75013900  1
  C  C9  1  0.24986100  0.96910300  0.53126200  1
  C  C10  1  0.96910300  0.53126200  0.24986100  1
  C  C11  1  0.53126200  0.24986100  0.96910300  1
  C  C12  1  0.01214500  0.64985800  0.74274000  1
  C  C13  1  0.64985800  0.74274000  0.01214500  1
  C  C14  1  0.74274000  0.01214500  0.64985800  1
  C  C15  1  0.15036900  0.51213400  0.24238400  1
  C  C16  1  0.51213400  0.24238400  0.15036900  1
  C  C17  1  0.24238400  0.15036900  0.51213400  1
  C  C18  1  0.98785500  0.35014200  0.25726000  1
  C  C19  1  0.35014200  0.25726000  0.98785500  1
  C  C20  1  0.25726000  0.98785500  0.35014200  1
  C  C21  1  0.84963100  0.48786600  0.75761600  1
  C  C22  1  0.48786600  0.75761600  0.84963100  1
  C  C23  1  0.75761600  0.84963100  0.48786600  1
  C  C24  1  0.20018700  0.43031100  0.56851600  1
  C  C25  1  0.43031100  0.56851600  0.20018700  1
  C  C26  1  0.56851600  0.20018700  0.43031100  1
  C  C27  1  0.93068700  0.70147900  0.06856700  1
  C  C28  1  0.70147900  0.06856700  0.93068700  1
  C  C29  1  0.06856700  0.93068700  0.70147900  1
  C  C30  1  0.79981300  0.56968900  0.43148400  1
  C  C31  1  0.56968900  0.43148400  0.79981300  1
  C  C32  1  0.43148400  0.79981300  0.56968900  1
  C  C33  1  0.06931300  0.29852100  0.93143300  1
  C  C34  1  0.29852100  0.93143300  0.06931300  1
  C  C35  1  0.93143300  0.06931300  0.29852100  1
