# generated using pymatgen
data_Cu6Ni2C21
_symmetry_space_group_name_H-M   'P 1'
_cell_length_a   7.39735092
_cell_length_b   7.39735092
_cell_length_c   7.39735092
_cell_angle_alpha   60.00000000
_cell_angle_beta   60.00000000
_cell_angle_gamma   60.00000000
_symmetry_Int_Tables_number   1
_chemical_formula_structural   Cu6Ni2C21
_chemical_formula_sum   'Cu6 Ni2 C21'
_cell_volume   286.22902231
_cell_formula_units_Z   1
loop_
 _symmetry_equiv_pos_site_id
 _symmetry_equiv_pos_as_xyz
  1  'x, y, z'
loop_
 _atom_site_type_symbol
 _atom_site_label
 _atom_site_symmetry_multiplicity
 _atom_site_fract_x
 _atom_site_fract_y
 _atom_site_fract_z
 _atom_site_occupancy
  C  C0  1  0.33640400  0.00000000  0.00000000  1
  C  C1  1  0.66359600  0.00000000  0.00000000  1
  C  C2  1  0.00000000  0.33640400  0.66359600  1
  C  C3  1  0.00000000  0.66359600  0.33640400  1
  C  C4  1  0.00000000  0.33640400  0.00000000  1
  C  C5  1  0.66359600  0.00000000  0.33640400  1
  C  C6  1  0.00000000  0.66359600  0.00000000  1
  C  C7  1  0.33640400  0.00000000  0.66359600  1
  C  C8  1  0.00000000  0.00000000  0.33640400  1
  C  C9  1  0.00000000  0.00000000  0.66359600  1
  C  C10  1  0.66359600  0.33640400  0.00000000  1
  C  C11  1  0.33640400  0.66359600  0.00000000  1
  C  C12  1  0.38130200  0.38130200  0.38130200  1
  C  C13  1  0.61869800  0.61869800  0.61869800  1
  C  C14  1  0.38130200  0.38130200  0.85609300  1
  C  C15  1  0.38130200  0.85609300  0.38130200  1
  C  C16  1  0.61869800  0.61869800  0.14390700  1
  C  C17  1  0.61869800  0.14390700  0.61869800  1
  C  C18  1  0.85609300  0.38130200  0.38130200  1
  C  C19  1  0.14390700  0.61869800  0.61869800  1
  C  C20  1  0.00000000  0.00000000  0.00000000  1
  Ni  Ni21  1  0.25000000  0.25000000  0.25000000  1
  Ni  Ni22  1  0.75000000  0.75000000  0.75000000  1
  Cu  Cu23  1  0.72683100  0.27316900  0.27316900  1
  Cu  Cu24  1  0.27316900  0.72683100  0.72683100  1
  Cu  Cu25  1  0.27316900  0.72683100  0.27316900  1
  Cu  Cu26  1  0.72683100  0.27316900  0.72683100  1
  Cu  Cu27  1  0.27316900  0.27316900  0.72683100  1
  Cu  Cu28  1  0.72683100  0.72683100  0.27316900  1
