# generated using pymatgen
data_CuNiC
_symmetry_space_group_name_H-M   'P 1'
_cell_length_a   7.65895200
_cell_length_b   10.07707800
_cell_length_c   13.76851800
_cell_angle_alpha   90.00000000
_cell_angle_beta   90.00000000
_cell_angle_gamma   90.00000000
_symmetry_Int_Tables_number   1
_chemical_formula_structural   CuNiC
_chemical_formula_sum   'Cu16 Ni16 C16'
_cell_volume   1062.65224624
_cell_formula_units_Z   16
loop_
 _symmetry_equiv_pos_site_id
 _symmetry_equiv_pos_as_xyz
  1  'x, y, z'
loop_
 _atom_site_type_symbol
 _atom_site_label
 _atom_site_symmetry_multiplicity
 _atom_site_fract_x
 _atom_site_fract_y
 _atom_site_fract_z
 _atom_site_occupancy
  C  C0  1  0.28941800  0.25000000  0.25000000  1
  C  C1  1  0.71058200  0.75000000  0.75000000  1
  C  C2  1  0.21058200  0.75000000  0.25000000  1
  C  C3  1  0.78941800  0.25000000  0.75000000  1
  C  C4  1  0.25000000  0.00000000  0.59600600  1
  C  C5  1  0.75000000  0.00000000  0.40399400  1
  C  C6  1  0.25000000  0.50000000  0.90399400  1
  C  C7  1  0.75000000  0.50000000  0.09600600  1
  C  C8  1  0.74971700  0.25000000  0.25000000  1
  C  C9  1  0.25028300  0.75000000  0.75000000  1
  C  C10  1  0.75028300  0.75000000  0.25000000  1
  C  C11  1  0.24971700  0.25000000  0.75000000  1
  C  C12  1  0.00000000  0.00000000  0.00000000  1
  C  C13  1  0.50000000  0.00000000  0.00000000  1
  C  C14  1  0.50000000  0.50000000  0.50000000  1
  C  C15  1  0.00000000  0.50000000  0.50000000  1
  Ni  Ni16  1  0.00731700  0.01181400  0.14442700  1
  Ni  Ni17  1  0.99268300  0.98818600  0.85557300  1
  Ni  Ni18  1  0.49268300  0.98818600  0.14442700  1
  Ni  Ni19  1  0.49268300  0.51181400  0.35557300  1
  Ni  Ni20  1  0.50731700  0.01181400  0.85557300  1
  Ni  Ni21  1  0.50731700  0.48818600  0.64442700  1
  Ni  Ni22  1  0.00731700  0.48818600  0.35557300  1
  Ni  Ni23  1  0.99268300  0.51181400  0.64442700  1
  Ni  Ni24  1  0.52966800  0.19708800  0.99036700  1
  Ni  Ni25  1  0.47033200  0.80291200  0.00963300  1
  Ni  Ni26  1  0.97033200  0.80291200  0.99036700  1
  Ni  Ni27  1  0.97033200  0.69708800  0.50963300  1
  Ni  Ni28  1  0.02966800  0.19708800  0.00963300  1
  Ni  Ni29  1  0.02966800  0.30291200  0.49036700  1
  Ni  Ni30  1  0.52966800  0.30291200  0.50963300  1
  Ni  Ni31  1  0.47033200  0.69708800  0.49036700  1
  Cu  Cu32  1  0.01736200  0.02701600  0.22908300  1
  Cu  Cu33  1  0.98263800  0.97298400  0.77091700  1
  Cu  Cu34  1  0.48263800  0.97298400  0.22908300  1
  Cu  Cu35  1  0.48263800  0.52701600  0.27091700  1
  Cu  Cu36  1  0.51736200  0.02701600  0.77091700  1
  Cu  Cu37  1  0.51736200  0.47298400  0.72908300  1
  Cu  Cu38  1  0.01736200  0.47298400  0.27091700  1
  Cu  Cu39  1  0.98263800  0.52701600  0.72908300  1
  Cu  Cu40  1  0.54691200  0.31127000  0.97607900  1
  Cu  Cu41  1  0.45308800  0.68873000  0.02392100  1
  Cu  Cu42  1  0.95308800  0.68873000  0.97607900  1
  Cu  Cu43  1  0.95308800  0.81127000  0.52392100  1
  Cu  Cu44  1  0.04691200  0.31127000  0.02392100  1
  Cu  Cu45  1  0.04691200  0.18873000  0.47607900  1
  Cu  Cu46  1  0.54691200  0.18873000  0.52392100  1
  Cu  Cu47  1  0.45308800  0.81127000  0.47607900  1
