# generated using pymatgen
data_CuNi4C3
_symmetry_space_group_name_H-M   'P 1'
_cell_length_a   6.74943400
_cell_length_b   7.55143400
_cell_length_c   15.55288500
_cell_angle_alpha   90.00000000
_cell_angle_beta   90.00000000
_cell_angle_gamma   90.00000000
_symmetry_Int_Tables_number   1
_chemical_formula_structural   CuNi4C3
_chemical_formula_sum   'Cu2 Ni8 C6'
_cell_volume   792.69797120
_cell_formula_units_Z   2
loop_
 _symmetry_equiv_pos_site_id
 _symmetry_equiv_pos_as_xyz
  1  'x, y, z'
loop_
 _atom_site_type_symbol
 _atom_site_label
 _atom_site_symmetry_multiplicity
 _atom_site_fract_x
 _atom_site_fract_y
 _atom_site_fract_z
 _atom_site_occupancy
  C  C0  1  0.07474900  0.50000000  0.69448600  1
  C  C1  1  0.92525100  0.00000000  0.19448600  1
  C  C2  1  0.92525100  0.00000000  0.80551400  1
  C  C3  1  0.48519100  0.50000000  0.50000000  1
  C  C4  1  0.51480900  0.00000000  0.00000000  1
  C  C5  1  0.07474900  0.50000000  0.30551400  1
  Ni  Ni6  1  0.93484700  0.20349700  0.50000000  1
  Ni  Ni7  1  0.36868400  0.50000000  0.10046900  1
  Ni  Ni8  1  0.93484700  0.79650300  0.50000000  1
  Ni  Ni9  1  0.63131600  0.00000000  0.60046900  1
  Ni  Ni10  1  0.63131600  0.00000000  0.39953100  1
  Ni  Ni11  1  0.06515300  0.29650300  0.00000000  1
  Ni  Ni12  1  0.06515300  0.70349700  0.00000000  1
  Ni  Ni13  1  0.36868400  0.50000000  0.89953100  1
  Cu  Cu14  1  0.71522800  0.50000000  0.00000000  1
  Cu  Cu15  1  0.28477200  0.00000000  0.50000000  1
