# generated using pymatgen
data_Cu10Ni2C27
_symmetry_space_group_name_H-M   'P 1'
_cell_length_a   6.26571705
_cell_length_b   9.93954434
_cell_length_c   13.59596908
_cell_angle_alpha   89.66431257
_cell_angle_beta   77.73912733
_cell_angle_gamma   88.59177142
_symmetry_Int_Tables_number   1
_chemical_formula_structural   Cu10Ni2C27
_chemical_formula_sum   'Cu20 Ni4 C54'
_cell_volume   827.17142125
_cell_formula_units_Z   2
loop_
 _symmetry_equiv_pos_site_id
 _symmetry_equiv_pos_as_xyz
  1  'x, y, z'
loop_
 _atom_site_type_symbol
 _atom_site_label
 _atom_site_symmetry_multiplicity
 _atom_site_fract_x
 _atom_site_fract_y
 _atom_site_fract_z
 _atom_site_occupancy
  C  C0  1  0.98924000  0.29920000  0.85453100  1
  C  C1  1  0.01076000  0.70080000  0.14546900  1
  C  C2  1  0.54316200  0.22068600  0.36768800  1
  C  C3  1  0.45683800  0.77931400  0.63231200  1
  C  C4  1  0.33065200  0.40155500  0.60611900  1
  C  C5  1  0.66934800  0.59844500  0.39388100  1
  C  C6  1  0.12871600  0.88577000  0.89716600  1
  C  C7  1  0.87128400  0.11423000  0.10283400  1
  C  C8  1  0.69902800  0.44638500  0.12165700  1
  C  C9  1  0.30097200  0.55361500  0.87834300  1
  C  C10  1  0.20402300  0.05935500  0.62415400  1
  C  C11  1  0.79597700  0.94064500  0.37584600  1
  Ni  Ni12  1  0.28741900  0.88824300  0.41929100  1
  Ni  Ni13  1  0.71258100  0.11175700  0.58070900  1
  Ni  Ni14  1  0.22206700  0.38092200  0.07809600  1
  Ni  Ni15  1  0.77793300  0.61907800  0.92190400  1
  Cu  Cu16  1  0.21347300  0.21848200  0.23615000  1
  Cu  Cu17  1  0.78652700  0.78151800  0.76385000  1
  Cu  Cu18  1  0.14567300  0.12320200  0.32989100  1
  Cu  Cu19  1  0.85432700  0.87679800  0.67010900  1
  Cu  Cu20  1  0.98422400  0.32501500  0.37233900  1
  Cu  Cu21  1  0.01577600  0.67498500  0.62766100  1
  Cu  Cu22  1  0.82063600  0.34526100  0.47782000  1
  Cu  Cu23  1  0.17936400  0.65473900  0.52218000  1
  Cu  Cu24  1  0.59486000  0.23225700  0.77875900  1
  Cu  Cu25  1  0.40514000  0.76774300  0.22124100  1
  Cu  Cu26  1  0.50788700  0.28241700  0.88913700  1
  Cu  Cu27  1  0.49211300  0.71758300  0.11086300  1
  Cu  Cu28  1  0.46352100  0.95495300  0.11659000  1
  Cu  Cu29  1  0.53647900  0.04504700  0.88341000  1
  Cu  Cu30  1  0.40014600  0.10939000  0.09752500  1
  Cu  Cu31  1  0.59985400  0.89061000  0.90247500  1
  Cu  Cu32  1  0.83797900  0.48241700  0.71341000  1
  Cu  Cu33  1  0.16202100  0.51758300  0.28659000  1
  Cu  Cu34  1  0.82612500  0.34641900  0.65583000  1
  Cu  Cu35  1  0.17387500  0.65358100  0.34417000  1
  C  C36  1  0.09920500  0.93619900  0.36985500  1
  C  C37  1  0.90079500  0.06380100  0.63014500  1
  C  C38  1  0.49131700  0.96996300  0.37185100  1
  C  C39  1  0.50868300  0.03003700  0.62814900  1
  C  C40  1  0.33296100  0.73446500  0.40170000  1
  C  C41  1  0.66703900  0.26553500  0.59830000  1
  C  C42  1  0.23420200  0.91037800  0.53519000  1
  C  C43  1  0.76579800  0.08962200  0.46481000  1
  C  C44  1  0.19242400  0.23099400  0.10754500  1
  C  C45  1  0.80757600  0.76900600  0.89245500  1
  C  C46  1  0.39996900  0.44407700  0.12424700  1
  C  C47  1  0.60003100  0.55592300  0.87575300  1
  C  C48  1  0.00719800  0.46223200  0.12139200  1
  C  C49  1  0.99280200  0.53776800  0.87860800  1
  C  C50  1  0.27395500  0.39191100  0.96023000  1
  C  C51  1  0.72604500  0.60808900  0.03977000  1
  C  C52  1  0.20664000  0.21317700  0.31002000  1
  C  C53  1  0.79336000  0.78682300  0.68998000  1
  C  C54  1  0.84562400  0.37143700  0.40587900  1
  C  C55  1  0.15437600  0.62856300  0.59412100  1
  C  C56  1  0.61817900  0.22134200  0.84757800  1
  C  C57  1  0.38182100  0.77865800  0.15242200  1
  C  C58  1  0.52030500  0.04706700  0.10670100  1
  C  C59  1  0.47969500  0.95293300  0.89329900  1
  C  C60  1  0.91975600  0.39865400  0.69380400  1
  C  C61  1  0.08024400  0.60134600  0.30619600  1
  C  C62  1  0.19029700  0.19627900  0.71396300  1
  C  C63  1  0.80970300  0.80372100  0.28603700  1
  C  C64  1  0.27050200  0.18853000  0.52472400  1
  C  C65  1  0.72949800  0.81147000  0.47527600  1
  C  C66  1  0.00471900  0.09892100  0.92953100  1
  C  C67  1  0.99528100  0.90107900  0.07046900  1
  C  C68  1  0.65962300  0.56298000  0.22838800  1
  C  C69  1  0.34037700  0.43702000  0.77161200  1
  C  C70  1  0.41339300  0.42667400  0.43294800  1
  C  C71  1  0.58660700  0.57332600  0.56705200  1
  C  C72  1  0.68112900  0.29977800  0.20668300  1
  C  C73  1  0.31887100  0.70022200  0.79331700  1
  C  C74  1  0.16145700  0.93297300  0.72651200  1
  C  C75  1  0.83854300  0.06702700  0.27348800  1
  C  C76  1  0.77224500  0.32375700  0.01855800  1
  C  C77  1  0.22775500  0.67624300  0.98144200  1
