# generated using pymatgen
data_CuNiC12
_symmetry_space_group_name_H-M   'P 1'
_cell_length_a   10.46439603
_cell_length_b   10.46439603
_cell_length_c   5.48345400
_cell_angle_alpha   90.00000000
_cell_angle_beta   90.00000000
_cell_angle_gamma   133.24855636
_symmetry_Int_Tables_number   1
_chemical_formula_structural   CuNiC12
_chemical_formula_sum   'Cu2 Ni2 C24'
_cell_volume   437.36644513
_cell_formula_units_Z   2
loop_
 _symmetry_equiv_pos_site_id
 _symmetry_equiv_pos_as_xyz
  1  'x, y, z'
loop_
 _atom_site_type_symbol
 _atom_site_label
 _atom_site_symmetry_multiplicity
 _atom_site_fract_x
 _atom_site_fract_y
 _atom_site_fract_z
 _atom_site_occupancy
  Ni  Ni0  1  0.61735800  0.38264200  0.78019400  1
  Ni  Ni1  1  0.38264200  0.61735800  0.28019400  1
  Cu  Cu2  1  0.12848800  0.87151200  0.74971900  1
  Cu  Cu3  1  0.87151200  0.12848800  0.24971900  1
  C  C4  1  0.92490500  0.50456700  0.25187700  1
  C  C5  1  0.49543300  0.07509500  0.25187700  1
  C  C6  1  0.07509500  0.49543300  0.75187700  1
  C  C7  1  0.50456700  0.92490500  0.75187700  1
  C  C8  1  0.77376800  0.68612500  0.26471200  1
  C  C9  1  0.31387500  0.22623200  0.26471200  1
  C  C10  1  0.22623200  0.31387500  0.76471200  1
  C  C11  1  0.68612500  0.77376800  0.76471200  1
  C  C12  1  0.92451800  0.51578900  0.59889900  1
  C  C13  1  0.48421100  0.07548200  0.59889900  1
  C  C14  1  0.07548200  0.48421100  0.09889900  1
  C  C15  1  0.51578900  0.92451800  0.09889900  1
  C  C16  1  0.92836000  0.67405400  0.10852100  1
  C  C17  1  0.32594600  0.07164000  0.10852100  1
  C  C18  1  0.07164000  0.32594600  0.60852100  1
  C  C19  1  0.67405400  0.92836000  0.60852100  1
  C  C20  1  0.28361100  0.71638900  0.65061700  1
  C  C21  1  0.71638900  0.28361100  0.15061700  1
  C  C22  1  0.83360500  0.75588100  0.59731000  1
  C  C23  1  0.24411900  0.16639500  0.59731000  1
  C  C24  1  0.16639500  0.24411900  0.09731000  1
  C  C25  1  0.75588100  0.83360500  0.09731000  1
  C  C26  1  0.45370500  0.54629500  0.76183300  1
  C  C27  1  0.54629500  0.45370500  0.26183300  1
