# generated using pymatgen
data_Cu3Ni3C10
_symmetry_space_group_name_H-M   'P 1'
_cell_length_a   7.42902900
_cell_length_b   8.30124659
_cell_length_c   8.69567298
_cell_angle_alpha   90.57827138
_cell_angle_beta   90.00000000
_cell_angle_gamma   90.00000000
_symmetry_Int_Tables_number   1
_chemical_formula_structural   Cu3Ni3C10
_chemical_formula_sum   'Cu12 Ni12 C40'
_cell_volume   536.23659369
_cell_formula_units_Z   4
loop_
 _symmetry_equiv_pos_site_id
 _symmetry_equiv_pos_as_xyz
  1  'x, y, z'
loop_
 _atom_site_type_symbol
 _atom_site_label
 _atom_site_symmetry_multiplicity
 _atom_site_fract_x
 _atom_site_fract_y
 _atom_site_fract_z
 _atom_site_occupancy
  C  C0  1  0.50000000  0.00000000  0.50000000  1
  C  C1  1  0.00000000  0.50000000  0.50000000  1
  C  C2  1  0.00000000  0.00000000  0.00000000  1
  C  C3  1  0.50000000  0.50000000  0.00000000  1
  C  C4  1  0.33561500  0.39437300  0.49212100  1
  C  C5  1  0.83561500  0.10562700  0.50787900  1
  C  C6  1  0.66438500  0.60562700  0.50787900  1
  C  C7  1  0.16438500  0.89437300  0.49212100  1
  C  C8  1  0.33663400  0.59270700  0.46786400  1
  C  C9  1  0.83663400  0.90729300  0.53213600  1
  C  C10  1  0.66336600  0.40729300  0.53213600  1
  C  C11  1  0.16336600  0.09270700  0.46786400  1
  C  C12  1  0.28718700  0.47250500  0.32215900  1
  C  C13  1  0.78718700  0.02749500  0.67784100  1
  C  C14  1  0.71281300  0.52749500  0.67784100  1
  C  C15  1  0.21281300  0.97250500  0.32215900  1
  C  C16  1  0.58120200  0.20303900  0.27572800  1
  C  C17  1  0.08120200  0.29696100  0.72427200  1
  C  C18  1  0.41879800  0.79696100  0.72427200  1
  C  C19  1  0.91879800  0.70303900  0.27572800  1
  C  C20  1  0.68016800  0.02485800  0.24339600  1
  C  C21  1  0.18016800  0.47514200  0.75660400  1
  C  C22  1  0.31983200  0.97514200  0.75660400  1
  C  C23  1  0.81983200  0.52485800  0.24339600  1
  C  C24  1  0.46191800  0.05072700  0.20634900  1
  C  C25  1  0.96191800  0.44927300  0.79365100  1
  C  C26  1  0.53808200  0.94927300  0.79365100  1
  C  C27  1  0.03808200  0.55072700  0.20634900  1
  C  C28  1  0.96892000  0.22471000  0.20876400  1
  C  C29  1  0.46892000  0.27529000  0.79123600  1
  C  C30  1  0.03108000  0.77529000  0.79123600  1
  C  C31  1  0.53108000  0.72471000  0.20876400  1
  C  C32  1  0.87117300  0.28765500  0.04940600  1
  C  C33  1  0.37117300  0.21234500  0.95059400  1
  C  C34  1  0.12882700  0.71234500  0.95059400  1
  C  C35  1  0.62882700  0.78765500  0.04940600  1
  C  C36  1  0.09203900  0.29748900  0.06758200  1
  C  C37  1  0.59204000  0.20251100  0.93241800  1
  C  C38  1  0.90796000  0.70251100  0.93241800  1
  C  C39  1  0.40796100  0.79748900  0.06758200  1
  Ni  Ni40  1  0.27023300  0.48837700  0.43935800  1
  Ni  Ni41  1  0.77023300  0.01162300  0.56064200  1
  Ni  Ni42  1  0.72976700  0.51162300  0.56064200  1
  Ni  Ni43  1  0.22976700  0.98837700  0.43935800  1
  Ni  Ni44  1  0.56384800  0.08000300  0.28184200  1
  Ni  Ni45  1  0.06384800  0.41999700  0.71815800  1
  Ni  Ni46  1  0.43615200  0.91999700  0.71815800  1
  Ni  Ni47  1  0.93615200  0.58000300  0.28184200  1
  Ni  Ni48  1  0.98089500  0.22715800  0.09044400  1
  Ni  Ni49  1  0.48089500  0.27284200  0.90955600  1
  Ni  Ni50  1  0.01910500  0.77284200  0.90955600  1
  Ni  Ni51  1  0.51910500  0.72715800  0.09044400  1
  Cu  Cu52  1  0.52959800  0.77488000  0.42716000  1
  Cu  Cu53  1  0.02959800  0.72512000  0.57284000  1
  Cu  Cu54  1  0.47040200  0.22512000  0.57284000  1
  Cu  Cu55  1  0.97040200  0.27488000  0.42716000  1
  Cu  Cu56  1  0.88950800  0.91589900  0.18569600  1
  Cu  Cu57  1  0.38950800  0.58410100  0.81430400  1
  Cu  Cu58  1  0.11049200  0.08410100  0.81430400  1
  Cu  Cu59  1  0.61049200  0.41589900  0.18569600  1
  Cu  Cu60  1  0.24214500  0.98101700  0.09291200  1
  Cu  Cu61  1  0.74214500  0.51898300  0.90708800  1
  Cu  Cu62  1  0.75785500  0.01898300  0.90708800  1
  Cu  Cu63  1  0.25785500  0.48101700  0.09291200  1
