# generated using pymatgen
data_Cu7Ni4C23
_symmetry_space_group_name_H-M   'P 1'
_cell_length_a   10.13756849
_cell_length_b   10.13756849
_cell_length_c   22.93899605
_cell_angle_alpha   90.00000000
_cell_angle_beta   90.00000000
_cell_angle_gamma   120.00115888
_symmetry_Int_Tables_number   1
_chemical_formula_structural   Cu7Ni4C23
_chemical_formula_sum   'Cu14 Ni8 C46'
_cell_volume   2041.58548691
_cell_formula_units_Z   2
loop_
 _symmetry_equiv_pos_site_id
 _symmetry_equiv_pos_as_xyz
  1  'x, y, z'
loop_
 _atom_site_type_symbol
 _atom_site_label
 _atom_site_symmetry_multiplicity
 _atom_site_fract_x
 _atom_site_fract_y
 _atom_site_fract_z
 _atom_site_occupancy
  C  C0  1  0.12941949  0.87058051  0.36395760  1
  C  C1  1  0.74114661  0.87057630  0.36395297  1
  C  C2  1  0.12942370  0.25885339  0.36395297  1
  C  C3  1  0.87058051  0.12941949  0.86395760  1
  C  C4  1  0.25885339  0.12942370  0.86395297  1
  C  C5  1  0.87057630  0.74114661  0.86395297  1
  C  C6  1  0.20176946  0.79823054  0.21649542  1
  C  C7  1  0.59644106  0.79821971  0.21649284  1
  C  C8  1  0.20178029  0.40355894  0.21649284  1
  C  C9  1  0.79823054  0.20176946  0.71649542  1
  C  C10  1  0.40355894  0.20178029  0.71649284  1
  C  C11  1  0.79821971  0.59644106  0.71649284  1
  C  C12  1  0.20648402  0.79351598  0.05338947  1
  C  C13  1  0.58702466  0.79351534  0.05339338  1
  C  C14  1  0.20648466  0.41297534  0.05339338  1
  C  C15  1  0.79351598  0.20648402  0.55338947  1
  C  C16  1  0.41297534  0.20648466  0.55339338  1
  C  C17  1  0.79351534  0.58702466  0.55339338  1
  C  C18  1  0.21206476  0.78793524  0.50852798  1
  C  C19  1  0.57586946  0.78794046  0.50853035  1
  C  C20  1  0.21205954  0.42413054  0.50853035  1
  C  C21  1  0.78793524  0.21206476  0.00852798  1
  C  C22  1  0.42413054  0.21205954  0.00853035  1
  C  C23  1  0.78794046  0.57586946  0.00853035  1
  C  C24  1  0.53877714  0.46122286  0.41452166  1
  C  C25  1  0.92243830  0.46121655  0.41452380  1
  C  C26  1  0.53878345  0.07756170  0.41452380  1
  C  C27  1  0.46122286  0.53877714  0.91452166  1
  C  C28  1  0.07756170  0.53878345  0.91452380  1
  C  C29  1  0.46121655  0.92243830  0.91452380  1
  C  C30  1  0.54417574  0.45582426  0.14238626  1
  C  C31  1  0.91165428  0.45582415  0.14238534  1
  C  C32  1  0.54417585  0.08834572  0.14238534  1
  C  C33  1  0.45582426  0.54417574  0.64238626  1
  C  C34  1  0.08834572  0.54417585  0.64238534  1
  C  C35  1  0.45582415  0.91165428  0.64238534  1
  C  C36  1  0.33331733  0.66668267  0.35732814  1
  C  C37  1  0.66668267  0.33331733  0.85732814  1
  C  C38  1  0.00000088  0.99999912  0.50083537  1
  C  C39  1  0.99999912  0.00000088  0.00083537  1
  C  C40  1  0.79324087  0.20675913  0.27888404  1
  C  C41  1  0.41351816  0.20676301  0.27888693  1
  C  C42  1  0.79323699  0.58648184  0.27888693  1
  C  C43  1  0.20675913  0.79324087  0.77888404  1
  C  C44  1  0.58648184  0.79323699  0.77888693  1
  C  C45  1  0.20676301  0.41351816  0.77888693  1
  Ni  Ni46  1  0.89299955  0.10700045  0.13565454  1
  Ni  Ni47  1  0.21400356  0.10700504  0.13565372  1
  Ni  Ni48  1  0.89299496  0.78599644  0.13565372  1
  Ni  Ni49  1  0.10700045  0.89299955  0.63565454  1
  Ni  Ni50  1  0.78599644  0.89299496  0.63565372  1
  Ni  Ni51  1  0.10700504  0.21400356  0.63565372  1
  Ni  Ni52  1  0.99999856  0.00000144  0.24974093  1
  Ni  Ni53  1  0.00000144  0.99999856  0.74974093  1
  Cu  Cu54  1  0.47748785  0.52251215  0.28971191  1
  Cu  Cu55  1  0.04500069  0.52250107  0.28970939  1
  Cu  Cu56  1  0.47749893  0.95499931  0.28970939  1
  Cu  Cu57  1  0.52251215  0.47748785  0.78971191  1
  Cu  Cu58  1  0.95499931  0.47749893  0.78970939  1
  Cu  Cu59  1  0.52250107  0.04500069  0.78970939  1
  Cu  Cu60  1  0.85679196  0.14320804  0.43474021  1
  Cu  Cu61  1  0.28642406  0.14321438  0.43474190  1
  Cu  Cu62  1  0.85678562  0.71357594  0.43474190  1
  Cu  Cu63  1  0.14320804  0.85679196  0.93474021  1
  Cu  Cu64  1  0.71357594  0.85678562  0.93474190  1
  Cu  Cu65  1  0.14321438  0.28642406  0.93474190  1
  Cu  Cu66  1  0.33332869  0.66667131  0.13728523  1
  Cu  Cu67  1  0.66667131  0.33332869  0.63728523  1
