# generated using pymatgen
data_Cu3Ni15C2
_symmetry_space_group_name_H-M   'P 1'
_cell_length_a   13.49779484
_cell_length_b   13.63056267
_cell_length_c   15.40722166
_cell_angle_alpha   90.00000000
_cell_angle_beta   90.00000000
_cell_angle_gamma   90.00000000
_symmetry_Int_Tables_number   1
_chemical_formula_structural   Cu3Ni15C2
_chemical_formula_sum   'Cu48 Ni240 C32'
_cell_volume   2834.65975183
_cell_formula_units_Z   16
loop_
 _symmetry_equiv_pos_site_id
 _symmetry_equiv_pos_as_xyz
  1  'x, y, z'
loop_
 _atom_site_type_symbol
 _atom_site_label
 _atom_site_symmetry_multiplicity
 _atom_site_fract_x
 _atom_site_fract_y
 _atom_site_fract_z
 _atom_site_occupancy
  C  C0  1  0.93532062  0.28585385  0.86628409  1
  C  C1  1  0.43532062  0.21414615  0.63371591  1
  C  C2  1  0.06467938  0.78585385  0.63371591  1
  C  C3  1  0.56467938  0.71414615  0.86628409  1
  C  C4  1  0.06467938  0.71414615  0.13371591  1
  C  C5  1  0.56467938  0.78585385  0.36628409  1
  C  C6  1  0.93532062  0.21414615  0.36628409  1
  C  C7  1  0.43532062  0.28585385  0.13371591  1
  C  C8  1  0.08325588  0.47510868  0.67172957  1
  C  C9  1  0.58325588  0.02489132  0.82827043  1
  C  C10  1  0.91674412  0.97510868  0.82827043  1
  C  C11  1  0.41674412  0.52489132  0.67172957  1
  C  C12  1  0.91674412  0.52489132  0.32827043  1
  C  C13  1  0.41674412  0.97510868  0.17172957  1
  C  C14  1  0.08325588  0.02489132  0.17172957  1
  C  C15  1  0.58325588  0.47510868  0.32827043  1
  C  C16  1  0.88207727  0.89376028  0.41287130  1
  C  C17  1  0.38207727  0.60623972  0.08712870  1
  C  C18  1  0.11792273  0.39376028  0.08712870  1
  C  C19  1  0.61792273  0.10623972  0.41287130  1
  C  C20  1  0.11792273  0.10623972  0.58712870  1
  C  C21  1  0.61792273  0.39376028  0.91287130  1
  C  C22  1  0.88207727  0.60623972  0.91287130  1
  C  C23  1  0.38207727  0.89376028  0.58712870  1
  C  C24  1  0.72118409  0.77942035  0.12435277  1
  C  C25  1  0.22118409  0.72057965  0.37564723  1
  C  C26  1  0.27881591  0.27942035  0.37564723  1
  C  C27  1  0.77881591  0.22057965  0.12435277  1
  C  C28  1  0.27881591  0.22057965  0.87564723  1
  C  C29  1  0.77881591  0.27942035  0.62435277  1
  C  C30  1  0.72118409  0.72057965  0.62435277  1
  C  C31  1  0.22118409  0.77942035  0.87564723  1
  Ni  Ni32  1  0.97842018  0.39436335  0.41941318  1
  Ni  Ni33  1  0.47842018  0.10563665  0.08058682  1
  Ni  Ni34  1  0.02157982  0.89436335  0.08058682  1
  Ni  Ni35  1  0.52157982  0.60563665  0.41941318  1
  Ni  Ni36  1  0.02157982  0.60563665  0.58058682  1
  Ni  Ni37  1  0.52157982  0.89436335  0.91941318  1
  Ni  Ni38  1  0.97842018  0.10563665  0.91941318  1
  Ni  Ni39  1  0.47842018  0.39436335  0.58058682  1
  Ni  Ni40  1  0.94529773  0.81791758  0.03155566  1
  Ni  Ni41  1  0.44529773  0.68208242  0.46844434  1
  Ni  Ni42  1  0.05470227  0.31791758  0.46844434  1
  Ni  Ni43  1  0.55470227  0.18208242  0.03155566  1
  Ni  Ni44  1  0.05470227  0.18208242  0.96844434  1
  Ni  Ni45  1  0.55470227  0.31791758  0.53155566  1
  Ni  Ni46  1  0.94529773  0.68208242  0.53155566  1
  Ni  Ni47  1  0.44529773  0.81791758  0.96844434  1
  Ni  Ni48  1  0.94127221  0.33050899  0.50374720  1
  Ni  Ni49  1  0.44127221  0.16949101  0.99625280  1
  Ni  Ni50  1  0.05872779  0.83050899  0.99625280  1
  Ni  Ni51  1  0.55872779  0.66949101  0.50374720  1
  Ni  Ni52  1  0.05872779  0.66949101  0.49625280  1
  Ni  Ni53  1  0.55872779  0.83050899  0.00374720  1
  Ni  Ni54  1  0.94127221  0.16949101  0.00374720  1
  Ni  Ni55  1  0.44127221  0.33050899  0.49625280  1
  Ni  Ni56  1  0.96567061  0.36825638  0.26649266  1
  Ni  Ni57  1  0.46567061  0.13174362  0.23350734  1
  Ni  Ni58  1  0.03432939  0.86825638  0.23350734  1
  Ni  Ni59  1  0.53432939  0.63174362  0.26649266  1
  Ni  Ni60  1  0.03432939  0.63174362  0.73350734  1
  Ni  Ni61  1  0.53432939  0.86825638  0.76649266  1
  Ni  Ni62  1  0.96567061  0.13174362  0.76649266  1
  Ni  Ni63  1  0.46567061  0.36825638  0.73350734  1
  Ni  Ni64  1  0.94998710  0.78770650  0.26102801  1
  Ni  Ni65  1  0.44998710  0.71229350  0.23897199  1
  Ni  Ni66  1  0.05001290  0.28770650  0.23897199  1
  Ni  Ni67  1  0.55001290  0.21229350  0.26102801  1
  Ni  Ni68  1  0.05001290  0.21229350  0.73897199  1
  Ni  Ni69  1  0.55001290  0.28770650  0.76102801  1
  Ni  Ni70  1  0.94998710  0.71229350  0.76102801  1
  Ni  Ni71  1  0.44998710  0.78770650  0.73897199  1
  Ni  Ni72  1  0.93594855  0.27451388  0.20578098  1
  Ni  Ni73  1  0.43594855  0.22548612  0.29421902  1
  Ni  Ni74  1  0.06405145  0.77451388  0.29421902  1
  Ni  Ni75  1  0.56405145  0.72548612  0.20578098  1
  Ni  Ni76  1  0.06405145  0.72548612  0.79421902  1
  Ni  Ni77  1  0.56405145  0.77451388  0.70578098  1
  Ni  Ni78  1  0.93594855  0.22548612  0.70578098  1
  Ni  Ni79  1  0.43594855  0.27451388  0.79421902  1
  Ni  Ni80  1  0.91324439  0.88832140  0.57159773  1
  Ni  Ni81  1  0.41324439  0.61167860  0.92840227  1
  Ni  Ni82  1  0.08675561  0.38832140  0.92840227  1
  Ni  Ni83  1  0.58675561  0.11167860  0.57159773  1
  Ni  Ni84  1  0.08675561  0.11167860  0.42840227  1
  Ni  Ni85  1  0.58675561  0.38832140  0.07159773  1
  Ni  Ni86  1  0.91324439  0.61167860  0.07159773  1
  Ni  Ni87  1  0.41324439  0.88832140  0.42840227  1
  Ni  Ni88  1  0.91580515  0.89984056  0.67833141  1
  Ni  Ni89  1  0.41580515  0.60015944  0.82166859  1
  Ni  Ni90  1  0.08419485  0.39984056  0.82166859  1
  Ni  Ni91  1  0.58419485  0.10015944  0.67833141  1
  Ni  Ni92  1  0.08419485  0.10015944  0.32166859  1
  Ni  Ni93  1  0.58419485  0.39984056  0.17833141  1
  Ni  Ni94  1  0.91580515  0.60015944  0.17833141  1
  Ni  Ni95  1  0.41580515  0.89984056  0.32166859  1
  Ni  Ni96  1  0.86909443  0.80225028  0.63201470  1
  Ni  Ni97  1  0.36909443  0.69774972  0.86798530  1
  Ni  Ni98  1  0.13090557  0.30225028  0.86798530  1
  Ni  Ni99  1  0.63090557  0.19774972  0.63201470  1
  Ni  Ni100  1  0.13090557  0.19774972  0.36798530  1
  Ni  Ni101  1  0.63090557  0.30225028  0.13201470  1
  Ni  Ni102  1  0.86909443  0.69774972  0.13201470  1
  Ni  Ni103  1  0.36909443  0.80225028  0.36798530  1
  Ni  Ni104  1  0.82597557  0.38037646  0.75108380  1
  Ni  Ni105  1  0.32597557  0.11962354  0.74891620  1
  Ni  Ni106  1  0.17402443  0.88037646  0.74891620  1
  Ni  Ni107  1  0.67402443  0.61962354  0.75108380  1
  Ni  Ni108  1  0.17402443  0.61962354  0.24891620  1
  Ni  Ni109  1  0.67402443  0.88037646  0.25108380  1
  Ni  Ni110  1  0.82597557  0.11962354  0.25108380  1
  Ni  Ni111  1  0.32597557  0.38037646  0.24891620  1
  Ni  Ni112  1  0.87194112  0.46202924  0.81924078  1
  Ni  Ni113  1  0.37194112  0.03797076  0.68075922  1
  Ni  Ni114  1  0.12805888  0.96202924  0.68075922  1
  Ni  Ni115  1  0.62805888  0.53797076  0.81924078  1
  Ni  Ni116  1  0.12805888  0.53797076  0.18075922  1
  Ni  Ni117  1  0.62805888  0.96202924  0.31924078  1
  Ni  Ni118  1  0.87194112  0.03797076  0.31924078  1
  Ni  Ni119  1  0.37194112  0.46202924  0.18075922  1
  Ni  Ni120  1  0.94007233  0.41699686  0.74152496  1
  Ni  Ni121  1  0.44007233  0.08300314  0.75847504  1
  Ni  Ni122  1  0.05992767  0.91699686  0.75847504  1
  Ni  Ni123  1  0.55992767  0.58300314  0.74152496  1
  Ni  Ni124  1  0.05992767  0.58300314  0.25847504  1
  Ni  Ni125  1  0.55992767  0.91699686  0.24152496  1
  Ni  Ni126  1  0.94007233  0.08300314  0.24152496  1
  Ni  Ni127  1  0.44007233  0.41699686  0.25847504  1
  Ni  Ni128  1  0.94676280  0.37032547  0.01847216  1
  Ni  Ni129  1  0.44676280  0.12967453  0.48152784  1
  Ni  Ni130  1  0.05323720  0.87032547  0.48152784  1
  Ni  Ni131  1  0.55323720  0.62967453  0.01847216  1
  Ni  Ni132  1  0.05323720  0.62967453  0.98152784  1
  Ni  Ni133  1  0.55323720  0.87032547  0.51847216  1
  Ni  Ni134  1  0.94676280  0.12967453  0.51847216  1
  Ni  Ni135  1  0.44676280  0.37032547  0.98152784  1
  Ni  Ni136  1  0.86118429  0.42818007  0.96409470  1
  Ni  Ni137  1  0.36118429  0.07181993  0.53590530  1
  Ni  Ni138  1  0.13881571  0.92818007  0.53590530  1
  Ni  Ni139  1  0.63881571  0.57181993  0.96409470  1
  Ni  Ni140  1  0.13881571  0.57181993  0.03590530  1
  Ni  Ni141  1  0.63881571  0.92818007  0.46409470  1
  Ni  Ni142  1  0.86118429  0.07181993  0.46409470  1
  Ni  Ni143  1  0.36118429  0.42818007  0.03590530  1
  Ni  Ni144  1  0.83592351  0.32214441  0.01021918  1
  Ni  Ni145  1  0.33592351  0.17785559  0.48978082  1
  Ni  Ni146  1  0.16407649  0.82214441  0.48978082  1
  Ni  Ni147  1  0.66407649  0.67785559  0.01021918  1
  Ni  Ni148  1  0.16407649  0.67785559  0.98978082  1
  Ni  Ni149  1  0.66407649  0.82214441  0.51021918  1
  Ni  Ni150  1  0.83592351  0.17785559  0.51021918  1
  Ni  Ni151  1  0.33592351  0.32214441  0.98978082  1
  Ni  Ni152  1  0.74160178  0.25142580  0.38551237  1
  Ni  Ni153  1  0.24160178  0.24857420  0.11448763  1
  Ni  Ni154  1  0.25839822  0.75142580  0.11448763  1
  Ni  Ni155  1  0.75839822  0.74857420  0.38551237  1
  Ni  Ni156  1  0.25839822  0.74857420  0.61448763  1
  Ni  Ni157  1  0.75839822  0.75142580  0.88551237  1
  Ni  Ni158  1  0.74160178  0.24857420  0.88551237  1
  Ni  Ni159  1  0.24160178  0.25142580  0.61448763  1
  Ni  Ni160  1  0.72169479  0.78340534  0.78858672  1
  Ni  Ni161  1  0.22169479  0.71659466  0.71141328  1
  Ni  Ni162  1  0.27830521  0.28340534  0.71141328  1
  Ni  Ni163  1  0.77830521  0.21659466  0.78858672  1
  Ni  Ni164  1  0.27830521  0.21659466  0.21141328  1
  Ni  Ni165  1  0.77830521  0.28340534  0.28858672  1
  Ni  Ni166  1  0.72169479  0.71659466  0.28858672  1
  Ni  Ni167  1  0.22169479  0.78340534  0.21141328  1
  Ni  Ni168  1  0.79989517  0.35647176  0.36997949  1
  Ni  Ni169  1  0.29989517  0.14352824  0.13002051  1
  Ni  Ni170  1  0.20010483  0.85647176  0.13002051  1
  Ni  Ni171  1  0.70010483  0.64352824  0.36997949  1
  Ni  Ni172  1  0.20010483  0.64352824  0.63002051  1
  Ni  Ni173  1  0.70010483  0.85647176  0.86997949  1
  Ni  Ni174  1  0.79989517  0.14352824  0.86997949  1
  Ni  Ni175  1  0.29989517  0.35647176  0.63002051  1
  Ni  Ni176  1  0.08519753  0.38522229  0.67594193  1
  Ni  Ni177  1  0.58519753  0.11477771  0.82405807  1
  Ni  Ni178  1  0.91480247  0.88522229  0.82405807  1
  Ni  Ni179  1  0.41480247  0.61477771  0.67594193  1
  Ni  Ni180  1  0.91480247  0.61477771  0.32405807  1
  Ni  Ni181  1  0.41480247  0.88522229  0.17594193  1
  Ni  Ni182  1  0.08519753  0.11477771  0.17594193  1
  Ni  Ni183  1  0.58519753  0.38522229  0.32405807  1
  Ni  Ni184  1  0.85883442  0.00245907  0.88463182  1
  Ni  Ni185  1  0.35883442  0.49754093  0.61536818  1
  Ni  Ni186  1  0.14116558  0.50245907  0.61536818  1
  Ni  Ni187  1  0.64116558  0.99754093  0.88463182  1
  Ni  Ni188  1  0.14116558  0.99754093  0.11536818  1
  Ni  Ni189  1  0.64116558  0.50245907  0.38463182  1
  Ni  Ni190  1  0.85883442  0.49754093  0.38463182  1
  Ni  Ni191  1  0.35883442  0.00245907  0.11536818  1
  Ni  Ni192  1  0.89263062  0.01075854  0.75775529  1
  Ni  Ni193  1  0.39263062  0.48924146  0.74224471  1
  Ni  Ni194  1  0.10736938  0.51075854  0.74224471  1
  Ni  Ni195  1  0.60736938  0.98924146  0.75775529  1
  Ni  Ni196  1  0.10736938  0.98924146  0.24224471  1
  Ni  Ni197  1  0.60736938  0.51075854  0.25775529  1
  Ni  Ni198  1  0.89263062  0.48924146  0.25775529  1
  Ni  Ni199  1  0.39263062  0.01075854  0.24224471  1
  Ni  Ni200  1  0.99801715  0.50094148  0.65343203  1
  Ni  Ni201  1  0.49801715  0.99905852  0.84656797  1
  Ni  Ni202  1  0.00198285  0.00094148  0.84656797  1
  Ni  Ni203  1  0.50198285  0.49905852  0.65343203  1
  Ni  Ni204  1  0.00198285  0.49905852  0.34656797  1
  Ni  Ni205  1  0.50198285  0.00094148  0.15343203  1
  Ni  Ni206  1  0.99801715  0.99905852  0.15343203  1
  Ni  Ni207  1  0.49801715  0.50094148  0.34656797  1
  Ni  Ni208  1  0.89252042  0.80608669  0.42904959  1
  Ni  Ni209  1  0.39252042  0.69391331  0.07095041  1
  Ni  Ni210  1  0.10747958  0.30608669  0.07095041  1
  Ni  Ni211  1  0.60747958  0.19391331  0.42904959  1
  Ni  Ni212  1  0.10747958  0.19391331  0.57095041  1
  Ni  Ni213  1  0.60747958  0.30608669  0.92904959  1
  Ni  Ni214  1  0.89252042  0.69391331  0.92904959  1
  Ni  Ni215  1  0.39252042  0.80608669  0.57095041  1
  Ni  Ni216  1  0.96372283  0.93297219  0.40523042  1
  Ni  Ni217  1  0.46372283  0.56702781  0.09476958  1
  Ni  Ni218  1  0.03627717  0.43297219  0.09476958  1
  Ni  Ni219  1  0.53627717  0.06702781  0.40523042  1
  Ni  Ni220  1  0.03627717  0.06702781  0.59476958  1
  Ni  Ni221  1  0.53627717  0.43297219  0.90523042  1
  Ni  Ni222  1  0.96372283  0.56702781  0.90523042  1
  Ni  Ni223  1  0.46372283  0.93297219  0.59476958  1
  Ni  Ni224  1  0.83621923  0.90291312  0.34444622  1
  Ni  Ni225  1  0.33621923  0.59708688  0.15555378  1
  Ni  Ni226  1  0.16378077  0.40291312  0.15555378  1
  Ni  Ni227  1  0.66378077  0.09708688  0.34444622  1
  Ni  Ni228  1  0.16378077  0.09708688  0.65555378  1
  Ni  Ni229  1  0.66378077  0.40291312  0.84444622  1
  Ni  Ni230  1  0.83621923  0.59708688  0.84444622  1
  Ni  Ni231  1  0.33621923  0.90291312  0.65555378  1
  Ni  Ni232  1  0.83481074  0.93297664  0.47176810  1
  Ni  Ni233  1  0.33481074  0.56702336  0.02823190  1
  Ni  Ni234  1  0.16518926  0.43297664  0.02823190  1
  Ni  Ni235  1  0.66518926  0.06702336  0.47176810  1
  Ni  Ni236  1  0.16518926  0.06702336  0.52823190  1
  Ni  Ni237  1  0.66518926  0.43297664  0.97176810  1
  Ni  Ni238  1  0.83481074  0.56702336  0.97176810  1
  Ni  Ni239  1  0.33481074  0.93297664  0.52823190  1
  Ni  Ni240  1  0.85868952  0.32094934  0.61357269  1
  Ni  Ni241  1  0.35868952  0.17905066  0.88642731  1
  Ni  Ni242  1  0.14131048  0.82094934  0.88642731  1
  Ni  Ni243  1  0.64131048  0.67905066  0.61357269  1
  Ni  Ni244  1  0.14131048  0.67905066  0.38642731  1
  Ni  Ni245  1  0.64131048  0.82094934  0.11357269  1
  Ni  Ni246  1  0.85868952  0.17905066  0.11357269  1
  Ni  Ni247  1  0.35868952  0.32094934  0.38642731  1
  Ni  Ni248  1  0.76351006  0.77079988  0.05414481  1
  Ni  Ni249  1  0.26351006  0.72920012  0.44585519  1
  Ni  Ni250  1  0.23648994  0.27079988  0.44585519  1
  Ni  Ni251  1  0.73648994  0.22920012  0.05414481  1
  Ni  Ni252  1  0.23648994  0.22920012  0.94585519  1
  Ni  Ni253  1  0.73648994  0.27079988  0.55414481  1
  Ni  Ni254  1  0.76351006  0.72920012  0.55414481  1
  Ni  Ni255  1  0.26351006  0.77079988  0.94585519  1
  Ni  Ni256  1  0.77394284  0.82877058  0.17282764  1
  Ni  Ni257  1  0.27394284  0.67122942  0.32717236  1
  Ni  Ni258  1  0.22605716  0.32877058  0.32717236  1
  Ni  Ni259  1  0.72605716  0.17122942  0.17282764  1
  Ni  Ni260  1  0.22605716  0.17122942  0.82717236  1
  Ni  Ni261  1  0.72605716  0.32877058  0.67282764  1
  Ni  Ni262  1  0.77394284  0.67122942  0.67282764  1
  Ni  Ni263  1  0.27394284  0.82877058  0.82717236  1
  Ni  Ni264  1  0.70772810  0.80267070  0.65571438  1
  Ni  Ni265  1  0.20772810  0.69732930  0.84428562  1
  Ni  Ni266  1  0.29227190  0.30267070  0.84428562  1
  Ni  Ni267  1  0.79227190  0.19732930  0.65571438  1
  Ni  Ni268  1  0.29227190  0.19732930  0.34428562  1
  Ni  Ni269  1  0.79227190  0.30267070  0.15571438  1
  Ni  Ni270  1  0.70772810  0.69732930  0.15571438  1
  Ni  Ni271  1  0.20772810  0.80267070  0.34428562  1
  Cu  Cu272  1  0.98259987  0.32575026  0.44769400  1
  Cu  Cu273  1  0.48259987  0.17424974  0.05230600  1
  Cu  Cu274  1  0.01740013  0.82575026  0.05230600  1
  Cu  Cu275  1  0.51740013  0.67424974  0.44769400  1
  Cu  Cu276  1  0.01740013  0.67424974  0.55230600  1
  Cu  Cu277  1  0.51740013  0.82575026  0.94769400  1
  Cu  Cu278  1  0.98259987  0.17424974  0.94769400  1
  Cu  Cu279  1  0.48259987  0.32575026  0.55230600  1
  Cu  Cu280  1  0.97764510  0.29389046  0.25913914  1
  Cu  Cu281  1  0.47764510  0.20610954  0.24086086  1
  Cu  Cu282  1  0.02235490  0.79389046  0.24086086  1
  Cu  Cu283  1  0.52235490  0.70610954  0.25913914  1
  Cu  Cu284  1  0.02235490  0.70610954  0.74086086  1
  Cu  Cu285  1  0.52235490  0.79389046  0.75913914  1
  Cu  Cu286  1  0.97764510  0.20610954  0.75913914  1
  Cu  Cu287  1  0.47764510  0.29389046  0.74086086  1
  Cu  Cu288  1  0.92776695  0.85083073  0.62834982  1
  Cu  Cu289  1  0.42776695  0.64916927  0.87165018  1
  Cu  Cu290  1  0.07223305  0.35083073  0.87165018  1
  Cu  Cu291  1  0.57223305  0.14916927  0.62834982  1
  Cu  Cu292  1  0.07223305  0.14916927  0.37165018  1
  Cu  Cu293  1  0.57223305  0.35083073  0.12834982  1
  Cu  Cu294  1  0.92776695  0.64916927  0.12834982  1
  Cu  Cu295  1  0.42776695  0.85083073  0.37165018  1
  Cu  Cu296  1  0.88781172  0.39733633  0.78749253  1
  Cu  Cu297  1  0.38781172  0.10266367  0.71250747  1
  Cu  Cu298  1  0.11218828  0.89733633  0.71250747  1
  Cu  Cu299  1  0.61218828  0.60266367  0.78749253  1
  Cu  Cu300  1  0.11218828  0.60266367  0.21250747  1
  Cu  Cu301  1  0.61218828  0.89733633  0.28749253  1
  Cu  Cu302  1  0.88781172  0.10266367  0.28749253  1
  Cu  Cu303  1  0.38781172  0.39733633  0.21250747  1
  Cu  Cu304  1  0.88943922  0.35905589  0.97512633  1
  Cu  Cu305  1  0.38943922  0.14094411  0.52487367  1
  Cu  Cu306  1  0.11056078  0.85905589  0.52487367  1
  Cu  Cu307  1  0.61056078  0.64094411  0.97512633  1
  Cu  Cu308  1  0.11056078  0.64094411  0.02487367  1
  Cu  Cu309  1  0.61056078  0.85905589  0.47512633  1
  Cu  Cu310  1  0.88943922  0.14094411  0.47512633  1
  Cu  Cu311  1  0.38943922  0.35905589  0.02487367  1
  Cu  Cu312  1  0.79978864  0.28344377  0.35281678  1
  Cu  Cu313  1  0.29978864  0.21655623  0.14718322  1
  Cu  Cu314  1  0.20021136  0.78344377  0.14718322  1
  Cu  Cu315  1  0.70021136  0.71655623  0.35281678  1
  Cu  Cu316  1  0.20021136  0.71655623  0.64718322  1
  Cu  Cu317  1  0.70021136  0.78344377  0.85281678  1
  Cu  Cu318  1  0.79978864  0.21655623  0.85281678  1
  Cu  Cu319  1  0.29978864  0.28344377  0.64718322  1
