# generated using pymatgen
data_Cu3NiC3
_symmetry_space_group_name_H-M   'P 1'
_cell_length_a   8.71965500
_cell_length_b   8.71965500
_cell_length_c   8.71965500
_cell_angle_alpha   90.00000000
_cell_angle_beta   90.00000000
_cell_angle_gamma   90.00000000
_symmetry_Int_Tables_number   1
_chemical_formula_structural   Cu3NiC3
_chemical_formula_sum   'Cu12 Ni4 C12'
_cell_volume   662.97615137
_cell_formula_units_Z   4
loop_
 _symmetry_equiv_pos_site_id
 _symmetry_equiv_pos_as_xyz
  1  'x, y, z'
loop_
 _atom_site_type_symbol
 _atom_site_label
 _atom_site_symmetry_multiplicity
 _atom_site_fract_x
 _atom_site_fract_y
 _atom_site_fract_z
 _atom_site_occupancy
  C  C0  1  0.44012900  0.94012900  0.55987100  1
  C  C1  1  0.94012900  0.55987100  0.44012900  1
  C  C2  1  0.55987100  0.44012900  0.94012900  1
  C  C3  1  0.05987100  0.05987100  0.05987100  1
  C  C4  1  0.93160500  0.43160500  0.06839500  1
  C  C5  1  0.43160500  0.06839500  0.93160500  1
  C  C6  1  0.06839500  0.93160500  0.43160500  1
  C  C7  1  0.56839500  0.56839500  0.56839500  1
  C  C8  1  0.67493500  0.17493500  0.32506500  1
  C  C9  1  0.17493500  0.32506500  0.67493500  1
  C  C10  1  0.32506500  0.67493500  0.17493500  1
  C  C11  1  0.82506500  0.82506500  0.82506500  1
  Ni  Ni12  1  0.21420500  0.71420500  0.78579500  1
  Ni  Ni13  1  0.71420500  0.78579500  0.21420500  1
  Ni  Ni14  1  0.78579500  0.21420500  0.71420500  1
  Ni  Ni15  1  0.28579500  0.28579500  0.28579500  1
  Cu  Cu16  1  0.14099200  0.98488700  0.74989500  1
  Cu  Cu17  1  0.25010500  0.64099200  0.51511300  1
  Cu  Cu18  1  0.48488700  0.75010500  0.85900800  1
  Cu  Cu19  1  0.64099200  0.51511300  0.25010500  1
  Cu  Cu20  1  0.75010500  0.85900800  0.48488700  1
  Cu  Cu21  1  0.98488700  0.74989500  0.14099200  1
  Cu  Cu22  1  0.85900800  0.48488700  0.75010500  1
  Cu  Cu23  1  0.74989500  0.14099200  0.98488700  1
  Cu  Cu24  1  0.51511300  0.25010500  0.64099200  1
  Cu  Cu25  1  0.35900800  0.01511300  0.24989500  1
  Cu  Cu26  1  0.24989500  0.35900800  0.01511300  1
  Cu  Cu27  1  0.01511300  0.24989500  0.35900800  1
