# generated using pymatgen
data_Cu2Ni3C17
_symmetry_space_group_name_H-M   'P 1'
_cell_length_a   11.79666697
_cell_length_b   12.73182380
_cell_length_c   12.84641334
_cell_angle_alpha   90.00000000
_cell_angle_beta   90.00000000
_cell_angle_gamma   90.00000000
_symmetry_Int_Tables_number   1
_chemical_formula_structural   Cu2Ni3C17
_chemical_formula_sum   'Cu16 Ni24 C136'
_cell_volume   1929.44245444
_cell_formula_units_Z   8
loop_
 _symmetry_equiv_pos_site_id
 _symmetry_equiv_pos_as_xyz
  1  'x, y, z'
loop_
 _atom_site_type_symbol
 _atom_site_label
 _atom_site_symmetry_multiplicity
 _atom_site_fract_x
 _atom_site_fract_y
 _atom_site_fract_z
 _atom_site_occupancy
  C  C0  1  0.00123578  0.24368252  0.87562010  1
  C  C1  1  0.49876422  0.74368252  0.12437990  1
  C  C2  1  0.50123578  0.75631748  0.62437990  1
  C  C3  1  0.99876422  0.25631748  0.37562010  1
  C  C4  1  0.99876422  0.75631748  0.12437990  1
  C  C5  1  0.50123578  0.25631748  0.87562010  1
  C  C6  1  0.49876422  0.24368252  0.37562010  1
  C  C7  1  0.00123578  0.74368252  0.62437990  1
  C  C8  1  0.23736856  0.14785613  0.70888327  1
  C  C9  1  0.26263144  0.64785613  0.29111673  1
  C  C10  1  0.73736856  0.85214387  0.79111673  1
  C  C11  1  0.76263144  0.35214387  0.20888327  1
  C  C12  1  0.76263144  0.85214387  0.29111673  1
  C  C13  1  0.73736856  0.35214387  0.70888327  1
  C  C14  1  0.26263144  0.14785613  0.20888327  1
  C  C15  1  0.23736856  0.64785613  0.79111673  1
  C  C16  1  0.96547746  0.98976891  0.71480643  1
  C  C17  1  0.53452254  0.48976891  0.28519357  1
  C  C18  1  0.46547746  0.01023109  0.78519357  1
  C  C19  1  0.03452254  0.51023109  0.21480643  1
  C  C20  1  0.03452254  0.01023109  0.28519357  1
  C  C21  1  0.46547746  0.51023109  0.71480643  1
  C  C22  1  0.53452254  0.98976891  0.21480643  1
  C  C23  1  0.96547746  0.48976891  0.78519357  1
  C  C24  1  0.77122388  0.17147954  0.04085225  1
  C  C25  1  0.72877612  0.67147954  0.95914775  1
  C  C26  1  0.27122388  0.82852046  0.45914775  1
  C  C27  1  0.22877612  0.32852046  0.54085225  1
  C  C28  1  0.22877612  0.82852046  0.95914775  1
  C  C29  1  0.27122388  0.32852046  0.04085225  1
  C  C30  1  0.72877612  0.17147954  0.54085225  1
  C  C31  1  0.77122388  0.67147954  0.45914775  1
  Ni  Ni32  1  0.23216140  0.88774418  0.70125638  1
  Ni  Ni33  1  0.26783860  0.38774418  0.29874362  1
  Ni  Ni34  1  0.73216140  0.11225582  0.79874362  1
  Ni  Ni35  1  0.76783860  0.61225582  0.20125638  1
  Ni  Ni36  1  0.76783860  0.11225582  0.29874362  1
  Ni  Ni37  1  0.73216140  0.61225582  0.70125638  1
  Ni  Ni38  1  0.26783860  0.88774418  0.20125638  1
  Ni  Ni39  1  0.23216140  0.38774418  0.79874362  1
  Ni  Ni40  1  0.76245177  0.90499378  0.55662352  1
  Ni  Ni41  1  0.73754823  0.40499378  0.44337648  1
  Ni  Ni42  1  0.26245177  0.09500622  0.94337648  1
  Ni  Ni43  1  0.23754823  0.59500622  0.05662352  1
  Ni  Ni44  1  0.23754823  0.09500622  0.44337648  1
  Ni  Ni45  1  0.26245177  0.59500622  0.55662352  1
  Ni  Ni46  1  0.73754823  0.90499378  0.05662352  1
  Ni  Ni47  1  0.76245177  0.40499378  0.94337648  1
  Ni  Ni48  1  0.97831185  0.23632229  0.62429705  1
  Ni  Ni49  1  0.52168815  0.73632229  0.37570295  1
  Ni  Ni50  1  0.47831185  0.76367771  0.87570295  1
  Ni  Ni51  1  0.02168815  0.26367771  0.12429705  1
  Ni  Ni52  1  0.02168815  0.76367771  0.37570295  1
  Ni  Ni53  1  0.47831185  0.26367771  0.62429705  1
  Ni  Ni54  1  0.52168815  0.23632229  0.12429705  1
  Ni  Ni55  1  0.97831185  0.73632229  0.87570295  1
  Cu  Cu56  1  0.06703702  0.00297976  0.91047544  1
  Cu  Cu57  1  0.43296298  0.50297976  0.08952456  1
  Cu  Cu58  1  0.56703702  0.99702024  0.58952456  1
  Cu  Cu59  1  0.93296298  0.49702024  0.41047544  1
  Cu  Cu60  1  0.93296298  0.99702024  0.08952456  1
  Cu  Cu61  1  0.56703702  0.49702024  0.91047544  1
  Cu  Cu62  1  0.43296298  0.00297976  0.41047544  1
  Cu  Cu63  1  0.06703702  0.50297976  0.58952456  1
  Cu  Cu64  1  0.93109987  0.99888011  0.91882547  1
  Cu  Cu65  1  0.56890013  0.49888011  0.08117453  1
  Cu  Cu66  1  0.43109987  0.00111989  0.58117453  1
  Cu  Cu67  1  0.06890013  0.50111989  0.41882547  1
  Cu  Cu68  1  0.06890013  0.00111989  0.08117453  1
  Cu  Cu69  1  0.43109987  0.50111989  0.91882547  1
  Cu  Cu70  1  0.56890013  0.99888011  0.41882547  1
  Cu  Cu71  1  0.93109987  0.49888011  0.58117453  1
  C  C72  1  0.80175413  0.17074758  0.88453782  1
  C  C73  1  0.69824587  0.67074758  0.11546218  1
  C  C74  1  0.30175413  0.82925242  0.61546218  1
  C  C75  1  0.19824587  0.32925242  0.38453782  1
  C  C76  1  0.19824587  0.82925242  0.11546218  1
  C  C77  1  0.30175413  0.32925242  0.88453782  1
  C  C78  1  0.69824587  0.17074758  0.38453782  1
  C  C79  1  0.80175413  0.67074758  0.61546218  1
  C  C80  1  0.60382306  0.18221704  0.04570039  1
  C  C81  1  0.89617694  0.68221704  0.95429961  1
  C  C82  1  0.10382306  0.81778296  0.45429961  1
  C  C83  1  0.39617694  0.31778296  0.54570039  1
  C  C84  1  0.39617694  0.81778296  0.95429961  1
  C  C85  1  0.10382306  0.31778296  0.04570039  1
  C  C86  1  0.89617694  0.18221704  0.54570039  1
  C  C87  1  0.60382306  0.68221704  0.45429961  1
  C  C88  1  0.77101666  0.18310870  0.19938009  1
  C  C89  1  0.72898334  0.68310870  0.80061991  1
  C  C90  1  0.27101666  0.81689130  0.30061991  1
  C  C91  1  0.22898334  0.31689130  0.69938009  1
  C  C92  1  0.22898334  0.81689130  0.80061991  1
  C  C93  1  0.27101666  0.31689130  0.19938009  1
  C  C94  1  0.72898334  0.18310870  0.69938009  1
  C  C95  1  0.77101666  0.68310870  0.30061991  1
  C  C96  1  0.79052414  0.01505079  0.03344236  1
  C  C97  1  0.70947586  0.51505079  0.96655764  1
  C  C98  1  0.29052414  0.98494921  0.46655764  1
  C  C99  1  0.20947586  0.48494921  0.53344236  1
  C  C100  1  0.20947586  0.98494921  0.96655764  1
  C  C101  1  0.29052414  0.48494921  0.03344236  1
  C  C102  1  0.70947586  0.01505079  0.53344236  1
  C  C103  1  0.79052414  0.51505079  0.46655764  1
  C  C104  1  0.94079692  0.20009333  0.05115813  1
  C  C105  1  0.55920308  0.70009333  0.94884187  1
  C  C106  1  0.44079692  0.79990667  0.44884187  1
  C  C107  1  0.05920308  0.29990667  0.55115813  1
  C  C108  1  0.05920308  0.79990667  0.94884187  1
  C  C109  1  0.44079692  0.29990667  0.05115813  1
  C  C110  1  0.55920308  0.20009333  0.55115813  1
  C  C111  1  0.94079692  0.70009333  0.44884187  1
  C  C112  1  0.75808093  0.33825972  0.04516067  1
  C  C113  1  0.74191907  0.83825972  0.95483933  1
  C  C114  1  0.25808093  0.66174028  0.45483933  1
  C  C115  1  0.24191907  0.16174028  0.54516067  1
  C  C116  1  0.24191907  0.66174028  0.95483933  1
  C  C117  1  0.25808093  0.16174028  0.04516067  1
  C  C118  1  0.74191907  0.33825972  0.54516067  1
  C  C119  1  0.75808093  0.83825972  0.45483933  1
  C  C120  1  0.42129522  0.18796183  0.70335299  1
  C  C121  1  0.07870478  0.68796183  0.29664701  1
  C  C122  1  0.92129522  0.81203817  0.79664701  1
  C  C123  1  0.57870478  0.31203817  0.20335299  1
  C  C124  1  0.57870478  0.81203817  0.29664701  1
  C  C125  1  0.92129522  0.31203817  0.70335299  1
  C  C126  1  0.07870478  0.18796183  0.20335299  1
  C  C127  1  0.42129522  0.68796183  0.79664701  1
  C  C128  1  0.18344583  0.14776237  0.86216314  1
  C  C129  1  0.31655417  0.64776237  0.13783686  1
  C  C130  1  0.68344583  0.85223763  0.63783686  1
  C  C131  1  0.81655417  0.35223763  0.36216314  1
  C  C132  1  0.81655417  0.85223763  0.13783686  1
  C  C133  1  0.68344583  0.35223763  0.86216314  1
  C  C134  1  0.31655417  0.14776237  0.36216314  1
  C  C135  1  0.18344583  0.64776237  0.63783686  1
  C  C136  1  0.29409416  0.99117439  0.72801758  1
  C  C137  1  0.20590584  0.49117439  0.27198242  1
  C  C138  1  0.79409416  0.00882561  0.77198242  1
  C  C139  1  0.70590584  0.50882561  0.22801758  1
  C  C140  1  0.70590584  0.00882561  0.27198242  1
  C  C141  1  0.79409416  0.50882561  0.72801758  1
  C  C142  1  0.20590584  0.99117439  0.22801758  1
  C  C143  1  0.29409416  0.49117439  0.77198242  1
  C  C144  1  0.03943265  0.14966988  0.68984590  1
  C  C145  1  0.46056735  0.64966988  0.31015410  1
  C  C146  1  0.53943265  0.85033012  0.81015410  1
  C  C147  1  0.96056735  0.35033012  0.18984590  1
  C  C148  1  0.96056735  0.85033012  0.31015410  1
  C  C149  1  0.53943265  0.35033012  0.68984590  1
  C  C150  1  0.46056735  0.14966988  0.18984590  1
  C  C151  1  0.03943265  0.64966988  0.81015410  1
  C  C152  1  0.99466146  0.02735998  0.87876473  1
  C  C153  1  0.50533854  0.52735998  0.12123527  1
  C  C154  1  0.49466146  0.97264002  0.62123527  1
  C  C155  1  0.00533854  0.47264002  0.37876473  1
  C  C156  1  0.00533854  0.97264002  0.12123527  1
  C  C157  1  0.49466146  0.47264002  0.87876473  1
  C  C158  1  0.50533854  0.02735998  0.37876473  1
  C  C159  1  0.99466146  0.52735998  0.62123527  1
  C  C160  1  0.88641570  0.90947072  0.59434094  1
  C  C161  1  0.61358430  0.40947072  0.40565906  1
  C  C162  1  0.38641570  0.09052928  0.90565906  1
  C  C163  1  0.11358430  0.59052928  0.09434094  1
  C  C164  1  0.11358430  0.09052928  0.40565906  1
  C  C165  1  0.38641570  0.59052928  0.59434094  1
  C  C166  1  0.61358430  0.90947072  0.09434094  1
  C  C167  1  0.88641570  0.40947072  0.90565906  1
  C  C168  1  0.11010409  0.90674819  0.66491264  1
  C  C169  1  0.38989591  0.40674819  0.33508736  1
  C  C170  1  0.61010409  0.09325181  0.83508736  1
  C  C171  1  0.88989591  0.59325181  0.16491264  1
  C  C172  1  0.88989591  0.09325181  0.33508736  1
  C  C173  1  0.61010409  0.59325181  0.66491264  1
  C  C174  1  0.38989591  0.90674819  0.16491264  1
  C  C175  1  0.11010409  0.40674819  0.83508736  1
