# generated using pymatgen
data_Cu14Ni2C11
_symmetry_space_group_name_H-M   'P 1'
_cell_length_a   6.05637100
_cell_length_b   6.19164738
_cell_length_c   10.46647897
_cell_angle_alpha   106.96038461
_cell_angle_beta   89.13423602
_cell_angle_gamma   119.16824496
_symmetry_Int_Tables_number   1
_chemical_formula_structural   Cu14Ni2C11
_chemical_formula_sum   'Cu14 Ni2 C11'
_cell_volume   323.99063605
_cell_formula_units_Z   1
loop_
 _symmetry_equiv_pos_site_id
 _symmetry_equiv_pos_as_xyz
  1  'x, y, z'
loop_
 _atom_site_type_symbol
 _atom_site_label
 _atom_site_symmetry_multiplicity
 _atom_site_fract_x
 _atom_site_fract_y
 _atom_site_fract_z
 _atom_site_occupancy
  C  C0  1  0.46184200  0.58526500  0.32117500  1
  C  C1  1  0.03018900  0.88797100  0.18814200  1
  C  C2  1  0.53815800  0.41473500  0.67882500  1
  C  C3  1  0.96981100  0.11202900  0.81185800  1
  C  C4  1  0.50000000  0.00000000  0.00000000  1
  C  C5  1  0.74127500  0.26162200  0.24593600  1
  C  C6  1  0.00000000  0.50000000  0.00000000  1
  C  C7  1  0.00000000  0.00000000  0.50000000  1
  C  C8  1  0.50000000  0.50000000  0.00000000  1
  C  C9  1  0.00000000  0.50000000  0.50000000  1
  C  C10  1  0.25872500  0.73837800  0.75406400  1
  Ni  Ni11  1  0.16200200  0.42656300  0.89028800  1
  Ni  Ni12  1  0.83799800  0.57343700  0.10971200  1
  Cu  Cu13  1  0.14653000  0.88548800  0.87880700  1
  Cu  Cu14  1  0.37170100  0.10878700  0.12158500  1
  Cu  Cu15  1  0.90635200  0.14903300  0.61471800  1
  Cu  Cu16  1  0.66494900  0.91741600  0.36869800  1
  Cu  Cu17  1  0.61702100  0.35396700  0.87763700  1
  Cu  Cu18  1  0.38297900  0.64603300  0.12236300  1
  Cu  Cu19  1  0.65843800  0.39693100  0.37217800  1
  Cu  Cu20  1  0.11887900  0.37240500  0.37669600  1
  Cu  Cu21  1  0.62829900  0.89121300  0.87841500  1
  Cu  Cu22  1  0.88112100  0.62759500  0.62330400  1
  Cu  Cu23  1  0.34156200  0.60306900  0.62782200  1
  Cu  Cu24  1  0.85347000  0.11451200  0.12119300  1
  Cu  Cu25  1  0.33505100  0.08258400  0.63130200  1
  Cu  Cu26  1  0.09364800  0.85096700  0.38528200  1
