# generated using pymatgen
data_Cu4NiC11
_symmetry_space_group_name_H-M   'P 1'
_cell_length_a   7.44724900
_cell_length_b   7.44724900
_cell_length_c   15.40215500
_cell_angle_alpha   90.00000000
_cell_angle_beta   90.00000000
_cell_angle_gamma   90.00000000
_symmetry_Int_Tables_number   1
_chemical_formula_structural   Cu4NiC11
_chemical_formula_sum   'Cu16 Ni4 C44'
_cell_volume   854.22689166
_cell_formula_units_Z   4
loop_
 _symmetry_equiv_pos_site_id
 _symmetry_equiv_pos_as_xyz
  1  'x, y, z'
loop_
 _atom_site_type_symbol
 _atom_site_label
 _atom_site_symmetry_multiplicity
 _atom_site_fract_x
 _atom_site_fract_y
 _atom_site_fract_z
 _atom_site_occupancy
  C  C0  1  0.50000000  0.50000000  0.50000000  1
  C  C1  1  0.00000000  0.00000000  0.50000000  1
  C  C2  1  0.00000000  0.00000000  0.00000000  1
  C  C3  1  0.50000000  0.50000000  0.00000000  1
  Ni  Ni4  1  0.50000000  0.00000000  0.58265900  1
  Ni  Ni5  1  0.00000000  0.50000000  0.91734100  1
  Ni  Ni6  1  0.00000000  0.50000000  0.41734100  1
  Ni  Ni7  1  0.50000000  0.00000000  0.08265900  1
  Cu  Cu8  1  0.17286400  0.25227000  0.64795500  1
  Cu  Cu9  1  0.82713600  0.74773000  0.64795500  1
  Cu  Cu10  1  0.25227000  0.17286400  0.85204500  1
  Cu  Cu11  1  0.75227000  0.32713600  0.64795500  1
  Cu  Cu12  1  0.24773000  0.67286400  0.64795500  1
  Cu  Cu13  1  0.32713600  0.75227000  0.85204500  1
  Cu  Cu14  1  0.67286400  0.24773000  0.85204500  1
  Cu  Cu15  1  0.74773000  0.82713600  0.85204500  1
  Cu  Cu16  1  0.32713600  0.24773000  0.35204500  1
  Cu  Cu17  1  0.67286400  0.75227000  0.35204500  1
  Cu  Cu18  1  0.24773000  0.32713600  0.14795500  1
  Cu  Cu19  1  0.74773000  0.17286400  0.35204500  1
  Cu  Cu20  1  0.25227000  0.82713600  0.35204500  1
  Cu  Cu21  1  0.17286400  0.74773000  0.14795500  1
  Cu  Cu22  1  0.82713600  0.25227000  0.14795500  1
  Cu  Cu23  1  0.75227000  0.67286400  0.14795500  1
  C  C24  1  0.25145100  0.10397100  0.58241000  1
  C  C25  1  0.74854900  0.89602900  0.58241000  1
  C  C26  1  0.10397100  0.25145100  0.91759000  1
  C  C27  1  0.60397100  0.24854900  0.58241000  1
  C  C28  1  0.39602900  0.75145100  0.58241000  1
  C  C29  1  0.24854900  0.60397100  0.91759000  1
  C  C30  1  0.75145100  0.39602900  0.91759000  1
  C  C31  1  0.89602900  0.74854900  0.91759000  1
  C  C32  1  0.24854900  0.39602900  0.41759000  1
  C  C33  1  0.75145100  0.60397100  0.41759000  1
  C  C34  1  0.39602900  0.24854900  0.08241000  1
  C  C35  1  0.89602900  0.25145100  0.41759000  1
  C  C36  1  0.10397100  0.74854900  0.41759000  1
  C  C37  1  0.25145100  0.89602900  0.08241000  1
  C  C38  1  0.74854900  0.10397100  0.08241000  1
  C  C39  1  0.25001500  0.04498200  0.37247500  1
  C  C40  1  0.60397100  0.75145100  0.08241000  1
  C  C41  1  0.75001500  0.54498200  0.62752500  1
  C  C42  1  0.45501800  0.24998500  0.87247500  1
  C  C43  1  0.95501800  0.25001500  0.62752500  1
  C  C44  1  0.04498200  0.74998500  0.62752500  1
  C  C45  1  0.25001500  0.95501800  0.87247500  1
  C  C46  1  0.74998500  0.04498200  0.87247500  1
  C  C47  1  0.54498200  0.75001500  0.87247500  1
  C  C48  1  0.70938200  0.70938200  0.25000000  1
  C  C49  1  0.79061800  0.20938200  0.25000000  1
  C  C50  1  0.20938200  0.79061800  0.25000000  1
  C  C51  1  0.29061800  0.29061800  0.25000000  1
  C  C52  1  0.79061800  0.79061800  0.75000000  1
  C  C53  1  0.70938200  0.29061800  0.75000000  1
  C  C54  1  0.29061800  0.70938200  0.75000000  1
  C  C55  1  0.20938200  0.20938200  0.75000000  1
  C  C56  1  0.95501800  0.74998500  0.12752500  1
  C  C57  1  0.75001500  0.45501800  0.12752500  1
  C  C58  1  0.24998500  0.54498200  0.12752500  1
  C  C59  1  0.45501800  0.75001500  0.37247500  1
  C  C60  1  0.54498200  0.24998500  0.37247500  1
  C  C61  1  0.04498200  0.25001500  0.12752500  1
  C  C62  1  0.74998500  0.95501800  0.37247500  1
  C  C63  1  0.24998500  0.45501800  0.62752500  1
