# generated using pymatgen
data_CuNiC11
_symmetry_space_group_name_H-M   'P 1'
_cell_length_a   6.58180600
_cell_length_b   8.51523400
_cell_length_c   9.99107530
_cell_angle_alpha   85.51169881
_cell_angle_beta   90.00000000
_cell_angle_gamma   90.00000000
_symmetry_Int_Tables_number   1
_chemical_formula_structural   CuNiC11
_chemical_formula_sum   'Cu4 Ni4 C44'
_cell_volume   558.23879349
_cell_formula_units_Z   4
loop_
 _symmetry_equiv_pos_site_id
 _symmetry_equiv_pos_as_xyz
  1  'x, y, z'
loop_
 _atom_site_type_symbol
 _atom_site_label
 _atom_site_symmetry_multiplicity
 _atom_site_fract_x
 _atom_site_fract_y
 _atom_site_fract_z
 _atom_site_occupancy
  C  C0  1  0.00000000  0.90776500  0.61943800  1
  C  C1  1  0.00000000  0.90397200  0.11886000  1
  C  C2  1  0.22416500  0.72693300  0.87689600  1
  C  C3  1  0.77583500  0.72693300  0.87689600  1
  C  C4  1  0.22417100  0.72563700  0.37625000  1
  C  C5  1  0.77582900  0.72563700  0.37625000  1
  C  C6  1  0.72474200  0.27290100  0.62188100  1
  C  C7  1  0.27525800  0.27290100  0.62188100  1
  C  C8  1  0.72513800  0.27375200  0.12461900  1
  C  C9  1  0.27486200  0.27375200  0.12461900  1
  C  C10  1  0.50000000  0.09339300  0.88037600  1
  C  C11  1  0.50000000  0.09301500  0.37988400  1
  C  C12  1  0.50000000  0.65970400  0.61122800  1
  C  C13  1  0.50000000  0.65950800  0.11157200  1
  C  C14  1  0.00000000  0.33981900  0.88886800  1
  C  C15  1  0.00000000  0.33316400  0.39657400  1
  Ni  Ni16  1  0.00000000  0.59010700  0.63627500  1
  Ni  Ni17  1  0.00000000  0.58637700  0.14186300  1
  Ni  Ni18  1  0.50000000  0.40909300  0.86055200  1
  Ni  Ni19  1  0.50000000  0.40967800  0.35991400  1
  Cu  Cu20  1  0.50000000  0.96735900  0.64870000  1
  Cu  Cu21  1  0.50000000  0.96716300  0.14871900  1
  Cu  Cu22  1  0.00000000  0.03269500  0.85162100  1
  Cu  Cu23  1  0.00000000  0.03938600  0.35157700  1
  C  C24  1  0.50000000  0.93002400  0.52578000  1
  C  C25  1  0.00000000  0.88620700  0.82196700  1
  C  C26  1  0.50000000  0.92947600  0.02581400  1
  C  C27  1  0.50000000  0.85579000  0.74615500  1
  C  C28  1  0.00000000  0.89335400  0.32157600  1
  C  C29  1  0.50000000  0.85580500  0.24628200  1
  C  C30  1  0.18401500  0.69102600  0.58368700  1
  C  C31  1  0.81598500  0.69102600  0.58368700  1
  C  C32  1  0.18321300  0.68908400  0.08886900  1
  C  C33  1  0.81678700  0.68908400  0.08886900  1
  C  C34  1  0.50000000  0.57969600  0.90530900  1
  C  C35  1  0.00000000  0.57479500  0.79332400  1
  C  C36  1  0.50000000  0.58011700  0.40486100  1
  C  C37  1  0.00000000  0.56650000  0.29930400  1
  C  C38  1  0.50000000  0.42261700  0.70335000  1
  C  C39  1  0.00000000  0.42067600  0.58863000  1
  C  C40  1  0.50000000  0.42257000  0.20285900  1
  C  C41  1  0.00000000  0.41967700  0.09117200  1
  C  C42  1  0.31608500  0.30949400  0.91478900  1
  C  C43  1  0.68391500  0.30949400  0.91478900  1
  C  C44  1  0.68644600  0.31096900  0.41369000  1
  C  C45  1  0.31355400  0.31096900  0.41369000  1
  C  C46  1  0.00000000  0.14394500  0.75407100  1
  C  C47  1  0.50000000  0.11339000  0.67801100  1
  C  C48  1  0.00000000  0.15373300  0.25689000  1
  C  C49  1  0.00000000  0.06948600  0.97447500  1
  C  C50  1  0.50000000  0.11318800  0.17794400  1
  C  C51  1  0.00000000  0.07716300  0.47484200  1
