# generated using pymatgen
data_Cu5Ni2C
_symmetry_space_group_name_H-M   'P 1'
_cell_length_a   7.68080800
_cell_length_b   9.64404900
_cell_length_c   12.93001717
_cell_angle_alpha   74.94455100
_cell_angle_beta   90.00000000
_cell_angle_gamma   90.00000000
_symmetry_Int_Tables_number   1
_chemical_formula_structural   Cu5Ni2C
_chemical_formula_sum   'Cu40 Ni16 C8'
_cell_volume   924.90336795
_cell_formula_units_Z   8
loop_
 _symmetry_equiv_pos_site_id
 _symmetry_equiv_pos_as_xyz
  1  'x, y, z'
loop_
 _atom_site_type_symbol
 _atom_site_label
 _atom_site_symmetry_multiplicity
 _atom_site_fract_x
 _atom_site_fract_y
 _atom_site_fract_z
 _atom_site_occupancy
  C  C0  1  0.30898200  0.58978800  0.29890300  1
  C  C1  1  0.69101800  0.41021200  0.70109700  1
  C  C2  1  0.30898200  0.91021200  0.70109700  1
  C  C3  1  0.69101800  0.08978800  0.29890300  1
  C  C4  1  0.77899400  0.71564400  0.25425800  1
  C  C5  1  0.22100600  0.28435600  0.74574200  1
  C  C6  1  0.77899400  0.78435600  0.74574200  1
  C  C7  1  0.22100600  0.21564400  0.25425800  1
  Ni  Ni8  1  0.82861900  0.36654700  0.27727200  1
  Ni  Ni9  1  0.17138100  0.63345300  0.72272800  1
  Ni  Ni10  1  0.82861900  0.13345300  0.72272800  1
  Ni  Ni11  1  0.17138100  0.86654700  0.27727200  1
  Ni  Ni12  1  0.87518200  0.75000000  0.00000000  1
  Ni  Ni13  1  0.12481800  0.25000000  0.00000000  1
  Ni  Ni14  1  0.67169600  0.75000000  0.00000000  1
  Ni  Ni15  1  0.32830400  0.25000000  0.00000000  1
  Ni  Ni16  1  0.37234400  0.88025900  0.28521800  1
  Ni  Ni17  1  0.62765600  0.11974100  0.71478200  1
  Ni  Ni18  1  0.37234400  0.61974100  0.71478200  1
  Ni  Ni19  1  0.62765600  0.38025900  0.28521800  1
  Ni  Ni20  1  0.77621500  0.83392400  0.47906300  1
  Ni  Ni21  1  0.22378500  0.16607600  0.52093700  1
  Ni  Ni22  1  0.77621500  0.66607600  0.52093700  1
  Ni  Ni23  1  0.22378500  0.33392400  0.47906300  1
  Cu  Cu24  1  0.56634600  0.50449900  0.27756300  1
  Cu  Cu25  1  0.43365400  0.49550100  0.72243700  1
  Cu  Cu26  1  0.56634600  0.99550100  0.72243700  1
  Cu  Cu27  1  0.43365400  0.00449900  0.27756300  1
  Cu  Cu28  1  0.94886800  0.76568400  0.08376700  1
  Cu  Cu29  1  0.05113200  0.23431600  0.91623300  1
  Cu  Cu30  1  0.94886800  0.73431600  0.91623300  1
  Cu  Cu31  1  0.05113200  0.26568400  0.08376700  1
  Cu  Cu32  1  0.59800700  0.75286400  0.08699000  1
  Cu  Cu33  1  0.40199300  0.24713600  0.91301000  1
  Cu  Cu34  1  0.59800700  0.74713600  0.91301000  1
  Cu  Cu35  1  0.40199300  0.25286400  0.08699000  1
  Cu  Cu36  1  0.76976900  0.88538500  0.37764300  1
  Cu  Cu37  1  0.23023100  0.11461500  0.62235700  1
  Cu  Cu38  1  0.76976900  0.61461500  0.62235700  1
  Cu  Cu39  1  0.23023100  0.38538500  0.37764300  1
  Cu  Cu40  1  0.26174400  0.52672100  0.12261900  1
  Cu  Cu41  1  0.73825600  0.47327900  0.87738100  1
  Cu  Cu42  1  0.26174400  0.97327900  0.87738100  1
  Cu  Cu43  1  0.73825600  0.02672100  0.12261900  1
  Cu  Cu44  1  0.77825200  0.90624300  0.54741100  1
  Cu  Cu45  1  0.22174800  0.09375700  0.45258900  1
  Cu  Cu46  1  0.77825200  0.59375700  0.45258900  1
  Cu  Cu47  1  0.22174800  0.40624300  0.54741100  1
  Cu  Cu48  1  0.45822400  0.76542100  0.29579300  1
  Cu  Cu49  1  0.54177600  0.23457900  0.70420700  1
  Cu  Cu50  1  0.45822400  0.73457900  0.70420700  1
  Cu  Cu51  1  0.54177600  0.26542100  0.29579300  1
  Cu  Cu52  1  0.88947800  0.24030400  0.29290500  1
  Cu  Cu53  1  0.11052200  0.75969600  0.70709500  1
  Cu  Cu54  1  0.88947800  0.25969600  0.70709500  1
  Cu  Cu55  1  0.11052200  0.74030400  0.29290500  1
  Cu  Cu56  1  0.73278300  0.41669500  0.97443400  1
  Cu  Cu57  1  0.26721700  0.58330500  0.02556600  1
  Cu  Cu58  1  0.73278300  0.08330500  0.02556600  1
  Cu  Cu59  1  0.26721700  0.91669500  0.97443400  1
  Cu  Cu60  1  0.91566000  0.48168900  0.25313800  1
  Cu  Cu61  1  0.08434000  0.51831100  0.74686200  1
  Cu  Cu62  1  0.91566000  0.01831100  0.74686200  1
  Cu  Cu63  1  0.08434000  0.98168900  0.25313800  1
