# generated using pymatgen
data_Cu14Ni4C5
_symmetry_space_group_name_H-M   'P 1'
_cell_length_a   7.75771000
_cell_length_b   7.68161900
_cell_length_c   12.24377536
_cell_angle_alpha   81.17524862
_cell_angle_beta   90.00000000
_cell_angle_gamma   90.00000000
_symmetry_Int_Tables_number   1
_chemical_formula_structural   Cu14Ni4C5
_chemical_formula_sum   'Cu28 Ni8 C10'
_cell_volume   720.99108282
_cell_formula_units_Z   2
loop_
 _symmetry_equiv_pos_site_id
 _symmetry_equiv_pos_as_xyz
  1  'x, y, z'
loop_
 _atom_site_type_symbol
 _atom_site_label
 _atom_site_symmetry_multiplicity
 _atom_site_fract_x
 _atom_site_fract_y
 _atom_site_fract_z
 _atom_site_occupancy
  C  C0  1  0.74849800  0.34238300  0.63488900  1
  C  C1  1  0.24849800  0.15761700  0.36511100  1
  C  C2  1  0.75150200  0.84238300  0.63488900  1
  C  C3  1  0.25150200  0.65761700  0.36511100  1
  C  C4  1  0.74906700  0.15997800  0.36545300  1
  C  C5  1  0.24906700  0.34002200  0.63454700  1
  C  C6  1  0.25093300  0.84002200  0.63454700  1
  C  C7  1  0.75093300  0.65997800  0.36545300  1
  C  C8  1  0.00000000  0.50000000  0.00000000  1
  C  C9  1  0.50000000  0.00000000  0.00000000  1
  Ni  Ni10  1  0.87302800  0.12808100  0.00041100  1
  Ni  Ni11  1  0.62697200  0.62808100  0.00041100  1
  Ni  Ni12  1  0.37302800  0.37191900  0.99958900  1
  Ni  Ni13  1  0.12697200  0.87191900  0.99958900  1
  Ni  Ni14  1  0.00018700  0.56100600  0.74976700  1
  Ni  Ni15  1  0.50018700  0.93899400  0.25023300  1
  Ni  Ni16  1  0.99981300  0.43899400  0.25023300  1
  Ni  Ni17  1  0.49981300  0.06100600  0.74976700  1
  Cu  Cu18  1  0.00572300  0.81846000  0.82136400  1
  Cu  Cu19  1  0.99955100  0.60984800  0.55989500  1
  Cu  Cu20  1  0.49955100  0.89015200  0.44010500  1
  Cu  Cu21  1  0.00044900  0.39015200  0.44010500  1
  Cu  Cu22  1  0.66631700  0.33390400  0.99989400  1
  Cu  Cu23  1  0.16631700  0.16609600  0.00010600  1
  Cu  Cu24  1  0.33368300  0.66609600  0.00010600  1
  Cu  Cu25  1  0.83368300  0.83390400  0.99989400  1
  Cu  Cu26  1  0.77363800  0.04993900  0.82211100  1
  Cu  Cu27  1  0.27363800  0.45006100  0.17788900  1
  Cu  Cu28  1  0.22636200  0.95006100  0.17788900  1
  Cu  Cu29  1  0.72636200  0.54993900  0.82211100  1
  Cu  Cu30  1  0.22639600  0.03831100  0.82209000  1
  Cu  Cu31  1  0.72639600  0.46168900  0.17791000  1
  Cu  Cu32  1  0.77360400  0.96168900  0.17791000  1
  Cu  Cu33  1  0.27360400  0.53831100  0.82209000  1
  Cu  Cu34  1  0.99467100  0.26877600  0.82172900  1
  Cu  Cu35  1  0.49467100  0.23122400  0.17827100  1
  Cu  Cu36  1  0.00532900  0.73122400  0.17827100  1
  Cu  Cu37  1  0.50532900  0.76877600  0.82172900  1
  Cu  Cu38  1  0.49427700  0.31846000  0.82136400  1
  Cu  Cu39  1  0.99427700  0.18154000  0.17863600  1
  Cu  Cu40  1  0.50572300  0.68154000  0.17863600  1
  Cu  Cu41  1  0.99972800  0.11101400  0.56073800  1
  Cu  Cu42  1  0.50027200  0.61101400  0.56073800  1
  Cu  Cu43  1  0.00027200  0.88898600  0.43926200  1
  Cu  Cu44  1  0.49972800  0.38898600  0.43926200  1
  Cu  Cu45  1  0.50044900  0.10984800  0.55989500  1
