# generated using pymatgen
data_CuNiC
_symmetry_space_group_name_H-M   'P 1'
_cell_length_a   4.58111000
_cell_length_b   7.15538000
_cell_length_c   7.81611800
_cell_angle_alpha   90.00000000
_cell_angle_beta   90.00000000
_cell_angle_gamma   90.00000000
_symmetry_Int_Tables_number   1
_chemical_formula_structural   CuNiC
_chemical_formula_sum   'Cu4 Ni4 C4'
_cell_volume   256.20908772
_cell_formula_units_Z   4
loop_
 _symmetry_equiv_pos_site_id
 _symmetry_equiv_pos_as_xyz
  1  'x, y, z'
loop_
 _atom_site_type_symbol
 _atom_site_label
 _atom_site_symmetry_multiplicity
 _atom_site_fract_x
 _atom_site_fract_y
 _atom_site_fract_z
 _atom_site_occupancy
  C  C0  1  0.25000000  0.51055600  0.19885700  1
  C  C1  1  0.75000000  0.48944400  0.80114300  1
  C  C2  1  0.75000000  0.98944400  0.69885700  1
  C  C3  1  0.25000000  0.01055600  0.30114300  1
  Ni  Ni4  1  0.25000000  0.68951700  0.59169800  1
  Ni  Ni5  1  0.75000000  0.31048300  0.40830200  1
  Ni  Ni6  1  0.75000000  0.81048300  0.09169800  1
  Ni  Ni7  1  0.25000000  0.18951700  0.90830200  1
  Cu  Cu8  1  0.25000000  0.79981000  0.91905200  1
  Cu  Cu9  1  0.75000000  0.20019000  0.08094800  1
  Cu  Cu10  1  0.75000000  0.70019000  0.41905200  1
  Cu  Cu11  1  0.25000000  0.29981000  0.58094800  1
