# generated using pymatgen
data_CuNiC5
_symmetry_space_group_name_H-M   'P 1'
_cell_length_a   11.40241600
_cell_length_b   3.43379100
_cell_length_c   12.05439000
_cell_angle_alpha   90.00000000
_cell_angle_beta   90.00000000
_cell_angle_gamma   90.00000000
_symmetry_Int_Tables_number   1
_chemical_formula_structural   CuNiC5
_chemical_formula_sum   'Cu4 Ni4 C20'
_cell_volume   471.97172086
_cell_formula_units_Z   4
loop_
 _symmetry_equiv_pos_site_id
 _symmetry_equiv_pos_as_xyz
  1  'x, y, z'
loop_
 _atom_site_type_symbol
 _atom_site_label
 _atom_site_symmetry_multiplicity
 _atom_site_fract_x
 _atom_site_fract_y
 _atom_site_fract_z
 _atom_site_occupancy
  C  C0  1  0.14658200  0.25000000  0.70633200  1
  C  C1  1  0.85341800  0.75000000  0.29366800  1
  C  C2  1  0.35341800  0.75000000  0.20633200  1
  C  C3  1  0.64658200  0.25000000  0.79366800  1
  Ni  Ni4  1  0.11342400  0.25000000  0.07188600  1
  Ni  Ni5  1  0.88657600  0.75000000  0.92811400  1
  Ni  Ni6  1  0.38657600  0.75000000  0.57188600  1
  Ni  Ni7  1  0.61342400  0.25000000  0.42811400  1
  Cu  Cu8  1  0.12309500  0.75000000  0.42301500  1
  Cu  Cu9  1  0.87690500  0.25000000  0.57698500  1
  Cu  Cu10  1  0.37690500  0.25000000  0.92301500  1
  Cu  Cu11  1  0.62309500  0.75000000  0.07698500  1
  C  C12  1  0.03361000  0.75000000  0.61219700  1
  C  C13  1  0.96639000  0.25000000  0.38780300  1
  C  C14  1  0.46639000  0.25000000  0.11219700  1
  C  C15  1  0.53361000  0.75000000  0.88780300  1
  C  C16  1  0.02912400  0.25000000  0.88294300  1
  C  C17  1  0.97087600  0.75000000  0.11705700  1
  C  C18  1  0.47087600  0.75000000  0.38294300  1
  C  C19  1  0.52912400  0.25000000  0.61705700  1
  C  C20  1  0.20918700  0.25000000  0.25296700  1
  C  C21  1  0.79081300  0.75000000  0.74703300  1
  C  C22  1  0.29081300  0.75000000  0.75296700  1
  C  C23  1  0.70918700  0.25000000  0.24703300  1
  C  C24  1  0.24714900  0.75000000  0.02475600  1
  C  C25  1  0.75285100  0.25000000  0.97524400  1
  C  C26  1  0.25285100  0.25000000  0.52475600  1
  C  C27  1  0.74714900  0.75000000  0.47524400  1
