# generated using pymatgen
data_Cu2Ni3C32
_symmetry_space_group_name_H-M   'P 1'
_cell_length_a   8.36849460
_cell_length_b   8.72060898
_cell_length_c   8.80899193
_cell_angle_alpha   60.11288459
_cell_angle_beta   59.96214797
_cell_angle_gamma   59.66333301
_symmetry_Int_Tables_number   1
_chemical_formula_structural   Cu2Ni3C32
_chemical_formula_sum   'Cu2 Ni3 C32'
_cell_volume   453.66100200
_cell_formula_units_Z   1
loop_
 _symmetry_equiv_pos_site_id
 _symmetry_equiv_pos_as_xyz
  1  'x, y, z'
loop_
 _atom_site_type_symbol
 _atom_site_label
 _atom_site_symmetry_multiplicity
 _atom_site_fract_x
 _atom_site_fract_y
 _atom_site_fract_z
 _atom_site_occupancy
  C  C0  1  0.73109900  0.12212400  0.39887800  1
  Ni  Ni1  1  0.04831300  0.64210700  0.64762600  1
  Ni  Ni2  1  0.44360900  0.84847900  0.85721700  1
  Ni  Ni3  1  0.95483400  0.35907100  0.34207700  1
  C  C4  1  0.55813300  0.14669100  0.13933600  1
  Cu  Cu5  1  0.00691100  0.99712500  0.99251300  1
  Cu  Cu6  1  0.49003700  0.50885800  0.50633900  1
  C  C7  1  0.26686600  0.24233900  0.55233700  1
  C  C8  1  0.22277800  0.95172000  0.25812700  1
  C  C9  1  0.25382600  0.55547300  0.94154400  1
  C  C10  1  0.74743500  0.44798800  0.05419200  1
  C  C11  1  0.74098600  0.04322900  0.76390900  1
  C  C12  1  0.77345700  0.74498100  0.43599800  1
  C  C13  1  0.01450400  0.08444600  0.33380900  1
  C  C14  1  0.06002100  0.53504100  0.08535100  1
  C  C15  1  0.08747200  0.29128200  0.51494900  1
  C  C16  1  0.24316400  0.08337900  0.75157600  1
  C  C17  1  0.45943500  0.17803300  0.39787900  1
  C  C18  1  0.29328500  0.39652200  0.56971000  1
  C  C19  1  0.20685700  0.93056300  0.09981800  1
  C  C20  1  0.28785800  0.75315900  0.39850700  1
  C  C21  1  0.56658200  0.60168600  0.00502500  1
  C  C22  1  0.29518100  0.56517900  0.74415900  1
  C  C23  1  0.77356400  0.23606600  0.08924000  1
  C  C24  1  0.55984600  0.98268900  0.86932900  1
  C  C25  1  0.36989800  0.04413900  0.19491900  1
  C  C26  1  0.23483800  0.75862800  0.91584100  1
  C  C27  1  0.70382800  0.42425300  0.26180900  1
  C  C28  1  0.43024100  0.39829100  0.00038100  1
  C  C29  1  0.68912200  0.23206500  0.59727600  1
  C  C30  1  0.77691800  0.08487400  0.89677600  1
  C  C31  1  0.69542300  0.60649400  0.45264500  1
  C  C32  1  0.64069300  0.84857300  0.58061500  1
  C  C33  1  0.78096500  0.90899400  0.23582300  1
  C  C34  1  0.98058600  0.65633200  0.43795600  1
  C  C35  1  0.93795600  0.46995200  0.90977100  1
  C  C36  1  0.92347300  0.89774500  0.68817200  1
