# generated using pymatgen
data_CuNi5C4
_symmetry_space_group_name_H-M   'P 1'
_cell_length_a   7.14735600
_cell_length_b   6.75933600
_cell_length_c   5.18337800
_cell_angle_alpha   90.00000000
_cell_angle_beta   90.00000000
_cell_angle_gamma   90.00000000
_symmetry_Int_Tables_number   1
_chemical_formula_structural   CuNi5C4
_chemical_formula_sum   'Cu2 Ni10 C8'
_cell_volume   250.41614795
_cell_formula_units_Z   2
loop_
 _symmetry_equiv_pos_site_id
 _symmetry_equiv_pos_as_xyz
  1  'x, y, z'
loop_
 _atom_site_type_symbol
 _atom_site_label
 _atom_site_symmetry_multiplicity
 _atom_site_fract_x
 _atom_site_fract_y
 _atom_site_fract_z
 _atom_site_occupancy
  Ni  Ni0  1  0.55086400  0.50258500  0.24938300  1
  Ni  Ni1  1  0.94913600  0.50258500  0.24938300  1
  Ni  Ni2  1  0.55086400  0.99741500  0.24938300  1
  Ni  Ni3  1  0.94913600  0.99741500  0.24938300  1
  Ni  Ni4  1  0.44913600  0.49741500  0.75061700  1
  Ni  Ni5  1  0.05086400  0.49741500  0.75061700  1
  Ni  Ni6  1  0.44913600  0.00258500  0.75061700  1
  Ni  Ni7  1  0.05086400  0.00258500  0.75061700  1
  Ni  Ni8  1  0.75000000  0.75000000  0.72242900  1
  Ni  Ni9  1  0.25000000  0.25000000  0.27757100  1
  Cu  Cu10  1  0.75000000  0.25000000  0.72668600  1
  Cu  Cu11  1  0.25000000  0.75000000  0.27331400  1
  C  C12  1  0.75000000  0.99874200  0.95292600  1
  C  C13  1  0.75000000  0.50125800  0.95292600  1
  C  C14  1  0.25000000  0.00125800  0.04707400  1
  C  C15  1  0.25000000  0.49874200  0.04707400  1
  C  C16  1  0.50202100  0.75000000  0.50263900  1
  C  C17  1  0.99797900  0.75000000  0.50263900  1
  C  C18  1  0.49797900  0.25000000  0.49736100  1
  C  C19  1  0.00202100  0.25000000  0.49736100  1
