# generated using pymatgen
data_Cu3Ni2C3
_symmetry_space_group_name_H-M   'P 1'
_cell_length_a   5.64785673
_cell_length_b   5.64785673
_cell_length_c   13.69407800
_cell_angle_alpha   90.00000000
_cell_angle_beta   90.00000000
_cell_angle_gamma   137.36166805
_symmetry_Int_Tables_number   1
_chemical_formula_structural   Cu3Ni2C3
_chemical_formula_sum   'Cu6 Ni4 C6'
_cell_volume   295.88639475
_cell_formula_units_Z   2
loop_
 _symmetry_equiv_pos_site_id
 _symmetry_equiv_pos_as_xyz
  1  'x, y, z'
loop_
 _atom_site_type_symbol
 _atom_site_label
 _atom_site_symmetry_multiplicity
 _atom_site_fract_x
 _atom_site_fract_y
 _atom_site_fract_z
 _atom_site_occupancy
  C  C0  1  0.63734000  0.36266000  0.25000000  1
  C  C1  1  0.36266000  0.63734000  0.75000000  1
  C  C2  1  0.91938000  0.08062000  0.11160400  1
  C  C3  1  0.08062000  0.91938000  0.88839600  1
  C  C4  1  0.08062000  0.91938000  0.61160400  1
  C  C5  1  0.91938000  0.08062000  0.38839600  1
  Ni  Ni6  1  0.78556200  0.21443800  0.58004000  1
  Ni  Ni7  1  0.21443800  0.78556200  0.41996000  1
  Ni  Ni8  1  0.21443800  0.78556200  0.08004000  1
  Ni  Ni9  1  0.78556200  0.21443800  0.91996000  1
  Cu  Cu10  1  0.32984300  0.67015700  0.25000000  1
  Cu  Cu11  1  0.67015700  0.32984300  0.75000000  1
  Cu  Cu12  1  0.62271900  0.37728100  0.04031600  1
  Cu  Cu13  1  0.37728100  0.62271900  0.95968400  1
  Cu  Cu14  1  0.37728100  0.62271900  0.54031600  1
  Cu  Cu15  1  0.62271900  0.37728100  0.45968400  1
