# generated using pymatgen
data_Cu12(NiC3)5
_symmetry_space_group_name_H-M   'P 1'
_cell_length_a   11.91120700
_cell_length_b   11.91120700
_cell_length_c   3.99859300
_cell_angle_alpha   90.00000000
_cell_angle_beta   90.00000000
_cell_angle_gamma   90.00000000
_symmetry_Int_Tables_number   1
_chemical_formula_structural   Cu12(NiC3)5
_chemical_formula_sum   'Cu12 Ni5 C15'
_cell_volume   567.30778806
_cell_formula_units_Z   1
loop_
 _symmetry_equiv_pos_site_id
 _symmetry_equiv_pos_as_xyz
  1  'x, y, z'
loop_
 _atom_site_type_symbol
 _atom_site_label
 _atom_site_symmetry_multiplicity
 _atom_site_fract_x
 _atom_site_fract_y
 _atom_site_fract_z
 _atom_site_occupancy
  C  C0  1  0.25170600  0.50000000  0.00000000  1
  C  C1  1  0.74829400  0.50000000  0.00000000  1
  C  C2  1  0.50000000  0.74829400  0.00000000  1
  C  C3  1  0.50000000  0.25170600  0.00000000  1
  C  C4  1  0.00000000  0.00000000  0.00000000  1
  Ni  Ni5  1  0.20210300  0.20210300  0.00000000  1
  Ni  Ni6  1  0.79789700  0.79789700  0.00000000  1
  Ni  Ni7  1  0.20210300  0.79789700  0.00000000  1
  Ni  Ni8  1  0.79789700  0.20210300  0.00000000  1
  Ni  Ni9  1  0.50000000  0.50000000  0.50000000  1
  Cu  Cu10  1  0.11222400  0.37280100  0.50000000  1
  Cu  Cu11  1  0.88777600  0.62719900  0.50000000  1
  Cu  Cu12  1  0.11222400  0.62719900  0.50000000  1
  Cu  Cu13  1  0.88777600  0.37280100  0.50000000  1
  Cu  Cu14  1  0.37280100  0.88777600  0.50000000  1
  Cu  Cu15  1  0.62719900  0.11222400  0.50000000  1
  Cu  Cu16  1  0.37280100  0.11222400  0.50000000  1
  Cu  Cu17  1  0.62719900  0.88777600  0.50000000  1
  Cu  Cu18  1  0.33152900  0.33152900  0.50000000  1
  Cu  Cu19  1  0.66847100  0.66847100  0.50000000  1
  Cu  Cu20  1  0.33152900  0.66847100  0.50000000  1
  Cu  Cu21  1  0.66847100  0.33152900  0.50000000  1
  C  C22  1  0.30598300  0.00000000  0.00000000  1
  C  C23  1  0.69401700  0.00000000  0.00000000  1
  C  C24  1  0.00000000  0.69401700  0.00000000  1
  C  C25  1  0.00000000  0.30598300  0.00000000  1
  C  C26  1  0.18921400  0.00000000  0.50000000  1
  C  C27  1  0.81078600  0.00000000  0.50000000  1
  C  C28  1  0.00000000  0.81078600  0.50000000  1
  C  C29  1  0.00000000  0.18921400  0.50000000  1
  C  C30  1  0.00000000  0.50000000  0.00000000  1
  C  C31  1  0.50000000  0.00000000  0.00000000  1
