# generated using pymatgen
data_Cu20NiC10
_symmetry_space_group_name_H-M   'P 1'
_cell_length_a   11.95544800
_cell_length_b   11.95544800
_cell_length_c   8.01111900
_cell_angle_alpha   90.00000000
_cell_angle_beta   90.00000000
_cell_angle_gamma   90.00000000
_symmetry_Int_Tables_number   1
_chemical_formula_structural   Cu20NiC10
_chemical_formula_sum   'Cu40 Ni2 C20'
_cell_volume   1145.05116415
_cell_formula_units_Z   2
loop_
 _symmetry_equiv_pos_site_id
 _symmetry_equiv_pos_as_xyz
  1  'x, y, z'
loop_
 _atom_site_type_symbol
 _atom_site_label
 _atom_site_symmetry_multiplicity
 _atom_site_fract_x
 _atom_site_fract_y
 _atom_site_fract_z
 _atom_site_occupancy
  C  C0  1  0.83339800  0.66660200  0.75000000  1
  C  C1  1  0.16660200  0.33339800  0.75000000  1
  C  C2  1  0.33339800  0.83339800  0.25000000  1
  C  C3  1  0.66660200  0.16660200  0.25000000  1
  C  C4  1  0.33339800  0.83339800  0.75000000  1
  C  C5  1  0.66660200  0.16660200  0.75000000  1
  C  C6  1  0.16660200  0.33339800  0.25000000  1
  C  C7  1  0.83339800  0.66660200  0.25000000  1
  C  C8  1  0.50000000  0.50000000  0.14170200  1
  C  C9  1  0.00000000  0.00000000  0.64170200  1
  C  C10  1  0.50000000  0.50000000  0.85829800  1
  C  C11  1  0.00000000  0.00000000  0.35829800  1
  C  C12  1  0.76979000  0.90795700  0.50000000  1
  C  C13  1  0.23021000  0.09204300  0.50000000  1
  C  C14  1  0.26979000  0.59204300  0.00000000  1
  C  C15  1  0.73021000  0.40795700  0.00000000  1
  C  C16  1  0.09204300  0.76979000  0.50000000  1
  C  C17  1  0.90795700  0.23021000  0.50000000  1
  C  C18  1  0.40795700  0.26979000  0.00000000  1
  C  C19  1  0.59204300  0.73021000  0.00000000  1
  Ni  Ni20  1  0.50000000  0.50000000  0.50000000  1
  Ni  Ni21  1  0.00000000  0.00000000  0.00000000  1
  Cu  Cu22  1  0.84910200  0.91985800  0.34665300  1
  Cu  Cu23  1  0.15089800  0.08014200  0.34665300  1
  Cu  Cu24  1  0.34910200  0.58014200  0.84665300  1
  Cu  Cu25  1  0.65089800  0.41985800  0.84665300  1
  Cu  Cu26  1  0.08014200  0.84910200  0.34665300  1
  Cu  Cu27  1  0.91985800  0.15089800  0.34665300  1
  Cu  Cu28  1  0.41985800  0.34910200  0.84665300  1
  Cu  Cu29  1  0.58014200  0.65089800  0.84665300  1
  Cu  Cu30  1  0.15089800  0.08014200  0.65334700  1
  Cu  Cu31  1  0.84910200  0.91985800  0.65334700  1
  Cu  Cu32  1  0.65089800  0.41985800  0.15334700  1
  Cu  Cu33  1  0.34910200  0.58014200  0.15334700  1
  Cu  Cu34  1  0.91985800  0.15089800  0.65334700  1
  Cu  Cu35  1  0.08014200  0.84910200  0.65334700  1
  Cu  Cu36  1  0.58014200  0.65089800  0.15334700  1
  Cu  Cu37  1  0.41985800  0.34910200  0.15334700  1
  Cu  Cu38  1  0.97898300  0.72612700  0.00000000  1
  Cu  Cu39  1  0.02101700  0.27387300  0.00000000  1
  Cu  Cu40  1  0.47898300  0.77387300  0.50000000  1
  Cu  Cu41  1  0.52101700  0.22612700  0.50000000  1
  Cu  Cu42  1  0.27387300  0.97898300  0.00000000  1
  Cu  Cu43  1  0.72612700  0.02101700  0.00000000  1
  Cu  Cu44  1  0.22612700  0.47898300  0.50000000  1
  Cu  Cu45  1  0.77387300  0.52101700  0.50000000  1
  Cu  Cu46  1  0.72314400  0.79612200  0.50000000  1
  Cu  Cu47  1  0.27685600  0.20387800  0.50000000  1
  Cu  Cu48  1  0.22314400  0.70387800  0.00000000  1
  Cu  Cu49  1  0.77685600  0.29612200  0.00000000  1
  Cu  Cu50  1  0.20387800  0.72314400  0.50000000  1
  Cu  Cu51  1  0.79612200  0.27685600  0.50000000  1
  Cu  Cu52  1  0.29612200  0.22314400  0.00000000  1
  Cu  Cu53  1  0.70387800  0.77685600  0.00000000  1
  Cu  Cu54  1  0.69025600  0.99940500  0.50000000  1
  Cu  Cu55  1  0.30974400  0.00059500  0.50000000  1
  Cu  Cu56  1  0.19025600  0.50059500  0.00000000  1
  Cu  Cu57  1  0.80974400  0.49940500  0.00000000  1
  Cu  Cu58  1  0.00059500  0.69025600  0.50000000  1
  Cu  Cu59  1  0.99940500  0.30974400  0.50000000  1
  Cu  Cu60  1  0.49940500  0.19025600  0.00000000  1
  Cu  Cu61  1  0.50059500  0.80974400  0.00000000  1
