# generated using pymatgen
data_Cu5(NiC7)2
_symmetry_space_group_name_H-M   'P 1'
_cell_length_a   9.75868600
_cell_length_b   9.77374300
_cell_length_c   12.27782455
_cell_angle_alpha   51.22979355
_cell_angle_beta   90.00000000
_cell_angle_gamma   90.00000000
_symmetry_Int_Tables_number   1
_chemical_formula_structural   Cu5(NiC7)2
_chemical_formula_sum   'Cu20 Ni8 C56'
_cell_volume   913.02147282
_cell_formula_units_Z   4
loop_
 _symmetry_equiv_pos_site_id
 _symmetry_equiv_pos_as_xyz
  1  'x, y, z'
loop_
 _atom_site_type_symbol
 _atom_site_label
 _atom_site_symmetry_multiplicity
 _atom_site_fract_x
 _atom_site_fract_y
 _atom_site_fract_z
 _atom_site_occupancy
  C  C0  1  0.29535900  0.39176700  0.51818200  1
  C  C1  1  0.20464100  0.39176700  0.01818200  1
  C  C2  1  0.70464100  0.60823300  0.48181800  1
  C  C3  1  0.79535900  0.60823300  0.98181800  1
  C  C4  1  0.45103300  0.02225900  0.10953300  1
  C  C5  1  0.04896700  0.02225900  0.60953300  1
  C  C6  1  0.54896700  0.97774100  0.89046700  1
  C  C7  1  0.95103300  0.97774100  0.39046700  1
  C  C8  1  0.23153400  0.71207600  0.09734200  1
  C  C9  1  0.26846600  0.71207600  0.59734200  1
  C  C10  1  0.76846600  0.28792400  0.90265800  1
  C  C11  1  0.73153400  0.28792400  0.40265800  1
  Ni  Ni12  1  0.17930600  0.83704700  0.29006100  1
  Ni  Ni13  1  0.32069400  0.83704700  0.79006100  1
  Ni  Ni14  1  0.82069400  0.16295300  0.70993900  1
  Ni  Ni15  1  0.67930600  0.16295300  0.20993900  1
  Ni  Ni16  1  0.03402000  0.35586700  0.29015200  1
  Ni  Ni17  1  0.46598000  0.35586700  0.79015200  1
  Ni  Ni18  1  0.96598000  0.64413300  0.70984800  1
  Ni  Ni19  1  0.53402000  0.64413300  0.20984800  1
  Cu  Cu20  1  0.29703300  0.04555800  0.92881100  1
  Cu  Cu21  1  0.20296700  0.04555800  0.42881100  1
  Cu  Cu22  1  0.70296700  0.95444200  0.07118900  1
  Cu  Cu23  1  0.79703300  0.95444200  0.57118900  1
  Cu  Cu24  1  0.02254200  0.92798100  0.89187100  1
  Cu  Cu25  1  0.47745800  0.92798100  0.39187100  1
  Cu  Cu26  1  0.97745800  0.07201900  0.10812900  1
  Cu  Cu27  1  0.52254200  0.07201900  0.60812900  1
  Cu  Cu28  1  0.97421400  0.84675500  0.04910000  1
  Cu  Cu29  1  0.52578600  0.84675500  0.54910000  1
  Cu  Cu30  1  0.02578600  0.15324500  0.95090000  1
  Cu  Cu31  1  0.47421400  0.15324500  0.45090000  1
  Cu  Cu32  1  0.08598300  0.19424400  0.76844300  1
  Cu  Cu33  1  0.41401700  0.19424400  0.26844300  1
  Cu  Cu34  1  0.91401700  0.80575600  0.23155700  1
  Cu  Cu35  1  0.58598300  0.80575600  0.73155700  1
  Cu  Cu36  1  0.14181100  0.34287900  0.77297100  1
  Cu  Cu37  1  0.35818900  0.34287900  0.27297100  1
  Cu  Cu38  1  0.85818900  0.65712100  0.22702900  1
  Cu  Cu39  1  0.64181100  0.65712100  0.72702900  1
  C  C40  1  0.27556900  0.99770500  0.19982000  1
  C  C41  1  0.22443100  0.99770500  0.69982000  1
  C  C42  1  0.72443100  0.00229500  0.80018000  1
  C  C43  1  0.77556900  0.00229500  0.30018000  1
  C  C44  1  0.16570700  0.73196400  0.23639100  1
  C  C45  1  0.33429300  0.73196400  0.73639100  1
  C  C46  1  0.83429300  0.26803600  0.76360900  1
  C  C47  1  0.66570700  0.26803600  0.26360900  1
  C  C48  1  0.22691800  0.70657100  0.44319500  1
  C  C49  1  0.27308200  0.70657100  0.94319500  1
  C  C50  1  0.77308200  0.29342900  0.55680500  1
  C  C51  1  0.72691800  0.29342900  0.05680500  1
  C  C52  1  0.03294800  0.91071500  0.28062300  1
  C  C53  1  0.46705200  0.91071500  0.78062300  1
  C  C54  1  0.96705200  0.08928500  0.71937700  1
  C  C55  1  0.53294800  0.08928500  0.21937700  1
  C  C56  1  0.13226500  0.49331000  0.17479500  1
  C  C57  1  0.36773500  0.49331000  0.67479500  1
  C  C58  1  0.86773500  0.50669000  0.82520500  1
  C  C59  1  0.63226500  0.50669000  0.32520500  1
  C  C60  1  0.09388400  0.26689800  0.43853300  1
  C  C61  1  0.40611600  0.26689800  0.93853300  1
  C  C62  1  0.90611600  0.73310200  0.56146700  1
  C  C63  1  0.59388400  0.73310200  0.06146700  1
  C  C64  1  0.01436900  0.22246800  0.26110700  1
  C  C65  1  0.48563100  0.22246800  0.76110700  1
  C  C66  1  0.98563100  0.77753200  0.73889300  1
  C  C67  1  0.51436900  0.77753200  0.23889300  1
  C  C68  1  0.89247600  0.43876300  0.27739800  1
  C  C69  1  0.60752400  0.43876300  0.77739800  1
  C  C70  1  0.10752400  0.56123700  0.72260200  1
  C  C71  1  0.39247600  0.56123700  0.22260200  1
  C  C72  1  0.35705300  0.94381900  0.99691100  1
  C  C73  1  0.14294700  0.94381900  0.49691100  1
  C  C74  1  0.64294700  0.05618100  0.00308900  1
  C  C75  1  0.85705300  0.05618100  0.50308900  1
  C  C76  1  0.04833100  0.84904800  0.99194400  1
  C  C77  1  0.45166900  0.84904800  0.49194400  1
  C  C78  1  0.95166900  0.15095200  0.00805600  1
  C  C79  1  0.54833100  0.15095200  0.50805600  1
  C  C80  1  0.14462000  0.21515800  0.82190000  1
  C  C81  1  0.35538000  0.21515800  0.32190000  1
  C  C82  1  0.85538000  0.78484200  0.17810000  1
  C  C83  1  0.64462000  0.78484200  0.67810000  1
