# generated using pymatgen
data_CuNiC8
_symmetry_space_group_name_H-M   'P 1'
_cell_length_a   5.75981800
_cell_length_b   5.29566900
_cell_length_c   9.24175941
_cell_angle_alpha   55.02535340
_cell_angle_beta   90.00000000
_cell_angle_gamma   90.00000000
_symmetry_Int_Tables_number   1
_chemical_formula_structural   CuNiC8
_chemical_formula_sum   'Cu2 Ni2 C16'
_cell_volume   230.98472973
_cell_formula_units_Z   2
loop_
 _symmetry_equiv_pos_site_id
 _symmetry_equiv_pos_as_xyz
  1  'x, y, z'
loop_
 _atom_site_type_symbol
 _atom_site_label
 _atom_site_symmetry_multiplicity
 _atom_site_fract_x
 _atom_site_fract_y
 _atom_site_fract_z
 _atom_site_occupancy
  C  C0  1  0.42185600  0.22501500  0.74774000  1
  C  C1  1  0.57814400  0.77498500  0.25226000  1
  C  C2  1  0.92185600  0.77498500  0.75226000  1
  C  C3  1  0.07814400  0.22501500  0.24774000  1
  Ni  Ni4  1  0.00000000  0.50000000  0.50000000  1
  Ni  Ni5  1  0.50000000  0.50000000  0.00000000  1
  Cu  Cu6  1  0.00000000  0.00000000  0.00000000  1
  Cu  Cu7  1  0.50000000  0.00000000  0.50000000  1
  C  C8  1  0.04483400  0.37005000  0.75419900  1
  C  C9  1  0.95516600  0.62995000  0.24580100  1
  C  C10  1  0.54483400  0.62995000  0.74580100  1
  C  C11  1  0.45516600  0.37005000  0.25419900  1
  C  C12  1  0.69674900  0.88206200  0.93546700  1
  C  C13  1  0.30325100  0.11793800  0.06453300  1
  C  C14  1  0.19674900  0.11793800  0.56453300  1
  C  C15  1  0.80325100  0.88206200  0.43546700  1
  C  C16  1  0.18965700  0.74308100  0.94359900  1
  C  C17  1  0.81034300  0.25691900  0.05640100  1
  C  C18  1  0.68965700  0.25691900  0.55640100  1
  C  C19  1  0.31034300  0.74308100  0.44359900  1
