# generated using pymatgen
data_Cu9NiC12
_symmetry_space_group_name_H-M   'P 1'
_cell_length_a   5.73561900
_cell_length_b   5.75309700
_cell_length_c   17.15928800
_cell_angle_alpha   90.00000000
_cell_angle_beta   90.00000000
_cell_angle_gamma   90.00000000
_symmetry_Int_Tables_number   1
_chemical_formula_structural   Cu9NiC12
_chemical_formula_sum   'Cu18 Ni2 C24'
_cell_volume   566.21484918
_cell_formula_units_Z   2
loop_
 _symmetry_equiv_pos_site_id
 _symmetry_equiv_pos_as_xyz
  1  'x, y, z'
loop_
 _atom_site_type_symbol
 _atom_site_label
 _atom_site_symmetry_multiplicity
 _atom_site_fract_x
 _atom_site_fract_y
 _atom_site_fract_z
 _atom_site_occupancy
  Ni  Ni0  1  0.50000000  0.50000000  0.33230600  1
  Ni  Ni1  1  0.50000000  0.50000000  0.66769400  1
  Cu  Cu2  1  0.50000000  0.00000000  0.41857600  1
  Cu  Cu3  1  0.50000000  0.00000000  0.75408300  1
  Cu  Cu4  1  0.50000000  0.00000000  0.08273900  1
  Cu  Cu5  1  0.75236600  0.50000000  0.16226000  1
  Cu  Cu6  1  0.75756400  0.50000000  0.50000000  1
  Cu  Cu7  1  0.75236600  0.50000000  0.83774000  1
  Cu  Cu8  1  0.00000000  0.75697500  0.33147400  1
  Cu  Cu9  1  0.00000000  0.75697500  0.66852600  1
  Cu  Cu10  1  0.00000000  0.75356500  0.00000000  1
  Cu  Cu11  1  0.50000000  0.00000000  0.24591700  1
  Cu  Cu12  1  0.50000000  0.00000000  0.58142400  1
  Cu  Cu13  1  0.50000000  0.00000000  0.91726100  1
  Cu  Cu14  1  0.24763400  0.50000000  0.16226000  1
  Cu  Cu15  1  0.24243600  0.50000000  0.50000000  1
  Cu  Cu16  1  0.24763400  0.50000000  0.83774000  1
  Cu  Cu17  1  0.00000000  0.24302500  0.33147400  1
  Cu  Cu18  1  0.00000000  0.24302500  0.66852600  1
  Cu  Cu19  1  0.00000000  0.24643500  0.00000000  1
  C  C20  1  0.74189400  0.74148500  0.41320100  1
  C  C21  1  0.73996000  0.73963200  0.74941600  1
  C  C22  1  0.75024800  0.75265500  0.08175500  1
  C  C23  1  0.26004000  0.26036800  0.25058400  1
  C  C24  1  0.25810600  0.25851500  0.58679900  1
  C  C25  1  0.24975200  0.24734500  0.91824500  1
  C  C26  1  0.26004000  0.73963200  0.25058400  1
  C  C27  1  0.25810600  0.74148500  0.58679900  1
  C  C28  1  0.24975200  0.75265500  0.91824500  1
  C  C29  1  0.74189400  0.25851500  0.41320100  1
  C  C30  1  0.73996000  0.26036800  0.74941600  1
  C  C31  1  0.75024800  0.24734500  0.08175500  1
  C  C32  1  0.25810600  0.25851500  0.41320100  1
  C  C33  1  0.26004000  0.26036800  0.74941600  1
  C  C34  1  0.24975200  0.24734500  0.08175500  1
  C  C35  1  0.73996000  0.73963200  0.25058400  1
  C  C36  1  0.74189400  0.74148500  0.58679900  1
  C  C37  1  0.75024800  0.75265500  0.91824500  1
  C  C38  1  0.73996000  0.26036800  0.25058400  1
  C  C39  1  0.74189400  0.25851500  0.58679900  1
  C  C40  1  0.75024800  0.24734500  0.91824500  1
  C  C41  1  0.25810600  0.74148500  0.41320100  1
  C  C42  1  0.26004000  0.73963200  0.74941600  1
  C  C43  1  0.24975200  0.75265500  0.08175500  1
