# generated using pymatgen
data_Cu2Ni2C7
_symmetry_space_group_name_H-M   'P 1'
_cell_length_a   3.99187900
_cell_length_b   7.05619300
_cell_length_c   14.97774500
_cell_angle_alpha   90.00000000
_cell_angle_beta   90.00000000
_cell_angle_gamma   90.00000000
_symmetry_Int_Tables_number   1
_chemical_formula_structural   Cu2Ni2C7
_chemical_formula_sum   'Cu4 Ni4 C14'
_cell_volume   421.88516283
_cell_formula_units_Z   2
loop_
 _symmetry_equiv_pos_site_id
 _symmetry_equiv_pos_as_xyz
  1  'x, y, z'
loop_
 _atom_site_type_symbol
 _atom_site_label
 _atom_site_symmetry_multiplicity
 _atom_site_fract_x
 _atom_site_fract_y
 _atom_site_fract_z
 _atom_site_occupancy
  Ni  Ni0  1  0.00000000  0.70952700  0.15188500  1
  Ni  Ni1  1  0.00000000  0.29047300  0.84811500  1
  Ni  Ni2  1  0.00000000  0.20952700  0.34811500  1
  Ni  Ni3  1  0.00000000  0.79047300  0.65188500  1
  Cu  Cu4  1  0.50000000  0.79587300  0.42321200  1
  Cu  Cu5  1  0.50000000  0.20412700  0.57678800  1
  Cu  Cu6  1  0.50000000  0.29587300  0.07678800  1
  Cu  Cu7  1  0.50000000  0.70412700  0.92321200  1
  C  C8  1  0.50000000  0.50232900  0.27681200  1
  C  C9  1  0.50000000  0.49767100  0.72318800  1
  C  C10  1  0.50000000  0.00232900  0.22318800  1
  C  C11  1  0.50000000  0.99767100  0.77681200  1
  C  C12  1  0.00000000  0.50000000  0.50000000  1
  C  C13  1  0.00000000  0.00000000  0.00000000  1
  C  C14  1  0.00000000  0.88877200  0.38971500  1
  C  C15  1  0.00000000  0.11122800  0.61028500  1
  C  C16  1  0.00000000  0.38877200  0.11028500  1
  C  C17  1  0.00000000  0.61122800  0.88971500  1
  C  C18  1  0.50000000  0.63887800  0.06661500  1
  C  C19  1  0.50000000  0.36112200  0.93338500  1
  C  C20  1  0.50000000  0.13887800  0.43338500  1
  C  C21  1  0.50000000  0.86112200  0.56661500  1
