# generated using pymatgen
data_Cu2NiC22
_symmetry_space_group_name_H-M   'P 1'
_cell_length_a   6.99233800
_cell_length_b   6.99233800
_cell_length_c   9.08189300
_cell_angle_alpha   90.00000000
_cell_angle_beta   90.00000000
_cell_angle_gamma   90.00000000
_symmetry_Int_Tables_number   1
_chemical_formula_structural   Cu2NiC22
_chemical_formula_sum   'Cu2 Ni1 C22'
_cell_volume   444.03909367
_cell_formula_units_Z   1
loop_
 _symmetry_equiv_pos_site_id
 _symmetry_equiv_pos_as_xyz
  1  'x, y, z'
loop_
 _atom_site_type_symbol
 _atom_site_label
 _atom_site_symmetry_multiplicity
 _atom_site_fract_x
 _atom_site_fract_y
 _atom_site_fract_z
 _atom_site_occupancy
  C  C0  1  0.50000000  0.50000000  0.89042000  1
  C  C1  1  0.00000000  0.00000000  0.11030700  1
  Ni  Ni2  1  0.50000000  0.50000000  0.39440300  1
  Cu  Cu3  1  0.00000000  0.50000000  0.99949700  1
  Cu  Cu4  1  0.50000000  0.00000000  0.99949700  1
  C  C5  1  0.50000000  0.75305200  0.40110300  1
  C  C6  1  0.50000000  0.24694800  0.40110300  1
  C  C7  1  0.75305200  0.50000000  0.40110300  1
  C  C8  1  0.24694800  0.50000000  0.40110300  1
  C  C9  1  0.00000000  0.85375200  0.59997000  1
  C  C10  1  0.00000000  0.14624800  0.59997000  1
  C  C11  1  0.85375200  0.00000000  0.59997000  1
  C  C12  1  0.14624800  0.00000000  0.59997000  1
  C  C13  1  0.50000000  0.50000000  0.09069700  1
  C  C14  1  0.00000000  0.00000000  0.91061700  1
  C  C15  1  0.17840200  0.50000000  0.89862000  1
  C  C16  1  0.82159800  0.50000000  0.89862000  1
  C  C17  1  0.50000000  0.17840200  0.89862000  1
  C  C18  1  0.50000000  0.82159800  0.89862000  1
  C  C19  1  0.32127000  0.00000000  0.09922400  1
  C  C20  1  0.67873000  0.00000000  0.09922400  1
  C  C21  1  0.00000000  0.32127000  0.09922400  1
  C  C22  1  0.00000000  0.67873000  0.09922400  1
  C  C23  1  0.50000000  0.50000000  0.68879400  1
  C  C24  1  0.00000000  0.00000000  0.31010200  1
