# generated using pymatgen
data_Cu(NiC4)2
_symmetry_space_group_name_H-M   'P 1'
_cell_length_a   5.68364800
_cell_length_b   5.68364752
_cell_length_c   5.20671900
_cell_angle_alpha   90.00000000
_cell_angle_beta   90.00000000
_cell_angle_gamma   120.00000279
_symmetry_Int_Tables_number   1
_chemical_formula_structural   Cu(NiC4)2
_chemical_formula_sum   'Cu1 Ni2 C8'
_cell_volume   145.66293938
_cell_formula_units_Z   1
loop_
 _symmetry_equiv_pos_site_id
 _symmetry_equiv_pos_as_xyz
  1  'x, y, z'
loop_
 _atom_site_type_symbol
 _atom_site_label
 _atom_site_symmetry_multiplicity
 _atom_site_fract_x
 _atom_site_fract_y
 _atom_site_fract_z
 _atom_site_occupancy
  Ni  Ni0  1  0.66666700  0.33333400  0.76679500  1
  Ni  Ni1  1  0.33333300  0.66666600  0.26030800  1
  Cu  Cu2  1  0.66666700  0.33333300  0.26575200  1
  C  C3  1  0.00000000  0.00000000  0.48776500  1
  C  C4  1  0.00000000  0.00000000  0.98516900  1
  C  C5  1  0.84689500  0.15310500  0.23543800  1
  C  C6  1  0.70039100  0.85019600  0.73689200  1
  C  C7  1  0.14980500  0.29960900  0.73689200  1
  C  C8  1  0.84689400  0.69379000  0.23543800  1
  C  C9  1  0.14980500  0.85019600  0.73689200  1
  C  C10  1  0.30620800  0.15310500  0.23543800  1
