# generated using pymatgen
data_Cu6Ni8C9
_symmetry_space_group_name_H-M   'P 1'
_cell_length_a   13.06526600
_cell_length_b   9.34625300
_cell_length_c   11.25433383
_cell_angle_alpha   72.96772957
_cell_angle_beta   90.00000000
_cell_angle_gamma   90.00000000
_symmetry_Int_Tables_number   1
_chemical_formula_structural   Cu6Ni8C9
_chemical_formula_sum   'Cu12 Ni16 C18'
_cell_volume   1314.00506536
_cell_formula_units_Z   2
loop_
 _symmetry_equiv_pos_site_id
 _symmetry_equiv_pos_as_xyz
  1  'x, y, z'
loop_
 _atom_site_type_symbol
 _atom_site_label
 _atom_site_symmetry_multiplicity
 _atom_site_fract_x
 _atom_site_fract_y
 _atom_site_fract_z
 _atom_site_occupancy
  C  C0  1  0.25918600  0.47661700  0.63545300  1
  C  C1  1  0.74081400  0.52338300  0.36454700  1
  C  C2  1  0.75918600  0.52338300  0.86454700  1
  C  C3  1  0.24081400  0.47661700  0.13545300  1
  C  C4  1  0.50000000  0.00000000  0.50000000  1
  C  C5  1  0.00000000  0.00000000  0.00000000  1
  C  C6  1  0.45620800  0.88336900  0.90031000  1
  C  C7  1  0.54379200  0.11663100  0.09969000  1
  C  C8  1  0.95620800  0.11663100  0.59969000  1
  C  C9  1  0.04379200  0.88336900  0.40031000  1
  C  C10  1  0.05303400  0.86268700  0.63663800  1
  C  C11  1  0.94696600  0.13731300  0.36336200  1
  C  C12  1  0.55303400  0.13731300  0.86336200  1
  C  C13  1  0.44696600  0.86268700  0.13663800  1
  C  C14  1  0.87469300  0.89660600  0.52609800  1
  C  C15  1  0.12530700  0.10339400  0.47390200  1
  C  C16  1  0.37469300  0.10339400  0.97390200  1
  C  C17  1  0.62530700  0.89660600  0.02609800  1
  Ni  Ni18  1  0.89208600  0.88684200  0.74146900  1
  Ni  Ni19  1  0.10791400  0.11315800  0.25853100  1
  Ni  Ni20  1  0.39208600  0.11315800  0.75853100  1
  Ni  Ni21  1  0.60791400  0.88684200  0.24146900  1
  Ni  Ni22  1  0.20585000  0.86256400  0.50960700  1
  Ni  Ni23  1  0.79415000  0.13743600  0.49039300  1
  Ni  Ni24  1  0.70585000  0.13743600  0.99039300  1
  Ni  Ni25  1  0.29415000  0.86256400  0.00960700  1
  Ni  Ni26  1  0.62535500  0.92620300  0.80596200  1
  Ni  Ni27  1  0.37464500  0.07379700  0.19403800  1
  Ni  Ni28  1  0.12535500  0.07379700  0.69403800  1
  Ni  Ni29  1  0.87464500  0.92620300  0.30596200  1
  Ni  Ni30  1  0.97396300  0.67073000  0.55706400  1
  Ni  Ni31  1  0.02603700  0.32927000  0.44293600  1
  Ni  Ni32  1  0.47396300  0.32927000  0.94293600  1
  Ni  Ni33  1  0.52603700  0.67073000  0.05706400  1
  Cu  Cu34  1  0.40483000  0.72927000  0.76895600  1
  Cu  Cu35  1  0.59517000  0.27073000  0.23104400  1
  Cu  Cu36  1  0.90483000  0.27073000  0.73104400  1
  Cu  Cu37  1  0.09517000  0.72927000  0.26895600  1
  Cu  Cu38  1  0.11442300  0.67436500  0.82306400  1
  Cu  Cu39  1  0.88557700  0.32563500  0.17693600  1
  Cu  Cu40  1  0.61442300  0.32563500  0.67693600  1
  Cu  Cu41  1  0.38557700  0.67436500  0.32306400  1
  Cu  Cu42  1  0.71287300  0.75499100  0.56200000  1
  Cu  Cu43  1  0.28712700  0.24500900  0.43800000  1
  Cu  Cu44  1  0.21287300  0.24500900  0.93800000  1
  Cu  Cu45  1  0.78712700  0.75499100  0.06200000  1
