# generated using pymatgen
data_CuNiC4
_symmetry_space_group_name_H-M   'P 1'
_cell_length_a   8.93986600
_cell_length_b   6.60250600
_cell_length_c   12.35077940
_cell_angle_alpha   88.02129669
_cell_angle_beta   90.00000000
_cell_angle_gamma   90.00000000
_symmetry_Int_Tables_number   1
_chemical_formula_structural   CuNiC4
_chemical_formula_sum   'Cu8 Ni8 C32'
_cell_volume   728.57647542
_cell_formula_units_Z   8
loop_
 _symmetry_equiv_pos_site_id
 _symmetry_equiv_pos_as_xyz
  1  'x, y, z'
loop_
 _atom_site_type_symbol
 _atom_site_label
 _atom_site_symmetry_multiplicity
 _atom_site_fract_x
 _atom_site_fract_y
 _atom_site_fract_z
 _atom_site_occupancy
  Ni  Ni0  1  0.85666800  0.20574800  0.88396500  1
  Ni  Ni1  1  0.95458300  0.61977800  0.62258800  1
  Ni  Ni2  1  0.04541700  0.38022200  0.37741200  1
  Ni  Ni3  1  0.14333200  0.79425200  0.11603500  1
  Ni  Ni4  1  0.64333200  0.20574800  0.38396500  1
  Ni  Ni5  1  0.54541700  0.61977800  0.12258800  1
  Ni  Ni6  1  0.35666800  0.79425200  0.61603500  1
  Ni  Ni7  1  0.45458300  0.38022200  0.87741200  1
  Cu  Cu8  1  0.55781600  0.90185500  0.85488800  1
  Cu  Cu9  1  0.94218400  0.90185500  0.35488800  1
  Cu  Cu10  1  0.89498100  0.40231500  0.13257500  1
  Cu  Cu11  1  0.05781600  0.09814500  0.64511200  1
  Cu  Cu12  1  0.10501900  0.59768500  0.86742500  1
  Cu  Cu13  1  0.39498100  0.59768500  0.36742500  1
  Cu  Cu14  1  0.60501900  0.40231500  0.63257500  1
  Cu  Cu15  1  0.44218400  0.09814500  0.14511200  1
  C  C16  1  0.73835400  0.94594400  0.37707600  1
  C  C17  1  0.99851600  0.34713300  0.58111800  1
  C  C18  1  0.37240000  0.81358200  0.45869200  1
  C  C19  1  0.87240000  0.18641800  0.04130800  1
  C  C20  1  0.76164600  0.94594400  0.87707600  1
  C  C21  1  0.26164600  0.05405600  0.62292400  1
  C  C22  1  0.92485900  0.90685200  0.59091800  1
  C  C23  1  0.08873500  0.51039200  0.12270900  1
  C  C24  1  0.41126500  0.51039200  0.62270900  1
  C  C25  1  0.12535500  0.68723100  0.71998500  1
  C  C26  1  0.62535500  0.31276900  0.78001500  1
  C  C27  1  0.91126500  0.48960800  0.87729100  1
  C  C28  1  0.07514100  0.09314800  0.40908200  1
  C  C29  1  0.47845900  0.12641100  0.29110400  1
  C  C30  1  0.74085200  0.60584800  0.60192100  1
  C  C31  1  0.75914800  0.60584800  0.10192100  1
  C  C32  1  0.97845900  0.87358900  0.20889600  1
  C  C33  1  0.58873500  0.48960800  0.37729100  1
  C  C34  1  0.52154100  0.87358900  0.70889600  1
  C  C35  1  0.62760000  0.18641800  0.54130800  1
  C  C36  1  0.50148400  0.34713300  0.08111800  1
  C  C37  1  0.87464500  0.31276900  0.28001500  1
  C  C38  1  0.23835400  0.05405600  0.12292400  1
  C  C39  1  0.57514100  0.90685200  0.09091800  1
  C  C40  1  0.12760000  0.81358200  0.95869200  1
  C  C41  1  0.24085200  0.39415200  0.89807900  1
  C  C42  1  0.00148400  0.65286700  0.41888200  1
  C  C43  1  0.49851600  0.65286700  0.91888200  1
  C  C44  1  0.42485900  0.09314800  0.90908200  1
  C  C45  1  0.25914800  0.39415200  0.39807900  1
  C  C46  1  0.37464500  0.68723100  0.21998500  1
  C  C47  1  0.02154100  0.12641100  0.79110400  1
