# generated using pymatgen
data_Cu8Ni6C5
_symmetry_space_group_name_H-M   'P 1'
_cell_length_a   5.99075163
_cell_length_b   8.44004706
_cell_length_c   11.66376500
_cell_angle_alpha   90.00000000
_cell_angle_beta   90.00000000
_cell_angle_gamma   102.80661849
_symmetry_Int_Tables_number   1
_chemical_formula_structural   Cu8Ni6C5
_chemical_formula_sum   'Cu16 Ni12 C10'
_cell_volume   575.07525529
_cell_formula_units_Z   2
loop_
 _symmetry_equiv_pos_site_id
 _symmetry_equiv_pos_as_xyz
  1  'x, y, z'
loop_
 _atom_site_type_symbol
 _atom_site_label
 _atom_site_symmetry_multiplicity
 _atom_site_fract_x
 _atom_site_fract_y
 _atom_site_fract_z
 _atom_site_occupancy
  C  C0  1  0.84682100  0.61192800  0.14480400  1
  C  C1  1  0.15317900  0.38807200  0.85519600  1
  C  C2  1  0.15317900  0.88807200  0.64480400  1
  C  C3  1  0.84682100  0.11192800  0.35519600  1
  C  C4  1  0.74167400  0.61221100  0.84532500  1
  C  C5  1  0.25832600  0.38778900  0.15467500  1
  C  C6  1  0.25832600  0.88778900  0.34532500  1
  C  C7  1  0.74167400  0.11221100  0.65467500  1
  C  C8  1  0.50000000  0.00000000  0.00000000  1
  C  C9  1  0.50000000  0.50000000  0.50000000  1
  Ni  Ni10  1  0.33668500  0.85881400  0.89611100  1
  Ni  Ni11  1  0.66331500  0.14118600  0.10388900  1
  Ni  Ni12  1  0.66331500  0.64118600  0.39611100  1
  Ni  Ni13  1  0.33668500  0.35881400  0.60388900  1
  Ni  Ni14  1  0.41079600  0.61729100  0.61570500  1
  Ni  Ni15  1  0.58920400  0.38270900  0.38429500  1
  Ni  Ni16  1  0.58920400  0.88270900  0.11570500  1
  Ni  Ni17  1  0.41079600  0.11729100  0.88429500  1
  Ni  Ni18  1  0.78082600  0.99926000  0.93128800  1
  Ni  Ni19  1  0.21917400  0.00074000  0.06871200  1
  Ni  Ni20  1  0.21917400  0.50074000  0.43128800  1
  Ni  Ni21  1  0.78082600  0.49926000  0.56871200  1
  Cu  Cu22  1  0.51403200  0.64835200  0.80027800  1
  Cu  Cu23  1  0.48596800  0.35164800  0.19972200  1
  Cu  Cu24  1  0.48596800  0.85164800  0.30027800  1
  Cu  Cu25  1  0.51403200  0.14835200  0.69972200  1
  Cu  Cu26  1  0.71736100  0.96587900  0.57655000  1
  Cu  Cu27  1  0.28263900  0.03412100  0.42345000  1
  Cu  Cu28  1  0.28263900  0.53412100  0.07655000  1
  Cu  Cu29  1  0.71736100  0.46587900  0.92345000  1
  Cu  Cu30  1  0.87085600  0.76670700  0.92011100  1
  Cu  Cu31  1  0.12914400  0.23329300  0.07988900  1
  Cu  Cu32  1  0.12914400  0.73329300  0.42011100  1
  Cu  Cu33  1  0.87085600  0.26670700  0.57988900  1
  Cu  Cu34  1  0.89808800  0.59456800  0.73980400  1
  Cu  Cu35  1  0.10191200  0.40543200  0.26019600  1
  Cu  Cu36  1  0.10191200  0.90543200  0.23980400  1
  Cu  Cu37  1  0.89808800  0.09456800  0.76019600  1
