# generated using pymatgen
data_CuNiC4
_symmetry_space_group_name_H-M   'P 1'
_cell_length_a   6.69983786
_cell_length_b   6.69983786
_cell_length_c   6.69983786
_cell_angle_alpha   131.39193940
_cell_angle_beta   131.39193940
_cell_angle_gamma   71.19110472
_symmetry_Int_Tables_number   1
_chemical_formula_structural   CuNiC4
_chemical_formula_sum   'Cu2 Ni2 C8'
_cell_volume   165.70158501
_cell_formula_units_Z   2
loop_
 _symmetry_equiv_pos_site_id
 _symmetry_equiv_pos_as_xyz
  1  'x, y, z'
loop_
 _atom_site_type_symbol
 _atom_site_label
 _atom_site_symmetry_multiplicity
 _atom_site_fract_x
 _atom_site_fract_y
 _atom_site_fract_z
 _atom_site_occupancy
  Ni  Ni0  1  0.50000000  0.50000000  0.00000000  1
  Ni  Ni1  1  0.25000000  0.75000000  0.50000000  1
  Cu  Cu2  1  0.00000000  0.00000000  0.00000000  1
  Cu  Cu3  1  0.75000000  0.25000000  0.50000000  1
  C  C4  1  0.37500000  0.35552800  0.48052800  1
  C  C5  1  0.87500000  0.89447100  0.51947100  1
  C  C6  1  0.10552900  0.12500000  0.48052900  1
  C  C7  1  0.64447200  0.12500000  0.01947100  1
  C  C8  1  0.87500000  0.35552900  0.98052800  1
  C  C9  1  0.64447200  0.62500000  0.51947100  1
  C  C10  1  0.10552900  0.62500000  0.98052900  1
  C  C11  1  0.37500000  0.89447100  0.01947100  1
