# generated using pymatgen
data_Cu2NiC4
_symmetry_space_group_name_H-M   'P 1'
_cell_length_a   5.69171300
_cell_length_b   11.27092500
_cell_length_c   15.80929617
_cell_angle_alpha   47.32689058
_cell_angle_beta   90.00000000
_cell_angle_gamma   90.00000000
_symmetry_Int_Tables_number   1
_chemical_formula_structural   Cu2NiC4
_chemical_formula_sum   'Cu16 Ni8 C32'
_cell_volume   745.65847541
_cell_formula_units_Z   8
loop_
 _symmetry_equiv_pos_site_id
 _symmetry_equiv_pos_as_xyz
  1  'x, y, z'
loop_
 _atom_site_type_symbol
 _atom_site_label
 _atom_site_symmetry_multiplicity
 _atom_site_fract_x
 _atom_site_fract_y
 _atom_site_fract_z
 _atom_site_occupancy
  Ni  Ni0  1  0.11362000  0.38831700  0.17414200  1
  Ni  Ni1  1  0.38896900  0.74534300  0.07530100  1
  Ni  Ni2  1  0.38896900  0.25465700  0.42469900  1
  Ni  Ni3  1  0.11362000  0.61168300  0.32585800  1
  Ni  Ni4  1  0.61103100  0.74534300  0.57530100  1
  Ni  Ni5  1  0.88638000  0.38831700  0.67414200  1
  Ni  Ni6  1  0.88638000  0.61168300  0.82585800  1
  Ni  Ni7  1  0.61103100  0.25465700  0.92469900  1
  Cu  Cu8  1  0.87721200  0.72975200  0.93685600  1
  Cu  Cu9  1  0.38063400  0.69289700  0.93187300  1
  Cu  Cu10  1  0.87286900  0.91368300  0.14056000  1
  Cu  Cu11  1  0.37935200  0.91712400  0.14996000  1
  Cu  Cu12  1  0.37935200  0.08287600  0.35004000  1
  Cu  Cu13  1  0.87286900  0.08631700  0.35944000  1
  Cu  Cu14  1  0.38063400  0.30710300  0.56812700  1
  Cu  Cu15  1  0.87721200  0.27024800  0.56314400  1
  Cu  Cu16  1  0.12278800  0.72975200  0.43685600  1
  Cu  Cu17  1  0.61936600  0.69289700  0.43187300  1
  Cu  Cu18  1  0.12713100  0.91368300  0.64056000  1
  Cu  Cu19  1  0.62064800  0.91712400  0.64996000  1
  Cu  Cu20  1  0.12713100  0.08631700  0.85944000  1
  Cu  Cu21  1  0.62064800  0.08287600  0.85004000  1
  Cu  Cu22  1  0.12278800  0.27024800  0.06314400  1
  Cu  Cu23  1  0.61936600  0.30710300  0.06812700  1
  C  C24  1  0.11332800  0.26776000  0.65890500  1
  C  C25  1  0.64565200  0.26602700  0.66014100  1
  C  C26  1  0.11833000  0.95276100  0.38200900  1
  C  C27  1  0.63240100  0.93186200  0.40005000  1
  C  C28  1  0.11833000  0.04723900  0.11799100  1
  C  C29  1  0.63240100  0.06813800  0.09995000  1
  C  C30  1  0.11332800  0.73224000  0.84109500  1
  C  C31  1  0.64565200  0.73397300  0.83985900  1
  C  C32  1  0.35434800  0.26602700  0.16014100  1
  C  C33  1  0.88667200  0.26776000  0.15890500  1
  C  C34  1  0.36759900  0.93186200  0.90005000  1
  C  C35  1  0.88167000  0.95276100  0.88200900  1
  C  C36  1  0.88167000  0.04723900  0.61799100  1
  C  C37  1  0.36759900  0.06813800  0.59995000  1
  C  C38  1  0.88667200  0.73224000  0.34109500  1
  C  C39  1  0.35434800  0.73397300  0.33985900  1
  C  C40  1  0.85088200  0.62175900  0.55207400  1
  C  C41  1  0.38511100  0.63749300  0.54065400  1
  C  C42  1  0.38646800  0.80711900  0.63780200  1
  C  C43  1  0.85817400  0.78033100  0.65605000  1
  C  C44  1  0.38511100  0.36250700  0.95934600  1
  C  C45  1  0.85088200  0.37824100  0.94792600  1
  C  C46  1  0.85817400  0.21966900  0.84395000  1
  C  C47  1  0.38646800  0.19288100  0.86219800  1
  C  C48  1  0.14911800  0.62175900  0.05207400  1
  C  C49  1  0.61488900  0.63749300  0.04065400  1
  C  C50  1  0.14182600  0.78033100  0.15605000  1
  C  C51  1  0.61353200  0.80711900  0.13780200  1
  C  C52  1  0.14911800  0.37824100  0.44792600  1
  C  C53  1  0.61488900  0.36250700  0.45934600  1
  C  C54  1  0.14182600  0.21966900  0.34395000  1
  C  C55  1  0.61353200  0.19288100  0.36219800  1
