# generated using pymatgen
data_Cu2Ni
_symmetry_space_group_name_H-M   'P 1'
_cell_length_a   7.62844600
_cell_length_b   7.44526200
_cell_length_c   15.09849507
_cell_angle_alpha   78.11609336
_cell_angle_beta   90.00000000
_cell_angle_gamma   90.00000000
_symmetry_Int_Tables_number   1
_chemical_formula_structural   Cu2Ni
_chemical_formula_sum   'Cu24 Ni12'
_cell_volume   839.15121862
_cell_formula_units_Z   12
loop_
 _symmetry_equiv_pos_site_id
 _symmetry_equiv_pos_as_xyz
  1  'x, y, z'
loop_
 _atom_site_type_symbol
 _atom_site_label
 _atom_site_symmetry_multiplicity
 _atom_site_fract_x
 _atom_site_fract_y
 _atom_site_fract_z
 _atom_site_occupancy
  Ni  Ni0  1  0.86971600  0.63473600  0.00068700  1
  Ni  Ni1  1  0.36971600  0.36526400  0.49931300  1
  Ni  Ni2  1  0.13028400  0.36526400  0.99931300  1
  Ni  Ni3  1  0.63028400  0.63473600  0.50068700  1
  Ni  Ni4  1  0.62959400  0.80057100  0.16567000  1
  Ni  Ni5  1  0.12959400  0.19942900  0.33433000  1
  Ni  Ni6  1  0.37040600  0.19942900  0.83433000  1
  Ni  Ni7  1  0.87040600  0.80057100  0.66567000  1
  Ni  Ni8  1  0.36140100  0.05695600  0.16417700  1
  Ni  Ni9  1  0.86140100  0.94304400  0.33582300  1
  Ni  Ni10  1  0.63859900  0.94304400  0.83582300  1
  Ni  Ni11  1  0.13859900  0.05695600  0.66417700  1
  Cu  Cu12  1  0.88583600  0.41622400  0.92712400  1
  Cu  Cu13  1  0.38583600  0.58377600  0.57287600  1
  Cu  Cu14  1  0.11416400  0.58377600  0.07287600  1
  Cu  Cu15  1  0.61416400  0.41622400  0.42712400  1
  Cu  Cu16  1  0.86864500  0.91171400  0.92133100  1
  Cu  Cu17  1  0.36864500  0.08828600  0.57866900  1
  Cu  Cu18  1  0.13135500  0.08828600  0.07866900  1
  Cu  Cu19  1  0.63135500  0.91171400  0.42133100  1
  Cu  Cu20  1  0.63760600  0.59238200  0.08445000  1
  Cu  Cu21  1  0.13760600  0.40761800  0.41555000  1
  Cu  Cu22  1  0.36239400  0.40761800  0.91555000  1
  Cu  Cu23  1  0.86239400  0.59238200  0.58445000  1
  Cu  Cu24  1  0.85895900  0.74326900  0.25008100  1
  Cu  Cu25  1  0.35895900  0.25673100  0.24991900  1
  Cu  Cu26  1  0.14104100  0.25673100  0.74991900  1
  Cu  Cu27  1  0.64104100  0.74326900  0.75008100  1
  Cu  Cu28  1  0.61061300  0.08248100  0.09670800  1
  Cu  Cu29  1  0.11061300  0.91751900  0.40329200  1
  Cu  Cu30  1  0.38938700  0.91751900  0.90329200  1
  Cu  Cu31  1  0.88938700  0.08248100  0.59670800  1
  Cu  Cu32  1  0.38008600  0.77485600  0.23306600  1
  Cu  Cu33  1  0.88008600  0.22514400  0.26693400  1
  Cu  Cu34  1  0.61991400  0.22514400  0.76693400  1
  Cu  Cu35  1  0.11991400  0.77485600  0.73306600  1
