# generated using pymatgen
data_CuNiC2
_symmetry_space_group_name_H-M   'P 1'
_cell_length_a   8.33289216
_cell_length_b   8.33289216
_cell_length_c   11.54767478
_cell_angle_alpha   47.40021537
_cell_angle_beta   47.40021537
_cell_angle_gamma   21.08533420
_symmetry_Int_Tables_number   1
_chemical_formula_structural   CuNiC2
_chemical_formula_sum   'Cu4 Ni4 C8'
_cell_volume   209.20809800
_cell_formula_units_Z   4
loop_
 _symmetry_equiv_pos_site_id
 _symmetry_equiv_pos_as_xyz
  1  'x, y, z'
loop_
 _atom_site_type_symbol
 _atom_site_label
 _atom_site_symmetry_multiplicity
 _atom_site_fract_x
 _atom_site_fract_y
 _atom_site_fract_z
 _atom_site_occupancy
  Ni  Ni0  1  0.17386200  0.17386200  0.92704800  1
  Ni  Ni1  1  0.40622700  0.40622700  0.28209100  1
  Ni  Ni2  1  0.59377300  0.59377300  0.71790900  1
  Ni  Ni3  1  0.82613800  0.82613800  0.07295200  1
  Cu  Cu4  1  0.57702000  0.57702000  0.26611500  1
  Cu  Cu5  1  0.42298000  0.42298000  0.73388500  1
  Cu  Cu6  1  0.18874900  0.18874900  0.38608400  1
  Cu  Cu7  1  0.81125100  0.81125100  0.61391600  1
  C  C8  1  0.42141500  0.42141500  0.91387600  1
  C  C9  1  0.19347200  0.19347200  0.71355800  1
  C  C10  1  0.80652800  0.80652800  0.28644200  1
  C  C11  1  0.57858500  0.57858500  0.08612400  1
  C  C12  1  0.82045800  0.82045800  0.77809200  1
  C  C13  1  0.94102600  0.94102600  0.38655400  1
  C  C14  1  0.17954200  0.17954200  0.22190800  1
  C  C15  1  0.05897400  0.05897400  0.61344600  1
