# generated using pymatgen
data_Cu5(Ni2C)2
_symmetry_space_group_name_H-M   'P 1'
_cell_length_a   6.65263300
_cell_length_b   12.17171800
_cell_length_c   14.51854336
_cell_angle_alpha   71.05779001
_cell_angle_beta   90.00000000
_cell_angle_gamma   90.00000000
_symmetry_Int_Tables_number   1
_chemical_formula_structural   Cu5(Ni2C)2
_chemical_formula_sum   'Cu20 Ni16 C8'
_cell_volume   1111.95993980
_cell_formula_units_Z   4
loop_
 _symmetry_equiv_pos_site_id
 _symmetry_equiv_pos_as_xyz
  1  'x, y, z'
loop_
 _atom_site_type_symbol
 _atom_site_label
 _atom_site_symmetry_multiplicity
 _atom_site_fract_x
 _atom_site_fract_y
 _atom_site_fract_z
 _atom_site_occupancy
  C  C0  1  0.72792600  0.31074000  0.41742600  1
  C  C1  1  0.22792600  0.68926000  0.08257400  1
  C  C2  1  0.27207400  0.68926000  0.58257400  1
  C  C3  1  0.77207400  0.31074000  0.91742600  1
  Ni  Ni4  1  0.92891500  0.41195400  0.43967100  1
  Ni  Ni5  1  0.42891500  0.58804600  0.06032900  1
  Ni  Ni6  1  0.07108500  0.58804600  0.56032900  1
  Ni  Ni7  1  0.57108500  0.41195400  0.93967100  1
  Ni  Ni8  1  0.53014300  0.26244200  0.51976300  1
  Ni  Ni9  1  0.03014300  0.73755800  0.98023700  1
  Ni  Ni10  1  0.46985700  0.73755800  0.48023700  1
  Ni  Ni11  1  0.96985700  0.26244200  0.01976300  1
  Ni  Ni12  1  0.24405400  0.18620200  0.36879900  1
  Ni  Ni13  1  0.74405400  0.81379800  0.13120100  1
  Ni  Ni14  1  0.75594600  0.81379800  0.63120100  1
  Ni  Ni15  1  0.25594600  0.18620200  0.86879900  1
  Ni  Ni16  1  0.44507800  0.05998200  0.19134900  1
  Ni  Ni17  1  0.94507800  0.94001800  0.30865100  1
  Ni  Ni18  1  0.55492200  0.94001800  0.80865100  1
  Ni  Ni19  1  0.05492200  0.05998200  0.69134900  1
  Cu  Cu20  1  0.52296700  0.47408200  0.35263600  1
  Cu  Cu21  1  0.02296700  0.52591800  0.14736400  1
  Cu  Cu22  1  0.47703300  0.52591800  0.64736400  1
  Cu  Cu23  1  0.97703300  0.47408200  0.85263600  1
  Cu  Cu24  1  0.72081400  0.27712400  0.26775500  1
  Cu  Cu25  1  0.22081400  0.72287600  0.23224500  1
  Cu  Cu26  1  0.27918600  0.72287600  0.73224500  1
  Cu  Cu27  1  0.77918600  0.27712400  0.76775500  1
  Cu  Cu28  1  0.93290700  0.14151300  0.47084300  1
  Cu  Cu29  1  0.43290700  0.85848700  0.02915700  1
  Cu  Cu30  1  0.06709300  0.85848700  0.52915700  1
  Cu  Cu31  1  0.56709300  0.14151300  0.97084300  1
  Cu  Cu32  1  0.11623900  0.36853000  0.51545300  1
  Cu  Cu33  1  0.61623900  0.63147000  0.98454700  1
  Cu  Cu34  1  0.88376100  0.63147000  0.48454700  1
  Cu  Cu35  1  0.38376100  0.36853000  0.01545300  1
  Cu  Cu36  1  0.94700300  0.13760000  0.11080300  1
  Cu  Cu37  1  0.44700300  0.86240000  0.38919700  1
  Cu  Cu38  1  0.05299700  0.86240000  0.88919700  1
  Cu  Cu39  1  0.55299700  0.13760000  0.61080300  1
  C  C40  1  0.21558400  0.24115800  0.29012600  1
  C  C41  1  0.71558400  0.75884200  0.20987400  1
  C  C42  1  0.78441600  0.75884200  0.70987400  1
  C  C43  1  0.28441600  0.24115800  0.79012600  1
