# generated using pymatgen
data_Cu3NiC10
_symmetry_space_group_name_H-M   'P 1'
_cell_length_a   8.04472233
_cell_length_b   8.04472233
_cell_length_c   13.14800500
_cell_angle_alpha   90.00000000
_cell_angle_beta   90.00000000
_cell_angle_gamma   120.00000272
_symmetry_Int_Tables_number   1
_chemical_formula_structural   Cu3NiC10
_chemical_formula_sum   'Cu12 Ni4 C40'
_cell_volume   736.90685711
_cell_formula_units_Z   4
loop_
 _symmetry_equiv_pos_site_id
 _symmetry_equiv_pos_as_xyz
  1  'x, y, z'
loop_
 _atom_site_type_symbol
 _atom_site_label
 _atom_site_symmetry_multiplicity
 _atom_site_fract_x
 _atom_site_fract_y
 _atom_site_fract_z
 _atom_site_occupancy
  Ni  Ni0  1  0.66666700  0.33333300  0.73165700  1
  Ni  Ni1  1  0.33333300  0.66666700  0.23165700  1
  Ni  Ni2  1  0.00000000  0.00000000  0.99402200  1
  Ni  Ni3  1  0.00000000  0.00000000  0.49402200  1
  Cu  Cu4  1  0.17415400  0.34830700  0.72599800  1
  Cu  Cu5  1  0.17415400  0.82584600  0.72599800  1
  Cu  Cu6  1  0.82584600  0.65169300  0.22599800  1
  Cu  Cu7  1  0.65169300  0.82584600  0.72599800  1
  Cu  Cu8  1  0.82584600  0.17415400  0.22599800  1
  Cu  Cu9  1  0.34830700  0.17415400  0.22599800  1
  Cu  Cu10  1  0.50561700  0.01123500  0.98430900  1
  Cu  Cu11  1  0.50561700  0.49438300  0.98430900  1
  Cu  Cu12  1  0.49438300  0.98876500  0.48430900  1
  Cu  Cu13  1  0.98876500  0.49438300  0.98430900  1
  Cu  Cu14  1  0.49438300  0.50561700  0.48430900  1
  Cu  Cu15  1  0.01123500  0.50561700  0.48430900  1
  C  C16  1  0.18427400  0.36854800  0.54911200  1
  C  C17  1  0.18427400  0.81572600  0.54911200  1
  C  C18  1  0.81572600  0.63145200  0.04911200  1
  C  C19  1  0.63145200  0.81572600  0.54911200  1
  C  C20  1  0.81572600  0.18427400  0.04911200  1
  C  C21  1  0.36854800  0.18427400  0.04911200  1
  C  C22  1  0.66666700  0.33333300  0.93904600  1
  C  C23  1  0.33333300  0.66666700  0.43904600  1
  C  C24  1  0.66666700  0.33333300  0.27601100  1
  C  C25  1  0.33333300  0.66666700  0.77601100  1
  C  C26  1  0.77749000  0.55498100  0.52067900  1
  C  C27  1  0.77749000  0.22251000  0.52067900  1
  C  C28  1  0.22251000  0.44501900  0.02067900  1
  C  C29  1  0.44501900  0.22251000  0.52067900  1
  C  C30  1  0.22251000  0.77749000  0.02067900  1
  C  C31  1  0.55498100  0.77749000  0.02067900  1
  C  C32  1  0.89018300  0.78036500  0.69163800  1
  C  C33  1  0.89018300  0.10981700  0.69163800  1
  C  C34  1  0.10981700  0.21963500  0.19163800  1
  C  C35  1  0.21963500  0.10981700  0.69163800  1
  C  C36  1  0.10981700  0.89018300  0.19163800  1
  C  C37  1  0.78036500  0.89018300  0.19163800  1
  C  C38  1  0.66136800  0.66467600  0.85448700  1
  C  C39  1  0.00330800  0.33863200  0.85448700  1
  C  C40  1  0.33863200  0.33532400  0.35448700  1
  C  C41  1  0.00330800  0.66467600  0.85448700  1
  C  C42  1  0.33532400  0.99669200  0.85448700  1
  C  C43  1  0.99669200  0.66136800  0.35448700  1
  C  C44  1  0.33532400  0.33863200  0.85448700  1
  C  C45  1  0.99669200  0.33532400  0.35448700  1
  C  C46  1  0.66467600  0.00330800  0.35448700  1
  C  C47  1  0.66467600  0.66136800  0.35448700  1
  C  C48  1  0.66136800  0.99669200  0.85448700  1
  C  C49  1  0.33863200  0.00330800  0.35448700  1
  C  C50  1  0.48086800  0.96173700  0.66067900  1
  C  C51  1  0.48086800  0.51913200  0.66067900  1
  C  C52  1  0.51913200  0.03826300  0.16067900  1
  C  C53  1  0.03826300  0.51913200  0.66067900  1
  C  C54  1  0.51913200  0.48086800  0.16067900  1
  C  C55  1  0.96173700  0.48086800  0.16067900  1
