# generated using pymatgen
data_CuNiC8
_symmetry_space_group_name_H-M   'P 1'
_cell_length_a   9.32688428
_cell_length_b   8.95835043
_cell_length_c   9.14099189
_cell_angle_alpha   90.00000000
_cell_angle_beta   90.00000000
_cell_angle_gamma   90.00000000
_symmetry_Int_Tables_number   1
_chemical_formula_structural   CuNiC8
_chemical_formula_sum   'Cu4 Ni4 C32'
_cell_volume   763.76184577
_cell_formula_units_Z   4
loop_
 _symmetry_equiv_pos_site_id
 _symmetry_equiv_pos_as_xyz
  1  'x, y, z'
loop_
 _atom_site_type_symbol
 _atom_site_label
 _atom_site_symmetry_multiplicity
 _atom_site_fract_x
 _atom_site_fract_y
 _atom_site_fract_z
 _atom_site_occupancy
  C  C0  1  0.00000000  0.00000000  -0.00000000  1
  C  C1  1  0.50000000  0.50000000  0.50000000  1
  C  C2  1  0.50000000  -0.00000000  -0.00000000  1
  C  C3  1  0.00000000  0.00000000  0.50000000  1
  Ni  Ni4  1  0.74732883  0.75522509  0.74686786  1
  Ni  Ni5  1  0.25267117  0.24477491  0.74686786  1
  Ni  Ni6  1  0.25267117  0.75522509  0.25313214  1
  Ni  Ni7  1  0.74732883  0.24477491  0.25313214  1
  Cu  Cu8  1  0.00000000  0.50000000  0.50000000  1
  Cu  Cu9  1  0.50000000  -0.00000000  0.50000000  1
  Cu  Cu10  1  0.50000000  0.50000000  -0.00000000  1
  Cu  Cu11  1  0.00000000  0.50000000  -0.00000000  1
  C  C12  1  0.25115234  0.24690533  0.25193555  1
  C  C13  1  0.74884766  0.75309467  0.25193555  1
  C  C14  1  0.74884766  0.24690533  0.74806445  1
  C  C15  1  0.25115234  0.75309467  0.74806445  1
  C  C16  1  0.01947896  0.20913124  0.28524162  1
  C  C17  1  0.98052104  0.79086876  0.28524162  1
  C  C18  1  0.98052104  0.20913124  0.71475838  1
  C  C19  1  0.01947896  0.79086876  0.71475838  1
  C  C20  1  0.28582388  0.01931781  0.20881512  1
  C  C21  1  0.28582388  0.98068219  0.79118488  1
  C  C22  1  0.71417612  0.98068219  0.20881512  1
  C  C23  1  0.71417612  0.01931781  0.79118488  1
  C  C24  1  0.20866263  0.28523900  0.01930354  1
  C  C25  1  0.79133737  0.28523900  0.98069646  1
  C  C26  1  0.20866263  0.71476100  0.98069646  1
  C  C27  1  0.79133737  0.71476100  0.01930354  1
  C  C28  1  0.48046983  0.29045849  0.21578689  1
  C  C29  1  0.51953017  0.70954151  0.21578689  1
  C  C30  1  0.51953017  0.29045849  0.78421311  1
  C  C31  1  0.48046983  0.70954151  0.78421311  1
  C  C32  1  0.21534510  0.48099994  0.29023991  1
  C  C33  1  0.21534510  0.51900006  0.70976009  1
  C  C34  1  0.78465490  0.51900006  0.29023991  1
  C  C35  1  0.78465490  0.48099994  0.70976009  1
  C  C36  1  0.29198921  0.21467261  0.48041704  1
  C  C37  1  0.70801079  0.21467261  0.51958296  1
  C  C38  1  0.29198921  0.78532739  0.51958296  1
  C  C39  1  0.70801079  0.78532739  0.48041704  1
