# generated using pymatgen
data_Cu9Ni2C19
_symmetry_space_group_name_H-M   'P 1'
_cell_length_a   8.96609200
_cell_length_b   12.25358900
_cell_length_c   15.76640231
_cell_angle_alpha   90.00000000
_cell_angle_beta   114.70864674
_cell_angle_gamma   90.00000000
_symmetry_Int_Tables_number   1
_chemical_formula_structural   Cu9Ni2C19
_chemical_formula_sum   'Cu36 Ni8 C76'
_cell_volume   1573.61248855
_cell_formula_units_Z   4
loop_
 _symmetry_equiv_pos_site_id
 _symmetry_equiv_pos_as_xyz
  1  'x, y, z'
loop_
 _atom_site_type_symbol
 _atom_site_label
 _atom_site_symmetry_multiplicity
 _atom_site_fract_x
 _atom_site_fract_y
 _atom_site_fract_z
 _atom_site_occupancy
  C  C0  1  0.15884900  0.79979200  0.74495500  1
  C  C1  1  0.15884900  0.70020800  0.24495600  1
  C  C2  1  0.84115100  0.20020800  0.25504500  1
  C  C3  1  0.84115100  0.29979200  0.75504500  1
  Ni  Ni4  1  0.97810500  0.73728200  0.59037700  1
  Ni  Ni5  1  0.97810500  0.76271800  0.09037700  1
  Ni  Ni6  1  0.02189500  0.26271800  0.40962300  1
  Ni  Ni7  1  0.02189500  0.23728200  0.90962300  1
  Ni  Ni8  1  0.31642300  0.76061800  0.65557800  1
  Ni  Ni9  1  0.31642300  0.73938200  0.15557800  1
  Ni  Ni10  1  0.68357700  0.23938200  0.34442200  1
  Ni  Ni11  1  0.68357700  0.26061800  0.84442200  1
  C  C12  1  0.79541100  0.59344300  0.59473400  1
  C  C13  1  0.79541100  0.90655700  0.09473400  1
  C  C14  1  0.20458900  0.40655700  0.40526600  1
  C  C15  1  0.20458900  0.09344300  0.90526600  1
  C  C16  1  0.98424400  0.53846200  0.60289100  1
  C  C17  1  0.98424400  0.96153800  0.10289100  1
  C  C18  1  0.01575600  0.46153800  0.39710900  1
  C  C19  1  0.01575600  0.03846200  0.89710900  1
  C  C20  1  0.83093400  0.58229600  0.49211500  1
  C  C21  1  0.83093400  0.91770400  0.99211500  1
  C  C22  1  0.16906600  0.41770400  0.50788500  1
  C  C23  1  0.16906600  0.08229600  0.00788500  1
  C  C24  1  0.75943600  0.78615000  0.43794400  1
  C  C25  1  0.75943600  0.71385000  0.93794400  1
  C  C26  1  0.24056400  0.21385000  0.56205600  1
  C  C27  1  0.24056400  0.28615000  0.06205600  1
  C  C28  1  0.84461600  0.90406800  0.50906100  1
  C  C29  1  0.84461600  0.59593200  0.00906100  1
  C  C30  1  0.15538400  0.09593200  0.49093900  1
  C  C31  1  0.15538400  0.40406800  0.99093900  1
  C  C32  1  0.70743700  0.81772400  0.53288400  1
  C  C33  1  0.70743700  0.68227600  0.03288400  1
  C  C34  1  0.29256300  0.18227600  0.46711600  1
  C  C35  1  0.29256300  0.31772400  0.96711600  1
  C  C36  1  0.11824800  0.80501400  0.49520300  1
  C  C37  1  0.11824800  0.69498600  0.99520300  1
  C  C38  1  0.88175200  0.19498600  0.50479700  1
  C  C39  1  0.88175200  0.30501400  0.00479700  1
  C  C40  1  0.14213500  0.66107400  0.50839400  1
  C  C41  1  0.14213500  0.83892600  0.00839400  1
  C  C42  1  0.85786500  0.33892600  0.49160600  1
  C  C43  1  0.85786500  0.16107400  0.99160600  1
  C  C44  1  0.47626600  0.62141800  0.61702000  1
  C  C45  1  0.47626600  0.87858200  0.11702000  1
  C  C46  1  0.52373400  0.37858200  0.38298000  1
  C  C47  1  0.52373400  0.12141800  0.88298000  1
  C  C48  1  0.36940900  0.56541800  0.68051600  1
  C  C49  1  0.36940900  0.93458200  0.18051600  1
  C  C50  1  0.63059100  0.43458200  0.31948400  1
  C  C51  1  0.63059100  0.06541800  0.81948400  1
  C  C52  1  0.55045400  0.64375300  0.73992300  1
  C  C53  1  0.55045400  0.85624700  0.23992300  1
  C  C54  1  0.44954600  0.35624700  0.26007700  1
  C  C55  1  0.44954600  0.14375300  0.76007700  1
  C  C56  1  0.56186200  0.86996200  0.69131600  1
  C  C57  1  0.56186200  0.63003800  0.19131600  1
  C  C58  1  0.43813800  0.13003800  0.30868400  1
  C  C59  1  0.43813800  0.36996200  0.80868400  1
  C  C60  1  0.38333700  0.94055500  0.61380400  1
  C  C61  1  0.38333700  0.55944500  0.11380400  1
  C  C62  1  0.61666300  0.05944500  0.38619600  1
  C  C63  1  0.61666300  0.44055500  0.88619600  1
  C  C64  1  0.46956100  0.83454100  0.57060400  1
  C  C65  1  0.46956100  0.66545900  0.07060400  1
  C  C66  1  0.53043900  0.16545900  0.42939600  1
  C  C67  1  0.53043900  0.33454100  0.92939600  1
  Cu  Cu68  1  0.32588900  0.84728600  0.85662000  1
  Cu  Cu69  1  0.32588900  0.65271400  0.35662000  1
  Cu  Cu70  1  0.67411100  0.15271400  0.14338000  1
  Cu  Cu71  1  0.67411100  0.34728600  0.64338000  1
  Cu  Cu72  1  0.13663900  0.94452700  0.70060100  1
  Cu  Cu73  1  0.13663900  0.55547300  0.20060100  1
  Cu  Cu74  1  0.86336100  0.05547300  0.29939900  1
  Cu  Cu75  1  0.86336100  0.44452700  0.79939900  1
  Cu  Cu76  1  0.20181500  0.65873800  0.79903800  1
  Cu  Cu77  1  0.20181500  0.84126200  0.29903800  1
  Cu  Cu78  1  0.79818500  0.34126200  0.20096200  1
  Cu  Cu79  1  0.79818500  0.15873800  0.70096200  1
  Cu  Cu80  1  0.99151000  0.82105700  0.78439000  1
  Cu  Cu81  1  0.99151000  0.67894300  0.28439000  1
  Cu  Cu82  1  0.00849000  0.17894300  0.21561000  1
  Cu  Cu83  1  0.00849000  0.32105700  0.71561000  1
  Cu  Cu84  1  0.88929100  0.59975100  0.56739800  1
  Cu  Cu85  1  0.88929100  0.90024900  0.06739800  1
  Cu  Cu86  1  0.11070900  0.40024900  0.43260200  1
  Cu  Cu87  1  0.11070900  0.09975100  0.93260200  1
  Cu  Cu88  1  0.80644000  0.81906300  0.50920900  1
  Cu  Cu89  1  0.80644000  0.68093700  0.00920900  1
  Cu  Cu90  1  0.19356000  0.18093700  0.49079100  1
  Cu  Cu91  1  0.19356000  0.31906300  0.99079100  1
  Cu  Cu92  1  0.13623100  0.73691600  0.54376600  1
  Cu  Cu93  1  0.13623100  0.76308400  0.04376600  1
  Cu  Cu94  1  0.86376900  0.26308400  0.45623400  1
  Cu  Cu95  1  0.86376900  0.23691600  0.95623400  1
  Cu  Cu96  1  0.43960500  0.63605200  0.67443100  1
  Cu  Cu97  1  0.43960500  0.86394800  0.17443100  1
  Cu  Cu98  1  0.56039500  0.36394800  0.32556900  1
  Cu  Cu99  1  0.56039500  0.13605200  0.82556900  1
  Cu  Cu100  1  0.44437400  0.86075400  0.63001800  1
  Cu  Cu101  1  0.44437400  0.63924600  0.13001800  1
  Cu  Cu102  1  0.55562600  0.13924600  0.36998200  1
  Cu  Cu103  1  0.55562600  0.36075400  0.86998200  1
  C  C104  1  0.42919000  0.87607200  0.92843300  1
  C  C105  1  0.42919000  0.62392800  0.42843300  1
  C  C106  1  0.57081000  0.12392800  0.07156700  1
  C  C107  1  0.57081000  0.37607200  0.57156700  1
  C  C108  1  0.12830200  0.03525300  0.67590300  1
  C  C109  1  0.12830200  0.46474700  0.17590300  1
  C  C110  1  0.87169800  0.96474700  0.32409700  1
  C  C111  1  0.87169800  0.53525300  0.82409700  1
  C  C112  1  0.23658900  0.57536100  0.83837800  1
  C  C113  1  0.23658900  0.92463900  0.33837800  1
  C  C114  1  0.76341100  0.42463900  0.16162200  1
  C  C115  1  0.76341100  0.07536100  0.66162200  1
  C  C116  1  0.88576100  0.83525700  0.80886600  1
  C  C117  1  0.88576100  0.66474300  0.30886600  1
  C  C118  1  0.11423900  0.16474300  0.19113400  1
  C  C119  1  0.11423900  0.33525700  0.69113400  1
