# generated using pymatgen
data_Cu2Ni7C12
_symmetry_space_group_name_H-M   'P 1'
_cell_length_a   6.10550940
_cell_length_b   6.10550940
_cell_length_c   15.34576770
_cell_angle_alpha   89.79643894
_cell_angle_beta   89.79643894
_cell_angle_gamma   59.66489217
_symmetry_Int_Tables_number   1
_chemical_formula_structural   Cu2Ni7C12
_chemical_formula_sum   'Cu4 Ni14 C24'
_cell_volume   493.72256806
_cell_formula_units_Z   2
loop_
 _symmetry_equiv_pos_site_id
 _symmetry_equiv_pos_as_xyz
  1  'x, y, z'
loop_
 _atom_site_type_symbol
 _atom_site_label
 _atom_site_symmetry_multiplicity
 _atom_site_fract_x
 _atom_site_fract_y
 _atom_site_fract_z
 _atom_site_occupancy
  Ni  Ni0  1  0.33191300  0.33191300  0.46882600  1
  Ni  Ni1  1  0.99291100  0.99291100  0.14146500  1
  Ni  Ni2  1  0.66115900  0.66115900  0.79082000  1
  Ni  Ni3  1  0.33884100  0.33884100  0.20918000  1
  Ni  Ni4  1  0.00708900  0.00708900  0.85853500  1
  Ni  Ni5  1  0.66808700  0.66808700  0.53117400  1
  Ni  Ni6  1  0.16563300  0.16563300  0.66166500  1
  Ni  Ni7  1  0.83436700  0.83436700  0.33833500  1
  Ni  Ni8  1  0.50000000  0.00000000  0.00000000  1
  Ni  Ni9  1  0.16632600  0.66613200  0.66224400  1
  Ni  Ni10  1  0.83367400  0.33386800  0.33775600  1
  Ni  Ni11  1  0.00000000  0.50000000  0.00000000  1
  Ni  Ni12  1  0.66613200  0.16632600  0.66224400  1
  Ni  Ni13  1  0.33386800  0.83367400  0.33775600  1
  Cu  Cu14  1  0.67217200  0.67217200  0.17235700  1
  Cu  Cu15  1  0.32782800  0.32782800  0.82764300  1
  Cu  Cu16  1  0.00000000  0.00000000  0.50000000  1
  Cu  Cu17  1  0.50000000  0.50000000  0.00000000  1
  C  C18  1  0.99795000  0.99795000  0.26366700  1
  C  C19  1  0.65909200  0.65909200  0.93037100  1
  C  C20  1  0.33123900  0.33123900  0.59776500  1
  C  C21  1  0.15218800  0.15218800  0.41977200  1
  C  C22  1  0.81494000  0.81494000  0.08340300  1
  C  C23  1  0.48255500  0.48255500  0.75532200  1
  C  C24  1  0.15425100  0.69397600  0.42054600  1
  C  C25  1  0.80843900  0.35907300  0.08174300  1
  C  C26  1  0.49120400  0.02014700  0.75601700  1
  C  C27  1  0.69397600  0.15425100  0.42054600  1
  C  C28  1  0.35907300  0.80843900  0.08174300  1
  C  C29  1  0.02014700  0.49120400  0.75601700  1
  C  C30  1  0.66876100  0.66876100  0.40223500  1
  C  C31  1  0.34090800  0.34090800  0.06962900  1
  C  C32  1  0.00205000  0.00205000  0.73633300  1
  C  C33  1  0.51744500  0.51744500  0.24467800  1
  C  C34  1  0.18506000  0.18506000  0.91659700  1
  C  C35  1  0.84781200  0.84781200  0.58022800  1
  C  C36  1  0.50879600  0.97985300  0.24398300  1
  C  C37  1  0.19156100  0.64092700  0.91825700  1
  C  C38  1  0.84574900  0.30602400  0.57945400  1
  C  C39  1  0.97985300  0.50879600  0.24398300  1
  C  C40  1  0.64092700  0.19156100  0.91825700  1
  C  C41  1  0.30602400  0.84574900  0.57945400  1
