# generated using pymatgen
data_Cu21Ni3C
_symmetry_space_group_name_H-M   'P 1'
_cell_length_a   8.97128805
_cell_length_b   8.97128805
_cell_length_c   8.97128791
_cell_angle_alpha   90.70517212
_cell_angle_beta   90.70517212
_cell_angle_gamma   90.70517606
_symmetry_Int_Tables_number   1
_chemical_formula_structural   Cu21Ni3C
_chemical_formula_sum   'Cu42 Ni6 C2'
_cell_volume   721.87980248
_cell_formula_units_Z   2
loop_
 _symmetry_equiv_pos_site_id
 _symmetry_equiv_pos_as_xyz
  1  'x, y, z'
loop_
 _atom_site_type_symbol
 _atom_site_label
 _atom_site_symmetry_multiplicity
 _atom_site_fract_x
 _atom_site_fract_y
 _atom_site_fract_z
 _atom_site_occupancy
  C  C0  1  0.91646900  0.91646900  0.91646900  1
  C  C1  1  0.41646900  0.41646900  0.41646900  1
  Ni  Ni2  1  0.99833000  0.66513800  0.33407100  1
  Ni  Ni3  1  0.33407100  0.99833000  0.66513800  1
  Ni  Ni4  1  0.66513800  0.33407100  0.99833000  1
  Ni  Ni5  1  0.83407100  0.16513800  0.49833000  1
  Ni  Ni6  1  0.16513800  0.49833000  0.83407100  1
  Ni  Ni7  1  0.49833000  0.83407100  0.16513800  1
  Cu  Cu8  1  0.00625200  0.11287700  0.89894900  1
  Cu  Cu9  1  0.32815000  0.43469900  0.22008100  1
  Cu  Cu10  1  0.66448600  0.76320500  0.57051000  1
  Cu  Cu11  1  0.76320500  0.57051000  0.66448600  1
  Cu  Cu12  1  0.11287700  0.89894900  0.00625200  1
  Cu  Cu13  1  0.43469900  0.22008100  0.32815000  1
  Cu  Cu14  1  0.22008100  0.32815000  0.43469900  1
  Cu  Cu15  1  0.57051000  0.66448600  0.76320500  1
  Cu  Cu16  1  0.89894900  0.00625200  0.11287700  1
  Cu  Cu17  1  0.82815000  0.72008100  0.93469900  1
  Cu  Cu18  1  0.16448600  0.07051000  0.26320500  1
  Cu  Cu19  1  0.50625200  0.39894900  0.61287700  1
  Cu  Cu20  1  0.07051000  0.26320500  0.16448600  1
  Cu  Cu21  1  0.39894900  0.61287700  0.50625200  1
  Cu  Cu22  1  0.72008100  0.93469900  0.82815000  1
  Cu  Cu23  1  0.61287700  0.50625200  0.39894900  1
  Cu  Cu24  1  0.93469900  0.82815000  0.72008100  1
  Cu  Cu25  1  0.26320500  0.16448600  0.07051000  1
  Cu  Cu26  1  0.80429100  0.36459100  0.92107700  1
  Cu  Cu27  1  0.13787700  0.69735400  0.25765200  1
  Cu  Cu28  1  0.47305000  0.02985100  0.58814000  1
  Cu  Cu29  1  0.69735400  0.25765200  0.13787700  1
  Cu  Cu30  1  0.02985100  0.58814000  0.47305000  1
  Cu  Cu31  1  0.36459100  0.92107700  0.80429100  1
  Cu  Cu32  1  0.58814000  0.47305000  0.02985100  1
  Cu  Cu33  1  0.92107700  0.80429100  0.36459100  1
  Cu  Cu34  1  0.25765200  0.13787700  0.69735400  1
  Cu  Cu35  1  0.75765200  0.19735400  0.63787700  1
  Cu  Cu36  1  0.08814000  0.52985100  0.97305000  1
  Cu  Cu37  1  0.42107700  0.86459100  0.30429100  1
  Cu  Cu38  1  0.86459100  0.30429100  0.42107700  1
  Cu  Cu39  1  0.19735400  0.63787700  0.75765200  1
  Cu  Cu40  1  0.52985100  0.97305000  0.08814000  1
  Cu  Cu41  1  0.97305000  0.08814000  0.52985100  1
  Cu  Cu42  1  0.30429100  0.42107700  0.86459100  1
  Cu  Cu43  1  0.63787700  0.75765200  0.19735400  1
  Cu  Cu44  1  0.23726900  0.90505700  0.57053600  1
  Cu  Cu45  1  0.57053600  0.23726900  0.90505700  1
  Cu  Cu46  1  0.90505700  0.57053600  0.23726900  1
  Cu  Cu47  1  0.07053600  0.40505700  0.73726900  1
  Cu  Cu48  1  0.40505700  0.73726900  0.07053600  1
  Cu  Cu49  1  0.73726900  0.07053600  0.40505700  1
