# generated using pymatgen
data_Cu(NiC6)2
_symmetry_space_group_name_H-M   'P 1'
_cell_length_a   15.79986095
_cell_length_b   15.79986095
_cell_length_c   15.79986095
_cell_angle_alpha   166.27559794
_cell_angle_beta   166.27559794
_cell_angle_gamma   19.45621184
_symmetry_Int_Tables_number   1
_chemical_formula_structural   Cu(NiC6)2
_chemical_formula_sum   'Cu1 Ni2 C12'
_cell_volume   221.99012467
_cell_formula_units_Z   1
loop_
 _symmetry_equiv_pos_site_id
 _symmetry_equiv_pos_as_xyz
  1  'x, y, z'
loop_
 _atom_site_type_symbol
 _atom_site_label
 _atom_site_symmetry_multiplicity
 _atom_site_fract_x
 _atom_site_fract_y
 _atom_site_fract_z
 _atom_site_occupancy
  Ni  Ni0  1  0.61652100  0.61652100  0.00000000  1
  Ni  Ni1  1  0.38869700  0.38869700  0.00000000  1
  Cu  Cu2  1  0.50126300  0.50126300  0.00000000  1
  C  C3  1  0.05480100  0.05480100  0.00000000  1
  C  C4  1  0.94887300  0.94887300  0.00000000  1
  C  C5  1  0.79872200  0.79872200  0.00000000  1
  C  C6  1  0.19978700  0.19978700  0.00000000  1
  C  C7  1  0.12784100  0.12784100  0.00000000  1
  C  C8  1  0.86654800  0.86654800  0.00000000  1
  C  C9  1  0.04617700  0.54617700  0.50000000  1
  C  C10  1  0.45122600  0.95122600  0.50000000  1
  C  C11  1  0.95122600  0.45122600  0.50000000  1
  C  C12  1  0.54617700  0.04617700  0.50000000  1
  C  C13  1  0.69756100  0.69756100  0.00000000  1
  C  C14  1  0.30458000  0.30458000  0.00000000  1
