# generated using pymatgen
data_Cu2(NiC3)3
_symmetry_space_group_name_H-M   'P 1'
_cell_length_a   9.07067040
_cell_length_b   9.07067040
_cell_length_c   9.07067040
_cell_angle_alpha   109.47122063
_cell_angle_beta   109.47122063
_cell_angle_gamma   109.47122063
_symmetry_Int_Tables_number   1
_chemical_formula_structural   Cu2(NiC3)3
_chemical_formula_sum   'Cu4 Ni6 C18'
_cell_volume   574.50824910
_cell_formula_units_Z   2
loop_
 _symmetry_equiv_pos_site_id
 _symmetry_equiv_pos_as_xyz
  1  'x, y, z'
loop_
 _atom_site_type_symbol
 _atom_site_label
 _atom_site_symmetry_multiplicity
 _atom_site_fract_x
 _atom_site_fract_y
 _atom_site_fract_z
 _atom_site_occupancy
  Ni  Ni0  1  0.25000000  0.75000000  0.50000000  1
  Ni  Ni1  1  0.75000000  0.50000000  0.25000000  1
  Ni  Ni2  1  0.75000000  0.25000000  0.50000000  1
  Ni  Ni3  1  0.50000000  0.25000000  0.75000000  1
  Ni  Ni4  1  0.50000000  0.75000000  0.25000000  1
  Ni  Ni5  1  0.25000000  0.50000000  0.75000000  1
  C  C6  1  0.19894900  0.00000000  0.19894900  1
  C  C7  1  0.00000000  0.80105100  0.80105100  1
  C  C8  1  0.00000000  0.19894900  0.19894900  1
  C  C9  1  0.80105100  0.80105100  0.00000000  1
  C  C10  1  0.80105100  0.00000000  0.80105100  1
  C  C11  1  0.19894900  0.19894900  0.00000000  1
  Cu  Cu12  1  0.00000000  0.00000000  0.59046800  1
  Cu  Cu13  1  0.59046800  0.00000000  0.00000000  1
  Cu  Cu14  1  0.00000000  0.59046800  0.00000000  1
  Cu  Cu15  1  0.40953200  0.40953200  0.40953200  1
  C  C16  1  0.00000000  0.49912800  0.24764600  1
  C  C17  1  0.49912800  0.00000000  0.24764600  1
  C  C18  1  0.50087200  0.74851800  0.50087200  1
  C  C19  1  0.24764600  0.49912800  0.00000000  1
  C  C20  1  0.74851800  0.50087200  0.50087200  1
  C  C21  1  0.25148200  0.75235400  0.75235400  1
  C  C22  1  0.75235400  0.25148200  0.75235400  1
  C  C23  1  0.24764600  0.00000000  0.49912800  1
  C  C24  1  0.50087200  0.50087200  0.74851800  1
  C  C25  1  0.00000000  0.24764600  0.49912800  1
  C  C26  1  0.75235400  0.75235400  0.25148200  1
  C  C27  1  0.49912800  0.24764600  0.00000000  1
