# generated using pymatgen
data_Cu4NiC16
_symmetry_space_group_name_H-M   'P 1'
_cell_length_a   5.89836483
_cell_length_b   7.02656048
_cell_length_c   8.93539354
_cell_angle_alpha   104.16763181
_cell_angle_beta   86.30273962
_cell_angle_gamma   112.81869588
_symmetry_Int_Tables_number   1
_chemical_formula_structural   Cu4NiC16
_chemical_formula_sum   'Cu4 Ni1 C16'
_cell_volume   330.77165456
_cell_formula_units_Z   1
loop_
 _symmetry_equiv_pos_site_id
 _symmetry_equiv_pos_as_xyz
  1  'x, y, z'
loop_
 _atom_site_type_symbol
 _atom_site_label
 _atom_site_symmetry_multiplicity
 _atom_site_fract_x
 _atom_site_fract_y
 _atom_site_fract_z
 _atom_site_occupancy
  C  C0  1  0.12610600  0.23550200  0.47036500  1
  C  C1  1  0.99680900  0.80973600  0.63496500  1
  Ni  Ni2  1  0.69055100  0.61345300  0.36619600  1
  Cu  Cu3  1  0.15474000  0.28916800  0.94074300  1
  Cu  Cu4  1  0.54730500  0.10935600  0.17955400  1
  Cu  Cu5  1  0.45609300  0.82184000  0.78602000  1
  Cu  Cu6  1  0.89078500  0.75045000  0.04067700  1
  C  C7  1  0.68965700  0.32436300  0.69876800  1
  C  C8  1  0.25041300  0.64710800  0.27944500  1
  C  C9  1  0.02114100  0.53192600  0.81380800  1
  C  C10  1  0.16077400  0.88697900  0.28787000  1
  C  C11  1  0.25798900  0.98897900  0.97639200  1
  C  C12  1  0.80955800  0.10455300  0.69920100  1
  C  C13  1  0.63498500  0.85130700  0.26231800  1
  C  C14  1  0.77527600  0.00790500  0.98078400  1
  C  C15  1  0.35906900  0.13555600  0.71896800  1
  C  C16  1  0.92501900  0.45872000  0.17059500  1
  C  C17  1  0.70437800  0.36327400  0.49618800  1
  C  C18  1  0.37529700  0.66940100  0.50301100  1
  C  C19  1  0.36987300  0.39531700  0.19512700  1
  C  C20  1  0.57501600  0.55140700  0.83471900  1
