# generated using pymatgen
data_Cu(NiC4)2
_symmetry_space_group_name_H-M   'P 1'
_cell_length_a   7.50184545
_cell_length_b   7.50184545
_cell_length_c   7.50184545
_cell_angle_alpha   120.59116073
_cell_angle_beta   119.52904235
_cell_angle_gamma   89.89839814
_symmetry_Int_Tables_number   1
_chemical_formula_structural   Cu(NiC4)2
_chemical_formula_sum   'Cu2 Ni4 C16'
_cell_volume   298.22713104
_cell_formula_units_Z   2
loop_
 _symmetry_equiv_pos_site_id
 _symmetry_equiv_pos_as_xyz
  1  'x, y, z'
loop_
 _atom_site_type_symbol
 _atom_site_label
 _atom_site_symmetry_multiplicity
 _atom_site_fract_x
 _atom_site_fract_y
 _atom_site_fract_z
 _atom_site_occupancy
  Ni  Ni0  1  0.50000000  0.50000000  0.50000000  1
  Ni  Ni1  1  0.50000000  0.00000000  0.00000000  1
  Ni  Ni2  1  0.50000000  0.50000000  0.00000000  1
  Ni  Ni3  1  0.00000000  0.50000000  0.50000000  1
  Cu  Cu4  1  0.00000000  0.00000000  0.50000000  1
  Cu  Cu5  1  0.00000000  0.50000000  0.00000000  1
  C  C6  1  0.00000000  0.00000000  0.00000000  1
  C  C7  1  0.50000000  0.00000000  0.50000000  1
  C  C8  1  0.37821000  0.62821000  0.75000000  1
  C  C9  1  0.62179000  0.37179000  0.25000000  1
  C  C10  1  0.31809000  0.06809000  0.25000000  1
  C  C11  1  0.90240600  0.65240600  0.25000000  1
  C  C12  1  0.33655400  0.67751600  0.26370800  1
  C  C13  1  0.91380800  0.07284600  0.23629200  1
  C  C14  1  0.33655400  0.07284600  0.65903900  1
  C  C15  1  0.91380800  0.67751600  0.84096100  1
  C  C16  1  0.68191000  0.93191000  0.75000000  1
  C  C17  1  0.09759400  0.34759400  0.75000000  1
  C  C18  1  0.66344600  0.32248400  0.73629200  1
  C  C19  1  0.08619200  0.92715400  0.76370800  1
  C  C20  1  0.66344600  0.92715400  0.34096100  1
  C  C21  1  0.08619200  0.32248400  0.15903900  1
