# generated using pymatgen
data_CuNi4C13
_symmetry_space_group_name_H-M   'P 1'
_cell_length_a   21.57404017
_cell_length_b   21.57404017
_cell_length_c   21.57404017
_cell_angle_alpha   60.00000000
_cell_angle_beta   60.00000000
_cell_angle_gamma   60.00000000
_symmetry_Int_Tables_number   1
_chemical_formula_structural   CuNi4C13
_chemical_formula_sum   'Cu2 Ni8 C26'
_cell_volume   7100.34499796
_cell_formula_units_Z   2
loop_
 _symmetry_equiv_pos_site_id
 _symmetry_equiv_pos_as_xyz
  1  'x, y, z'
loop_
 _atom_site_type_symbol
 _atom_site_label
 _atom_site_symmetry_multiplicity
 _atom_site_fract_x
 _atom_site_fract_y
 _atom_site_fract_z
 _atom_site_occupancy
  C  C0  1  0.56671955  0.56671955  0.18675676  1
  C  C1  1  0.67980414  0.18675676  0.56671955  1
  C  C2  1  0.18675676  0.67980414  0.56671955  1
  C  C3  1  0.56671955  0.18675676  0.56671955  1
  C  C4  1  0.07019586  0.18328045  0.56324324  1
  C  C5  1  0.18328045  0.18328045  0.56324324  1
  C  C6  1  0.56671955  0.56671955  0.67980414  1
  C  C7  1  0.18675676  0.56671955  0.67980414  1
  C  C8  1  0.18328045  0.56324324  0.18328045  1
  C  C9  1  0.07019586  0.56324324  0.18328045  1
  C  C10  1  0.67980414  0.56671955  0.18675676  1
  C  C11  1  0.18328045  0.07019586  0.18328045  1
  C  C12  1  0.56324324  0.07019586  0.18328045  1
  C  C13  1  0.56671955  0.67980414  0.56671955  1
  C  C14  1  0.56324324  0.18328045  0.07019586  1
  C  C15  1  0.18328045  0.18328045  0.07019586  1
  C  C16  1  0.18675676  0.56671955  0.56671955  1
  C  C17  1  0.56671955  0.18675676  0.67980414  1
  C  C18  1  0.67980414  0.56671955  0.56671955  1
  C  C19  1  0.56671955  0.67980414  0.18675676  1
  C  C20  1  0.18328045  0.56324324  0.07019586  1
  C  C21  1  0.56324324  0.18328045  0.18328045  1
  C  C22  1  0.18328045  0.07019586  0.56324324  1
  C  C23  1  0.07019586  0.18328045  0.18328045  1
  Ni  Ni24  1  0.79142488  0.79142488  0.79142488  1
  Ni  Ni25  1  0.62572535  0.79142488  0.79142488  1
  Ni  Ni26  1  0.79142488  0.62572535  0.79142488  1
  Ni  Ni27  1  0.12427465  0.95857512  0.95857512  1
  Ni  Ni28  1  0.95857512  0.95857512  0.95857512  1
  Ni  Ni29  1  0.79142488  0.79142488  0.62572535  1
  Ni  Ni30  1  0.95857512  0.12427465  0.95857512  1
  Ni  Ni31  1  0.95857512  0.95857512  0.12427465  1
  Cu  Cu32  1  0.00000000  -0.00000000  -0.00000000  1
  Cu  Cu33  1  0.75000000  0.75000000  0.75000000  1
  C  C34  1  0.50000000  0.50000000  0.50000000  1
  C  C35  1  0.25000000  0.25000000  0.25000000  1
