# generated using pymatgen
data_Cu2NiC9
_symmetry_space_group_name_H-M   'P 1'
_cell_length_a   3.97005787
_cell_length_b   3.97005701
_cell_length_c   10.66546900
_cell_angle_alpha   100.72628842
_cell_angle_beta   100.72628000
_cell_angle_gamma   90.00000351
_symmetry_Int_Tables_number   1
_chemical_formula_structural   Cu2NiC9
_chemical_formula_sum   'Cu2 Ni1 C9'
_cell_volume   162.17474063
_cell_formula_units_Z   1
loop_
 _symmetry_equiv_pos_site_id
 _symmetry_equiv_pos_as_xyz
  1  'x, y, z'
loop_
 _atom_site_type_symbol
 _atom_site_label
 _atom_site_symmetry_multiplicity
 _atom_site_fract_x
 _atom_site_fract_y
 _atom_site_fract_z
 _atom_site_occupancy
  Ni  Ni0  1  0.50000100  0.50000000  0.00000000  1
  Cu  Cu1  1  0.31794500  0.31794300  0.63588700  1
  Cu  Cu2  1  0.68205500  0.68205600  0.36411300  1
  C  C3  1  0.89961900  0.89962100  0.79923900  1
  C  C4  1  0.10038100  0.10038100  0.20076100  1
  C  C5  1  0.39117800  0.89117900  0.78235600  1
  C  C6  1  0.89117900  0.39117700  0.78235600  1
  C  C7  1  0.60882000  0.10882300  0.21764300  1
  C  C8  1  0.10882200  0.60882100  0.21764300  1
  C  C9  1  0.79336200  0.79336200  0.58672600  1
  C  C10  1  0.00000000  0.00000000  0.00000000  1
  C  C11  1  0.20663800  0.20663700  0.41327400  1
