# generated using pymatgen
data_Cu4Ni3C17
_symmetry_space_group_name_H-M   'P 1'
_cell_length_a   10.89922325
_cell_length_b   10.89922325
_cell_length_c   7.08015300
_cell_angle_alpha   90.00000000
_cell_angle_beta   90.00000000
_cell_angle_gamma   119.99999545
_symmetry_Int_Tables_number   1
_chemical_formula_structural   Cu4Ni3C17
_chemical_formula_sum   'Cu8 Ni6 C34'
_cell_volume   728.39069835
_cell_formula_units_Z   2
loop_
 _symmetry_equiv_pos_site_id
 _symmetry_equiv_pos_as_xyz
  1  'x, y, z'
loop_
 _atom_site_type_symbol
 _atom_site_label
 _atom_site_symmetry_multiplicity
 _atom_site_fract_x
 _atom_site_fract_y
 _atom_site_fract_z
 _atom_site_occupancy
  Ni  Ni0  1  0.13788100  0.86211900  0.99424600  1
  Ni  Ni1  1  0.13788100  0.27576200  0.99424600  1
  Ni  Ni2  1  0.72423800  0.86211900  0.99424600  1
  Ni  Ni3  1  0.86211900  0.13788100  0.49424600  1
  Ni  Ni4  1  0.86211900  0.72423800  0.49424600  1
  Ni  Ni5  1  0.27576200  0.13788100  0.49424600  1
  Cu  Cu6  1  0.66666700  0.33333300  0.26602300  1
  Cu  Cu7  1  0.33333300  0.66666700  0.76602300  1
  Cu  Cu8  1  0.53492100  0.06984100  0.83707600  1
  Cu  Cu9  1  0.93015900  0.46507900  0.83707600  1
  Cu  Cu10  1  0.53492100  0.46507900  0.83707600  1
  Cu  Cu11  1  0.46507900  0.93015900  0.33707600  1
  Cu  Cu12  1  0.06984100  0.53492100  0.33707600  1
  Cu  Cu13  1  0.46507900  0.53492100  0.33707600  1
  C  C14  1  0.37538900  0.18769400  0.05625000  1
  C  C15  1  0.81230600  0.18769400  0.05625000  1
  C  C16  1  0.81230600  0.62461100  0.05625000  1
  C  C17  1  0.62461100  0.81230600  0.55625000  1
  C  C18  1  0.18769400  0.81230600  0.55625000  1
  C  C19  1  0.18769400  0.37538900  0.55625000  1
  C  C20  1  0.32227600  0.16113800  0.87338000  1
  C  C21  1  0.83886200  0.16113800  0.87338000  1
  C  C22  1  0.83886200  0.67772400  0.87338000  1
  C  C23  1  0.67772400  0.83886200  0.37338000  1
  C  C24  1  0.16113800  0.83886200  0.37338000  1
  C  C25  1  0.16113800  0.32227600  0.37338000  1
  C  C26  1  0.40193500  0.31080100  0.14923000  1
  C  C27  1  0.68919900  0.09113400  0.14923000  1
  C  C28  1  0.90886600  0.59806500  0.14923000  1
  C  C29  1  0.68919900  0.59806500  0.14923000  1
  C  C30  1  0.90886600  0.31080100  0.14923000  1
  C  C31  1  0.40193500  0.09113400  0.14923000  1
  C  C32  1  0.59806500  0.68919900  0.64923000  1
  C  C33  1  0.31080100  0.90886600  0.64923000  1
  C  C34  1  0.09113400  0.40193500  0.64923000  1
  C  C35  1  0.31080100  0.40193500  0.64923000  1
  C  C36  1  0.09113400  0.68919900  0.64923000  1
  C  C37  1  0.59806500  0.90886600  0.64923000  1
  C  C38  1  0.00000000  0.00000000  0.12698500  1
  C  C39  1  0.00000000  0.00000000  0.62698500  1
  C  C40  1  0.66666700  0.33333300  0.91429300  1
  C  C41  1  0.33333300  0.66666700  0.41429300  1
  C  C42  1  0.57750100  0.15500200  0.51258900  1
  C  C43  1  0.84499800  0.42249900  0.51258900  1
  C  C44  1  0.57750100  0.42249900  0.51258900  1
  C  C45  1  0.42249900  0.84499800  0.01258900  1
  C  C46  1  0.15500200  0.57750100  0.01258900  1
  C  C47  1  0.42249900  0.57750100  0.01258900  1
