# generated using pymatgen
data_Cu8NiC20
_symmetry_space_group_name_H-M   'P 1'
_cell_length_a   10.53379715
_cell_length_b   12.89487583
_cell_length_c   3.62704900
_cell_angle_alpha   90.00000000
_cell_angle_beta   90.00000000
_cell_angle_gamma   91.04245975
_symmetry_Int_Tables_number   1
_chemical_formula_structural   Cu8NiC20
_chemical_formula_sum   'Cu8 Ni1 C20'
_cell_volume   492.58779948
_cell_formula_units_Z   1
loop_
 _symmetry_equiv_pos_site_id
 _symmetry_equiv_pos_as_xyz
  1  'x, y, z'
loop_
 _atom_site_type_symbol
 _atom_site_label
 _atom_site_symmetry_multiplicity
 _atom_site_fract_x
 _atom_site_fract_y
 _atom_site_fract_z
 _atom_site_occupancy
  C  C0  1  0.22444300  0.35126000  0.75000000  1
  C  C1  1  0.23609200  0.85027900  0.25000000  1
  C  C2  1  0.75901500  0.17850200  0.75000000  1
  C  C3  1  0.74891300  0.64573700  0.25000000  1
  Ni  Ni4  1  0.46268100  0.74505100  0.75000000  1
  Cu  Cu5  1  0.06922400  0.61436600  0.75000000  1
  Cu  Cu6  1  0.07090000  0.11120600  0.75000000  1
  Cu  Cu7  1  0.40213500  0.57442400  0.25000000  1
  Cu  Cu8  1  0.42196700  0.13875100  0.25000000  1
  Cu  Cu9  1  0.60617500  0.93996900  0.75000000  1
  Cu  Cu10  1  0.57369400  0.39183400  0.75000000  1
  Cu  Cu11  1  0.91970200  0.89970600  0.25000000  1
  Cu  Cu12  1  0.91853200  0.40538400  0.25000000  1
  C  C13  1  0.01795200  0.72273300  0.25000000  1
  C  C14  1  0.07397200  0.93433100  0.75000000  1
  C  C15  1  0.11566500  0.49283200  0.25000000  1
  C  C16  1  0.19543900  0.17307800  0.25000000  1
  C  C17  1  0.29563300  0.66126000  0.75000000  1
  C  C18  1  0.40934900  0.89247600  0.75000000  1
  C  C19  1  0.40287100  0.40993000  0.25000000  1
  C  C20  1  0.49778600  0.23189200  0.75000000  1
  C  C21  1  0.51878600  0.72786100  0.25000000  1
  C  C22  1  0.56631700  0.55940500  0.75000000  1
  C  C23  1  0.62767600  0.04462000  0.25000000  1
  C  C24  1  0.71136100  0.34579000  0.25000000  1
  C  C25  1  0.78268300  0.84655600  0.75000000  1
  C  C26  1  0.87471800  0.52898800  0.75000000  1
  C  C27  1  0.92404800  0.08009500  0.25000000  1
  C  C28  1  0.97226800  0.29855700  0.75000000  1
