# generated using pymatgen
data_Cu3Ni2C11
_symmetry_space_group_name_H-M   'P 1'
_cell_length_a   7.63653767
_cell_length_b   7.63653767
_cell_length_c   9.11978935
_cell_angle_alpha   67.60511952
_cell_angle_beta   67.60511952
_cell_angle_gamma   69.82590010
_symmetry_Int_Tables_number   1
_chemical_formula_structural   Cu3Ni2C11
_chemical_formula_sum   'Cu6 Ni4 C22'
_cell_volume   442.05679463
_cell_formula_units_Z   2
loop_
 _symmetry_equiv_pos_site_id
 _symmetry_equiv_pos_as_xyz
  1  'x, y, z'
loop_
 _atom_site_type_symbol
 _atom_site_label
 _atom_site_symmetry_multiplicity
 _atom_site_fract_x
 _atom_site_fract_y
 _atom_site_fract_z
 _atom_site_occupancy
  Ni  Ni0  1  0.21441400  0.28559600  0.43313700  1
  Ni  Ni1  1  0.71440400  0.78558600  0.06686300  1
  Ni  Ni2  1  0.78558600  0.71440400  0.56686300  1
  Ni  Ni3  1  0.28559600  0.21441400  0.93313700  1
  Cu  Cu4  1  0.00897700  0.63144800  0.24662100  1
  Cu  Cu5  1  0.36855200  0.99102300  0.25337900  1
  Cu  Cu6  1  0.99102300  0.36855200  0.75337900  1
  Cu  Cu7  1  0.63144800  0.00897700  0.74662100  1
  Cu  Cu8  1  0.38579800  0.61420200  0.25000000  1
  Cu  Cu9  1  0.61420200  0.38579800  0.75000000  1
  C  C10  1  0.81152600  0.18847400  0.25000000  1
  C  C11  1  0.18847400  0.81152600  0.75000000  1
  C  C12  1  0.91871800  0.68748500  0.10998300  1
  C  C13  1  0.31251500  0.08128200  0.39001700  1
  C  C14  1  0.08128200  0.31251500  0.89001700  1
  C  C15  1  0.68748500  0.91871800  0.60998300  1
  C  C16  1  0.04416800  0.41282600  0.33920900  1
  C  C17  1  0.58717400  0.95583200  0.16079100  1
  C  C18  1  0.95583200  0.58717400  0.66079100  1
  C  C19  1  0.41282600  0.04416800  0.83920900  1
  C  C20  1  0.90140800  0.75085200  0.37032200  1
  C  C21  1  0.24914800  0.09859200  0.12967800  1
  C  C22  1  0.09859200  0.24914800  0.62967800  1
  C  C23  1  0.75085200  0.90140800  0.87032200  1
  C  C24  1  0.22368400  0.67917000  0.15442100  1
  C  C25  1  0.32083000  0.77631600  0.34557900  1
  C  C26  1  0.77631600  0.32083000  0.84557900  1
  C  C27  1  0.67917000  0.22368400  0.65442100  1
  C  C28  1  0.36964000  0.41995000  0.37676400  1
  C  C29  1  0.58005000  0.63036000  0.12323600  1
  C  C30  1  0.63036000  0.58005000  0.62323600  1
  C  C31  1  0.41995000  0.36964000  0.87676400  1
