# generated using pymatgen
data_Cu4NiC
_symmetry_space_group_name_H-M   'P 1'
_cell_length_a   6.97273908
_cell_length_b   6.97273908
_cell_length_c   9.93231600
_cell_angle_alpha   79.00572739
_cell_angle_beta   79.00572739
_cell_angle_gamma   50.26547043
_symmetry_Int_Tables_number   1
_chemical_formula_structural   Cu4NiC
_chemical_formula_sum   'Cu8 Ni2 C2'
_cell_volume   363.02418604
_cell_formula_units_Z   2
loop_
 _symmetry_equiv_pos_site_id
 _symmetry_equiv_pos_as_xyz
  1  'x, y, z'
loop_
 _atom_site_type_symbol
 _atom_site_label
 _atom_site_symmetry_multiplicity
 _atom_site_fract_x
 _atom_site_fract_y
 _atom_site_fract_z
 _atom_site_occupancy
  C  C0  1  0.50000000  0.00000000  0.50000000  1
  C  C1  1  0.00000000  0.50000000  0.00000000  1
  Ni  Ni2  1  0.72956500  0.27043500  0.75000000  1
  Ni  Ni3  1  0.27043500  0.72956500  0.25000000  1
  Cu  Cu4  1  0.68715500  0.77413400  0.85479500  1
  Cu  Cu5  1  0.31284500  0.22586600  0.14520500  1
  Cu  Cu6  1  0.22586600  0.31284500  0.64520500  1
  Cu  Cu7  1  0.77413400  0.68715500  0.35479500  1
  Cu  Cu8  1  0.29384500  0.83617600  0.56961400  1
  Cu  Cu9  1  0.70615500  0.16382400  0.43038600  1
  Cu  Cu10  1  0.16382400  0.70615500  0.93038600  1
  Cu  Cu11  1  0.83617600  0.29384500  0.06961400  1
