# generated using pymatgen
data_Cu3Ni3C7
_symmetry_space_group_name_H-M   'P 1'
_cell_length_a   7.24803859
_cell_length_b   7.24803859
_cell_length_c   7.24803788
_cell_angle_alpha   103.80513496
_cell_angle_beta   103.80513496
_cell_angle_gamma   103.80513980
_symmetry_Int_Tables_number   1
_chemical_formula_structural   Cu3Ni3C7
_chemical_formula_sum   'Cu6 Ni6 C14'
_cell_volume   340.99692481
_cell_formula_units_Z   2
loop_
 _symmetry_equiv_pos_site_id
 _symmetry_equiv_pos_as_xyz
  1  'x, y, z'
loop_
 _atom_site_type_symbol
 _atom_site_label
 _atom_site_symmetry_multiplicity
 _atom_site_fract_x
 _atom_site_fract_y
 _atom_site_fract_z
 _atom_site_occupancy
  C  C0  1  0.50000000  0.50000000  0.50000000  1
  C  C1  1  0.00000000  0.00000000  0.00000000  1
  Ni  Ni2  1  0.05145400  0.75000000  0.44854600  1
  Ni  Ni3  1  0.44854600  0.05145400  0.75000000  1
  Ni  Ni4  1  0.75000000  0.44854600  0.05145400  1
  Ni  Ni5  1  0.94854600  0.25000000  0.55145400  1
  Ni  Ni6  1  0.55145400  0.94854600  0.25000000  1
  Ni  Ni7  1  0.25000000  0.55145400  0.94854600  1
  Cu  Cu8  1  0.95439300  0.75000000  0.54560700  1
  Cu  Cu9  1  0.54560700  0.95439300  0.75000000  1
  Cu  Cu10  1  0.75000000  0.54560700  0.95439300  1
  Cu  Cu11  1  0.04560700  0.25000000  0.45439300  1
  Cu  Cu12  1  0.45439300  0.04560700  0.25000000  1
  Cu  Cu13  1  0.25000000  0.45439300  0.04560700  1
  C  C14  1  0.78668000  0.61457600  0.47820600  1
  C  C15  1  0.47820600  0.78668000  0.61457600  1
  C  C16  1  0.61457600  0.47820600  0.78668000  1
  C  C17  1  0.97820600  0.11457600  0.28668000  1
  C  C18  1  0.28668000  0.97820600  0.11457600  1
  C  C19  1  0.11457600  0.28668000  0.97820600  1
  C  C20  1  0.21332000  0.38542400  0.52179400  1
  C  C21  1  0.52179400  0.21332000  0.38542400  1
  C  C22  1  0.38542400  0.52179400  0.21332000  1
  C  C23  1  0.02179400  0.88542400  0.71332000  1
  C  C24  1  0.71332000  0.02179400  0.88542400  1
  C  C25  1  0.88542400  0.71332000  0.02179400  1
