# generated using pymatgen
data_Cu2Ni2C3
_symmetry_space_group_name_H-M   'P 1'
_cell_length_a   16.15571674
_cell_length_b   16.15571674
_cell_length_c   16.15571674
_cell_angle_alpha   165.60758697
_cell_angle_beta   165.60758697
_cell_angle_gamma   20.40818788
_symmetry_Int_Tables_number   1
_chemical_formula_structural   Cu2Ni2C3
_chemical_formula_sum   'Cu2 Ni2 C3'
_cell_volume   260.49036434
_cell_formula_units_Z   1
loop_
 _symmetry_equiv_pos_site_id
 _symmetry_equiv_pos_as_xyz
  1  'x, y, z'
loop_
 _atom_site_type_symbol
 _atom_site_label
 _atom_site_symmetry_multiplicity
 _atom_site_fract_x
 _atom_site_fract_y
 _atom_site_fract_z
 _atom_site_occupancy
  C  C0  1  0.59883400  0.59883400  0.00000000  1
  C  C1  1  0.42187000  0.42187000  0.00000000  1
  C  C2  1  0.00043300  0.00043300  0.00000000  1
  Ni  Ni3  1  0.14853300  0.14853300  0.00000000  1
  Ni  Ni4  1  0.87124400  0.87124400  0.00000000  1
  Cu  Cu5  1  0.46099300  0.96099300  0.50000000  1
  Cu  Cu6  1  0.96099300  0.46099300  0.50000000  1
