# generated using pymatgen
data_Cu3NiC16
_symmetry_space_group_name_H-M   'P 1'
_cell_length_a   9.98012454
_cell_length_b   9.98012454
_cell_length_c   9.98012428
_cell_angle_alpha   32.99552780
_cell_angle_beta   32.99552780
_cell_angle_gamma   32.99552717
_symmetry_Int_Tables_number   1
_chemical_formula_structural   Cu3NiC16
_chemical_formula_sum   'Cu3 Ni1 C16'
_cell_volume   262.34076064
_cell_formula_units_Z   1
loop_
 _symmetry_equiv_pos_site_id
 _symmetry_equiv_pos_as_xyz
  1  'x, y, z'
loop_
 _atom_site_type_symbol
 _atom_site_label
 _atom_site_symmetry_multiplicity
 _atom_site_fract_x
 _atom_site_fract_y
 _atom_site_fract_z
 _atom_site_occupancy
  C  C0  1  0.25935600  0.25935600  0.25935600  1
  Ni  Ni1  1  0.87902800  0.87902800  0.87902800  1
  Cu  Cu2  1  0.38562300  0.38562300  0.38562300  1
  Cu  Cu3  1  0.63359700  0.63359700  0.63359700  1
  Cu  Cu4  1  0.13693700  0.13693700  0.13693700  1
  C  C5  1  0.74393600  0.74393600  0.74393600  1
  C  C6  1  0.99301500  0.99301500  0.99301500  1
  C  C7  1  0.49345800  0.49345800  0.49345800  1
  C  C8  1  0.80045200  0.75398800  0.24771300  1
  C  C9  1  0.35076800  0.20584300  0.75080400  1
  C  C10  1  0.75398800  0.24771300  0.80045200  1
  C  C11  1  0.20584300  0.75080400  0.35076800  1
  C  C12  1  0.24771300  0.80045200  0.75398800  1
  C  C13  1  0.75080400  0.35076800  0.20584300  1
  C  C14  1  0.07359700  0.51934900  0.95190800  1
  C  C15  1  0.58398800  0.00488400  0.46369700  1
  C  C16  1  0.51934900  0.95190800  0.07359700  1
  C  C17  1  0.00488400  0.46369700  0.58398800  1
  C  C18  1  0.95190800  0.07359700  0.51934900  1
  C  C19  1  0.46369700  0.58398800  0.00488400  1
