# generated using pymatgen
data_Cu21(NiC)2
_symmetry_space_group_name_H-M   'P 1'
_cell_length_a   6.89364940
_cell_length_b   6.89364940
_cell_length_c   20.60028713
_cell_angle_alpha   78.85821903
_cell_angle_beta   78.85821903
_cell_angle_gamma   69.16036930
_symmetry_Int_Tables_number   1
_chemical_formula_structural   Cu21(NiC)2
_chemical_formula_sum   'Cu42 Ni4 C4'
_cell_volume   889.37408692
_cell_formula_units_Z   2
loop_
 _symmetry_equiv_pos_site_id
 _symmetry_equiv_pos_as_xyz
  1  'x, y, z'
loop_
 _atom_site_type_symbol
 _atom_site_label
 _atom_site_symmetry_multiplicity
 _atom_site_fract_x
 _atom_site_fract_y
 _atom_site_fract_z
 _atom_site_occupancy
  C  C0  1  0.50000000  0.50000000  0.00000000  1
  C  C1  1  0.50000000  0.50000000  0.50000000  1
  C  C2  1  0.21429400  0.78570600  0.25000000  1
  C  C3  1  0.78570600  0.21429400  0.75000000  1
  Ni  Ni4  1  0.04717800  0.31679400  0.29340000  1
  Ni  Ni5  1  0.68320600  0.95282200  0.20660000  1
  Ni  Ni6  1  0.95282200  0.68320600  0.70660000  1
  Ni  Ni7  1  0.31679400  0.04717800  0.79340000  1
  Cu  Cu8  1  0.82328500  0.39963700  0.32265400  1
  Cu  Cu9  1  0.60036300  0.17671500  0.17734600  1
  Cu  Cu10  1  0.17671500  0.60036300  0.67734600  1
  Cu  Cu11  1  0.39963700  0.82328500  0.82265400  1
  Cu  Cu12  1  0.11303900  0.49272900  0.25103400  1
  Cu  Cu13  1  0.50727100  0.88696100  0.24896600  1
  Cu  Cu14  1  0.88696100  0.50727100  0.74896600  1
  Cu  Cu15  1  0.49272900  0.11303900  0.75103400  1
  Cu  Cu16  1  0.08027200  0.16202900  0.24781400  1
  Cu  Cu17  1  0.83797100  0.91972800  0.25218600  1
  Cu  Cu18  1  0.91972800  0.83797100  0.75218600  1
  Cu  Cu19  1  0.16202900  0.08027200  0.74781400  1
  Cu  Cu20  1  0.16965900  0.22550100  0.34947900  1
  Cu  Cu21  1  0.77449900  0.83034100  0.15052100  1
  Cu  Cu22  1  0.83034100  0.77449900  0.65052100  1
  Cu  Cu23  1  0.22550100  0.16965900  0.84947900  1
  Cu  Cu24  1  0.18120000  0.74217800  0.34028700  1
  Cu  Cu25  1  0.25782200  0.81880000  0.15971300  1
  Cu  Cu26  1  0.81880000  0.25782200  0.65971300  1
  Cu  Cu27  1  0.74217800  0.18120000  0.84028700  1
  Cu  Cu28  1  0.51287000  0.48713000  0.25000000  1
  Cu  Cu29  1  0.48713000  0.51287000  0.75000000  1
  Cu  Cu30  1  0.60905200  0.19543400  0.52136900  1
  Cu  Cu31  1  0.80456600  0.39094800  0.97863100  1
  Cu  Cu32  1  0.39094800  0.80456600  0.47863100  1
  Cu  Cu33  1  0.19543400  0.60905200  0.02136900  1
  Cu  Cu34  1  0.22994100  0.43422800  0.46174800  1
  Cu  Cu35  1  0.56577200  0.77005900  0.03825200  1
  Cu  Cu36  1  0.77005900  0.56577200  0.53825200  1
  Cu  Cu37  1  0.43422800  0.22994100  0.96174800  1
  Cu  Cu38  1  0.44787000  0.18772900  0.57872600  1
  Cu  Cu39  1  0.81227100  0.55213000  0.92127400  1
  Cu  Cu40  1  0.55213000  0.81227100  0.42127400  1
  Cu  Cu41  1  0.18772900  0.44787000  0.07872600  1
  Cu  Cu42  1  0.56482800  0.98931700  0.39927200  1
  Cu  Cu43  1  0.01068300  0.43517200  0.10072800  1
  Cu  Cu44  1  0.43517200  0.01068300  0.60072800  1
  Cu  Cu45  1  0.98931700  0.56482800  0.89927200  1
  Cu  Cu46  1  0.17019500  0.28053800  0.47409700  1
  Cu  Cu47  1  0.71946200  0.82980500  0.02590300  1
  Cu  Cu48  1  0.82980500  0.71946200  0.52590300  1
  Cu  Cu49  1  0.28053800  0.17019500  0.97409700  1
