# generated using pymatgen
data_Cu4NiC11
_symmetry_space_group_name_H-M   'P 1'
_cell_length_a   7.33303200
_cell_length_b   7.33303200
_cell_length_c   14.90616100
_cell_angle_alpha   90.00000000
_cell_angle_beta   90.00000000
_cell_angle_gamma   90.00000000
_symmetry_Int_Tables_number   1
_chemical_formula_structural   Cu4NiC11
_chemical_formula_sum   'Cu16 Ni4 C44'
_cell_volume   801.55433652
_cell_formula_units_Z   4
loop_
 _symmetry_equiv_pos_site_id
 _symmetry_equiv_pos_as_xyz
  1  'x, y, z'
loop_
 _atom_site_type_symbol
 _atom_site_label
 _atom_site_symmetry_multiplicity
 _atom_site_fract_x
 _atom_site_fract_y
 _atom_site_fract_z
 _atom_site_occupancy
  Ni  Ni0  1  0.25000000  0.75000000  0.50000000  1
  Ni  Ni1  1  0.75000000  0.25000000  0.50000000  1
  Ni  Ni2  1  0.75000000  0.25000000  0.00000000  1
  Ni  Ni3  1  0.25000000  0.75000000  0.00000000  1
  C  C4  1  0.25000000  0.25000000  0.56880400  1
  C  C5  1  0.75000000  0.75000000  0.93119600  1
  C  C6  1  0.75000000  0.75000000  0.43119600  1
  C  C7  1  0.25000000  0.25000000  0.06880400  1
  Cu  Cu8  1  0.91230500  0.49155100  0.64488900  1
  Cu  Cu9  1  0.58769500  0.00844900  0.64488900  1
  Cu  Cu10  1  0.99155100  0.41230500  0.85511100  1
  Cu  Cu11  1  0.49155100  0.58769500  0.64488900  1
  Cu  Cu12  1  0.00844900  0.91230500  0.64488900  1
  Cu  Cu13  1  0.08769500  0.99155100  0.85511100  1
  Cu  Cu14  1  0.41230500  0.50844900  0.85511100  1
  Cu  Cu15  1  0.50844900  0.08769500  0.85511100  1
  Cu  Cu16  1  0.08769500  0.50844900  0.35511100  1
  Cu  Cu17  1  0.41230500  0.99155100  0.35511100  1
  Cu  Cu18  1  0.00844900  0.58769500  0.14488900  1
  Cu  Cu19  1  0.50844900  0.41230500  0.35511100  1
  Cu  Cu20  1  0.99155100  0.08769500  0.35511100  1
  Cu  Cu21  1  0.91230500  0.00844900  0.14488900  1
  Cu  Cu22  1  0.58769500  0.49155100  0.14488900  1
  Cu  Cu23  1  0.49155100  0.91230500  0.14488900  1
  C  C24  1  0.98220000  0.33684200  0.57540300  1
  C  C25  1  0.51780000  0.16315800  0.57540300  1
  C  C26  1  0.83684200  0.48220000  0.92459700  1
  C  C27  1  0.33684200  0.51780000  0.57540300  1
  C  C28  1  0.16315800  0.98220000  0.57540300  1
  C  C29  1  0.01780000  0.83684200  0.92459700  1
  C  C30  1  0.48220000  0.66315800  0.92459700  1
  C  C31  1  0.66315800  0.01780000  0.92459700  1
  C  C32  1  0.01780000  0.66315800  0.42459700  1
  C  C33  1  0.48220000  0.83684200  0.42459700  1
  C  C34  1  0.16315800  0.51780000  0.07540300  1
  C  C35  1  0.66315800  0.48220000  0.42459700  1
  C  C36  1  0.83684200  0.01780000  0.42459700  1
  C  C37  1  0.98220000  0.16315800  0.07540300  1
  C  C38  1  0.51780000  0.33684200  0.07540300  1
  C  C39  1  0.00076500  0.30771500  0.37520300  1
  C  C40  1  0.33684200  0.98220000  0.07540300  1
  C  C41  1  0.50076500  0.80771500  0.62479700  1
  C  C42  1  0.19228500  0.49923500  0.87520300  1
  C  C43  1  0.69228500  0.50076500  0.62479700  1
  C  C44  1  0.80771500  0.99923500  0.62479700  1
  C  C45  1  0.00076500  0.19228500  0.87520300  1
  C  C46  1  0.49923500  0.30771500  0.87520300  1
  C  C47  1  0.30771500  0.00076500  0.87520300  1
  C  C48  1  0.44576200  0.94576200  0.25000000  1
  C  C49  1  0.55423800  0.44576200  0.25000000  1
  C  C50  1  0.94576200  0.05423900  0.25000000  1
  C  C51  1  0.05423900  0.55423800  0.25000000  1
  C  C52  1  0.55423800  0.05423900  0.75000000  1
  C  C53  1  0.44576200  0.55423800  0.75000000  1
  C  C54  1  0.05423900  0.94576200  0.75000000  1
  C  C55  1  0.94576200  0.44576200  0.75000000  1
  C  C56  1  0.69228500  0.99923500  0.12479700  1
  C  C57  1  0.50076500  0.69228500  0.12479700  1
  C  C58  1  0.99923500  0.80771500  0.12479700  1
  C  C59  1  0.19228500  0.00076500  0.37520300  1
  C  C60  1  0.30771500  0.49923500  0.37520300  1
  C  C61  1  0.80771500  0.50076500  0.12479700  1
  C  C62  1  0.49923500  0.19228500  0.37520300  1
  C  C63  1  0.99923500  0.69228500  0.62479700  1
