# generated using pymatgen
data_Cu2Ni6C31
_symmetry_space_group_name_H-M   'P 1'
_cell_length_a   8.43544080
_cell_length_b   8.44474269
_cell_length_c   7.37592966
_cell_angle_alpha   90.37627218
_cell_angle_beta   89.98690215
_cell_angle_gamma   119.85499509
_symmetry_Int_Tables_number   1
_chemical_formula_structural   Cu2Ni6C31
_chemical_formula_sum   'Cu2 Ni6 C31'
_cell_volume   455.68243761
_cell_formula_units_Z   1
loop_
 _symmetry_equiv_pos_site_id
 _symmetry_equiv_pos_as_xyz
  1  'x, y, z'
loop_
 _atom_site_type_symbol
 _atom_site_label
 _atom_site_symmetry_multiplicity
 _atom_site_fract_x
 _atom_site_fract_y
 _atom_site_fract_z
 _atom_site_occupancy
  C  C0  1  0.00000000  0.00000000  0.00000000  1
  C  C1  1  0.88701900  0.22472700  0.82317400  1
  C  C2  1  0.33849500  0.11419700  0.82385500  1
  C  C3  1  0.77594700  0.66202200  0.82246400  1
  C  C4  1  0.11298100  0.77527300  0.17682600  1
  C  C5  1  0.66150500  0.88580300  0.17614500  1
  C  C6  1  0.22405300  0.33797800  0.17753600  1
  C  C7  1  0.10329400  0.43623700  0.66700500  1
  C  C8  1  0.33308600  0.89655500  0.66794800  1
  C  C9  1  0.56310500  0.66670700  0.66670600  1
  C  C10  1  0.89670600  0.56376300  0.33299500  1
  C  C11  1  0.66691400  0.10344500  0.33205200  1
  C  C12  1  0.43689500  0.33329300  0.33329400  1
  C  C13  1  0.25916300  0.42573200  0.82630800  1
  C  C14  1  0.16681000  0.74223900  0.82653100  1
  C  C15  1  0.57492100  0.83336500  0.82713700  1
  C  C16  1  0.74083700  0.57426800  0.17369200  1
  C  C17  1  0.83319000  0.25776100  0.17346900  1
  C  C18  1  0.42507900  0.16663500  0.17286300  1
  C  C19  1  0.18956800  0.28311500  0.62757900  1
  C  C20  1  0.09388300  0.81110800  0.62888000  1
  C  C21  1  0.71629600  0.90504300  0.62937700  1
  C  C22  1  0.81043200  0.71688500  0.37242100  1
  C  C23  1  0.90611700  0.18889200  0.37112000  1
  C  C24  1  0.28370400  0.09495700  0.37062300  1
  Ni  Ni25  1  0.14546000  0.34631900  0.73221900  1
  Ni  Ni26  1  0.20106600  0.85520400  0.73298200  1
  Ni  Ni27  1  0.65351700  0.79840200  0.73295200  1
  Ni  Ni28  1  0.85454000  0.65368100  0.26778100  1
  Ni  Ni29  1  0.79893400  0.14479600  0.26701800  1
  Ni  Ni30  1  0.34648300  0.20159800  0.26704800  1
  Cu  Cu31  1  0.66645700  0.33285900  0.76155900  1
  Cu  Cu32  1  0.33354300  0.66714100  0.23844100  1
  C  C33  1  0.99328900  0.20455600  0.83005400  1
  C  C34  1  0.21239800  0.00840800  0.83295700  1
  C  C35  1  0.79542500  0.78777200  0.83210100  1
  C  C36  1  0.00671100  0.79544400  0.16994600  1
  C  C37  1  0.78760200  0.99159200  0.16704300  1
  C  C38  1  0.20457500  0.21222800  0.16789900  1
