# generated using pymatgen
data_Cu2Ni15C2
_symmetry_space_group_name_H-M   'P 1'
_cell_length_a   6.43274120
_cell_length_b   6.43274120
_cell_length_c   6.43274058
_cell_angle_alpha   81.82047537
_cell_angle_beta   81.82047537
_cell_angle_gamma   81.82047711
_symmetry_Int_Tables_number   1
_chemical_formula_structural   Cu2Ni15C2
_chemical_formula_sum   'Cu2 Ni15 C2'
_cell_volume   258.76869578
_cell_formula_units_Z   1
loop_
 _symmetry_equiv_pos_site_id
 _symmetry_equiv_pos_as_xyz
  1  'x, y, z'
loop_
 _atom_site_type_symbol
 _atom_site_label
 _atom_site_symmetry_multiplicity
 _atom_site_fract_x
 _atom_site_fract_y
 _atom_site_fract_z
 _atom_site_occupancy
  C  C0  1  0.65422500  0.65422500  0.65422500  1
  C  C1  1  0.34577500  0.34577500  0.34577500  1
  Ni  Ni2  1  0.00000000  0.00000000  0.50000000  1
  Ni  Ni3  1  0.00000000  0.50000000  0.00000000  1
  Ni  Ni4  1  0.50000000  0.00000000  0.00000000  1
  Ni  Ni5  1  0.28637900  0.71362100  0.00000000  1
  Ni  Ni6  1  0.71362100  0.00000000  0.28637900  1
  Ni  Ni7  1  0.00000000  0.28637900  0.71362100  1
  Ni  Ni8  1  0.28637900  0.00000000  0.71362100  1
  Ni  Ni9  1  0.00000000  0.71362100  0.28637900  1
  Ni  Ni10  1  0.71362100  0.28637900  0.00000000  1
  Ni  Ni11  1  0.33803300  0.33803300  0.84484300  1
  Ni  Ni12  1  0.33803300  0.84484300  0.33803300  1
  Ni  Ni13  1  0.84484300  0.33803300  0.33803300  1
  Ni  Ni14  1  0.66196700  0.66196700  0.15515700  1
  Ni  Ni15  1  0.66196700  0.15515700  0.66196700  1
  Ni  Ni16  1  0.15515700  0.66196700  0.66196700  1
  Cu  Cu17  1  0.89823900  0.89823900  0.89823900  1
  Cu  Cu18  1  0.10176100  0.10176100  0.10176100  1
