# generated using pymatgen
data_CuNiC
_symmetry_space_group_name_H-M   'P 1'
_cell_length_a   3.25341608
_cell_length_b   3.25341608
_cell_length_c   22.99897500
_cell_angle_alpha   90.00000000
_cell_angle_beta   90.00000000
_cell_angle_gamma   120.00000167
_symmetry_Int_Tables_number   1
_chemical_formula_structural   CuNiC
_chemical_formula_sum   'Cu2 Ni2 C2'
_cell_volume   210.82316251
_cell_formula_units_Z   2
loop_
 _symmetry_equiv_pos_site_id
 _symmetry_equiv_pos_as_xyz
  1  'x, y, z'
loop_
 _atom_site_type_symbol
 _atom_site_label
 _atom_site_symmetry_multiplicity
 _atom_site_fract_x
 _atom_site_fract_y
 _atom_site_fract_z
 _atom_site_occupancy
  C  C0  1  0.00000000  0.00000000  0.15042100  1
  C  C1  1  0.33333300  0.66666700  0.45144300  1
  Ni  Ni2  1  0.33333300  0.66666700  0.07655000  1
  Ni  Ni3  1  0.33333300  0.66666700  0.22431800  1
  Cu  Cu4  1  0.00000000  0.00000000  0.51883100  1
  Cu  Cu5  1  0.00000000  0.00000000  0.38404100  1
