# generated using pymatgen
data_Cu3NiC40
_symmetry_space_group_name_H-M   'P 1'
_cell_length_a   7.32779400
_cell_length_b   7.95256162
_cell_length_c   9.55393266
_cell_angle_alpha   90.08592673
_cell_angle_beta   111.51271744
_cell_angle_gamma   90.10605317
_symmetry_Int_Tables_number   1
_chemical_formula_structural   Cu3NiC40
_chemical_formula_sum   'Cu3 Ni1 C40'
_cell_volume   517.96504747
_cell_formula_units_Z   1
loop_
 _symmetry_equiv_pos_site_id
 _symmetry_equiv_pos_as_xyz
  1  'x, y, z'
loop_
 _atom_site_type_symbol
 _atom_site_label
 _atom_site_symmetry_multiplicity
 _atom_site_fract_x
 _atom_site_fract_y
 _atom_site_fract_z
 _atom_site_occupancy
  C  C0  1  0.70950800  0.52165800  0.70496200  1
  C  C1  1  0.29058800  0.02159600  0.79486200  1
  C  C2  1  0.29105000  0.47865000  0.29495400  1
  C  C3  1  0.70930300  0.97805700  0.20477200  1
  Ni  Ni4  1  0.26156000  0.00967400  0.24898700  1
  Cu  Cu5  1  0.73898200  0.50643500  0.25234200  1
  Cu  Cu6  1  0.73875700  0.99358200  0.75265400  1
  Cu  Cu7  1  0.26137900  0.49351700  0.74768000  1
  C  C8  1  0.67337500  0.28937600  0.95590900  1
  C  C9  1  0.32682700  0.79181700  0.54183900  1
  C  C10  1  0.32707600  0.71308400  0.04677700  1
  C  C11  1  0.66942800  0.20840200  0.45335800  1
  C  C12  1  0.07805400  0.24143400  0.95674300  1
  C  C13  1  0.92415400  0.74410900  0.54582900  1
  C  C14  1  0.92734200  0.75826600  0.04784700  1
  C  C15  1  0.07626000  0.25274700  0.45172300  1
  C  C16  1  0.88231600  0.34507300  0.94585300  1
  C  C17  1  0.11974000  0.84631300  0.55600600  1
  C  C18  1  0.11945200  0.65235700  0.05574000  1
  C  C19  1  0.87754700  0.15159600  0.44088500  1
  C  C20  1  0.68554100  0.29844000  0.11872300  1
  C  C21  1  0.31177100  0.80952300  0.37882700  1
  C  C22  1  0.31493800  0.70444600  0.88346700  1
  C  C23  1  0.68495900  0.20013900  0.61703500  1
  C  C24  1  0.63613500  0.10538500  0.90230600  1
  C  C25  1  0.36263200  0.60692800  0.59421200  1
  C  C26  1  0.35919100  0.89569800  0.10529900  1
  C  C27  1  0.63537300  0.39286900  0.40075900  1
  C  C28  1  0.01143400  0.08348300  0.85816000  1
  C  C29  1  0.98882500  0.58373100  0.64135100  1
  C  C30  1  0.00080100  0.91674700  0.14463000  1
  C  C31  1  0.01241400  0.41444700  0.35832100  1
  C  C32  1  0.19431200  0.20217500  0.12178300  1
  C  C33  1  0.80546300  0.71171300  0.37974200  1
  C  C34  1  0.80692900  0.79027900  0.88194900  1
  C  C35  1  0.19562600  0.28569800  0.61818900  1
  C  C36  1  0.19048600  0.36254300  0.89621800  1
  C  C37  1  0.81170900  0.86346200  0.60656400  1
  C  C38  1  0.81303900  0.63921600  0.10805800  1
  C  C39  1  0.18452600  0.13331300  0.38634700  1
  C  C40  1  0.53740800  0.41523600  0.84762700  1
  C  C41  1  0.46357400  0.91536900  0.65237600  1
  C  C42  1  0.46394500  0.58615300  0.15261600  1
  C  C43  1  0.52626900  0.08526500  0.34571600  1
