# generated using pymatgen
data_Cu14Ni3C
_symmetry_space_group_name_H-M   'P 1'
_cell_length_a   8.59525298
_cell_length_b   9.81058581
_cell_length_c   12.43801666
_cell_angle_alpha   113.11110969
_cell_angle_beta   130.29014916
_cell_angle_gamma   52.62793534
_symmetry_Int_Tables_number   1
_chemical_formula_structural   Cu14Ni3C
_chemical_formula_sum   'Cu28 Ni6 C2'
_cell_volume   635.78869594
_cell_formula_units_Z   2
loop_
 _symmetry_equiv_pos_site_id
 _symmetry_equiv_pos_as_xyz
  1  'x, y, z'
loop_
 _atom_site_type_symbol
 _atom_site_label
 _atom_site_symmetry_multiplicity
 _atom_site_fract_x
 _atom_site_fract_y
 _atom_site_fract_z
 _atom_site_occupancy
  C  C0  1  0.14834800  0.24113300  0.23664700  1
  C  C1  1  0.85165200  0.75886700  0.76335300  1
  Ni  Ni2  1  0.60422800  0.19589600  0.45445900  1
  Ni  Ni3  1  0.39577200  0.80410400  0.54554100  1
  Ni  Ni4  1  0.91269800  0.57477200  0.32298600  1
  Ni  Ni5  1  0.08730200  0.42522800  0.67701400  1
  Ni  Ni6  1  0.24850300  0.81446300  0.10534100  1
  Ni  Ni7  1  0.75149700  0.18553700  0.89465900  1
  Cu  Cu8  1  0.79774800  0.18090000  0.54639400  1
  Cu  Cu9  1  0.20225200  0.81910000  0.45360600  1
  Cu  Cu10  1  0.45568200  0.29621300  0.34456300  1
  Cu  Cu11  1  0.54431800  0.70378700  0.65543700  1
  Cu  Cu12  1  0.52923900  0.11578800  0.45579300  1
  Cu  Cu13  1  0.47076100  0.88421200  0.54420700  1
  Cu  Cu14  1  0.09680200  0.44312000  0.40875300  1
  Cu  Cu15  1  0.90319800  0.55688000  0.59124700  1
  Cu  Cu16  1  0.81518700  0.71520400  0.36469500  1
  Cu  Cu17  1  0.18481300  0.28479600  0.63530500  1
  Cu  Cu18  1  0.84457000  0.54156300  0.19197900  1
  Cu  Cu19  1  0.15543000  0.45843700  0.80802100  1
  Cu  Cu20  1  0.25279900  0.74527700  0.17196800  1
  Cu  Cu21  1  0.74720100  0.25472300  0.82803200  1
  Cu  Cu22  1  0.21760200  0.75906400  0.98393900  1
  Cu  Cu23  1  0.78239800  0.24093600  0.01606100  1
  Cu  Cu24  1  0.28093200  0.94367600  0.15534800  1
  Cu  Cu25  1  0.71906800  0.05632400  0.84465200  1
  Cu  Cu26  1  0.94331000  0.57799100  0.99152100  1
  Cu  Cu27  1  0.05669000  0.42200900  0.00847900  1
  Cu  Cu28  1  0.50226600  0.05975400  0.12459300  1
  Cu  Cu29  1  0.49773400  0.94024600  0.87540700  1
  Cu  Cu30  1  0.91839300  0.20857000  0.31133700  1
  Cu  Cu31  1  0.08160700  0.79143000  0.68866300  1
  Cu  Cu32  1  0.74744900  0.33934000  0.31171200  1
  Cu  Cu33  1  0.25255100  0.66066000  0.68828800  1
  Cu  Cu34  1  0.71284300  0.95081700  0.19487100  1
  Cu  Cu35  1  0.28715700  0.04918300  0.80512900  1
