# generated using pymatgen
data_Cu10Ni2C3
_symmetry_space_group_name_H-M   'P 1'
_cell_length_a   7.55622100
_cell_length_b   7.55622100
_cell_length_c   13.10224900
_cell_angle_alpha   90.00000000
_cell_angle_beta   90.00000000
_cell_angle_gamma   90.00000000
_symmetry_Int_Tables_number   1
_chemical_formula_structural   Cu10Ni2C3
_chemical_formula_sum   'Cu40 Ni8 C12'
_cell_volume   748.09224297
_cell_formula_units_Z   4
loop_
 _symmetry_equiv_pos_site_id
 _symmetry_equiv_pos_as_xyz
  1  'x, y, z'
loop_
 _atom_site_type_symbol
 _atom_site_label
 _atom_site_symmetry_multiplicity
 _atom_site_fract_x
 _atom_site_fract_y
 _atom_site_fract_z
 _atom_site_occupancy
  C  C0  1  0.61719300  0.38280700  0.75000000  1
  C  C1  1  0.38280700  0.61719300  0.25000000  1
  C  C2  1  0.88280700  0.88280700  0.00000000  1
  C  C3  1  0.11719300  0.11719300  0.50000000  1
  C  C4  1  0.59774300  0.15227500  0.99644800  1
  C  C5  1  0.40225700  0.84772500  0.49644800  1
  C  C6  1  0.65227500  0.90225700  0.24644800  1
  C  C7  1  0.34772500  0.09774300  0.74644800  1
  C  C8  1  0.84772500  0.40225700  0.50355200  1
  C  C9  1  0.15227500  0.59774300  0.00355200  1
  C  C10  1  0.90225700  0.65227500  0.75355200  1
  C  C11  1  0.09774300  0.34772500  0.25355200  1
  Ni  Ni12  1  0.75246200  0.50427200  0.12237400  1
  Ni  Ni13  1  0.24753800  0.49572800  0.62237400  1
  Ni  Ni14  1  0.00427200  0.74753800  0.37237400  1
  Ni  Ni15  1  0.99572800  0.25246200  0.87237400  1
  Ni  Ni16  1  0.49572800  0.24753800  0.37762600  1
  Ni  Ni17  1  0.50427200  0.75246200  0.87762600  1
  Ni  Ni18  1  0.74753800  0.00427200  0.62762600  1
  Ni  Ni19  1  0.25246200  0.99572800  0.12762600  1
  Cu  Cu20  1  0.64156500  0.39497800  0.05530400  1
  Cu  Cu21  1  0.35843500  0.60502200  0.55530400  1
  Cu  Cu22  1  0.89497800  0.85843500  0.30530400  1
  Cu  Cu23  1  0.10502200  0.14156500  0.80530400  1
  Cu  Cu24  1  0.60502200  0.35843500  0.44469600  1
  Cu  Cu25  1  0.39497800  0.64156500  0.94469600  1
  Cu  Cu26  1  0.85843500  0.89497800  0.69469600  1
  Cu  Cu27  1  0.14156500  0.10502200  0.19469600  1
  Cu  Cu28  1  0.87440400  0.61976200  0.06001600  1
  Cu  Cu29  1  0.12559600  0.38023800  0.56001600  1
  Cu  Cu30  1  0.11976200  0.62559600  0.31001600  1
  Cu  Cu31  1  0.88023800  0.37440400  0.81001600  1
  Cu  Cu32  1  0.38023800  0.12559600  0.43998400  1
  Cu  Cu33  1  0.61976200  0.87440400  0.93998400  1
  Cu  Cu34  1  0.62559600  0.11976200  0.68998400  1
  Cu  Cu35  1  0.37440400  0.88023800  0.18998400  1
  Cu  Cu36  1  0.72606300  0.99797700  0.10722900  1
  Cu  Cu37  1  0.27393700  0.00202300  0.60722900  1
  Cu  Cu38  1  0.49797700  0.77393700  0.35722900  1
  Cu  Cu39  1  0.50202300  0.22606300  0.85722900  1
  Cu  Cu40  1  0.00202300  0.27393700  0.39277100  1
  Cu  Cu41  1  0.99797700  0.72606300  0.89277100  1
  Cu  Cu42  1  0.77393700  0.49797700  0.64277100  1
  Cu  Cu43  1  0.22606300  0.50202300  0.14277100  1
  Cu  Cu44  1  0.63434700  0.62616100  0.18242300  1
  Cu  Cu45  1  0.36565300  0.37383900  0.68242300  1
  Cu  Cu46  1  0.12616100  0.86565300  0.43242300  1
  Cu  Cu47  1  0.87383900  0.13434700  0.93242300  1
  Cu  Cu48  1  0.37383900  0.36565300  0.31757700  1
  Cu  Cu49  1  0.62616100  0.63434700  0.81757700  1
  Cu  Cu50  1  0.86565300  0.12616100  0.56757700  1
  Cu  Cu51  1  0.13434700  0.87383900  0.06757700  1
  Cu  Cu52  1  0.85769500  0.39450400  0.19160000  1
  Cu  Cu53  1  0.14230500  0.60549600  0.69160000  1
  Cu  Cu54  1  0.89450400  0.64230500  0.44160000  1
  Cu  Cu55  1  0.10549600  0.35769500  0.94160000  1
  Cu  Cu56  1  0.60549600  0.14230500  0.30840000  1
  Cu  Cu57  1  0.39450400  0.85769500  0.80840000  1
  Cu  Cu58  1  0.64230500  0.89450400  0.55840000  1
  Cu  Cu59  1  0.35769500  0.10549600  0.05840000  1
