# generated using pymatgen
data_Cu6NiC6
_symmetry_space_group_name_H-M   'P 1'
_cell_length_a   7.26697900
_cell_length_b   7.57349200
_cell_length_c   10.15983200
_cell_angle_alpha   90.00000000
_cell_angle_beta   90.00000000
_cell_angle_gamma   90.00000000
_symmetry_Int_Tables_number   1
_chemical_formula_structural   Cu6NiC6
_chemical_formula_sum   'Cu24 Ni4 C24'
_cell_volume   559.16065226
_cell_formula_units_Z   4
loop_
 _symmetry_equiv_pos_site_id
 _symmetry_equiv_pos_as_xyz
  1  'x, y, z'
loop_
 _atom_site_type_symbol
 _atom_site_label
 _atom_site_symmetry_multiplicity
 _atom_site_fract_x
 _atom_site_fract_y
 _atom_site_fract_z
 _atom_site_occupancy
  C  C0  1  0.00000000  0.00000000  0.00000000  1
  C  C1  1  0.50000000  0.00000000  0.50000000  1
  C  C2  1  0.00000000  0.50000000  0.00000000  1
  C  C3  1  0.50000000  0.50000000  0.50000000  1
  C  C4  1  0.20888800  0.25000000  0.26684600  1
  C  C5  1  0.79111200  0.75000000  0.73315400  1
  C  C6  1  0.29111200  0.75000000  0.76684600  1
  C  C7  1  0.70888800  0.25000000  0.23315400  1
  C  C8  1  0.14224000  0.25000000  0.62728800  1
  C  C9  1  0.85776000  0.75000000  0.37271200  1
  C  C10  1  0.35776000  0.75000000  0.12728800  1
  C  C11  1  0.64224000  0.25000000  0.87271200  1
  C  C12  1  0.05231300  0.63915900  0.33647400  1
  C  C13  1  0.94768700  0.36084100  0.66352600  1
  C  C14  1  0.44768700  0.36084100  0.83647400  1
  C  C15  1  0.94768700  0.13915900  0.66352600  1
  C  C16  1  0.55231300  0.63915900  0.16352600  1
  C  C17  1  0.05231300  0.86084100  0.33647400  1
  C  C18  1  0.55231300  0.86084100  0.16352600  1
  C  C19  1  0.44768700  0.13915900  0.83647400  1
  C  C20  1  0.46730800  0.25000000  0.98197000  1
  C  C21  1  0.53269200  0.75000000  0.01803000  1
  C  C22  1  0.03269200  0.75000000  0.48197000  1
  C  C23  1  0.96730800  0.25000000  0.51803000  1
  Ni  Ni24  1  0.00112000  0.25000000  0.61824300  1
  Ni  Ni25  1  0.99888000  0.75000000  0.38175700  1
  Ni  Ni26  1  0.49888000  0.75000000  0.11824300  1
  Ni  Ni27  1  0.50112000  0.25000000  0.88175700  1
  Cu  Cu28  1  0.44033200  0.25000000  0.15517700  1
  Cu  Cu29  1  0.55966800  0.75000000  0.84482300  1
  Cu  Cu30  1  0.05966800  0.75000000  0.65517700  1
  Cu  Cu31  1  0.94033200  0.25000000  0.34482300  1
  Cu  Cu32  1  0.26842600  0.06220800  0.41627200  1
  Cu  Cu33  1  0.73157400  0.93779200  0.58372800  1
  Cu  Cu34  1  0.23157400  0.93779200  0.91627200  1
  Cu  Cu35  1  0.73157400  0.56220800  0.58372800  1
  Cu  Cu36  1  0.76842600  0.06220800  0.08372800  1
  Cu  Cu37  1  0.26842600  0.43779200  0.41627200  1
  Cu  Cu38  1  0.76842600  0.43779200  0.08372800  1
  Cu  Cu39  1  0.23157400  0.56220800  0.91627200  1
  Cu  Cu40  1  0.56069000  0.25000000  0.53577600  1
  Cu  Cu41  1  0.43931000  0.75000000  0.46422400  1
  Cu  Cu42  1  0.93931000  0.75000000  0.03577600  1
  Cu  Cu43  1  0.06069000  0.25000000  0.96422400  1
  Cu  Cu44  1  0.12794100  0.48908500  0.16856900  1
  Cu  Cu45  1  0.87205900  0.51091500  0.83143100  1
  Cu  Cu46  1  0.37205900  0.51091500  0.66856900  1
  Cu  Cu47  1  0.87205900  0.98908500  0.83143100  1
  Cu  Cu48  1  0.62794100  0.48908500  0.33143100  1
  Cu  Cu49  1  0.12794100  0.01091500  0.16856900  1
  Cu  Cu50  1  0.62794100  0.01091500  0.33143100  1
  Cu  Cu51  1  0.37205900  0.98908500  0.66856900  1
