# generated using pymatgen
data_Cu6Ni3C43
_symmetry_space_group_name_H-M   'P 1'
_cell_length_a   11.75801746
_cell_length_b   11.75801746
_cell_length_c   11.75801721
_cell_angle_alpha   96.25114867
_cell_angle_beta   96.25114867
_cell_angle_gamma   96.25114504
_symmetry_Int_Tables_number   1
_chemical_formula_structural   Cu6Ni3C43
_chemical_formula_sum   'Cu12 Ni6 C86'
_cell_volume   1594.24749935
_cell_formula_units_Z   2
loop_
 _symmetry_equiv_pos_site_id
 _symmetry_equiv_pos_as_xyz
  1  'x, y, z'
loop_
 _atom_site_type_symbol
 _atom_site_label
 _atom_site_symmetry_multiplicity
 _atom_site_fract_x
 _atom_site_fract_y
 _atom_site_fract_z
 _atom_site_occupancy
  Ni  Ni0  1  0.75000000  0.92134900  0.57865100  1
  Ni  Ni1  1  0.57865100  0.75000000  0.92134900  1
  Ni  Ni2  1  0.92134900  0.57865100  0.75000000  1
  Ni  Ni3  1  0.07865100  0.42134900  0.25000000  1
  Ni  Ni4  1  0.25000000  0.07865100  0.42134900  1
  Ni  Ni5  1  0.42134900  0.25000000  0.07865100  1
  C  C6  1  0.00000000  0.00000000  0.00000000  1
  C  C7  1  0.50000000  0.50000000  0.50000000  1
  Cu  Cu8  1  0.82241300  0.20407600  0.96501700  1
  Cu  Cu9  1  0.96501700  0.82241300  0.20407600  1
  Cu  Cu10  1  0.20407600  0.96501700  0.82241300  1
  Cu  Cu11  1  0.46501700  0.70407600  0.32241300  1
  Cu  Cu12  1  0.32241300  0.46501700  0.70407600  1
  Cu  Cu13  1  0.70407600  0.32241300  0.46501700  1
  Cu  Cu14  1  0.17758700  0.79592400  0.03498300  1
  Cu  Cu15  1  0.03498300  0.17758700  0.79592400  1
  Cu  Cu16  1  0.79592400  0.03498300  0.17758700  1
  Cu  Cu17  1  0.53498300  0.29592400  0.67758700  1
  Cu  Cu18  1  0.67758700  0.53498300  0.29592400  1
  Cu  Cu19  1  0.29592400  0.67758700  0.53498300  1
  C  C20  1  0.83332200  0.00734500  0.98969400  1
  C  C21  1  0.98969400  0.83332200  0.00734500  1
  C  C22  1  0.00734500  0.98969400  0.83332200  1
  C  C23  1  0.48969400  0.50734500  0.33332200  1
  C  C24  1  0.33332200  0.48969400  0.50734500  1
  C  C25  1  0.50734500  0.33332200  0.48969400  1
  C  C26  1  0.16667800  0.99265500  0.01030600  1
  C  C27  1  0.01030600  0.16667800  0.99265500  1
  C  C28  1  0.99265500  0.01030600  0.16667800  1
  C  C29  1  0.51030600  0.49265500  0.66667800  1
  C  C30  1  0.66667800  0.51030600  0.49265500  1
  C  C31  1  0.49265500  0.66667800  0.51030600  1
  C  C32  1  0.87000300  0.16542400  0.81262400  1
  C  C33  1  0.81262400  0.87000300  0.16542400  1
  C  C34  1  0.16542400  0.81262400  0.87000300  1
  C  C35  1  0.31262400  0.66542400  0.37000300  1
  C  C36  1  0.37000300  0.31262400  0.66542400  1
  C  C37  1  0.66542400  0.37000300  0.31262400  1
  C  C38  1  0.12999700  0.83457600  0.18737600  1
  C  C39  1  0.18737600  0.12999700  0.83457600  1
  C  C40  1  0.83457600  0.18737600  0.12999700  1
  C  C41  1  0.68737600  0.33457600  0.62999700  1
  C  C42  1  0.62999700  0.68737600  0.33457600  1
  C  C43  1  0.33457600  0.62999700  0.68737600  1
  C  C44  1  0.67325100  0.16595900  0.92725200  1
  C  C45  1  0.92725200  0.67325100  0.16595900  1
  C  C46  1  0.16595900  0.92725200  0.67325100  1
  C  C47  1  0.42725200  0.66595900  0.17325100  1
  C  C48  1  0.17325100  0.42725200  0.66595900  1
  C  C49  1  0.66595900  0.17325100  0.42725200  1
  C  C50  1  0.32674900  0.83404100  0.07274800  1
  C  C51  1  0.07274800  0.32674900  0.83404100  1
  C  C52  1  0.83404100  0.07274800  0.32674900  1
  C  C53  1  0.57274800  0.33404100  0.82674900  1
  C  C54  1  0.82674900  0.57274800  0.33404100  1
  C  C55  1  0.33404100  0.82674900  0.57274800  1
  C  C56  1  0.84468700  0.35450400  0.97682100  1
  C  C57  1  0.97682100  0.84468700  0.35450400  1
  C  C58  1  0.35450400  0.97682100  0.84468700  1
  C  C59  1  0.47682100  0.85450400  0.34468700  1
  C  C60  1  0.34468700  0.47682100  0.85450400  1
  C  C61  1  0.85450400  0.34468700  0.47682100  1
  C  C62  1  0.15531300  0.64549600  0.02317900  1
  C  C63  1  0.02317900  0.15531300  0.64549600  1
  C  C64  1  0.64549600  0.02317900  0.15531300  1
  C  C65  1  0.52317900  0.14549600  0.65531300  1
  C  C66  1  0.65531300  0.52317900  0.14549600  1
  C  C67  1  0.14549600  0.65531300  0.52317900  1
  C  C68  1  0.65203000  0.82163400  0.64319200  1
  C  C69  1  0.64319200  0.65203000  0.82163400  1
  C  C70  1  0.82163400  0.64319200  0.65203000  1
  C  C71  1  0.14319200  0.32163400  0.15203000  1
  C  C72  1  0.15203000  0.14319200  0.32163400  1
  C  C73  1  0.32163400  0.15203000  0.14319200  1
  C  C74  1  0.34797000  0.17836600  0.35680800  1
  C  C75  1  0.35680800  0.34797000  0.17836600  1
  C  C76  1  0.17836600  0.35680800  0.34797000  1
  C  C77  1  0.85680800  0.67836600  0.84797000  1
  C  C78  1  0.84797000  0.85680800  0.67836600  1
  C  C79  1  0.67836600  0.84797000  0.85680800  1
  C  C80  1  0.80258100  0.81427400  0.48557800  1
  C  C81  1  0.48557800  0.80258100  0.81427400  1
  C  C82  1  0.81427400  0.48557800  0.80258100  1
  C  C83  1  0.98557800  0.31427400  0.30258100  1
  C  C84  1  0.30258100  0.98557800  0.31427400  1
  C  C85  1  0.31427400  0.30258100  0.98557800  1
  C  C86  1  0.19741900  0.18572600  0.51442200  1
  C  C87  1  0.51442200  0.19741900  0.18572600  1
  C  C88  1  0.18572600  0.51442200  0.19741900  1
  C  C89  1  0.01442200  0.68572600  0.69741900  1
  C  C90  1  0.69741900  0.01442200  0.68572600  1
  C  C91  1  0.68572600  0.69741900  0.01442200  1
  C  C92  1  0.64986900  0.96955600  0.47869300  1
  C  C93  1  0.47869300  0.64986900  0.96955600  1
  C  C94  1  0.96955600  0.47869300  0.64986900  1
  C  C95  1  0.97869300  0.46955600  0.14986900  1
  C  C96  1  0.14986900  0.97869300  0.46955600  1
  C  C97  1  0.46955600  0.14986900  0.97869300  1
  C  C98  1  0.35013100  0.03044400  0.52130700  1
  C  C99  1  0.52130700  0.35013100  0.03044400  1
  C  C100  1  0.03044400  0.52130700  0.35013100  1
  C  C101  1  0.02130700  0.53044400  0.85013100  1
  C  C102  1  0.85013100  0.02130700  0.53044400  1
  C  C103  1  0.53044400  0.85013100  0.02130700  1
