# generated using pymatgen
data_CuNiC32
_symmetry_space_group_name_H-M   'P 1'
_cell_length_a   8.79813818
_cell_length_b   8.79813818
_cell_length_c   12.08435200
_cell_angle_alpha   90.00000000
_cell_angle_beta   90.00000000
_cell_angle_gamma   90.07015972
_symmetry_Int_Tables_number   1
_chemical_formula_structural   CuNiC32
_chemical_formula_sum   'Cu2 Ni2 C64'
_cell_volume   935.41557818
_cell_formula_units_Z   2
loop_
 _symmetry_equiv_pos_site_id
 _symmetry_equiv_pos_as_xyz
  1  'x, y, z'
loop_
 _atom_site_type_symbol
 _atom_site_label
 _atom_site_symmetry_multiplicity
 _atom_site_fract_x
 _atom_site_fract_y
 _atom_site_fract_z
 _atom_site_occupancy
  C  C0  1  0.23252600  0.23252600  0.50000000  1
  C  C1  1  0.76747400  0.76747400  0.50000000  1
  C  C2  1  0.73566700  0.26433300  0.00000000  1
  C  C3  1  0.26433300  0.73566700  0.00000000  1
  C  C4  1  0.35807100  0.64192900  0.50000000  1
  C  C5  1  0.64192900  0.35807100  0.50000000  1
  C  C6  1  0.85700700  0.85700700  0.00000000  1
  C  C7  1  0.14299300  0.14299300  0.00000000  1
  C  C8  1  0.18284600  0.18284600  0.25379400  1
  C  C9  1  0.81715400  0.81715400  0.25379400  1
  C  C10  1  0.68206700  0.31793300  0.75475000  1
  C  C11  1  0.31793300  0.68206700  0.75475000  1
  C  C12  1  0.81715400  0.81715400  0.74620600  1
  C  C13  1  0.18284600  0.18284600  0.74620600  1
  C  C14  1  0.31793300  0.68206700  0.24525000  1
  C  C15  1  0.68206700  0.31793300  0.24525000  1
  C  C16  1  0.40214200  0.40214200  0.29269000  1
  C  C17  1  0.59785800  0.59785800  0.29269000  1
  C  C18  1  0.90210100  0.09789900  0.79574100  1
  C  C19  1  0.09789900  0.90210100  0.79574100  1
  C  C20  1  0.59785800  0.59785800  0.70731000  1
  C  C21  1  0.40214200  0.40214200  0.70731000  1
  C  C22  1  0.09789900  0.90210100  0.20425900  1
  C  C23  1  0.90210100  0.09789900  0.20425900  1
  C  C24  1  0.46293100  0.14059900  0.32296700  1
  C  C25  1  0.53706900  0.85940100  0.32296700  1
  C  C26  1  0.96334300  0.36098500  0.82416200  1
  C  C27  1  0.03665700  0.63901500  0.82416200  1
  C  C28  1  0.53706900  0.85940100  0.67703300  1
  C  C29  1  0.46293100  0.14059900  0.67703300  1
  C  C30  1  0.03665700  0.63901500  0.17583800  1
  C  C31  1  0.96334300  0.36098500  0.17583800  1
  C  C32  1  0.85940100  0.53706900  0.32296700  1
  C  C33  1  0.14059900  0.46293100  0.32296700  1
  C  C34  1  0.63901500  0.03665700  0.82416200  1
  C  C35  1  0.36098500  0.96334300  0.82416200  1
  C  C36  1  0.14059900  0.46293100  0.67703300  1
  C  C37  1  0.85940100  0.53706900  0.67703300  1
  C  C38  1  0.36098500  0.96334300  0.17583800  1
  C  C39  1  0.63901500  0.03665700  0.17583800  1
  C  C40  1  0.50000000  0.50000000  0.10731500  1
  C  C41  1  0.00000000  0.00000000  0.61427100  1
  C  C42  1  0.50000000  0.50000000  0.89268500  1
  C  C43  1  0.00000000  0.00000000  0.38572900  1
  C  C44  1  0.27570600  0.93295900  0.37275400  1
  C  C45  1  0.72429400  0.06704100  0.37275400  1
  C  C46  1  0.77388000  0.56703600  0.87786700  1
  C  C47  1  0.22612000  0.43296400  0.87786700  1
  C  C48  1  0.72429400  0.06704100  0.62724600  1
  C  C49  1  0.27570600  0.93295900  0.62724600  1
  C  C50  1  0.22612000  0.43296400  0.12213300  1
  C  C51  1  0.77388000  0.56703600  0.12213300  1
  C  C52  1  0.06704100  0.72429400  0.37275400  1
  C  C53  1  0.93295900  0.27570600  0.37275400  1
  C  C54  1  0.43296400  0.22612000  0.87786700  1
  C  C55  1  0.56703600  0.77388000  0.87786700  1
  C  C56  1  0.93295900  0.27570600  0.62724600  1
  C  C57  1  0.06704100  0.72429400  0.62724600  1
  C  C58  1  0.56703600  0.77388000  0.12213300  1
  C  C59  1  0.43296400  0.22612000  0.12213300  1
  C  C60  1  0.50000000  0.00000000  0.50000000  1
  C  C61  1  0.00000000  0.50000000  0.00000000  1
  C  C62  1  0.00000000  0.50000000  0.50000000  1
  C  C63  1  0.50000000  0.00000000  0.00000000  1
  Ni  Ni64  1  0.12477100  0.87522900  0.50000000  1
  Ni  Ni65  1  0.87522900  0.12477100  0.50000000  1
  Cu  Cu66  1  0.62511300  0.62511300  0.00000000  1
  Cu  Cu67  1  0.37488700  0.37488700  0.00000000  1
