# generated using pymatgen
data_CuNiC8
_symmetry_space_group_name_H-M   'P 1'
_cell_length_a   8.43345670
_cell_length_b   8.48389956
_cell_length_c   8.47043422
_cell_angle_alpha   90.00000000
_cell_angle_beta   90.00000000
_cell_angle_gamma   90.00000000
_symmetry_Int_Tables_number   1
_chemical_formula_structural   CuNiC8
_chemical_formula_sum   'Cu4 Ni4 C32'
_cell_volume   606.04770633
_cell_formula_units_Z   4
loop_
 _symmetry_equiv_pos_site_id
 _symmetry_equiv_pos_as_xyz
  1  'x, y, z'
loop_
 _atom_site_type_symbol
 _atom_site_label
 _atom_site_symmetry_multiplicity
 _atom_site_fract_x
 _atom_site_fract_y
 _atom_site_fract_z
 _atom_site_occupancy
  Ni  Ni0  1  0.00000000  -0.00000000  0.00000000  1
  Ni  Ni1  1  0.50000000  0.50000000  0.50000000  1
  Ni  Ni2  1  0.50000000  -0.00000000  0.50000000  1
  Ni  Ni3  1  0.00000000  -0.00000000  0.50000000  1
  Cu  Cu4  1  0.00000000  0.50000000  0.50000000  1
  Cu  Cu5  1  0.50000000  0.50000000  0.00000000  1
  Cu  Cu6  1  0.50000000  -0.00000000  0.00000000  1
  Cu  Cu7  1  0.00000000  0.50000000  0.00000000  1
  C  C8  1  0.74745896  0.74704466  0.75522097  1
  C  C9  1  0.25254104  0.25295534  0.75522097  1
  C  C10  1  0.25254104  0.74704466  0.24477903  1
  C  C11  1  0.74745896  0.25295534  0.24477903  1
  C  C12  1  0.24710474  0.25795317  0.24512802  1
  C  C13  1  0.75289526  0.74204683  0.24512802  1
  C  C14  1  0.75289526  0.25795317  0.75487198  1
  C  C15  1  0.24710474  0.74204683  0.75487198  1
  C  C16  1  0.01640736  0.20726326  0.26776829  1
  C  C17  1  0.98359264  0.79273674  0.26776829  1
  C  C18  1  0.98359264  0.20726326  0.73223171  1
  C  C19  1  0.01640736  0.79273674  0.73223171  1
  C  C20  1  0.29541545  0.02241965  0.19960837  1
  C  C21  1  0.29541545  0.97758035  0.80039163  1
  C  C22  1  0.70458455  0.97758035  0.19960837  1
  C  C23  1  0.70458455  0.02241965  0.80039163  1
  C  C24  1  0.20413685  0.30721246  0.01547637  1
  C  C25  1  0.79586315  0.30721246  0.98452363  1
  C  C26  1  0.20413685  0.69278754  0.98452363  1
  C  C27  1  0.79586315  0.69278754  0.01547637  1
  C  C28  1  0.48091472  0.30585291  0.20477886  1
  C  C29  1  0.51908528  0.69414709  0.20477886  1
  C  C30  1  0.51908528  0.30585291  0.79522114  1
  C  C31  1  0.48091472  0.69414709  0.79522114  1
  C  C32  1  0.20303265  0.48522556  0.30230575  1
  C  C33  1  0.20303265  0.51477444  0.69769425  1
  C  C34  1  0.79696735  0.51477444  0.30230575  1
  C  C35  1  0.79696735  0.48522556  0.69769425  1
  C  C36  1  0.28106502  0.22163793  0.48002286  1
  C  C37  1  0.71893498  0.22163793  0.51997714  1
  C  C38  1  0.28106502  0.77836207  0.51997714  1
  C  C39  1  0.71893498  0.77836207  0.48002286  1
