# generated using pymatgen
data_CuNi5C14
_symmetry_space_group_name_H-M   'P 1'
_cell_length_a   9.61180683
_cell_length_b   9.61180683
_cell_length_c   6.05028800
_cell_angle_alpha   90.00000000
_cell_angle_beta   90.00000000
_cell_angle_gamma   127.79372469
_symmetry_Int_Tables_number   1
_chemical_formula_structural   CuNi5C14
_chemical_formula_sum   'Cu2 Ni10 C28'
_cell_volume   441.70804273
_cell_formula_units_Z   2
loop_
 _symmetry_equiv_pos_site_id
 _symmetry_equiv_pos_as_xyz
  1  'x, y, z'
loop_
 _atom_site_type_symbol
 _atom_site_label
 _atom_site_symmetry_multiplicity
 _atom_site_fract_x
 _atom_site_fract_y
 _atom_site_fract_z
 _atom_site_occupancy
  Ni  Ni0  1  0.67224400  0.32775600  0.50000000  1
  Ni  Ni1  1  0.32775600  0.67224400  0.50000000  1
  Ni  Ni2  1  0.32775600  0.67224400  0.00000000  1
  Ni  Ni3  1  0.67224400  0.32775600  0.00000000  1
  Ni  Ni4  1  0.16138100  0.33495800  0.75000000  1
  Ni  Ni5  1  0.83861900  0.66504200  0.25000000  1
  Ni  Ni6  1  0.33495800  0.16138100  0.75000000  1
  Ni  Ni7  1  0.66504200  0.83861900  0.25000000  1
  Ni  Ni8  1  0.00000000  0.00000000  0.50000000  1
  Ni  Ni9  1  0.00000000  0.00000000  0.00000000  1
  Cu  Cu10  1  0.62279800  0.62279800  0.75000000  1
  Cu  Cu11  1  0.37720200  0.37720200  0.25000000  1
  C  C12  1  0.02396500  0.68926800  0.75000000  1
  C  C13  1  0.97603500  0.31073200  0.25000000  1
  C  C14  1  0.68926800  0.02396500  0.75000000  1
  C  C15  1  0.31073200  0.97603500  0.25000000  1
  C  C16  1  0.90467100  0.57804800  0.50763500  1
  C  C17  1  0.09532900  0.42195200  0.49236500  1
  C  C18  1  0.09532900  0.42195200  0.00763500  1
  C  C19  1  0.57804800  0.90467100  0.99236500  1
  C  C20  1  0.90467100  0.57804800  0.99236500  1
  C  C21  1  0.42195200  0.09532900  0.00763500  1
  C  C22  1  0.42195200  0.09532900  0.49236500  1
  C  C23  1  0.57804800  0.90467100  0.50763500  1
  C  C24  1  0.38326700  0.57622400  0.75000000  1
  C  C25  1  0.61673300  0.42377600  0.25000000  1
  C  C26  1  0.57622400  0.38326700  0.75000000  1
  C  C27  1  0.42377600  0.61673300  0.25000000  1
  C  C28  1  0.23276000  0.73583800  0.75000000  1
  C  C29  1  0.76724000  0.26416200  0.25000000  1
  C  C30  1  0.73583700  0.23276000  0.75000000  1
  C  C31  1  0.26416200  0.76724000  0.25000000  1
  C  C32  1  0.91430700  0.07818900  0.75000000  1
  C  C33  1  0.08569300  0.92181100  0.25000000  1
  C  C34  1  0.07818900  0.91430700  0.75000000  1
  C  C35  1  0.92181100  0.08569300  0.25000000  1
  C  C36  1  0.23183100  0.23183100  0.53131600  1
  C  C37  1  0.76816900  0.76816900  0.46868400  1
  C  C38  1  0.76816900  0.76816900  0.03131600  1
  C  C39  1  0.23183100  0.23183100  0.96868400  1
