# generated using pymatgen
data_Cu4Ni18C13
_symmetry_space_group_name_H-M   'P 1'
_cell_length_a   6.83687336
_cell_length_b   6.83687336
_cell_length_c   16.77183033
_cell_angle_alpha   79.04124883
_cell_angle_beta   79.04124883
_cell_angle_gamma   61.90661290
_symmetry_Int_Tables_number   1
_chemical_formula_structural   Cu4Ni18C13
_chemical_formula_sum   'Cu8 Ni36 C26'
_cell_volume   674.39146221
_cell_formula_units_Z   2
loop_
 _symmetry_equiv_pos_site_id
 _symmetry_equiv_pos_as_xyz
  1  'x, y, z'
loop_
 _atom_site_type_symbol
 _atom_site_label
 _atom_site_symmetry_multiplicity
 _atom_site_fract_x
 _atom_site_fract_y
 _atom_site_fract_z
 _atom_site_occupancy
  C  C0  1  0.95962200  0.98076100  0.85208500  1
  C  C1  1  0.01923900  0.04037800  0.64791500  1
  C  C2  1  0.04037800  0.01923900  0.14791500  1
  C  C3  1  0.98076100  0.95962200  0.35208500  1
  Ni  Ni4  1  0.77483700  0.14065500  0.98538200  1
  Ni  Ni5  1  0.85934500  0.22516300  0.51461800  1
  Ni  Ni6  1  0.22516300  0.85934500  0.01461800  1
  Ni  Ni7  1  0.14065500  0.77483700  0.48538200  1
  Ni  Ni8  1  0.66907100  0.53195000  0.81647400  1
  Ni  Ni9  1  0.46805000  0.33092900  0.68352600  1
  Ni  Ni10  1  0.33092900  0.46805000  0.18352600  1
  Ni  Ni11  1  0.53195000  0.66907100  0.31647400  1
  Ni  Ni12  1  0.62470100  0.78104400  0.76324600  1
  Ni  Ni13  1  0.21895600  0.37529900  0.73675400  1
  Ni  Ni14  1  0.37529900  0.21895600  0.23675400  1
  Ni  Ni15  1  0.78104400  0.62470100  0.26324600  1
  Ni  Ni16  1  0.45100300  0.77753000  0.85020000  1
  Ni  Ni17  1  0.22247000  0.54899700  0.64980000  1
  Ni  Ni18  1  0.54899700  0.22247000  0.14980000  1
  Ni  Ni19  1  0.77753000  0.45100300  0.35020000  1
  Ni  Ni20  1  0.72948500  0.70897400  0.85202900  1
  Ni  Ni21  1  0.29102600  0.27051500  0.64797100  1
  Ni  Ni22  1  0.27051500  0.29102600  0.14797100  1
  Ni  Ni23  1  0.70897400  0.72948500  0.35202900  1
  Ni  Ni24  1  0.84819200  0.53458000  0.08556100  1
  Ni  Ni25  1  0.46542000  0.15180800  0.41443900  1
  Ni  Ni26  1  0.15180800  0.46542000  0.91443900  1
  Ni  Ni27  1  0.53458000  0.84819200  0.58556100  1
  Ni  Ni28  1  0.80127300  0.71636900  0.99876400  1
  Ni  Ni29  1  0.28363100  0.19872700  0.50123600  1
  Ni  Ni30  1  0.19872700  0.28363100  0.00123600  1
  Ni  Ni31  1  0.71636900  0.80127300  0.49876400  1
  Ni  Ni32  1  0.57683000  0.73495700  0.06890200  1
  Ni  Ni33  1  0.26504300  0.42317000  0.43109800  1
  Ni  Ni34  1  0.42317000  0.26504300  0.93109800  1
  Ni  Ni35  1  0.73495700  0.57683000  0.56890200  1
  Ni  Ni36  1  0.76400900  0.81595900  0.08741600  1
  Ni  Ni37  1  0.18404100  0.23599100  0.41258400  1
  Ni  Ni38  1  0.23599100  0.18404100  0.91258400  1
  Ni  Ni39  1  0.81595900  0.76400900  0.58741600  1
  Cu  Cu40  1  0.61518400  0.69762300  0.82070800  1
  Cu  Cu41  1  0.30237700  0.38481600  0.67929200  1
  Cu  Cu42  1  0.38481600  0.30237700  0.17929200  1
  Cu  Cu43  1  0.69762300  0.61518400  0.32070800  1
  Cu  Cu44  1  0.74459200  0.69958700  0.06143800  1
  Cu  Cu45  1  0.30041300  0.25540800  0.43856200  1
  Cu  Cu46  1  0.25540800  0.30041300  0.93856200  1
  Cu  Cu47  1  0.69958700  0.74459200  0.56143800  1
  C  C48  1  0.98056500  0.26743800  0.78708700  1
  C  C49  1  0.73256200  0.01943500  0.71291300  1
  C  C50  1  0.01943500  0.73256200  0.21291300  1
  C  C51  1  0.26743800  0.98056500  0.28708700  1
  C  C52  1  0.67837500  0.10318800  0.79149900  1
  C  C53  1  0.89681200  0.32162500  0.70850100  1
  C  C54  1  0.32162500  0.89681200  0.20850100  1
  C  C55  1  0.10318800  0.67837500  0.29149900  1
  C  C56  1  0.14786200  0.85213800  0.75000000  1
  C  C57  1  0.85213800  0.14786200  0.25000000  1
  C  C58  1  0.92920400  0.72075100  0.89739900  1
  C  C59  1  0.27924900  0.07079600  0.60260100  1
  C  C60  1  0.07079500  0.27924900  0.10260100  1
  C  C61  1  0.72075100  0.92920400  0.39739900  1
  C  C62  1  0.72246700  0.18129700  0.93003700  1
  C  C63  1  0.81870300  0.27753300  0.56996300  1
  C  C64  1  0.27753300  0.81870300  0.06996300  1
  C  C65  1  0.18129700  0.72246700  0.43003700  1
  C  C66  1  0.19849000  0.93627200  0.90493700  1
  C  C67  1  0.06372800  0.80151000  0.59506300  1
  C  C68  1  0.80150900  0.06372800  0.09506300  1
  C  C69  1  0.93627200  0.19849000  0.40493700  1
