# generated using pymatgen
data_CuNiC62
_symmetry_space_group_name_H-M   'P 1'
_cell_length_a   8.51781600
_cell_length_b   8.51781600
_cell_length_c   8.52043600
_cell_angle_alpha   90.00000000
_cell_angle_beta   90.00000000
_cell_angle_gamma   90.00000000
_symmetry_Int_Tables_number   1
_chemical_formula_structural   CuNiC62
_chemical_formula_sum   'Cu1 Ni1 C62'
_cell_volume   618.18480696
_cell_formula_units_Z   1
loop_
 _symmetry_equiv_pos_site_id
 _symmetry_equiv_pos_as_xyz
  1  'x, y, z'
loop_
 _atom_site_type_symbol
 _atom_site_label
 _atom_site_symmetry_multiplicity
 _atom_site_fract_x
 _atom_site_fract_y
 _atom_site_fract_z
 _atom_site_occupancy
  C  C0  1  0.00000000  0.50000000  0.00000000  1
  C  C1  1  0.00000000  0.50000000  0.50000000  1
  C  C2  1  0.50000000  0.00000000  0.00000000  1
  C  C3  1  0.50000000  0.00000000  0.50000000  1
  C  C4  1  0.50000000  0.50000000  0.00000000  1
  C  C5  1  0.50000000  0.50000000  0.50000000  1
  C  C6  1  0.00000000  0.25015300  0.24915600  1
  C  C7  1  0.00000000  0.25015300  0.75084400  1
  C  C8  1  0.00000000  0.74984700  0.24915600  1
  C  C9  1  0.00000000  0.74984700  0.75084400  1
  C  C10  1  0.50000000  0.24988900  0.25002200  1
  C  C11  1  0.50000000  0.24988900  0.74997800  1
  C  C12  1  0.50000000  0.75011100  0.25002200  1
  C  C13  1  0.50000000  0.75011100  0.74997800  1
  C  C14  1  0.25015300  0.00000000  0.24915600  1
  C  C15  1  0.25015300  0.00000000  0.75084400  1
  C  C16  1  0.24988900  0.50000000  0.25002200  1
  C  C17  1  0.24988900  0.50000000  0.74997800  1
  C  C18  1  0.74984700  0.00000000  0.24915600  1
  C  C19  1  0.74984700  0.00000000  0.75084400  1
  C  C20  1  0.75011100  0.50000000  0.25002200  1
  C  C21  1  0.75011100  0.50000000  0.74997800  1
  C  C22  1  0.24956100  0.24956100  0.00000000  1
  C  C23  1  0.25043500  0.25043500  0.50000000  1
  C  C24  1  0.24956100  0.75043900  0.00000000  1
  C  C25  1  0.25043500  0.74956500  0.50000000  1
  C  C26  1  0.75043900  0.24956100  0.00000000  1
  C  C27  1  0.74956500  0.25043500  0.50000000  1
  C  C28  1  0.75043900  0.75043900  0.00000000  1
  C  C29  1  0.74956500  0.74956500  0.50000000  1
  Ni  Ni30  1  0.00000000  0.00000000  0.50000000  1
  Cu  Cu31  1  0.00000000  0.00000000  0.00000000  1
  C  C32  1  0.25178600  0.00000000  0.00000000  1
  C  C33  1  0.25478300  0.00000000  0.50000000  1
  C  C34  1  0.25005200  0.50000000  0.00000000  1
  C  C35  1  0.25036300  0.50000000  0.50000000  1
  C  C36  1  0.74821400  0.00000000  0.00000000  1
  C  C37  1  0.74521700  0.00000000  0.50000000  1
  C  C38  1  0.74994800  0.50000000  0.00000000  1
  C  C39  1  0.74963700  0.50000000  0.50000000  1
  C  C40  1  0.24965100  0.24965100  0.25012900  1
  C  C41  1  0.24965100  0.24965100  0.74987100  1
  C  C42  1  0.24965100  0.75034900  0.25012900  1
  C  C43  1  0.24965100  0.75034900  0.74987100  1
  C  C44  1  0.75034900  0.24965100  0.25012900  1
  C  C45  1  0.75034900  0.24965100  0.74987100  1
  C  C46  1  0.75034900  0.75034900  0.25012900  1
  C  C47  1  0.75034900  0.75034900  0.74987100  1
  C  C48  1  0.00000000  0.00000000  0.24624500  1
  C  C49  1  0.00000000  0.00000000  0.75375500  1
  C  C50  1  0.00000000  0.50000000  0.24966900  1
  C  C51  1  0.00000000  0.50000000  0.75033100  1
  C  C52  1  0.50000000  0.00000000  0.24966900  1
  C  C53  1  0.50000000  0.00000000  0.75033100  1
  C  C54  1  0.50000000  0.50000000  0.24997600  1
  C  C55  1  0.50000000  0.50000000  0.75002400  1
  C  C56  1  0.00000000  0.25178600  0.00000000  1
  C  C57  1  0.00000000  0.25478300  0.50000000  1
  C  C58  1  0.00000000  0.74821400  0.00000000  1
  C  C59  1  0.00000000  0.74521700  0.50000000  1
  C  C60  1  0.50000000  0.25005200  0.00000000  1
  C  C61  1  0.50000000  0.25036300  0.50000000  1
  C  C62  1  0.50000000  0.74994800  0.00000000  1
  C  C63  1  0.50000000  0.74963700  0.50000000  1
