# generated using pymatgen
data_CuNiC8
_symmetry_space_group_name_H-M   'P 1'
_cell_length_a   6.04757400
_cell_length_b   6.07679300
_cell_length_c   8.58621212
_cell_angle_alpha   89.99057773
_cell_angle_beta   90.00000000
_cell_angle_gamma   90.00000000
_symmetry_Int_Tables_number   1
_chemical_formula_structural   CuNiC8
_chemical_formula_sum   'Cu2 Ni2 C16'
_cell_volume   315.54204901
_cell_formula_units_Z   2
loop_
 _symmetry_equiv_pos_site_id
 _symmetry_equiv_pos_as_xyz
  1  'x, y, z'
loop_
 _atom_site_type_symbol
 _atom_site_label
 _atom_site_symmetry_multiplicity
 _atom_site_fract_x
 _atom_site_fract_y
 _atom_site_fract_z
 _atom_site_occupancy
  Ni  Ni0  1  0.25000000  0.75634800  0.00060900  1
  Ni  Ni1  1  0.75000000  0.24365200  0.99939100  1
  Cu  Cu2  1  0.25000000  0.75441100  0.49979000  1
  Cu  Cu3  1  0.75000000  0.24558900  0.50021000  1
  C  C4  1  0.75000000  0.74775600  0.76509400  1
  C  C5  1  0.25000000  0.25224400  0.23490600  1
  C  C6  1  0.25000000  0.25207200  0.74516300  1
  C  C7  1  0.75000000  0.74792800  0.25483700  1
  C  C8  1  0.25000000  0.28938100  0.97029600  1
  C  C9  1  0.25000000  0.21935700  0.51369300  1
  C  C10  1  0.75000000  0.78064300  0.48630700  1
  C  C11  1  0.75000000  0.71061900  0.02970400  1
  C  C12  1  0.47978300  0.48073600  0.71909700  1
  C  C13  1  0.01930200  0.02394100  0.75283600  1
  C  C14  1  0.48069800  0.02394100  0.75283600  1
  C  C15  1  0.02021700  0.48073600  0.71909700  1
  C  C16  1  0.98069800  0.97605900  0.24716400  1
  C  C17  1  0.52021700  0.51926400  0.28090300  1
  C  C18  1  0.97978300  0.51926400  0.28090300  1
  C  C19  1  0.51930200  0.97605900  0.24716400  1
