# generated using pymatgen
data_CuNiC8
_symmetry_space_group_name_H-M   'P 1'
_cell_length_a   8.43760171
_cell_length_b   8.39037251
_cell_length_c   8.50170225
_cell_angle_alpha   90.00000000
_cell_angle_beta   90.00000000
_cell_angle_gamma   90.00000000
_symmetry_Int_Tables_number   1
_chemical_formula_structural   CuNiC8
_chemical_formula_sum   'Cu4 Ni4 C32'
_cell_volume   601.87479237
_cell_formula_units_Z   4
loop_
 _symmetry_equiv_pos_site_id
 _symmetry_equiv_pos_as_xyz
  1  'x, y, z'
loop_
 _atom_site_type_symbol
 _atom_site_label
 _atom_site_symmetry_multiplicity
 _atom_site_fract_x
 _atom_site_fract_y
 _atom_site_fract_z
 _atom_site_occupancy
  Ni  Ni0  1  0.00000000  0.50000000  0.50000000  1
  Ni  Ni1  1  0.50000000  0.50000000  0.00000000  1
  Ni  Ni2  1  0.50000000  -0.00000000  0.00000000  1
  Ni  Ni3  1  0.00000000  -0.00000000  0.50000000  1
  C  C4  1  0.25000000  0.25000000  0.25000000  1
  C  C5  1  0.75000000  0.75000000  0.25000000  1
  C  C6  1  0.75000000  0.25000000  0.75000000  1
  C  C7  1  0.25000000  0.75000000  0.75000000  1
  Cu  Cu8  1  0.50000000  -0.00000000  0.50000000  1
  Cu  Cu9  1  0.00000000  0.50000000  0.00000000  1
  Cu  Cu10  1  0.00000000  -0.00000000  0.00000000  1
  Cu  Cu11  1  0.50000000  0.50000000  0.50000000  1
  C  C12  1  0.75000000  0.75000000  0.75000000  1
  C  C13  1  0.25000000  0.25000000  0.75000000  1
  C  C14  1  0.25000000  0.75000000  0.25000000  1
  C  C15  1  0.75000000  0.25000000  0.25000000  1
  C  C16  1  0.98281563  0.21207168  0.26888832  1
  C  C17  1  0.01718437  0.78792832  0.26888832  1
  C  C18  1  0.01718437  0.21207168  0.73111168  1
  C  C19  1  0.98281563  0.78792832  0.73111168  1
  C  C20  1  0.27618861  0.98289837  0.21310497  1
  C  C21  1  0.27618861  0.01710163  0.78689503  1
  C  C22  1  0.72381139  0.01710163  0.21310497  1
  C  C23  1  0.72381139  0.98289837  0.78689503  1
  C  C24  1  0.19478902  0.28407065  0.98351912  1
  C  C25  1  0.80521098  0.28407065  0.01648088  1
  C  C26  1  0.19478902  0.71592935  0.01648088  1
  C  C27  1  0.80521098  0.71592935  0.98351912  1
  C  C28  1  0.51718437  0.28792832  0.23111168  1
  C  C29  1  0.48281563  0.71207168  0.23111168  1
  C  C30  1  0.48281563  0.28792832  0.76888832  1
  C  C31  1  0.51718437  0.71207168  0.76888832  1
  C  C32  1  0.22381139  0.51710163  0.28689503  1
  C  C33  1  0.22381139  0.48289837  0.71310497  1
  C  C34  1  0.77618861  0.48289837  0.28689503  1
  C  C35  1  0.77618861  0.51710163  0.71310497  1
  C  C36  1  0.30521098  0.21592935  0.51648088  1
  C  C37  1  0.69478902  0.21592935  0.48351912  1
  C  C38  1  0.30521098  0.78407065  0.48351912  1
  C  C39  1  0.69478902  0.78407065  0.51648088  1
