# generated using pymatgen
data_Cu2Ni
_symmetry_space_group_name_H-M   'P 1'
_cell_length_a   5.33792793
_cell_length_b   5.33792793
_cell_length_c   5.33792793
_cell_angle_alpha   149.88398037
_cell_angle_beta   149.88398037
_cell_angle_gamma   43.11173362
_symmetry_Int_Tables_number   1
_chemical_formula_structural   Cu2Ni
_chemical_formula_sum   'Cu2 Ni1'
_cell_volume   38.19062931
_cell_formula_units_Z   1
loop_
 _symmetry_equiv_pos_site_id
 _symmetry_equiv_pos_as_xyz
  1  'x, y, z'
loop_
 _atom_site_type_symbol
 _atom_site_label
 _atom_site_symmetry_multiplicity
 _atom_site_fract_x
 _atom_site_fract_y
 _atom_site_fract_z
 _atom_site_occupancy
  Ni  Ni0  1  0.00000000  0.00000000  0.00000000  1
  Cu  Cu1  1  0.35665900  0.35665900  0.00000000  1
  Cu  Cu2  1  0.64334100  0.64334100  0.00000000  1
