# generated using pymatgen
data_CuNi3C11
_symmetry_space_group_name_H-M   'P 1'
_cell_length_a   5.43810800
_cell_length_b   7.86306100
_cell_length_c   16.66842900
_cell_angle_alpha   90.00000000
_cell_angle_beta   90.00000000
_cell_angle_gamma   90.00000000
_symmetry_Int_Tables_number   1
_chemical_formula_structural   CuNi3C11
_chemical_formula_sum   'Cu4 Ni12 C44'
_cell_volume   712.74493982
_cell_formula_units_Z   4
loop_
 _symmetry_equiv_pos_site_id
 _symmetry_equiv_pos_as_xyz
  1  'x, y, z'
loop_
 _atom_site_type_symbol
 _atom_site_label
 _atom_site_symmetry_multiplicity
 _atom_site_fract_x
 _atom_site_fract_y
 _atom_site_fract_z
 _atom_site_occupancy
  C  C0  1  0.99910700  0.75000000  0.00876000  1
  C  C1  1  0.97544100  0.75000000  0.67410200  1
  C  C2  1  0.52455900  0.75000000  0.17410200  1
  C  C3  1  0.50089300  0.75000000  0.50876000  1
  C  C4  1  0.02455900  0.25000000  0.32589800  1
  C  C5  1  0.00089300  0.25000000  0.99124000  1
  C  C6  1  0.49910700  0.25000000  0.49124000  1
  C  C7  1  0.47544100  0.25000000  0.82589800  1
  Ni  Ni8  1  0.51268800  0.50479200  0.33421400  1
  Ni  Ni9  1  0.50000000  0.50000000  0.00000000  1
  Ni  Ni10  1  0.48731200  0.49520800  0.66578600  1
  Ni  Ni11  1  0.00000000  0.00000000  0.50000000  1
  Ni  Ni12  1  0.01268800  0.00479200  0.16578600  1
  Ni  Ni13  1  0.98731200  0.99520800  0.83421400  1
  Ni  Ni14  1  0.51268800  0.99520800  0.33421400  1
  Ni  Ni15  1  0.50000000  0.00000000  0.00000000  1
  Ni  Ni16  1  0.48731200  0.00479200  0.66578600  1
  Ni  Ni17  1  0.00000000  0.50000000  0.50000000  1
  Ni  Ni18  1  0.01268800  0.49520800  0.16578600  1
  Ni  Ni19  1  0.98731200  0.50479200  0.83421400  1
  Cu  Cu20  1  0.02886600  0.75000000  0.30726100  1
  Cu  Cu21  1  0.47113400  0.75000000  0.80726100  1
  Cu  Cu22  1  0.97113400  0.25000000  0.69273900  1
  Cu  Cu23  1  0.52886600  0.25000000  0.19273900  1
  C  C24  1  0.23817500  0.45620500  0.40434100  1
  C  C25  1  0.20838000  0.47088800  0.06839700  1
  C  C26  1  0.18385300  0.44493600  0.73178200  1
  C  C27  1  0.31614700  0.05506400  0.23178200  1
  C  C28  1  0.26182500  0.04379500  0.90434100  1
  C  C29  1  0.29162000  0.02911200  0.56839700  1
  C  C30  1  0.81614700  0.94493600  0.26821800  1
  C  C31  1  0.79162000  0.97088900  0.93160300  1
  C  C32  1  0.76182500  0.95620500  0.59565900  1
  C  C33  1  0.70838000  0.52911100  0.43160300  1
  C  C34  1  0.73817500  0.54379500  0.09565900  1
  C  C35  1  0.68385300  0.55506400  0.76821800  1
  C  C36  1  0.81614700  0.55506400  0.26821800  1
  C  C37  1  0.79162000  0.52911100  0.93160300  1
  C  C38  1  0.76182500  0.54379500  0.59565900  1
  C  C39  1  0.70838000  0.97088900  0.43160300  1
  C  C40  1  0.73817500  0.95620500  0.09565900  1
  C  C41  1  0.68385300  0.94493600  0.76821800  1
  C  C42  1  0.23817500  0.04379500  0.40434100  1
  C  C43  1  0.20838000  0.02911200  0.06839700  1
  C  C44  1  0.18385300  0.05506400  0.73178200  1
  C  C45  1  0.31614700  0.44493600  0.23178200  1
  C  C46  1  0.26182500  0.45620500  0.90434100  1
  C  C47  1  0.29162000  0.47088800  0.56839700  1
  C  C48  1  0.08599000  0.75000000  0.16415000  1
  C  C49  1  0.11164200  0.75000000  0.82568900  1
  C  C50  1  0.05484300  0.75000000  0.50763000  1
  C  C51  1  0.38835800  0.75000000  0.32568900  1
  C  C52  1  0.44515700  0.75000000  0.00763000  1
  C  C53  1  0.41401000  0.75000000  0.66415000  1
  C  C54  1  0.94515700  0.25000000  0.49237000  1
  C  C55  1  0.88835800  0.25000000  0.17431100  1
  C  C56  1  0.91401000  0.25000000  0.83585000  1
  C  C57  1  0.58599000  0.25000000  0.33585000  1
  C  C58  1  0.55484300  0.25000000  0.99237000  1
  C  C59  1  0.61164200  0.25000000  0.67431100  1
