# generated using pymatgen
data_Cu4Ni11C3
_symmetry_space_group_name_H-M   'P 1'
_cell_length_a   17.15252600
_cell_length_b   9.83681100
_cell_length_c   14.46569143
_cell_angle_alpha   61.51037629
_cell_angle_beta   90.00000000
_cell_angle_gamma   90.00000000
_symmetry_Int_Tables_number   1
_chemical_formula_structural   Cu4Ni11C3
_chemical_formula_sum   'Cu16 Ni44 C12'
_cell_volume   2145.17541042
_cell_formula_units_Z   4
loop_
 _symmetry_equiv_pos_site_id
 _symmetry_equiv_pos_as_xyz
  1  'x, y, z'
loop_
 _atom_site_type_symbol
 _atom_site_label
 _atom_site_symmetry_multiplicity
 _atom_site_fract_x
 _atom_site_fract_y
 _atom_site_fract_z
 _atom_site_occupancy
  C  C0  1  0.92694200  0.72806100  0.26975000  1
  C  C1  1  0.07305800  0.27193900  0.73025000  1
  C  C2  1  0.42694200  0.27193900  0.23025000  1
  C  C3  1  0.57305800  0.72806100  0.76975000  1
  C  C4  1  0.68793400  0.80172000  0.20154800  1
  C  C5  1  0.31206600  0.19828000  0.79845200  1
  C  C6  1  0.18793400  0.19828000  0.29845200  1
  C  C7  1  0.81206600  0.80172000  0.70154800  1
  C  C8  1  0.33362500  0.81717000  0.37325700  1
  C  C9  1  0.66637500  0.18283000  0.62674300  1
  C  C10  1  0.83362500  0.18283000  0.12674300  1
  C  C11  1  0.16637500  0.81717000  0.87325700  1
  Ni  Ni12  1  0.57379900  0.92884400  0.11840600  1
  Ni  Ni13  1  0.42620100  0.07115600  0.88159400  1
  Ni  Ni14  1  0.07379900  0.07115600  0.38159400  1
  Ni  Ni15  1  0.92620100  0.92884400  0.61840600  1
  Ni  Ni16  1  0.65245000  0.54866300  0.24962300  1
  Ni  Ni17  1  0.34755000  0.45133700  0.75037700  1
  Ni  Ni18  1  0.15245000  0.45133700  0.25037700  1
  Ni  Ni19  1  0.84755000  0.54866300  0.74962300  1
  Ni  Ni20  1  0.92644200  0.76924500  0.09700600  1
  Ni  Ni21  1  0.07355800  0.23075500  0.90299400  1
  Ni  Ni22  1  0.42644200  0.23075500  0.40299400  1
  Ni  Ni23  1  0.57355800  0.76924500  0.59700600  1
  Ni  Ni24  1  0.55899000  0.21627800  0.23105400  1
  Ni  Ni25  1  0.44101000  0.78372200  0.76894600  1
  Ni  Ni26  1  0.05899000  0.78372200  0.26894600  1
  Ni  Ni27  1  0.94101000  0.21627800  0.73105400  1
  Ni  Ni28  1  0.90230400  0.72847900  0.42828600  1
  Ni  Ni29  1  0.09769600  0.27152100  0.57171400  1
  Ni  Ni30  1  0.40230400  0.27152100  0.07171400  1
  Ni  Ni31  1  0.59769600  0.72847900  0.92828600  1
  Ni  Ni32  1  0.74122700  0.37998700  0.05497100  1
  Ni  Ni33  1  0.25877300  0.62001300  0.94502900  1
  Ni  Ni34  1  0.24122700  0.62001300  0.44502900  1
  Ni  Ni35  1  0.75877300  0.37998700  0.55497100  1
  Ni  Ni36  1  0.34676100  0.83916200  0.52601100  1
  Ni  Ni37  1  0.65323900  0.16083800  0.47398900  1
  Ni  Ni38  1  0.84676100  0.16083800  0.97398900  1
  Ni  Ni39  1  0.15323900  0.83916200  0.02601100  1
  Ni  Ni40  1  0.92863700  0.45957800  0.34404500  1
  Ni  Ni41  1  0.07136300  0.54042200  0.65595500  1
  Ni  Ni42  1  0.42863700  0.54042200  0.15595500  1
  Ni  Ni43  1  0.57136300  0.45957800  0.84404500  1
  Ni  Ni44  1  0.66604000  0.78927700  0.36445900  1
  Ni  Ni45  1  0.33396000  0.21072300  0.63554100  1
  Ni  Ni46  1  0.16604000  0.21072300  0.13554100  1
  Ni  Ni47  1  0.83396000  0.78927700  0.86445900  1
  Ni  Ni48  1  0.31282800  0.86772500  0.20048900  1
  Ni  Ni49  1  0.68717200  0.13227500  0.79951100  1
  Ni  Ni50  1  0.81282800  0.13227500  0.29951100  1
  Ni  Ni51  1  0.18717200  0.86772500  0.70048900  1
  Ni  Ni52  1  0.94732800  0.32552600  0.10147900  1
  Ni  Ni53  1  0.05267200  0.67447400  0.89852100  1
  Ni  Ni54  1  0.44732800  0.67447400  0.39852100  1
  Ni  Ni55  1  0.55267200  0.32552600  0.60147900  1
  Cu  Cu56  1  0.90042500  0.97158900  0.19949000  1
  Cu  Cu57  1  0.09957500  0.02841100  0.80051000  1
  Cu  Cu58  1  0.40042500  0.02841100  0.30051000  1
  Cu  Cu59  1  0.59957500  0.97158900  0.69949000  1
  Cu  Cu60  1  0.73299400  0.83319000  0.07261000  1
  Cu  Cu61  1  0.26700600  0.16681000  0.92739000  1
  Cu  Cu62  1  0.23299400  0.16681000  0.42739000  1
  Cu  Cu63  1  0.76700600  0.83319000  0.57261000  1
  Cu  Cu64  1  0.24010000  0.98477200  0.33868000  1
  Cu  Cu65  1  0.75990000  0.01522800  0.66132000  1
  Cu  Cu66  1  0.74010000  0.01522800  0.16132000  1
  Cu  Cu67  1  0.25990000  0.98477200  0.83868000  1
  Cu  Cu68  1  0.80151400  0.72250000  0.25972600  1
  Cu  Cu69  1  0.19848600  0.27750000  0.74027400  1
  Cu  Cu70  1  0.30151400  0.27750000  0.24027400  1
  Cu  Cu71  1  0.69848600  0.72250000  0.75972600  1
