# generated using pymatgen
data_Cu2NiC9
_symmetry_space_group_name_H-M   'P 1'
_cell_length_a   7.78737900
_cell_length_b   7.78737900
_cell_length_c   5.08893500
_cell_angle_alpha   90.00000000
_cell_angle_beta   90.00000000
_cell_angle_gamma   90.00000000
_symmetry_Int_Tables_number   1
_chemical_formula_structural   Cu2NiC9
_chemical_formula_sum   'Cu4 Ni2 C18'
_cell_volume   308.60966782
_cell_formula_units_Z   2
loop_
 _symmetry_equiv_pos_site_id
 _symmetry_equiv_pos_as_xyz
  1  'x, y, z'
loop_
 _atom_site_type_symbol
 _atom_site_label
 _atom_site_symmetry_multiplicity
 _atom_site_fract_x
 _atom_site_fract_y
 _atom_site_fract_z
 _atom_site_occupancy
  C  C0  1  0.16410100  0.33589900  0.51362700  1
  C  C1  1  0.83589900  0.66410100  0.51362700  1
  C  C2  1  0.66410100  0.16410100  0.48637300  1
  C  C3  1  0.33589900  0.83589900  0.48637300  1
  Ni  Ni4  1  0.00000000  0.00000000  0.00000000  1
  Ni  Ni5  1  0.50000000  0.50000000  0.00000000  1
  Cu  Cu6  1  0.64154100  0.85845900  0.96182100  1
  Cu  Cu7  1  0.35845900  0.14154100  0.96182100  1
  Cu  Cu8  1  0.14154100  0.64154100  0.03817900  1
  Cu  Cu9  1  0.85845900  0.35845900  0.03817900  1
  C  C10  1  0.00000000  0.50000000  0.17304400  1
  C  C11  1  0.50000000  0.00000000  0.82695600  1
  C  C12  1  0.08332600  0.82396100  0.19152700  1
  C  C13  1  0.91667400  0.17603900  0.19152700  1
  C  C14  1  0.17603900  0.08332600  0.80847300  1
  C  C15  1  0.41667400  0.32396100  0.80847300  1
  C  C16  1  0.82396100  0.91667400  0.80847300  1
  C  C17  1  0.58332600  0.67603900  0.80847300  1
  C  C18  1  0.32396100  0.58332600  0.19152700  1
  C  C19  1  0.67603900  0.41667400  0.19152700  1
  C  C20  1  0.63630600  0.86369400  0.28057300  1
  C  C21  1  0.36369400  0.13630600  0.28057300  1
  C  C22  1  0.13630600  0.63630600  0.71942700  1
  C  C23  1  0.86369400  0.36369400  0.71942700  1
