# generated using pymatgen
data_CuNiC6
_symmetry_space_group_name_H-M   'P 1'
_cell_length_a   6.28579600
_cell_length_b   8.00271100
_cell_length_c   9.28925600
_cell_angle_alpha   90.00000000
_cell_angle_beta   90.00000000
_cell_angle_gamma   90.00000000
_symmetry_Int_Tables_number   1
_chemical_formula_structural   CuNiC6
_chemical_formula_sum   'Cu4 Ni4 C24'
_cell_volume   467.28124195
_cell_formula_units_Z   4
loop_
 _symmetry_equiv_pos_site_id
 _symmetry_equiv_pos_as_xyz
  1  'x, y, z'
loop_
 _atom_site_type_symbol
 _atom_site_label
 _atom_site_symmetry_multiplicity
 _atom_site_fract_x
 _atom_site_fract_y
 _atom_site_fract_z
 _atom_site_occupancy
  Ni  Ni0  1  0.01787000  0.71644900  0.69394500  1
  Ni  Ni1  1  0.48213000  0.28355100  0.19394500  1
  Ni  Ni2  1  0.98213000  0.21644900  0.80605500  1
  Ni  Ni3  1  0.51787000  0.78355100  0.30605500  1
  C  C4  1  0.25076200  0.75066000  0.00327100  1
  C  C5  1  0.24923800  0.24934000  0.50327100  1
  C  C6  1  0.74923800  0.25066000  0.49672900  1
  C  C7  1  0.75076200  0.74934000  0.99672900  1
  Cu  Cu8  1  0.47896600  0.11404000  0.86197300  1
  Cu  Cu9  1  0.02103400  0.88596000  0.36197300  1
  Cu  Cu10  1  0.52103400  0.61404000  0.63802700  1
  Cu  Cu11  1  0.97896600  0.38596000  0.13802700  1
  C  C12  1  0.49832500  0.92167500  0.95960500  1
  C  C13  1  0.00167500  0.07832500  0.45960500  1
  C  C14  1  0.50167500  0.42167500  0.54039500  1
  C  C15  1  0.99832500  0.57832500  0.04039500  1
  C  C16  1  0.45746000  0.26879500  0.98573700  1
  C  C17  1  0.04254000  0.73120500  0.48573700  1
  C  C18  1  0.54254000  0.76879500  0.51426300  1
  C  C19  1  0.95746000  0.23120500  0.01426300  1
  C  C20  1  0.69766500  0.12209400  0.75295200  1
  C  C21  1  0.80233500  0.87790600  0.25295200  1
  C  C22  1  0.30233500  0.62209400  0.74704800  1
  C  C23  1  0.19766500  0.37790600  0.24704800  1
  C  C24  1  0.25615800  0.10176900  0.75579100  1
  C  C25  1  0.24384200  0.89823100  0.25579100  1
  C  C26  1  0.74384200  0.60176900  0.74420900  1
  C  C27  1  0.75615800  0.39823100  0.24420900  1
  C  C28  1  0.00194600  0.84862600  0.88479400  1
  C  C29  1  0.49805400  0.15137400  0.38479400  1
  C  C30  1  0.99805400  0.34862600  0.61520600  1
  C  C31  1  0.50194600  0.65137400  0.11520600  1
