# generated using pymatgen
data_CuNi14C17
_symmetry_space_group_name_H-M   'P 1'
_cell_length_a   8.58072077
_cell_length_b   8.79913454
_cell_length_c   4.28428088
_cell_angle_alpha   90.00000000
_cell_angle_beta   90.00000000
_cell_angle_gamma   90.00000000
_symmetry_Int_Tables_number   1
_chemical_formula_structural   CuNi14C17
_chemical_formula_sum   'Cu1 Ni14 C17'
_cell_volume   323.47570157
_cell_formula_units_Z   1
loop_
 _symmetry_equiv_pos_site_id
 _symmetry_equiv_pos_as_xyz
  1  'x, y, z'
loop_
 _atom_site_type_symbol
 _atom_site_label
 _atom_site_symmetry_multiplicity
 _atom_site_fract_x
 _atom_site_fract_y
 _atom_site_fract_z
 _atom_site_occupancy
  Ni  Ni0  1  0.50000000  -0.00000000  -0.00000000  1
  Ni  Ni1  1  0.50000000  0.50000000  -0.00000000  1
  Ni  Ni2  1  0.00000000  0.26909988  0.50000000  1
  Ni  Ni3  1  0.00000000  0.73090012  0.50000000  1
  Ni  Ni4  1  0.50000000  0.25476483  0.50000000  1
  Ni  Ni5  1  0.50000000  0.74523517  0.50000000  1
  Ni  Ni6  1  0.25990580  -0.00000000  0.50000000  1
  Ni  Ni7  1  0.24569255  0.50000000  0.50000000  1
  Ni  Ni8  1  0.74009420  -0.00000000  0.50000000  1
  Ni  Ni9  1  0.75430745  0.50000000  0.50000000  1
  Ni  Ni10  1  0.25077468  0.26098842  0.00000000  1
  Ni  Ni11  1  0.25077468  0.73901158  0.00000000  1
  Ni  Ni12  1  0.74922532  0.26098842  -0.00000000  1
  Ni  Ni13  1  0.74922532  0.73901158  -0.00000000  1
  Cu  Cu14  1  0.00000000  -0.00000000  -0.00000000  1
  C  C15  1  0.00000000  0.50000000  -0.00000000  1
  C  C16  1  0.26221288  -0.00000000  0.00000000  1
  C  C17  1  0.26052336  0.50000000  -0.00000000  1
  C  C18  1  0.73778712  -0.00000000  -0.00000000  1
  C  C19  1  0.73947664  0.50000000  0.00000000  1
  C  C20  1  0.24886426  0.25070658  0.50000000  1
  C  C21  1  0.24886426  0.74929342  0.50000000  1
  C  C22  1  0.75113574  0.25070658  0.50000000  1
  C  C23  1  0.75113574  0.74929342  0.50000000  1
  C  C24  1  0.00000000  -0.00000000  0.50000000  1
  C  C25  1  0.00000000  0.50000000  0.50000000  1
  C  C26  1  0.50000000  -0.00000000  0.50000000  1
  C  C27  1  0.50000000  0.50000000  0.50000000  1
  C  C28  1  0.00000000  0.23866624  0.00000000  1
  C  C29  1  0.00000000  0.76133376  -0.00000000  1
  C  C30  1  0.50000000  0.25134449  -0.00000000  1
  C  C31  1  0.50000000  0.74865551  0.00000000  1
