# generated using pymatgen
data_Cu6NiC
_symmetry_space_group_name_H-M   'P 1'
_cell_length_a   5.19276479
_cell_length_b   5.19276479
_cell_length_c   5.19276479
_cell_angle_alpha   68.97776697
_cell_angle_beta   71.61386000
_cell_angle_gamma   109.01709927
_symmetry_Int_Tables_number   1
_chemical_formula_structural   Cu6NiC
_chemical_formula_sum   'Cu6 Ni1 C1'
_cell_volume   107.72630898
_cell_formula_units_Z   1
loop_
 _symmetry_equiv_pos_site_id
 _symmetry_equiv_pos_as_xyz
  1  'x, y, z'
loop_
 _atom_site_type_symbol
 _atom_site_label
 _atom_site_symmetry_multiplicity
 _atom_site_fract_x
 _atom_site_fract_y
 _atom_site_fract_z
 _atom_site_occupancy
  Ni  Ni0  1  0.00000000  0.96312000  0.03688000  1
  Cu  Cu1  1  0.82975300  0.08285300  0.08739400  1
  Cu  Cu2  1  0.17024700  0.08285300  0.74690000  1
  Cu  Cu3  1  0.17236900  0.24773200  0.92463700  1
  Cu  Cu4  1  0.82763100  0.90299400  0.92463700  1
  Cu  Cu5  1  0.14020000  0.76147200  0.37872800  1
  Cu  Cu6  1  0.85980000  0.48107200  0.37872800  1
  C  C7  1  0.00000000  0.71400500  0.28599500  1
