# generated using pymatgen
data_CuNiC7
_symmetry_space_group_name_H-M   'P 1'
_cell_length_a   7.42160309
_cell_length_b   7.42160309
_cell_length_c   7.42160309
_cell_angle_alpha   122.80731521
_cell_angle_beta   118.44401544
_cell_angle_gamma   88.96201000
_symmetry_Int_Tables_number   1
_chemical_formula_structural   CuNiC7
_chemical_formula_sum   'Cu2 Ni2 C14'
_cell_volume   285.73813652
_cell_formula_units_Z   2
loop_
 _symmetry_equiv_pos_site_id
 _symmetry_equiv_pos_as_xyz
  1  'x, y, z'
loop_
 _atom_site_type_symbol
 _atom_site_label
 _atom_site_symmetry_multiplicity
 _atom_site_fract_x
 _atom_site_fract_y
 _atom_site_fract_z
 _atom_site_occupancy
  C  C0  1  0.36818600  0.61818600  0.75000000  1
  C  C1  1  0.63181400  0.38181400  0.25000000  1
  Ni  Ni2  1  0.00000000  0.00000000  0.00000000  1
  Ni  Ni3  1  0.50000000  0.00000000  0.50000000  1
  Cu  Cu4  1  0.00000000  0.00000000  0.50000000  1
  Cu  Cu5  1  0.00000000  0.50000000  0.00000000  1
  C  C6  1  0.31282300  0.06282300  0.25000000  1
  C  C7  1  0.93112200  0.68112200  0.25000000  1
  C  C8  1  0.33156000  0.68057200  0.25538600  1
  C  C9  1  0.92518600  0.07617400  0.24461400  1
  C  C10  1  0.33156000  0.07617400  0.65098700  1
  C  C11  1  0.92518600  0.68057200  0.84901300  1
  C  C12  1  0.68717700  0.93717700  0.75000000  1
  C  C13  1  0.06887800  0.31887800  0.75000000  1
  C  C14  1  0.66844000  0.31942800  0.74461400  1
  C  C15  1  0.07481400  0.92382600  0.75538600  1
  C  C16  1  0.66844000  0.92382600  0.34901300  1
  C  C17  1  0.07481400  0.31942800  0.15098700  1
