# generated using pymatgen
data_Cu2Ni2C9
_symmetry_space_group_name_H-M   'P 1'
_cell_length_a   8.51026100
_cell_length_b   8.51026100
_cell_length_c   11.17999500
_cell_angle_alpha   90.00000000
_cell_angle_beta   90.00000000
_cell_angle_gamma   90.00000000
_symmetry_Int_Tables_number   1
_chemical_formula_structural   Cu2Ni2C9
_chemical_formula_sum   'Cu4 Ni4 C18'
_cell_volume   809.70602066
_cell_formula_units_Z   2
loop_
 _symmetry_equiv_pos_site_id
 _symmetry_equiv_pos_as_xyz
  1  'x, y, z'
loop_
 _atom_site_type_symbol
 _atom_site_label
 _atom_site_symmetry_multiplicity
 _atom_site_fract_x
 _atom_site_fract_y
 _atom_site_fract_z
 _atom_site_occupancy
  C  C0  1  0.65996300  0.15996300  0.00000000  1
  C  C1  1  0.34003700  0.84003700  0.00000000  1
  C  C2  1  0.84003700  0.65996300  0.00000000  1
  C  C3  1  0.15996300  0.34003700  0.00000000  1
  C  C4  1  0.50000000  0.50000000  0.71973500  1
  C  C5  1  0.00000000  0.00000000  0.71973500  1
  C  C6  1  0.50000000  0.50000000  0.28026500  1
  C  C7  1  0.00000000  0.00000000  0.28026500  1
  Ni  Ni8  1  0.50000000  0.00000000  0.66003800  1
  Ni  Ni9  1  0.00000000  0.50000000  0.66003800  1
  Ni  Ni10  1  0.50000000  0.00000000  0.33996200  1
  Ni  Ni11  1  0.00000000  0.50000000  0.33996200  1
  Cu  Cu12  1  0.68301400  0.18301400  0.50000000  1
  Cu  Cu13  1  0.31698600  0.81698600  0.50000000  1
  Cu  Cu14  1  0.81698600  0.68301400  0.50000000  1
  Cu  Cu15  1  0.18301400  0.31698600  0.50000000  1
  C  C16  1  0.65592900  0.84407100  0.80434700  1
  C  C17  1  0.34407100  0.15592900  0.80434700  1
  C  C18  1  0.84407100  0.34407100  0.80434700  1
  C  C19  1  0.15592900  0.65592900  0.80434700  1
  C  C20  1  0.34407100  0.15592900  0.19565300  1
  C  C21  1  0.65592900  0.84407100  0.19565300  1
  C  C22  1  0.15592900  0.65592900  0.19565300  1
  C  C23  1  0.84407100  0.34407100  0.19565300  1
  C  C24  1  0.50000000  0.50000000  0.00000000  1
  C  C25  1  0.00000000  0.00000000  0.00000000  1
