# generated using pymatgen
data_CuNiC2
_symmetry_space_group_name_H-M   'P 1'
_cell_length_a   5.31335900
_cell_length_b   10.64369100
_cell_length_c   13.87301600
_cell_angle_alpha   90.00000000
_cell_angle_beta   90.00000000
_cell_angle_gamma   90.00000000
_symmetry_Int_Tables_number   1
_chemical_formula_structural   CuNiC2
_chemical_formula_sum   'Cu16 Ni16 C32'
_cell_volume   784.57109759
_cell_formula_units_Z   16
loop_
 _symmetry_equiv_pos_site_id
 _symmetry_equiv_pos_as_xyz
  1  'x, y, z'
loop_
 _atom_site_type_symbol
 _atom_site_label
 _atom_site_symmetry_multiplicity
 _atom_site_fract_x
 _atom_site_fract_y
 _atom_site_fract_z
 _atom_site_occupancy
  Ni  Ni0  1  0.72670500  0.97769800  0.43859200  1
  Ni  Ni1  1  0.22670500  0.52230200  0.56140800  1
  Ni  Ni2  1  0.27329500  0.47769800  0.06140800  1
  Ni  Ni3  1  0.77329500  0.02230200  0.93859200  1
  Ni  Ni4  1  0.27329500  0.02230200  0.56140800  1
  Ni  Ni5  1  0.77329500  0.47769800  0.43859200  1
  Ni  Ni6  1  0.72670500  0.52230200  0.93859200  1
  Ni  Ni7  1  0.22670500  0.97769800  0.06140800  1
  Ni  Ni8  1  0.79130400  0.25581600  0.31200000  1
  Ni  Ni9  1  0.29130400  0.24418400  0.68800000  1
  Ni  Ni10  1  0.20869600  0.75581600  0.18800000  1
  Ni  Ni11  1  0.70869600  0.74418400  0.81200000  1
  Ni  Ni12  1  0.20869600  0.74418400  0.68800000  1
  Ni  Ni13  1  0.70869600  0.75581600  0.31200000  1
  Ni  Ni14  1  0.79130400  0.24418400  0.81200000  1
  Ni  Ni15  1  0.29130400  0.25581600  0.18800000  1
  Cu  Cu16  1  0.69035700  0.02209800  0.18735700  1
  Cu  Cu17  1  0.19035700  0.47790200  0.81264300  1
  Cu  Cu18  1  0.30964300  0.52209800  0.31264300  1
  Cu  Cu19  1  0.80964300  0.97790200  0.68735700  1
  Cu  Cu20  1  0.30964300  0.97790200  0.81264300  1
  Cu  Cu21  1  0.80964300  0.52209800  0.18735700  1
  Cu  Cu22  1  0.69035700  0.47790200  0.68735700  1
  Cu  Cu23  1  0.19035700  0.02209800  0.31264300  1
  Cu  Cu24  1  0.78716100  0.27724500  0.06176900  1
  Cu  Cu25  1  0.28716100  0.22275500  0.93823100  1
  Cu  Cu26  1  0.21283900  0.77724500  0.43823100  1
  Cu  Cu27  1  0.71283900  0.72275500  0.56176900  1
  Cu  Cu28  1  0.21283900  0.72275500  0.93823100  1
  Cu  Cu29  1  0.71283900  0.77724500  0.06176900  1
  Cu  Cu30  1  0.78716100  0.22275500  0.56176900  1
  Cu  Cu31  1  0.28716100  0.27724500  0.43823100  1
  C  C32  1  0.62366000  0.48340600  0.28712100  1
  C  C33  1  0.12366000  0.01659400  0.71287900  1
  C  C34  1  0.37634000  0.98340600  0.21287900  1
  C  C35  1  0.87634000  0.51659400  0.78712100  1
  C  C36  1  0.37634000  0.51659400  0.71287900  1
  C  C37  1  0.87634000  0.98340600  0.28712100  1
  C  C38  1  0.62366000  0.01659400  0.78712100  1
  C  C39  1  0.12366000  0.48340600  0.21287900  1
  C  C40  1  0.61346100  0.26738000  0.46038600  1
  C  C41  1  0.11346100  0.23262000  0.53961400  1
  C  C42  1  0.38653900  0.76738000  0.03961400  1
  C  C43  1  0.88653900  0.73262000  0.96038600  1
  C  C44  1  0.38653900  0.73262000  0.53961400  1
  C  C45  1  0.88653900  0.76738000  0.46038600  1
  C  C46  1  0.61346100  0.23262000  0.96038600  1
  C  C47  1  0.11346100  0.26738000  0.03961400  1
  C  C48  1  0.71130800  0.43541700  0.08639200  1
  C  C49  1  0.21130800  0.06458300  0.91360800  1
  C  C50  1  0.28869200  0.93541700  0.41360800  1
  C  C51  1  0.78869200  0.56458300  0.58639200  1
  C  C52  1  0.28869200  0.56458300  0.91360800  1
  C  C53  1  0.78869200  0.93541700  0.08639200  1
  C  C54  1  0.71130800  0.06458300  0.58639200  1
  C  C55  1  0.21130800  0.43541700  0.41360800  1
  C  C56  1  0.70483500  0.18509900  0.16231500  1
  C  C57  1  0.20483500  0.31490100  0.83768500  1
  C  C58  1  0.29516500  0.68509900  0.33768500  1
  C  C59  1  0.79516500  0.81490100  0.66231500  1
  C  C60  1  0.29516500  0.81490100  0.83768500  1
  C  C61  1  0.79516500  0.68509900  0.16231500  1
  C  C62  1  0.70483500  0.31490100  0.66231500  1
  C  C63  1  0.20483500  0.18509900  0.33768500  1
