# generated using pymatgen
data_Cu4Ni2C3
_symmetry_space_group_name_H-M   'P 1'
_cell_length_a   7.96043503
_cell_length_b   7.96043503
_cell_length_c   7.20446600
_cell_angle_alpha   90.00000000
_cell_angle_beta   90.00000000
_cell_angle_gamma   134.44955289
_symmetry_Int_Tables_number   1
_chemical_formula_structural   Cu4Ni2C3
_chemical_formula_sum   'Cu8 Ni4 C6'
_cell_volume   325.90640081
_cell_formula_units_Z   2
loop_
 _symmetry_equiv_pos_site_id
 _symmetry_equiv_pos_as_xyz
  1  'x, y, z'
loop_
 _atom_site_type_symbol
 _atom_site_label
 _atom_site_symmetry_multiplicity
 _atom_site_fract_x
 _atom_site_fract_y
 _atom_site_fract_z
 _atom_site_occupancy
  C  C0  1  0.44132700  0.55260900  0.25000000  1
  C  C1  1  0.55260900  0.44132700  0.75000000  1
  C  C2  1  0.75117700  0.22075500  0.25000000  1
  C  C3  1  0.22075500  0.75117700  0.75000000  1
  C  C4  1  0.11571000  0.88896000  0.25000000  1
  C  C5  1  0.88896000  0.11571000  0.75000000  1
  Ni  Ni6  1  0.06712700  0.30130300  0.93769800  1
  Ni  Ni7  1  0.30130300  0.06712700  0.06230200  1
  Ni  Ni8  1  0.30130300  0.06712700  0.43769800  1
  Ni  Ni9  1  0.06712700  0.30130300  0.56230200  1
  Cu  Cu10  1  0.93971800  0.97407000  0.25000000  1
  Cu  Cu11  1  0.97407000  0.93971800  0.75000000  1
  Cu  Cu12  1  0.85768400  0.61714300  0.07079700  1
  Cu  Cu13  1  0.61714300  0.85768400  0.92920300  1
  Cu  Cu14  1  0.61714300  0.85768400  0.57079700  1
  Cu  Cu15  1  0.85768400  0.61714300  0.42920300  1
  Cu  Cu16  1  0.21146100  0.71469800  0.25000000  1
  Cu  Cu17  1  0.71469800  0.21146100  0.75000000  1
