# generated using pymatgen
data_Cu2NiC2
_symmetry_space_group_name_H-M   'P 1'
_cell_length_a   7.74604500
_cell_length_b   7.74604500
_cell_length_c   7.31643900
_cell_angle_alpha   90.00000000
_cell_angle_beta   90.00000000
_cell_angle_gamma   90.00000000
_symmetry_Int_Tables_number   1
_chemical_formula_structural   Cu2NiC2
_chemical_formula_sum   'Cu8 Ni4 C8'
_cell_volume   438.99521588
_cell_formula_units_Z   4
loop_
 _symmetry_equiv_pos_site_id
 _symmetry_equiv_pos_as_xyz
  1  'x, y, z'
loop_
 _atom_site_type_symbol
 _atom_site_label
 _atom_site_symmetry_multiplicity
 _atom_site_fract_x
 _atom_site_fract_y
 _atom_site_fract_z
 _atom_site_occupancy
  C  C0  1  0.68676900  0.31323100  0.50000000  1
  C  C1  1  0.31323100  0.68676900  0.50000000  1
  C  C2  1  0.18676900  0.18676900  0.00000000  1
  C  C3  1  0.81323100  0.81323100  0.00000000  1
  C  C4  1  0.84552000  0.84552000  0.50000000  1
  C  C5  1  0.15448000  0.15448000  0.50000000  1
  C  C6  1  0.34552000  0.65448000  0.00000000  1
  C  C7  1  0.65448000  0.34552000  0.00000000  1
  Ni  Ni8  1  0.50000000  0.00000000  0.25000000  1
  Ni  Ni9  1  0.00000000  0.50000000  0.75000000  1
  Ni  Ni10  1  0.50000000  0.00000000  0.75000000  1
  Ni  Ni11  1  0.00000000  0.50000000  0.25000000  1
  Cu  Cu12  1  0.86869100  0.13130900  0.21911700  1
  Cu  Cu13  1  0.13130900  0.86869100  0.21911700  1
  Cu  Cu14  1  0.36869100  0.36869100  0.71911700  1
  Cu  Cu15  1  0.63130900  0.63130900  0.71911700  1
  Cu  Cu16  1  0.13130900  0.86869100  0.78088300  1
  Cu  Cu17  1  0.86869100  0.13130900  0.78088300  1
  Cu  Cu18  1  0.63130900  0.63130900  0.28088300  1
  Cu  Cu19  1  0.36869100  0.36869100  0.28088300  1
