# generated using pymatgen
data_Cu5NiC2
_symmetry_space_group_name_H-M   'P 1'
_cell_length_a   3.88803227
_cell_length_b   3.88803227
_cell_length_c   15.24768000
_cell_angle_alpha   90.00000000
_cell_angle_beta   90.00000000
_cell_angle_gamma   120.83680549
_symmetry_Int_Tables_number   1
_chemical_formula_structural   Cu5NiC2
_chemical_formula_sum   'Cu10 Ni2 C4'
_cell_volume   197.91100817
_cell_formula_units_Z   2
loop_
 _symmetry_equiv_pos_site_id
 _symmetry_equiv_pos_as_xyz
  1  'x, y, z'
loop_
 _atom_site_type_symbol
 _atom_site_label
 _atom_site_symmetry_multiplicity
 _atom_site_fract_x
 _atom_site_fract_y
 _atom_site_fract_z
 _atom_site_occupancy
  C  C0  1  0.33510700  0.66489300  0.90698100  1
  C  C1  1  0.66489300  0.33510700  0.09301900  1
  C  C2  1  0.66489300  0.33510700  0.40698100  1
  C  C3  1  0.33510700  0.66489300  0.59301900  1
  Ni  Ni4  1  0.08557400  0.91442600  0.75000000  1
  Ni  Ni5  1  0.91442600  0.08557400  0.25000000  1
  Cu  Cu6  1  0.99616900  0.00383100  0.82571200  1
  Cu  Cu7  1  0.00383100  0.99616900  0.17428800  1
  Cu  Cu8  1  0.00383100  0.99616900  0.32571200  1
  Cu  Cu9  1  0.99616900  0.00383100  0.67428800  1
  Cu  Cu10  1  0.33275300  0.66724700  0.44278900  1
  Cu  Cu11  1  0.66724700  0.33275300  0.55721100  1
  Cu  Cu12  1  0.66724700  0.33275300  0.94278900  1
  Cu  Cu13  1  0.33275300  0.66724700  0.05721100  1
  Cu  Cu14  1  0.27496600  0.72503400  0.75000000  1
  Cu  Cu15  1  0.72503400  0.27496600  0.25000000  1
