# generated using pymatgen
data_Cu23(Ni3C5)2
_symmetry_space_group_name_H-M   'P 1'
_cell_length_a   8.56086704
_cell_length_b   9.63076969
_cell_length_c   9.63355550
_cell_angle_alpha   120.00424988
_cell_angle_beta   90.01085059
_cell_angle_gamma   89.99606914
_symmetry_Int_Tables_number   1
_chemical_formula_structural   Cu23(Ni3C5)2
_chemical_formula_sum   'Cu23 Ni6 C10'
_cell_volume   687.82408124
_cell_formula_units_Z   1
loop_
 _symmetry_equiv_pos_site_id
 _symmetry_equiv_pos_as_xyz
  1  'x, y, z'
loop_
 _atom_site_type_symbol
 _atom_site_label
 _atom_site_symmetry_multiplicity
 _atom_site_fract_x
 _atom_site_fract_y
 _atom_site_fract_z
 _atom_site_occupancy
  C  C0  1  0.99914700  0.28104300  0.00035600  1
  C  C1  1  0.99899000  0.71929200  0.71884600  1
  C  C2  1  0.99900400  0.99954300  0.28082700  1
  C  C3  1  0.49979700  0.28274000  0.00040600  1
  C  C4  1  0.49993200  0.71764400  0.71710500  1
  C  C5  1  0.49984000  0.99953500  0.28246500  1
  C  C6  1  0.75018000  0.33296200  0.66639600  1
  C  C7  1  0.24976800  0.66676400  0.33333800  1
  C  C8  1  0.75001900  0.66678100  0.33348500  1
  C  C9  1  0.24996300  0.33331800  0.66665700  1
  Ni  Ni10  1  0.74964800  0.98655400  0.61564800  1
  Ni  Ni11  1  0.74964500  0.62919400  0.01346900  1
  Ni  Ni12  1  0.74966000  0.38429700  0.37087500  1
  Ni  Ni13  1  0.25002000  0.37051800  0.38454900  1
  Ni  Ni14  1  0.25004900  0.61558100  0.98600500  1
  Ni  Ni15  1  0.25004900  0.01376000  0.62933700  1
  Cu  Cu16  1  0.74949700  0.85387800  0.62382200  1
  Cu  Cu17  1  0.74946400  0.77016600  0.14610900  1
  Cu  Cu18  1  0.74952100  0.37596000  0.23001000  1
  Cu  Cu19  1  0.25001100  0.23031500  0.37688100  1
  Cu  Cu20  1  0.25012700  0.62327000  0.85354100  1
  Cu  Cu21  1  0.25010800  0.14642500  0.76948600  1
  Cu  Cu22  1  0.74947400  0.12517900  0.73762300  1
  Cu  Cu23  1  0.74949200  0.61241500  0.87493600  1
  Cu  Cu24  1  0.74944900  0.26236100  0.38757100  1
  Cu  Cu25  1  0.24995200  0.38698400  0.26216400  1
  Cu  Cu26  1  0.24991900  0.73802500  0.12487900  1
  Cu  Cu27  1  0.24993100  0.87496400  0.61298800  1
  Cu  Cu28  1  0.96575700  0.66673200  0.33327900  1
  Cu  Cu29  1  0.53421800  0.66674300  0.33322700  1
  Cu  Cu30  1  0.46505900  0.33332700  0.66656700  1
  Cu  Cu31  1  0.03488600  0.33337000  0.66654900  1
  Cu  Cu32  1  0.74989100  0.96035300  0.46759900  1
  Cu  Cu33  1  0.74988800  0.50735100  0.03981800  1
  Cu  Cu34  1  0.74991200  0.53246800  0.49273200  1
  Cu  Cu35  1  0.25028200  0.49290900  0.53188500  1
  Cu  Cu36  1  0.25028300  0.46820000  0.96104700  1
  Cu  Cu37  1  0.25028000  0.03868500  0.50694000  1
  Cu  Cu38  1  0.20488800  0.00059500  0.00058200  1
