# generated using pymatgen
data_Cu6Ni4C
_symmetry_space_group_name_H-M   'P 1'
_cell_length_a   9.59164500
_cell_length_b   10.03462100
_cell_length_c   13.65171000
_cell_angle_alpha   90.00000000
_cell_angle_beta   90.00000000
_cell_angle_gamma   90.00000000
_symmetry_Int_Tables_number   1
_chemical_formula_structural   Cu6Ni4C
_chemical_formula_sum   'Cu48 Ni32 C8'
_cell_volume   1313.95691494
_cell_formula_units_Z   8
loop_
 _symmetry_equiv_pos_site_id
 _symmetry_equiv_pos_as_xyz
  1  'x, y, z'
loop_
 _atom_site_type_symbol
 _atom_site_label
 _atom_site_symmetry_multiplicity
 _atom_site_fract_x
 _atom_site_fract_y
 _atom_site_fract_z
 _atom_site_occupancy
  C  C0  1  0.61746200  0.11520500  0.41351000  1
  C  C1  1  0.11746200  0.38479500  0.58649000  1
  C  C2  1  0.38253800  0.61520500  0.08649000  1
  C  C3  1  0.88253800  0.88479500  0.91351000  1
  C  C4  1  0.38253800  0.88479500  0.58649000  1
  C  C5  1  0.88253800  0.61520500  0.41351000  1
  C  C6  1  0.61746200  0.38479500  0.91351000  1
  C  C7  1  0.11746200  0.11520500  0.08649000  1
  Ni  Ni8  1  0.54669400  0.19395500  0.52043400  1
  Ni  Ni9  1  0.04669400  0.30604500  0.47956600  1
  Ni  Ni10  1  0.45330600  0.69395500  0.97956600  1
  Ni  Ni11  1  0.95330600  0.80604500  0.02043400  1
  Ni  Ni12  1  0.45330600  0.80604500  0.47956600  1
  Ni  Ni13  1  0.95330600  0.69395500  0.52043400  1
  Ni  Ni14  1  0.54669400  0.30604500  0.02043400  1
  Ni  Ni15  1  0.04669400  0.19395500  0.97956600  1
  Ni  Ni16  1  0.51030800  0.13333000  0.30977700  1
  Ni  Ni17  1  0.01030800  0.36667000  0.69022200  1
  Ni  Ni18  1  0.48969200  0.63333000  0.19022300  1
  Ni  Ni19  1  0.98969200  0.86667000  0.80977800  1
  Ni  Ni20  1  0.48969200  0.86667000  0.69022200  1
  Ni  Ni21  1  0.98969200  0.63333000  0.30977700  1
  Ni  Ni22  1  0.51030800  0.36667000  0.80977800  1
  Ni  Ni23  1  0.01030800  0.13333000  0.19022300  1
  Ni  Ni24  1  0.74791600  0.91638000  0.28314200  1
  Ni  Ni25  1  0.24791600  0.58362000  0.71685800  1
  Ni  Ni26  1  0.25208400  0.41638000  0.21685800  1
  Ni  Ni27  1  0.75208400  0.08362000  0.78314200  1
  Ni  Ni28  1  0.25208400  0.08362000  0.71685800  1
  Ni  Ni29  1  0.75208400  0.41638000  0.28314200  1
  Ni  Ni30  1  0.74791600  0.58362000  0.78314200  1
  Ni  Ni31  1  0.24791600  0.91638000  0.21685800  1
  Ni  Ni32  1  0.82927600  0.00884900  0.55400500  1
  Ni  Ni33  1  0.32927600  0.49115100  0.44599500  1
  Ni  Ni34  1  0.17072400  0.50884900  0.94599500  1
  Ni  Ni35  1  0.67072400  0.99115100  0.05400500  1
  Ni  Ni36  1  0.17072400  0.99115100  0.44599500  1
  Ni  Ni37  1  0.67072400  0.50884900  0.55400500  1
  Ni  Ni38  1  0.82927600  0.49115100  0.05400500  1
  Ni  Ni39  1  0.32927600  0.00884900  0.94599500  1
  Cu  Cu40  1  0.76661800  0.04427300  0.31023200  1
  Cu  Cu41  1  0.26661800  0.45572700  0.68976800  1
  Cu  Cu42  1  0.23338200  0.54427300  0.18976800  1
  Cu  Cu43  1  0.73338200  0.95572700  0.81023200  1
  Cu  Cu44  1  0.23338200  0.95572700  0.68976800  1
  Cu  Cu45  1  0.73338200  0.54427300  0.31023200  1
  Cu  Cu46  1  0.76661800  0.45572700  0.81023200  1
  Cu  Cu47  1  0.26661800  0.04427300  0.18976800  1
  Cu  Cu48  1  0.65116800  0.85144500  0.31945600  1
  Cu  Cu49  1  0.15116800  0.64855500  0.68054400  1
  Cu  Cu50  1  0.34883200  0.35144500  0.18054400  1
  Cu  Cu51  1  0.84883200  0.14855500  0.81945600  1
  Cu  Cu52  1  0.34883200  0.14855500  0.68054400  1
  Cu  Cu53  1  0.84883200  0.35144500  0.31945600  1
  Cu  Cu54  1  0.65116800  0.64855500  0.81945600  1
  Cu  Cu55  1  0.15116800  0.85144500  0.18054400  1
  Cu  Cu56  1  0.83388900  0.87460800  0.22299600  1
  Cu  Cu57  1  0.33388900  0.62539200  0.77700400  1
  Cu  Cu58  1  0.16611100  0.37460800  0.27700400  1
  Cu  Cu59  1  0.66611100  0.12539200  0.72299600  1
  Cu  Cu60  1  0.16611100  0.12539200  0.77700400  1
  Cu  Cu61  1  0.66611100  0.37460800  0.22299600  1
  Cu  Cu62  1  0.83388900  0.62539200  0.72299600  1
  Cu  Cu63  1  0.33388900  0.87460800  0.27700400  1
  Cu  Cu64  1  0.80408500  0.12063500  0.50313400  1
  Cu  Cu65  1  0.30408500  0.37936500  0.49686600  1
  Cu  Cu66  1  0.19591500  0.62063500  0.99686600  1
  Cu  Cu67  1  0.69591500  0.87936500  0.00313400  1
  Cu  Cu68  1  0.19591500  0.87936500  0.49686600  1
  Cu  Cu69  1  0.69591500  0.62063500  0.50313400  1
  Cu  Cu70  1  0.80408500  0.37936500  0.00313400  1
  Cu  Cu71  1  0.30408500  0.12063500  0.99686600  1
  Cu  Cu72  1  0.93306600  0.01062500  0.60684900  1
  Cu  Cu73  1  0.43306600  0.48937500  0.39315100  1
  Cu  Cu74  1  0.06693400  0.51062500  0.89315100  1
  Cu  Cu75  1  0.56693400  0.98937500  0.10684900  1
  Cu  Cu76  1  0.06693400  0.98937500  0.39315100  1
  Cu  Cu77  1  0.56693400  0.51062500  0.60684900  1
  Cu  Cu78  1  0.93306600  0.48937500  0.10684900  1
  Cu  Cu79  1  0.43306600  0.01062500  0.89315100  1
  Cu  Cu80  1  0.74739100  0.91319300  0.54417200  1
  Cu  Cu81  1  0.24739100  0.58680700  0.45582800  1
  Cu  Cu82  1  0.25260900  0.41319300  0.95582800  1
  Cu  Cu83  1  0.75260900  0.08680700  0.04417200  1
  Cu  Cu84  1  0.25260900  0.08680700  0.45582800  1
  Cu  Cu85  1  0.75260900  0.41319300  0.54417200  1
  Cu  Cu86  1  0.74739100  0.58680700  0.04417200  1
  Cu  Cu87  1  0.24739100  0.91319300  0.95582800  1
