# generated using pymatgen
data_Cu16Ni30C
_symmetry_space_group_name_H-M   'P 1'
_cell_length_a   9.30568750
_cell_length_b   9.69468436
_cell_length_c   10.50525500
_cell_angle_alpha   90.00000000
_cell_angle_beta   90.00000000
_cell_angle_gamma   101.59996449
_symmetry_Int_Tables_number   1
_chemical_formula_structural   Cu16Ni30C
_chemical_formula_sum   'Cu32 Ni60 C2'
_cell_volume   928.38175198
_cell_formula_units_Z   2
loop_
 _symmetry_equiv_pos_site_id
 _symmetry_equiv_pos_as_xyz
  1  'x, y, z'
loop_
 _atom_site_type_symbol
 _atom_site_label
 _atom_site_symmetry_multiplicity
 _atom_site_fract_x
 _atom_site_fract_y
 _atom_site_fract_z
 _atom_site_occupancy
  C  C0  1  0.50000000  0.50000000  0.00000000  1
  C  C1  1  0.00000000  0.00000000  0.50000000  1
  Ni  Ni2  1  0.26811100  0.59246300  0.11600000  1
  Ni  Ni3  1  0.76811100  0.09246300  0.38400000  1
  Ni  Ni4  1  0.73188900  0.40753700  0.88400000  1
  Ni  Ni5  1  0.23188900  0.90753700  0.61600000  1
  Ni  Ni6  1  0.27296100  0.63397000  0.96427000  1
  Ni  Ni7  1  0.77296100  0.13397000  0.53573000  1
  Ni  Ni8  1  0.72703900  0.36603000  0.03573000  1
  Ni  Ni9  1  0.22703900  0.86603000  0.46427000  1
  Ni  Ni10  1  0.19970000  0.47004600  0.00935300  1
  Ni  Ni11  1  0.69970000  0.97004600  0.49064700  1
  Ni  Ni12  1  0.80030000  0.52995400  0.99064700  1
  Ni  Ni13  1  0.30030000  0.02995400  0.50935300  1
  Ni  Ni14  1  0.50761700  0.44369500  0.74231000  1
  Ni  Ni15  1  0.00761700  0.94369500  0.75769000  1
  Ni  Ni16  1  0.49238300  0.55630500  0.25769000  1
  Ni  Ni17  1  0.99238300  0.05630500  0.24231000  1
  Ni  Ni18  1  0.33832300  0.46082200  0.77272700  1
  Ni  Ni19  1  0.83832300  0.96082200  0.72727300  1
  Ni  Ni20  1  0.66167700  0.53917800  0.22727300  1
  Ni  Ni21  1  0.16167700  0.03917800  0.27272700  1
  Ni  Ni22  1  0.39021700  0.31087100  0.80651900  1
  Ni  Ni23  1  0.89021700  0.81087100  0.69348100  1
  Ni  Ni24  1  0.60978300  0.68912900  0.19348100  1
  Ni  Ni25  1  0.10978300  0.18912900  0.30651900  1
  Ni  Ni26  1  0.35278000  0.31238600  0.16825700  1
  Ni  Ni27  1  0.85278000  0.81238600  0.33174300  1
  Ni  Ni28  1  0.64722000  0.68761400  0.83174300  1
  Ni  Ni29  1  0.14722000  0.18761400  0.66825700  1
  Ni  Ni30  1  0.34667200  0.22874000  0.03008500  1
  Ni  Ni31  1  0.84667200  0.72874000  0.46991500  1
  Ni  Ni32  1  0.65332800  0.77126000  0.96991500  1
  Ni  Ni33  1  0.15332800  0.27126000  0.53008500  1
  Ni  Ni34  1  0.49363300  0.24471200  0.12076400  1
  Ni  Ni35  1  0.99363300  0.74471200  0.37923600  1
  Ni  Ni36  1  0.50636700  0.75528800  0.87923600  1
  Ni  Ni37  1  0.00636700  0.25528800  0.62076400  1
  Ni  Ni38  1  0.95780300  0.25345700  0.03185200  1
  Ni  Ni39  1  0.45780300  0.75345700  0.46814800  1
  Ni  Ni40  1  0.04219700  0.74654300  0.96814800  1
  Ni  Ni41  1  0.54219700  0.24654300  0.53185200  1
  Ni  Ni42  1  0.98640700  0.31482100  0.88760400  1
  Ni  Ni43  1  0.48640700  0.81482100  0.61239600  1
  Ni  Ni44  1  0.01359300  0.68517900  0.11239600  1
  Ni  Ni45  1  0.51359300  0.18517900  0.38760400  1
  Ni  Ni46  1  0.08605000  0.20734200  0.94285400  1
  Ni  Ni47  1  0.58605000  0.70734200  0.55714600  1
  Ni  Ni48  1  0.91395000  0.79265800  0.05714600  1
  Ni  Ni49  1  0.41395000  0.29265800  0.44285400  1
  Ni  Ni50  1  0.06815200  0.52366500  0.71608700  1
  Ni  Ni51  1  0.56815200  0.02366500  0.78391300  1
  Ni  Ni52  1  0.93184800  0.47633500  0.28391300  1
  Ni  Ni53  1  0.43184800  0.97633500  0.21608700  1
  Ni  Ni54  1  0.19664000  0.66581800  0.73745800  1
  Ni  Ni55  1  0.69664000  0.16581800  0.76254200  1
  Ni  Ni56  1  0.80336000  0.33418200  0.26254200  1
  Ni  Ni57  1  0.30336000  0.83418200  0.23745800  1
  Ni  Ni58  1  0.18515200  0.57851200  0.60267100  1
  Ni  Ni59  1  0.68515200  0.07851200  0.89732900  1
  Ni  Ni60  1  0.81484800  0.42148800  0.39732900  1
  Ni  Ni61  1  0.31484800  0.92148800  0.10267100  1
  Cu  Cu62  1  0.25158600  0.40902400  0.35516400  1
  Cu  Cu63  1  0.75158600  0.90902400  0.14483600  1
  Cu  Cu64  1  0.74841400  0.59097600  0.64483600  1
  Cu  Cu65  1  0.24841400  0.09097600  0.85516400  1
  Cu  Cu66  1  0.22523400  0.52367700  0.34897900  1
  Cu  Cu67  1  0.72523400  0.02367700  0.15102100  1
  Cu  Cu68  1  0.77476600  0.47632300  0.65102100  1
  Cu  Cu69  1  0.27476600  0.97632300  0.84897900  1
  Cu  Cu70  1  0.19940200  0.63895700  0.34138600  1
  Cu  Cu71  1  0.69940200  0.13895700  0.15861400  1
  Cu  Cu72  1  0.80059800  0.36104300  0.65861400  1
  Cu  Cu73  1  0.30059800  0.86104300  0.84138600  1
  Cu  Cu74  1  0.28415100  0.55574600  0.02677700  1
  Cu  Cu75  1  0.78415100  0.05574600  0.47322300  1
  Cu  Cu76  1  0.71584900  0.44425400  0.97322300  1
  Cu  Cu77  1  0.21584900  0.94425400  0.52677700  1
  Cu  Cu78  1  0.42434000  0.41819000  0.80684900  1
  Cu  Cu79  1  0.92434000  0.91819000  0.69315100  1
  Cu  Cu80  1  0.57566000  0.58181000  0.19315100  1
  Cu  Cu81  1  0.07566000  0.08181000  0.30684900  1
  Cu  Cu82  1  0.41360900  0.29583800  0.09052400  1
  Cu  Cu83  1  0.91360900  0.79583800  0.40947600  1
  Cu  Cu84  1  0.58639100  0.70416200  0.90947600  1
  Cu  Cu85  1  0.08639100  0.20416200  0.59052400  1
  Cu  Cu86  1  0.03885700  0.29047000  0.96748600  1
  Cu  Cu87  1  0.53885700  0.79047000  0.53251400  1
  Cu  Cu88  1  0.96114300  0.70953000  0.03251400  1
  Cu  Cu89  1  0.46114300  0.20953000  0.46748600  1
  Cu  Cu90  1  0.17626100  0.56628700  0.69926100  1
  Cu  Cu91  1  0.67626100  0.06628700  0.80073900  1
  Cu  Cu92  1  0.82373900  0.43371300  0.30073900  1
  Cu  Cu93  1  0.32373900  0.93371300  0.19926100  1
