# generated using pymatgen
data_Cu3Ni9C2
_symmetry_space_group_name_H-M   'P 1'
_cell_length_a   7.56040079
_cell_length_b   7.56040079
_cell_length_c   9.49742500
_cell_angle_alpha   90.00000000
_cell_angle_beta   90.00000000
_cell_angle_gamma   119.37694990
_symmetry_Int_Tables_number   1
_chemical_formula_structural   Cu3Ni9C2
_chemical_formula_sum   'Cu6 Ni18 C4'
_cell_volume   473.06265366
_cell_formula_units_Z   2
loop_
 _symmetry_equiv_pos_site_id
 _symmetry_equiv_pos_as_xyz
  1  'x, y, z'
loop_
 _atom_site_type_symbol
 _atom_site_label
 _atom_site_symmetry_multiplicity
 _atom_site_fract_x
 _atom_site_fract_y
 _atom_site_fract_z
 _atom_site_occupancy
  C  C0  1  0.99467200  0.67021200  0.25000000  1
  C  C1  1  0.00532800  0.32978800  0.75000000  1
  C  C2  1  0.67021200  0.99467200  0.25000000  1
  C  C3  1  0.32978800  0.00532800  0.75000000  1
  Ni  Ni4  1  0.12775500  0.12775500  0.25000000  1
  Ni  Ni5  1  0.87224500  0.87224500  0.75000000  1
  Ni  Ni6  1  0.00151100  0.33508500  0.07389200  1
  Ni  Ni7  1  0.99848900  0.66491500  0.92610800  1
  Ni  Ni8  1  0.99848900  0.66491500  0.57389200  1
  Ni  Ni9  1  0.33508500  0.00151100  0.42610800  1
  Ni  Ni10  1  0.00151100  0.33508500  0.42610800  1
  Ni  Ni11  1  0.66491500  0.99848900  0.57389200  1
  Ni  Ni12  1  0.66491500  0.99848900  0.92610800  1
  Ni  Ni13  1  0.33508500  0.00151100  0.07389200  1
  Ni  Ni14  1  0.33332100  0.33332100  0.55018800  1
  Ni  Ni15  1  0.66667900  0.66667900  0.44981200  1
  Ni  Ni16  1  0.66667900  0.66667900  0.05018800  1
  Ni  Ni17  1  0.33332100  0.33332100  0.94981200  1
  Ni  Ni18  1  0.33876800  0.54807400  0.25000000  1
  Ni  Ni19  1  0.66123200  0.45192600  0.75000000  1
  Ni  Ni20  1  0.54807400  0.33876800  0.25000000  1
  Ni  Ni21  1  0.45192600  0.66123200  0.75000000  1
  Cu  Cu22  1  0.67191000  0.32809000  0.00000000  1
  Cu  Cu23  1  0.32809000  0.67191000  0.00000000  1
  Cu  Cu24  1  0.32809000  0.67191000  0.50000000  1
  Cu  Cu25  1  0.67191000  0.32809000  0.50000000  1
  Cu  Cu26  1  0.00000000  0.00000000  0.00000000  1
  Cu  Cu27  1  0.00000000  0.00000000  0.50000000  1
