# generated using pymatgen
data_CuNi2C
_symmetry_space_group_name_H-M   'P 1'
_cell_length_a   15.52872437
_cell_length_b   14.63305909
_cell_length_c   14.63305925
_cell_angle_alpha   58.61670528
_cell_angle_beta   57.95371393
_cell_angle_gamma   57.95371550
_symmetry_Int_Tables_number   1
_chemical_formula_structural   CuNi2C
_chemical_formula_sum   'Cu1 Ni2 C1'
_cell_volume   2252.64238779
_cell_formula_units_Z   1
loop_
 _symmetry_equiv_pos_site_id
 _symmetry_equiv_pos_as_xyz
  1  'x, y, z'
loop_
 _atom_site_type_symbol
 _atom_site_label
 _atom_site_symmetry_multiplicity
 _atom_site_fract_x
 _atom_site_fract_y
 _atom_site_fract_z
 _atom_site_occupancy
  Ni  Ni0  1  0.75015904  0.00000000  -0.00000000  1
  Ni  Ni1  1  0.24984096  -0.00000000  0.00000000  1
  Cu  Cu2  1  0.00000000  -0.00000000  -0.00000000  1
  C  C3  1  0.50000000  -0.00000000  -0.00000000  1
