# generated using pymatgen
data_Cu8Ni4C19
_symmetry_space_group_name_H-M   'P 1'
_cell_length_a   9.55445471
_cell_length_b   7.36058706
_cell_length_c   9.99047000
_cell_angle_alpha   90.00000000
_cell_angle_beta   90.00000000
_cell_angle_gamma   97.23532247
_symmetry_Int_Tables_number   1
_chemical_formula_structural   Cu8Ni4C19
_chemical_formula_sum   'Cu16 Ni8 C38'
_cell_volume   696.99916502
_cell_formula_units_Z   2
loop_
 _symmetry_equiv_pos_site_id
 _symmetry_equiv_pos_as_xyz
  1  'x, y, z'
loop_
 _atom_site_type_symbol
 _atom_site_label
 _atom_site_symmetry_multiplicity
 _atom_site_fract_x
 _atom_site_fract_y
 _atom_site_fract_z
 _atom_site_occupancy
  C  C0  1  0.50000000  0.00000000  0.50000000  1
  C  C1  1  0.00000000  0.00000000  0.00000000  1
  C  C2  1  0.80299300  0.05257300  0.34547000  1
  C  C3  1  0.69700700  0.94742700  0.84547000  1
  C  C4  1  0.61294600  0.81651100  0.02908900  1
  C  C5  1  0.64792000  0.47851400  0.13195000  1
  C  C6  1  0.85208000  0.52148600  0.63195000  1
  C  C7  1  0.35208000  0.52148600  0.86805000  1
  C  C8  1  0.14792000  0.47851400  0.36805000  1
  C  C9  1  0.07515800  0.79988100  0.25979500  1
  C  C10  1  0.42484200  0.20011900  0.75979500  1
  C  C11  1  0.92484200  0.20011900  0.74020500  1
  C  C12  1  0.19700700  0.94742700  0.65453000  1
  C  C13  1  0.30299300  0.05257300  0.15453000  1
  C  C14  1  0.35827900  0.37558300  0.49576300  1
  C  C15  1  0.14172100  0.62441700  0.99576300  1
  C  C16  1  0.64172100  0.62441700  0.50423700  1
  C  C17  1  0.85827900  0.37558300  0.00423700  1
  C  C18  1  0.60437100  0.34207700  0.44741200  1
  C  C19  1  0.51371500  0.24880800  0.32544000  1
  C  C20  1  0.39562900  0.65792300  0.55258800  1
  C  C21  1  0.10437100  0.34207700  0.05258800  1
  C  C22  1  0.98628500  0.75119200  0.82544000  1
  C  C23  1  0.88705400  0.18348900  0.52908900  1
  C  C24  1  0.01371500  0.24880800  0.17456000  1
  C  C25  1  0.48628500  0.75119200  0.67456000  1
  C  C26  1  0.11294600  0.81651100  0.47091100  1
  C  C27  1  0.38705400  0.18348900  0.97091100  1
  C  C28  1  0.57515800  0.79988100  0.24020500  1
  C  C29  1  0.89562900  0.65792300  0.94741200  1
  C  C30  1  0.24677200  0.96726400  0.23347300  1
  C  C31  1  0.25322800  0.03273600  0.73347300  1
  C  C32  1  0.75322800  0.03273600  0.76652700  1
  C  C33  1  0.83596900  0.57365600  0.53109700  1
  C  C34  1  0.33596900  0.57365600  0.96890300  1
  C  C35  1  0.16403100  0.42634400  0.46890300  1
  C  C36  1  0.66403100  0.42634400  0.03109700  1
  C  C37  1  0.74677200  0.96726400  0.26652700  1
  Ni  Ni38  1  0.54772400  0.74087800  0.96184900  1
  Ni  Ni39  1  0.92866300  0.68893500  0.46948800  1
  Ni  Ni40  1  0.57133700  0.31106500  0.96948800  1
  Ni  Ni41  1  0.95227600  0.25912200  0.46184900  1
  Ni  Ni42  1  0.42866300  0.68893500  0.03051200  1
  Ni  Ni43  1  0.04772400  0.74087800  0.53815100  1
  Ni  Ni44  1  0.45227600  0.25912200  0.03815100  1
  Ni  Ni45  1  0.07133700  0.31106500  0.53051200  1
  Cu  Cu46  1  0.02050100  0.24964800  0.07678400  1
  Cu  Cu47  1  0.97949900  0.75035200  0.92321600  1
  Cu  Cu48  1  0.47949900  0.75035200  0.57678400  1
  Cu  Cu49  1  0.52050100  0.24964800  0.42321600  1
  Cu  Cu50  1  0.70179500  0.53125700  0.47660000  1
  Cu  Cu51  1  0.71449100  0.03491100  0.64985500  1
  Cu  Cu52  1  0.29820500  0.46874300  0.52340000  1
  Cu  Cu53  1  0.20179500  0.53125700  0.02340000  1
  Cu  Cu54  1  0.78550900  0.96508900  0.14985500  1
  Cu  Cu55  1  0.12798500  0.86877800  0.18697500  1
  Cu  Cu56  1  0.21449100  0.03491100  0.85014500  1
  Cu  Cu57  1  0.28550900  0.96508900  0.35014500  1
  Cu  Cu58  1  0.62798500  0.86877800  0.31302500  1
  Cu  Cu59  1  0.87201500  0.13122200  0.81302500  1
  Cu  Cu60  1  0.37201500  0.13122200  0.68697500  1
  Cu  Cu61  1  0.79820500  0.46874300  0.97660000  1
