# generated using pymatgen
data_Cu7(Ni3C28)2
_symmetry_space_group_name_H-M   'P 1'
_cell_length_a   11.52648900
_cell_length_b   18.93023600
_cell_length_c   14.61857543
_cell_angle_alpha   90.00000000
_cell_angle_beta   120.17675226
_cell_angle_gamma   90.00000000
_symmetry_Int_Tables_number   1
_chemical_formula_structural   Cu7(Ni3C28)2
_chemical_formula_sum   'Cu14 Ni12 C112'
_cell_volume   2757.48071870
_cell_formula_units_Z   2
loop_
 _symmetry_equiv_pos_site_id
 _symmetry_equiv_pos_as_xyz
  1  'x, y, z'
loop_
 _atom_site_type_symbol
 _atom_site_label
 _atom_site_symmetry_multiplicity
 _atom_site_fract_x
 _atom_site_fract_y
 _atom_site_fract_z
 _atom_site_occupancy
  C  C0  1  0.18489600  0.26620200  0.34039100  1
  C  C1  1  0.18489600  0.23379800  0.84039100  1
  C  C2  1  0.81510400  0.73379800  0.65960900  1
  C  C3  1  0.81510400  0.76620200  0.15960900  1
  C  C4  1  0.54857100  0.15719100  0.45255100  1
  C  C5  1  0.54857100  0.34280900  0.95255100  1
  C  C6  1  0.45142900  0.84280900  0.54744900  1
  C  C7  1  0.45142900  0.65719100  0.04744900  1
  C  C8  1  0.73996400  0.27507300  0.72345300  1
  C  C9  1  0.73996400  0.22492700  0.22345300  1
  C  C10  1  0.26003600  0.72492700  0.27654700  1
  C  C11  1  0.26003600  0.77507300  0.77654700  1
  C  C12  1  0.35012300  0.25577500  0.17039500  1
  C  C13  1  0.35012300  0.24422500  0.67039500  1
  C  C14  1  0.64987700  0.74422500  0.82960500  1
  C  C15  1  0.64987700  0.75577500  0.32960500  1
  C  C16  1  0.90678000  0.27315500  0.55348100  1
  C  C17  1  0.90678000  0.22684500  0.05348100  1
  C  C18  1  0.09322000  0.72684500  0.44651900  1
  C  C19  1  0.09322000  0.77315500  0.94651900  1
  C  C20  1  0.25187000  0.40857100  0.98300000  1
  C  C21  1  0.25187000  0.09142900  0.48300000  1
  C  C22  1  0.74813000  0.59142900  0.01700000  1
  C  C23  1  0.74813000  0.90857100  0.51700000  1
  C  C24  1  0.20851500  0.40020400  0.72004900  1
  C  C25  1  0.20851500  0.09979600  0.22004900  1
  C  C26  1  0.79148500  0.59979600  0.27995100  1
  C  C27  1  0.79148500  0.90020400  0.77995100  1
  C  C28  1  0.49835600  0.41070300  0.67882600  1
  C  C29  1  0.49835600  0.08929700  0.17882600  1
  C  C30  1  0.50164400  0.58929700  0.32117400  1
  C  C31  1  0.50164400  0.91070300  0.82117400  1
  C  C32  1  0.85940700  0.40329700  0.92979000  1
  C  C33  1  0.85940700  0.09670300  0.42979000  1
  C  C34  1  0.14059300  0.59670300  0.07021000  1
  C  C35  1  0.14059300  0.90329700  0.57021000  1
  C  C36  1  0.11138800  0.61217400  0.80825000  1
  C  C37  1  0.11138800  0.88782600  0.30825000  1
  C  C38  1  0.88861200  0.38782600  0.19175000  1
  C  C39  1  0.88861200  0.11217400  0.69175000  1
  C  C40  1  0.58401900  0.41008000  0.21355700  1
  C  C41  1  0.58401900  0.08992000  0.71355700  1
  C  C42  1  0.41598100  0.58992000  0.78644300  1
  C  C43  1  0.41598100  0.91008000  0.28644300  1
  C  C44  1  0.54445200  0.34230500  0.42676800  1
  C  C45  1  0.54445200  0.15769500  0.92676800  1
  C  C46  1  0.45554800  0.65769500  0.57323200  1
  C  C47  1  0.45554800  0.84230500  0.07323200  1
  C  C48  1  0.75537700  0.51302200  0.64657700  1
  C  C49  1  0.75537700  0.98697800  0.14657700  1
  C  C50  1  0.24462300  0.48697800  0.35342300  1
  C  C51  1  0.24462300  0.01302200  0.85342300  1
  Ni  Ni52  1  0.07365900  0.30865800  0.95973800  1
  Ni  Ni53  1  0.07365900  0.19134200  0.45973800  1
  Ni  Ni54  1  0.92634100  0.69134200  0.04026200  1
  Ni  Ni55  1  0.92634100  0.80865800  0.54026200  1
  Ni  Ni56  1  0.13484700  0.56307100  0.50691300  1
  Ni  Ni57  1  0.13484700  0.93692900  0.00691300  1
  Ni  Ni58  1  0.86515300  0.43692900  0.49308700  1
  Ni  Ni59  1  0.86515300  0.06307100  0.99308700  1
  Ni  Ni60  1  0.04177100  0.58987200  0.54877000  1
  Ni  Ni61  1  0.04177100  0.91012800  0.04877000  1
  Ni  Ni62  1  0.95822900  0.41012800  0.45123000  1
  Ni  Ni63  1  0.95822900  0.08987200  0.95123000  1
  Cu  Cu64  1  0.82749500  0.58633000  0.53215100  1
  Cu  Cu65  1  0.82749500  0.91367000  0.03215100  1
  Cu  Cu66  1  0.17250500  0.41367000  0.46784900  1
  Cu  Cu67  1  0.17250500  0.08633000  0.96784900  1
  Cu  Cu68  1  0.93030600  0.41218400  0.72967900  1
  Cu  Cu69  1  0.93030600  0.08781600  0.22967900  1
  Cu  Cu70  1  0.06969400  0.58781600  0.27032100  1
  Cu  Cu71  1  0.06969400  0.91218400  0.77032100  1
  Cu  Cu72  1  0.83743900  0.59610100  0.80962600  1
  Cu  Cu73  1  0.83743900  0.90389900  0.30962600  1
  Cu  Cu74  1  0.16256100  0.40389900  0.19037400  1
  Cu  Cu75  1  0.16256100  0.09610100  0.69037400  1
  Cu  Cu76  1  0.50000000  0.50000000  0.00000000  1
  Cu  Cu77  1  0.50000000  0.00000000  0.50000000  1
  C  C78  1  0.41972800  0.36155400  0.09677300  1
  C  C79  1  0.41972800  0.13844600  0.59677300  1
  C  C80  1  0.58027200  0.63844600  0.90322700  1
  C  C81  1  0.58027200  0.86155400  0.40322700  1
  C  C82  1  0.27946500  0.36486600  0.87115300  1
  C  C83  1  0.27946500  0.13513400  0.37115300  1
  C  C84  1  0.72053500  0.63513400  0.12884700  1
  C  C85  1  0.72053500  0.86486600  0.62884700  1
  C  C86  1  0.39836300  0.37477700  0.75043800  1
  C  C87  1  0.39836300  0.12522300  0.25043800  1
  C  C88  1  0.60163700  0.62522300  0.24956200  1
  C  C89  1  0.60163700  0.87477700  0.74956200  1
  C  C90  1  0.66882400  0.38175400  0.81539900  1
  C  C91  1  0.66882400  0.11824600  0.31539900  1
  C  C92  1  0.33117600  0.61824600  0.18460100  1
  C  C93  1  0.33117600  0.88175400  0.68460100  1
  C  C94  1  0.79933800  0.37268000  0.03423100  1
  C  C95  1  0.79933800  0.12732000  0.53423100  1
  C  C96  1  0.20066200  0.62732000  0.96576900  1
  C  C97  1  0.20066200  0.87268000  0.46576900  1
  C  C98  1  0.30114300  0.64384700  0.82724200  1
  C  C99  1  0.30114300  0.85615300  0.32724200  1
  C  C100  1  0.69885700  0.35615300  0.17275800  1
  C  C101  1  0.69885700  0.14384700  0.67275800  1
  C  C102  1  0.05916700  0.71134600  0.77713100  1
  C  C103  1  0.05916700  0.78865400  0.27713100  1
  C  C104  1  0.94083300  0.28865400  0.22286900  1
  C  C105  1  0.94083300  0.21134600  0.72286900  1
  C  C106  1  0.91159300  0.30574700  0.92130600  1
  C  C107  1  0.91159300  0.19425300  0.42130600  1
  C  C108  1  0.08840700  0.69425300  0.07869400  1
  C  C109  1  0.08840700  0.80574700  0.57869400  1
  C  C110  1  0.49782700  0.31835600  0.62196200  1
  C  C111  1  0.49782700  0.18164400  0.12196200  1
  C  C112  1  0.50217300  0.68164400  0.37803800  1
  C  C113  1  0.50217300  0.81835600  0.87803800  1
  C  C114  1  0.14701600  0.30422600  0.67055100  1
  C  C115  1  0.14701600  0.19577400  0.17055100  1
  C  C116  1  0.85298400  0.69577400  0.32944900  1
  C  C117  1  0.85298400  0.80422600  0.82944900  1
  C  C118  1  0.58561800  0.32757900  0.30422200  1
  C  C119  1  0.58561800  0.17242100  0.80422200  1
  C  C120  1  0.41438200  0.67242100  0.69577800  1
  C  C121  1  0.41438200  0.82757900  0.19577800  1
  C  C122  1  0.40912800  0.26845600  0.36228400  1
  C  C123  1  0.40912800  0.23154400  0.86228400  1
  C  C124  1  0.59087200  0.73154400  0.63771600  1
  C  C125  1  0.59087200  0.76845600  0.13771600  1
  C  C126  1  0.68040500  0.27695100  0.52550800  1
  C  C127  1  0.68040500  0.22304900  0.02550800  1
  C  C128  1  0.31959500  0.72304900  0.47449200  1
  C  C129  1  0.31959500  0.77695100  0.97449200  1
  C  C130  1  0.17386200  0.30838200  0.98444400  1
  C  C131  1  0.17386200  0.19161800  0.48444400  1
  C  C132  1  0.82613800  0.69161800  0.01555600  1
  C  C133  1  0.82613800  0.80838200  0.51555600  1
  C  C134  1  0.12390500  0.60223400  0.54560400  1
  C  C135  1  0.12390500  0.89776600  0.04560400  1
  C  C136  1  0.87609500  0.39776600  0.45439600  1
  C  C137  1  0.87609500  0.10223400  0.95439600  1
