# generated using pymatgen
data_Cu(NiC)3
_symmetry_space_group_name_H-M   'P 1'
_cell_length_a   5.50478800
_cell_length_b   7.02512400
_cell_length_c   19.23148400
_cell_angle_alpha   90.00000000
_cell_angle_beta   90.00000000
_cell_angle_gamma   90.00000000
_symmetry_Int_Tables_number   1
_chemical_formula_structural   Cu(NiC)3
_chemical_formula_sum   'Cu8 Ni24 C24'
_cell_volume   743.71645477
_cell_formula_units_Z   8
loop_
 _symmetry_equiv_pos_site_id
 _symmetry_equiv_pos_as_xyz
  1  'x, y, z'
loop_
 _atom_site_type_symbol
 _atom_site_label
 _atom_site_symmetry_multiplicity
 _atom_site_fract_x
 _atom_site_fract_y
 _atom_site_fract_z
 _atom_site_occupancy
  C  C0  1  0.25756400  0.42024700  0.03933000  1
  C  C1  1  0.75756400  0.07975300  0.96067000  1
  C  C2  1  0.74243600  0.92024700  0.46067000  1
  C  C3  1  0.24243600  0.57975300  0.53933000  1
  C  C4  1  0.28422700  0.06126800  0.19135800  1
  C  C5  1  0.78422700  0.43873200  0.80864200  1
  C  C6  1  0.71577300  0.56126800  0.30864200  1
  C  C7  1  0.21577300  0.93873200  0.69135800  1
  C  C8  1  0.24669300  0.71102000  0.87795400  1
  C  C9  1  0.74669300  0.78898000  0.12204600  1
  C  C10  1  0.75330700  0.21102000  0.62204600  1
  C  C11  1  0.25330700  0.28898000  0.37795400  1
  C  C12  1  0.23815800  0.22078600  0.86603400  1
  C  C13  1  0.73815800  0.27921400  0.13396600  1
  C  C14  1  0.76184200  0.72078600  0.63396600  1
  C  C15  1  0.26184200  0.77921400  0.36603400  1
  C  C16  1  0.19848200  0.52655100  0.21170200  1
  C  C17  1  0.69848200  0.97344900  0.78829800  1
  C  C18  1  0.80151800  0.02655100  0.28829800  1
  C  C19  1  0.30151800  0.47344900  0.71170200  1
  C  C20  1  0.24012600  0.97973600  0.03122600  1
  C  C21  1  0.74012600  0.52026400  0.96877400  1
  C  C22  1  0.75987400  0.47973600  0.46877400  1
  C  C23  1  0.25987400  0.02026400  0.53122600  1
  Ni  Ni24  1  0.31418600  0.38126500  0.16316000  1
  Ni  Ni25  1  0.68581400  0.88126500  0.33684000  1
  Ni  Ni26  1  0.81418600  0.11873500  0.83684000  1
  Ni  Ni27  1  0.18581400  0.61873500  0.66316000  1
  Ni  Ni28  1  0.21732300  0.47844600  0.78707500  1
  Ni  Ni29  1  0.71732300  0.02155400  0.21292500  1
  Ni  Ni30  1  0.78267700  0.97844600  0.71292500  1
  Ni  Ni31  1  0.28267700  0.52155400  0.28707500  1
  Ni  Ni32  1  0.01527900  0.96574300  0.56242600  1
  Ni  Ni33  1  0.51527900  0.53425700  0.43757400  1
  Ni  Ni34  1  0.98472100  0.46574300  0.93757400  1
  Ni  Ni35  1  0.48472100  0.03425700  0.06242600  1
  Ni  Ni36  1  0.27770900  0.00425700  0.45253800  1
  Ni  Ni37  1  0.77770900  0.49574300  0.54746200  1
  Ni  Ni38  1  0.72229100  0.50425700  0.04746200  1
  Ni  Ni39  1  0.22229100  0.99574300  0.95253800  1
  Ni  Ni40  1  0.47711700  0.93888700  0.57048600  1
  Ni  Ni41  1  0.97711700  0.56111300  0.42951400  1
  Ni  Ni42  1  0.52288300  0.43888700  0.92951400  1
  Ni  Ni43  1  0.02288300  0.06111300  0.07048600  1
  Ni  Ni44  1  0.57428300  0.44788500  0.70173800  1
  Ni  Ni45  1  0.07428300  0.05211500  0.29826200  1
  Ni  Ni46  1  0.42571700  0.94788500  0.79826200  1
  Ni  Ni47  1  0.92571700  0.55211500  0.20173800  1
  Cu  Cu48  1  0.31617600  0.73045700  0.18395900  1
  Cu  Cu49  1  0.81617600  0.76954300  0.81604100  1
  Cu  Cu50  1  0.68382400  0.23045700  0.31604100  1
  Cu  Cu51  1  0.18382400  0.26954300  0.68395900  1
  Cu  Cu52  1  0.28238000  0.25072000  0.54460800  1
  Cu  Cu53  1  0.71762000  0.75072000  0.95539200  1
  Cu  Cu54  1  0.78238000  0.24928000  0.45539200  1
  Cu  Cu55  1  0.21762000  0.74928000  0.04460800  1
