# generated using pymatgen
data_CuNiC16
_symmetry_space_group_name_H-M   'P 1'
_cell_length_a   6.67998400
_cell_length_b   8.61901100
_cell_length_c   11.32064800
_cell_angle_alpha   90.00000000
_cell_angle_beta   90.00000000
_cell_angle_gamma   90.00000000
_symmetry_Int_Tables_number   1
_chemical_formula_structural   CuNiC16
_chemical_formula_sum   'Cu2 Ni2 C32'
_cell_volume   651.78467362
_cell_formula_units_Z   2
loop_
 _symmetry_equiv_pos_site_id
 _symmetry_equiv_pos_as_xyz
  1  'x, y, z'
loop_
 _atom_site_type_symbol
 _atom_site_label
 _atom_site_symmetry_multiplicity
 _atom_site_fract_x
 _atom_site_fract_y
 _atom_site_fract_z
 _atom_site_occupancy
  C  C0  1  0.82193400  0.49550400  0.75028500  1
  C  C1  1  0.17806600  0.00449600  0.25028500  1
  C  C2  1  0.17806600  0.49550400  0.25028500  1
  C  C3  1  0.82193400  0.00449600  0.75028500  1
  C  C4  1  0.29706200  0.25000000  0.92814900  1
  C  C5  1  0.70369500  0.75000000  0.07197300  1
  C  C6  1  0.29630500  0.75000000  0.57197300  1
  C  C7  1  0.70293800  0.25000000  0.42814900  1
  Ni  Ni8  1  0.27023500  0.75000000  0.92106600  1
  Ni  Ni9  1  0.72976500  0.75000000  0.42106600  1
  Cu  Cu10  1  0.73166200  0.25000000  0.07835300  1
  Cu  Cu11  1  0.26833800  0.25000000  0.57835300  1
  C  C12  1  0.99486600  0.25000000  0.03007800  1
  C  C13  1  0.98522500  0.75000000  0.97251900  1
  C  C14  1  0.01477500  0.75000000  0.47251900  1
  C  C15  1  0.00513400  0.25000000  0.53007800  1
  C  C16  1  0.18361100  0.25000000  0.73358000  1
  C  C17  1  0.82869300  0.75000000  0.25387000  1
  C  C18  1  0.17130700  0.75000000  0.75387000  1
  C  C19  1  0.81638900  0.25000000  0.23358000  1
  C  C20  1  0.64800200  0.25000000  0.92155500  1
  C  C21  1  0.36238900  0.75000000  0.09126300  1
  C  C22  1  0.63761100  0.75000000  0.59126300  1
  C  C23  1  0.35199800  0.25000000  0.42155500  1
  C  C24  1  0.46477800  0.25000000  0.12237700  1
  C  C25  1  0.56171100  0.75000000  0.87567500  1
  C  C26  1  0.43828900  0.75000000  0.37567500  1
  C  C27  1  0.53522200  0.25000000  0.62237700  1
  C  C28  1  0.73340700  0.46177300  0.07790500  1
  C  C29  1  0.26519700  0.98119800  0.92163000  1
  C  C30  1  0.73480300  0.51880200  0.42163000  1
  C  C31  1  0.26659300  0.03822700  0.57790500  1
  C  C32  1  0.26519700  0.51880200  0.92163000  1
  C  C33  1  0.73340700  0.03822700  0.07790500  1
  C  C34  1  0.26659300  0.46177300  0.57790500  1
  C  C35  1  0.73480300  0.98119800  0.42163000  1
