# generated using pymatgen
data_Cu2Ni2C3
_symmetry_space_group_name_H-M   'P 1'
_cell_length_a   5.52439053
_cell_length_b   5.49223388
_cell_length_c   6.63993932
_cell_angle_alpha   64.88698759
_cell_angle_beta   64.73766194
_cell_angle_gamma   88.50828640
_symmetry_Int_Tables_number   1
_chemical_formula_structural   Cu2Ni2C3
_chemical_formula_sum   'Cu2 Ni2 C3'
_cell_volume   161.98829698
_cell_formula_units_Z   1
loop_
 _symmetry_equiv_pos_site_id
 _symmetry_equiv_pos_as_xyz
  1  'x, y, z'
loop_
 _atom_site_type_symbol
 _atom_site_label
 _atom_site_symmetry_multiplicity
 _atom_site_fract_x
 _atom_site_fract_y
 _atom_site_fract_z
 _atom_site_occupancy
  C  C0  1  0.50490900  0.50490900  0.99018300  1
  C  C1  1  0.74458400  0.24458400  0.51083200  1
  C  C2  1  0.00417600  0.00417600  0.99164800  1
  Ni  Ni3  1  0.60024600  0.62470100  0.26322400  1
  Ni  Ni4  1  0.13653000  0.11207500  0.26322400  1
  Cu  Cu5  1  0.86606500  0.38131800  0.74044400  1
  Cu  Cu6  1  0.39349100  0.87823800  0.74044400  1
