# generated using pymatgen
data_CuNiC9
_symmetry_space_group_name_H-M   'P 1'
_cell_length_a   7.54824449
_cell_length_b   7.54824449
_cell_length_c   7.54824449
_cell_angle_alpha   121.02674505
_cell_angle_beta   119.99995169
_cell_angle_gamma   89.11546671
_symmetry_Int_Tables_number   1
_chemical_formula_structural   CuNiC9
_chemical_formula_sum   'Cu2 Ni2 C18'
_cell_volume   301.67504588
_cell_formula_units_Z   2
loop_
 _symmetry_equiv_pos_site_id
 _symmetry_equiv_pos_as_xyz
  1  'x, y, z'
loop_
 _atom_site_type_symbol
 _atom_site_label
 _atom_site_symmetry_multiplicity
 _atom_site_fract_x
 _atom_site_fract_y
 _atom_site_fract_z
 _atom_site_occupancy
  Ni  Ni0  1  0.00000000  0.00000000  0.50000000  1
  Ni  Ni1  1  0.00000000  0.50000000  0.00000000  1
  Cu  Cu2  1  0.00000000  0.00000000  0.00000000  1
  Cu  Cu3  1  0.50000000  0.00000000  0.50000000  1
  C  C4  1  0.50000000  0.50000000  0.50000000  1
  C  C5  1  0.50000000  0.00000000  0.00000000  1
  C  C6  1  0.50000000  0.50000000  0.00000000  1
  C  C7  1  0.00000000  0.50000000  0.50000000  1
  C  C8  1  0.15972600  0.90972600  0.25000000  1
  C  C9  1  0.84027400  0.09027400  0.75000000  1
  C  C10  1  0.43402100  0.18402100  0.25000000  1
  C  C11  1  0.80753600  0.55753600  0.25000000  1
  C  C12  1  0.44309200  0.57424400  0.26062000  1
  C  C13  1  0.81362500  0.18247200  0.23938000  1
  C  C14  1  0.44309200  0.18247200  0.86884700  1
  C  C15  1  0.81362500  0.57424400  0.63115300  1
  C  C16  1  0.56597900  0.81597900  0.75000000  1
  C  C17  1  0.19246400  0.44246400  0.75000000  1
  C  C18  1  0.55690800  0.42575600  0.73938000  1
  C  C19  1  0.18637500  0.81752800  0.76062000  1
  C  C20  1  0.55690800  0.81752800  0.13115300  1
  C  C21  1  0.18637500  0.42575600  0.36884700  1
