# generated using pymatgen
data_CuNiC15
_symmetry_space_group_name_H-M   'P 1'
_cell_length_a   3.82763400
_cell_length_b   3.84502379
_cell_length_c   15.79112996
_cell_angle_alpha   90.13949470
_cell_angle_beta   90.00000000
_cell_angle_gamma   90.00000000
_symmetry_Int_Tables_number   1
_chemical_formula_structural   CuNiC15
_chemical_formula_sum   'Cu1 Ni1 C15'
_cell_volume   232.40279944
_cell_formula_units_Z   1
loop_
 _symmetry_equiv_pos_site_id
 _symmetry_equiv_pos_as_xyz
  1  'x, y, z'
loop_
 _atom_site_type_symbol
 _atom_site_label
 _atom_site_symmetry_multiplicity
 _atom_site_fract_x
 _atom_site_fract_y
 _atom_site_fract_z
 _atom_site_occupancy
  Ni  Ni0  1  0.50000000  0.51268000  0.83629100  1
  Cu  Cu1  1  0.50000000  0.51210500  0.16880900  1
  C  C2  1  0.50000000  0.50188500  0.60344700  1
  C  C3  1  0.50000000  0.50170200  0.39190000  1
  C  C4  1  0.00000000  0.07910900  0.00624400  1
  C  C5  1  0.00000000  0.00473200  0.70584300  1
  C  C6  1  0.00000000  0.00462100  0.28408100  1
  C  C7  1  0.00000000  0.00049500  0.49882400  1
  C  C8  1  0.00000000  0.00724400  0.87308900  1
  C  C9  1  0.00000000  0.00066600  0.14064000  1
  C  C10  1  0.00000000  0.50437000  0.69640400  1
  C  C11  1  0.50000000  0.00414400  0.69575300  1
  C  C12  1  0.00000000  0.50431600  0.29652400  1
  C  C13  1  0.50000000  0.00295100  0.29740000  1
  C  C14  1  0.50000000  0.44207600  0.01037300  1
  C  C15  1  0.00000000  0.50038400  0.49717400  1
  C  C16  1  0.50000000  0.00052100  0.49720400  1
