# generated using pymatgen
data_CuNiC3
_symmetry_space_group_name_H-M   'P 1'
_cell_length_a   7.19259436
_cell_length_b   7.19259436
_cell_length_c   7.19259436
_cell_angle_alpha   147.50855600
_cell_angle_beta   147.50855600
_cell_angle_gamma   46.61136762
_symmetry_Int_Tables_number   1
_chemical_formula_structural   CuNiC3
_chemical_formula_sum   'Cu1 Ni1 C3'
_cell_volume   106.98303090
_cell_formula_units_Z   1
loop_
 _symmetry_equiv_pos_site_id
 _symmetry_equiv_pos_as_xyz
  1  'x, y, z'
loop_
 _atom_site_type_symbol
 _atom_site_label
 _atom_site_symmetry_multiplicity
 _atom_site_fract_x
 _atom_site_fract_y
 _atom_site_fract_z
 _atom_site_occupancy
  C  C0  1  0.83670200  0.83670200  0.00000000  1
  Ni  Ni1  1  0.17128100  0.17128100  0.00000000  1
  Cu  Cu2  1  0.48922900  0.48922900  0.00000000  1
  C  C3  1  0.75139400  0.25139400  0.50000000  1
  C  C4  1  0.25139400  0.75139400  0.50000000  1
