# generated using pymatgen
data_Cu8Ni2C19
_symmetry_space_group_name_H-M   'P 1'
_cell_length_a   9.54004800
_cell_length_b   12.57985300
_cell_length_c   21.72100100
_cell_angle_alpha   90.00000000
_cell_angle_beta   90.00000000
_cell_angle_gamma   90.00000000
_symmetry_Int_Tables_number   1
_chemical_formula_structural   Cu8Ni2C19
_chemical_formula_sum   'Cu32 Ni8 C76'
_cell_volume   2606.78949197
_cell_formula_units_Z   4
loop_
 _symmetry_equiv_pos_site_id
 _symmetry_equiv_pos_as_xyz
  1  'x, y, z'
loop_
 _atom_site_type_symbol
 _atom_site_label
 _atom_site_symmetry_multiplicity
 _atom_site_fract_x
 _atom_site_fract_y
 _atom_site_fract_z
 _atom_site_occupancy
  C  C0  1  0.25167800  0.03216700  0.23105600  1
  C  C1  1  0.74832200  0.96783300  0.76894400  1
  C  C2  1  0.24832200  0.53216700  0.26894400  1
  C  C3  1  0.25167800  0.46783300  0.76894400  1
  C  C4  1  0.75167800  0.46783300  0.73105600  1
  C  C5  1  0.74832200  0.53216700  0.23105600  1
  C  C6  1  0.24832200  0.96783300  0.73105600  1
  C  C7  1  0.75167800  0.03216700  0.26894400  1
  C  C8  1  0.40934700  0.30860600  0.10684500  1
  C  C9  1  0.59065300  0.69139400  0.89315500  1
  C  C10  1  0.09065300  0.80860600  0.39315500  1
  C  C11  1  0.40934700  0.19139400  0.89315500  1
  C  C12  1  0.90934700  0.19139400  0.60684500  1
  C  C13  1  0.59065300  0.80860600  0.10684500  1
  C  C14  1  0.09065300  0.69139400  0.60684500  1
  C  C15  1  0.90934700  0.30860600  0.39315500  1
  Ni  Ni16  1  0.49194400  0.35023700  0.42985700  1
  Ni  Ni17  1  0.50805600  0.64976300  0.57014300  1
  Ni  Ni18  1  0.00805600  0.85023700  0.07014300  1
  Ni  Ni19  1  0.49194400  0.14976300  0.57014300  1
  Ni  Ni20  1  0.99194400  0.14976300  0.92985700  1
  Ni  Ni21  1  0.50805600  0.85023700  0.42985700  1
  Ni  Ni22  1  0.00805600  0.64976300  0.92985700  1
  Ni  Ni23  1  0.99194400  0.35023700  0.07014300  1
  C  C24  1  0.61894200  0.25000000  0.00000000  1
  C  C25  1  0.38105800  0.75000000  0.00000000  1
  C  C26  1  0.88105800  0.75000000  0.50000000  1
  C  C27  1  0.11894200  0.25000000  0.50000000  1
  C  C28  1  0.16774900  0.04447600  0.37190900  1
  C  C29  1  0.83225100  0.95552400  0.62809100  1
  C  C30  1  0.33225100  0.54447600  0.12809100  1
  C  C31  1  0.16774900  0.45552400  0.62809100  1
  C  C32  1  0.66774900  0.45552400  0.87190900  1
  C  C33  1  0.83225100  0.54447600  0.37190900  1
  C  C34  1  0.33225100  0.95552400  0.87190900  1
  C  C35  1  0.66774900  0.04447600  0.12809100  1
  Cu  Cu36  1  0.28675100  0.03790100  0.05302300  1
  Cu  Cu37  1  0.71324900  0.96209900  0.94697700  1
  Cu  Cu38  1  0.21324900  0.53790100  0.44697700  1
  Cu  Cu39  1  0.28675100  0.46209900  0.94697700  1
  Cu  Cu40  1  0.78675100  0.46209900  0.55302300  1
  Cu  Cu41  1  0.71324900  0.53790100  0.05302300  1
  Cu  Cu42  1  0.21324900  0.96209900  0.55302300  1
  Cu  Cu43  1  0.78675100  0.03790100  0.44697700  1
  Cu  Cu44  1  0.03629900  0.27986600  0.23100900  1
  Cu  Cu45  1  0.96370100  0.72013400  0.76899100  1
  Cu  Cu46  1  0.46370100  0.77986600  0.26899100  1
  Cu  Cu47  1  0.03629900  0.22013400  0.76899100  1
  Cu  Cu48  1  0.53629900  0.22013400  0.73100900  1
  Cu  Cu49  1  0.96370100  0.77986600  0.23100900  1
  Cu  Cu50  1  0.46370100  0.72013400  0.73100900  1
  Cu  Cu51  1  0.53629900  0.27986600  0.26899100  1
  Cu  Cu52  1  0.38213800  0.27068000  0.34224200  1
  Cu  Cu53  1  0.61786200  0.72932000  0.65775800  1
  Cu  Cu54  1  0.11786200  0.77068000  0.15775800  1
  Cu  Cu55  1  0.38213800  0.22932000  0.65775800  1
  Cu  Cu56  1  0.88213800  0.22932000  0.84224200  1
  Cu  Cu57  1  0.61786200  0.77068000  0.34224200  1
  Cu  Cu58  1  0.11786200  0.72932000  0.84224200  1
  Cu  Cu59  1  0.88213800  0.27068000  0.15775800  1
  Cu  Cu60  1  0.06938100  0.03211900  0.08549300  1
  Cu  Cu61  1  0.93061900  0.96788100  0.91450700  1
  Cu  Cu62  1  0.43061900  0.53211900  0.41450700  1
  Cu  Cu63  1  0.06938100  0.46788100  0.91450700  1
  Cu  Cu64  1  0.56938100  0.46788100  0.58549300  1
  Cu  Cu65  1  0.93061900  0.53211900  0.08549300  1
  Cu  Cu66  1  0.43061900  0.96788100  0.58549300  1
  Cu  Cu67  1  0.56938100  0.03211900  0.41450700  1
  C  C68  1  0.50016400  0.18734000  0.23040900  1
  C  C69  1  0.49983600  0.81266000  0.76959100  1
  C  C70  1  0.99983600  0.68734000  0.26959100  1
  C  C71  1  0.50016400  0.31266000  0.76959100  1
  C  C72  1  0.00016400  0.31266000  0.73040900  1
  C  C73  1  0.49983600  0.68734000  0.23040900  1
  C  C74  1  0.99983600  0.81266000  0.73040900  1
  C  C75  1  0.00016400  0.18734000  0.26959100  1
  C  C76  1  0.01221800  0.38244900  0.26230900  1
  C  C77  1  0.98778200  0.61755100  0.73769100  1
  C  C78  1  0.48778200  0.88244900  0.23769100  1
  C  C79  1  0.01221800  0.11755100  0.73769100  1
  C  C80  1  0.51221800  0.11755100  0.76230900  1
  C  C81  1  0.98778200  0.88244900  0.26230900  1
  C  C82  1  0.48778200  0.61755100  0.76230900  1
  C  C83  1  0.51221800  0.38244900  0.23769100  1
  C  C84  1  0.37083600  0.02056000  0.10893800  1
  C  C85  1  0.62916400  0.97944000  0.89106200  1
  C  C86  1  0.12916400  0.52056000  0.39106200  1
  C  C87  1  0.37083600  0.47944000  0.89106200  1
  C  C88  1  0.87083600  0.47944000  0.60893800  1
  C  C89  1  0.62916400  0.52056000  0.10893800  1
  C  C90  1  0.12916400  0.97944000  0.60893800  1
  C  C91  1  0.87083600  0.02056000  0.39106200  1
  C  C92  1  0.17474600  0.27190800  0.20200100  1
  C  C93  1  0.82525400  0.72809200  0.79799900  1
  C  C94  1  0.32525400  0.77190800  0.29799900  1
  C  C95  1  0.17474600  0.22809200  0.79799900  1
  C  C96  1  0.67474600  0.22809200  0.70200100  1
  C  C97  1  0.82525400  0.77190800  0.20200100  1
  C  C98  1  0.32525400  0.72809200  0.70200100  1
  C  C99  1  0.67474600  0.27190800  0.29799900  1
  C  C100  1  0.19673700  0.04329300  0.50597100  1
  C  C101  1  0.80326300  0.95670700  0.49402900  1
  C  C102  1  0.30326300  0.54329300  0.99402900  1
  C  C103  1  0.19673700  0.45670700  0.49402900  1
  C  C104  1  0.69673700  0.45670700  0.00597100  1
  C  C105  1  0.80326300  0.54329300  0.50597100  1
  C  C106  1  0.30326300  0.95670700  0.00597100  1
  C  C107  1  0.69673700  0.04329300  0.99402900  1
  C  C108  1  0.29248200  0.14848500  0.03028200  1
  C  C109  1  0.70751800  0.85151500  0.96971800  1
  C  C110  1  0.20751800  0.64848500  0.46971800  1
  C  C111  1  0.29248200  0.35151500  0.96971800  1
  C  C112  1  0.79248200  0.35151500  0.53028200  1
  C  C113  1  0.70751800  0.64848500  0.03028200  1
  C  C114  1  0.20751800  0.85151500  0.53028200  1
  C  C115  1  0.79248200  0.14848500  0.46971800  1
