# generated using pymatgen
data_CuNi2C
_symmetry_space_group_name_H-M   'P 1'
_cell_length_a   13.10086600
_cell_length_b   8.77107900
_cell_length_c   10.43110346
_cell_angle_alpha   60.08317097
_cell_angle_beta   90.00000000
_cell_angle_gamma   90.00000000
_symmetry_Int_Tables_number   1
_chemical_formula_structural   CuNi2C
_chemical_formula_sum   'Cu8 Ni16 C8'
_cell_volume   1038.90844906
_cell_formula_units_Z   8
loop_
 _symmetry_equiv_pos_site_id
 _symmetry_equiv_pos_as_xyz
  1  'x, y, z'
loop_
 _atom_site_type_symbol
 _atom_site_label
 _atom_site_symmetry_multiplicity
 _atom_site_fract_x
 _atom_site_fract_y
 _atom_site_fract_z
 _atom_site_occupancy
  C  C0  1  0.02386000  0.26450600  0.48109900  1
  C  C1  1  0.47614000  0.26450600  0.98109900  1
  C  C2  1  0.97614000  0.73549400  0.51890100  1
  C  C3  1  0.52386000  0.73549400  0.01890100  1
  C  C4  1  0.49777000  0.24468400  0.51384400  1
  C  C5  1  0.00223000  0.24468400  0.01384400  1
  C  C6  1  0.50223000  0.75531600  0.48615600  1
  C  C7  1  0.99777000  0.75531600  0.98615600  1
  Ni  Ni8  1  0.63919100  0.40623900  0.34376000  1
  Ni  Ni9  1  0.86080900  0.40623900  0.84376000  1
  Ni  Ni10  1  0.36080900  0.59376100  0.65624000  1
  Ni  Ni11  1  0.13919100  0.59376100  0.15624000  1
  Ni  Ni12  1  0.35927900  0.08111200  0.68901000  1
  Ni  Ni13  1  0.14072100  0.08111200  0.18901000  1
  Ni  Ni14  1  0.64072100  0.91888800  0.31099000  1
  Ni  Ni15  1  0.85927900  0.91888800  0.81099000  1
  Ni  Ni16  1  0.63645400  0.19706400  0.70592200  1
  Ni  Ni17  1  0.86354600  0.19706400  0.20592200  1
  Ni  Ni18  1  0.36354600  0.80293600  0.29407800  1
  Ni  Ni19  1  0.13645400  0.80293600  0.79407800  1
  Ni  Ni20  1  0.36363800  0.29529100  0.31608300  1
  Ni  Ni21  1  0.13636200  0.29529100  0.81608300  1
  Ni  Ni22  1  0.63636200  0.70470900  0.68391700  1
  Ni  Ni23  1  0.86363800  0.70470900  0.18391700  1
  Cu  Cu24  1  0.41436800  0.42085000  0.13815700  1
  Cu  Cu25  1  0.08563200  0.42085000  0.63815700  1
  Cu  Cu26  1  0.58563200  0.57915000  0.86184300  1
  Cu  Cu27  1  0.91436800  0.57915000  0.36184300  1
  Cu  Cu28  1  0.09004400  0.92294900  0.61426400  1
  Cu  Cu29  1  0.40995600  0.92294900  0.11426400  1
  Cu  Cu30  1  0.90995600  0.07705100  0.38573600  1
  Cu  Cu31  1  0.59004400  0.07705100  0.88573600  1
