# generated using pymatgen
data_Cu4Ni4C13
_symmetry_space_group_name_H-M   'P 1'
_cell_length_a   13.82977400
_cell_length_b   7.47589500
_cell_length_c   10.26976471
_cell_angle_alpha   70.73993204
_cell_angle_beta   90.00000000
_cell_angle_gamma   90.00000000
_symmetry_Int_Tables_number   1
_chemical_formula_structural   Cu4Ni4C13
_chemical_formula_sum   'Cu8 Ni8 C26'
_cell_volume   1002.36307383
_cell_formula_units_Z   2
loop_
 _symmetry_equiv_pos_site_id
 _symmetry_equiv_pos_as_xyz
  1  'x, y, z'
loop_
 _atom_site_type_symbol
 _atom_site_label
 _atom_site_symmetry_multiplicity
 _atom_site_fract_x
 _atom_site_fract_y
 _atom_site_fract_z
 _atom_site_occupancy
  C  C0  1  0.50000000  0.00000000  0.50000000  1
  C  C1  1  0.00000000  0.00000000  0.00000000  1
  Ni  Ni2  1  0.29737800  0.95740600  0.57452900  1
  Ni  Ni3  1  0.79737800  0.04259400  0.92547100  1
  Ni  Ni4  1  0.70262200  0.04259400  0.42547100  1
  Ni  Ni5  1  0.20262200  0.95740600  0.07452900  1
  Ni  Ni6  1  0.44232500  0.84667600  0.83570000  1
  Ni  Ni7  1  0.94232500  0.15332400  0.66430000  1
  Ni  Ni8  1  0.55767500  0.15332400  0.16430000  1
  Ni  Ni9  1  0.05767500  0.84667600  0.33570000  1
  Cu  Cu10  1  0.29695900  0.22201600  0.54292100  1
  Cu  Cu11  1  0.79695900  0.77798400  0.95707900  1
  Cu  Cu12  1  0.70304100  0.77798400  0.45707900  1
  Cu  Cu13  1  0.20304100  0.22201600  0.04292100  1
  Cu  Cu14  1  0.44858300  0.18645800  0.67126700  1
  Cu  Cu15  1  0.94858300  0.81354200  0.82873300  1
  Cu  Cu16  1  0.55141700  0.81354200  0.32873300  1
  Cu  Cu17  1  0.05141700  0.18645800  0.17126700  1
  C  C18  1  0.36198800  0.89957000  0.50312000  1
  C  C19  1  0.86198800  0.10043000  0.99688000  1
  C  C20  1  0.63801200  0.10043000  0.49688000  1
  C  C21  1  0.13801200  0.89957000  0.00312000  1
  C  C22  1  0.22776100  0.87610100  0.66007600  1
  C  C23  1  0.72776100  0.12389900  0.83992400  1
  C  C24  1  0.77223900  0.12389900  0.33992400  1
  C  C25  1  0.27223900  0.87610100  0.16007600  1
  C  C26  1  0.44466000  0.02851200  0.81937300  1
  C  C27  1  0.94466000  0.97148800  0.68062700  1
  C  C28  1  0.55534000  0.97148800  0.18062700  1
  C  C29  1  0.05534000  0.02851200  0.31937300  1
  C  C30  1  0.44565500  0.68326900  0.85006900  1
  C  C31  1  0.94565500  0.31673100  0.64993100  1
  C  C32  1  0.55434500  0.31673100  0.14993100  1
  C  C33  1  0.05434500  0.68326900  0.35006900  1
  C  C34  1  0.22397600  0.63660900  0.70410400  1
  C  C35  1  0.72397600  0.36339100  0.79589600  1
  C  C36  1  0.77602400  0.36339100  0.29589600  1
  C  C37  1  0.27602400  0.63660900  0.20410400  1
  C  C38  1  0.27625000  0.26801500  0.13112400  1
  C  C39  1  0.77625000  0.73198500  0.36887600  1
  C  C40  1  0.72375000  0.73198500  0.86887600  1
  C  C41  1  0.22375000  0.26801500  0.63112400  1
