# generated using pymatgen
data_CuNi14C
_symmetry_space_group_name_H-M   'P 1'
_cell_length_a   6.38648578
_cell_length_b   6.63831871
_cell_length_c   10.45327640
_cell_angle_alpha   90.00000000
_cell_angle_beta   90.00000000
_cell_angle_gamma   121.31321420
_symmetry_Int_Tables_number   1
_chemical_formula_structural   CuNi14C
_chemical_formula_sum   'Cu1 Ni14 C1'
_cell_volume   378.61926670
_cell_formula_units_Z   1
loop_
 _symmetry_equiv_pos_site_id
 _symmetry_equiv_pos_as_xyz
  1  'x, y, z'
loop_
 _atom_site_type_symbol
 _atom_site_label
 _atom_site_symmetry_multiplicity
 _atom_site_fract_x
 _atom_site_fract_y
 _atom_site_fract_z
 _atom_site_occupancy
  Ni  Ni0  1  0.16973130  0.33486515  0.62500000  1
  Ni  Ni1  1  0.17017752  0.83508826  0.62500000  1
  Ni  Ni2  1  0.66748224  0.33477450  0.12500000  1
  Ni  Ni3  1  0.66901831  0.33397338  0.62500000  1
  Ni  Ni4  1  0.66748224  0.83270674  0.12500000  1
  Ni  Ni5  1  0.66901831  0.83504393  0.62500000  1
  Ni  Ni6  1  0.33612501  0.17048436  0.38125814  1
  Ni  Ni7  1  0.33612501  0.17048436  0.86874186  1
  Ni  Ni8  1  0.33612501  0.66564164  0.38125814  1
  Ni  Ni9  1  0.33612501  0.66564164  0.86874186  1
  Ni  Ni10  1  0.83033448  0.16516774  0.37734702  1
  Ni  Ni11  1  0.83033448  0.16516774  0.87265298  1
  Ni  Ni12  1  0.82828029  0.66414064  0.38003268  1
  Ni  Ni13  1  0.82828029  0.66414064  0.86996732  1
  Cu  Cu14  1  0.16487605  0.83243752  0.12500000  1
  C  C15  1  0.16048445  0.33024172  0.12500000  1
