# generated using pymatgen
data_Cu12Ni3C5
_symmetry_space_group_name_H-M   'P 1'
_cell_length_a   8.90461033
_cell_length_b   8.90461033
_cell_length_c   14.80324383
_cell_angle_alpha   82.11357004
_cell_angle_beta   82.11357004
_cell_angle_gamma   76.66892471
_symmetry_Int_Tables_number   1
_chemical_formula_structural   Cu12Ni3C5
_chemical_formula_sum   'Cu24 Ni6 C10'
_cell_volume   1124.54185315
_cell_formula_units_Z   2
loop_
 _symmetry_equiv_pos_site_id
 _symmetry_equiv_pos_as_xyz
  1  'x, y, z'
loop_
 _atom_site_type_symbol
 _atom_site_label
 _atom_site_symmetry_multiplicity
 _atom_site_fract_x
 _atom_site_fract_y
 _atom_site_fract_z
 _atom_site_occupancy
  C  C0  1  0.00160000  0.85906700  0.38773300  1
  C  C1  1  0.14093300  0.99840000  0.11226700  1
  C  C2  1  0.99840000  0.14093300  0.61226700  1
  C  C3  1  0.85906700  0.00160000  0.88773300  1
  C  C4  1  0.56806200  0.43193800  0.25000000  1
  C  C5  1  0.43193800  0.56806200  0.75000000  1
  Ni  Ni6  1  0.00000000  0.50000000  0.00000000  1
  Ni  Ni7  1  0.50000000  0.00000000  0.50000000  1
  Ni  Ni8  1  0.13191400  0.42976600  0.28010900  1
  Ni  Ni9  1  0.57023400  0.86808600  0.21989100  1
  Ni  Ni10  1  0.86808600  0.57023400  0.71989100  1
  Ni  Ni11  1  0.42976600  0.13191400  0.78010900  1
  Cu  Cu12  1  0.82536300  0.70457100  0.43775700  1
  Cu  Cu13  1  0.29542900  0.17463700  0.06224300  1
  Cu  Cu14  1  0.17463700  0.29542900  0.56224300  1
  Cu  Cu15  1  0.70457100  0.82536300  0.93775700  1
  Cu  Cu16  1  0.17634500  0.02114200  0.34046400  1
  Cu  Cu17  1  0.97885800  0.82365500  0.15953600  1
  Cu  Cu18  1  0.82365500  0.97885800  0.65953600  1
  Cu  Cu19  1  0.02114200  0.17634500  0.84046400  1
  Cu  Cu20  1  0.80123200  0.07517300  0.39833500  1
  Cu  Cu21  1  0.92482700  0.19876800  0.10166500  1
  Cu  Cu22  1  0.19876800  0.92482700  0.60166500  1
  Cu  Cu23  1  0.07517300  0.80123200  0.89833500  1
  Cu  Cu24  1  0.19904700  0.63738900  0.37630200  1
  Cu  Cu25  1  0.36261100  0.80095300  0.12369800  1
  Cu  Cu26  1  0.80095300  0.36261100  0.62369800  1
  Cu  Cu27  1  0.63738900  0.19904700  0.87630200  1
  Cu  Cu28  1  0.72613500  0.60484600  0.19578800  1
  Cu  Cu29  1  0.39515400  0.27386500  0.30421200  1
  Cu  Cu30  1  0.27386500  0.39515400  0.80421200  1
  Cu  Cu31  1  0.60484600  0.72613500  0.69578800  1
  Cu  Cu32  1  0.60441100  0.45000100  0.39952900  1
  Cu  Cu33  1  0.54999900  0.39558900  0.10047100  1
  Cu  Cu34  1  0.39558900  0.54999900  0.60047100  1
  Cu  Cu35  1  0.45000100  0.60441100  0.89952900  1
  C  C36  1  0.11468800  0.46945300  0.20585100  1
  C  C37  1  0.53054700  0.88531200  0.29414900  1
  C  C38  1  0.88531200  0.53054700  0.79414900  1
  C  C39  1  0.46945300  0.11468800  0.70585100  1
