# generated using pymatgen
data_Cu3Ni3C2
_symmetry_space_group_name_H-M   'P 1'
_cell_length_a   5.80840004
_cell_length_b   5.80840004
_cell_length_c   3.89338700
_cell_angle_alpha   90.00000000
_cell_angle_beta   90.00000000
_cell_angle_gamma   120.00000044
_symmetry_Int_Tables_number   1
_chemical_formula_structural   Cu3Ni3C2
_chemical_formula_sum   'Cu3 Ni3 C2'
_cell_volume   113.75519611
_cell_formula_units_Z   1
loop_
 _symmetry_equiv_pos_site_id
 _symmetry_equiv_pos_as_xyz
  1  'x, y, z'
loop_
 _atom_site_type_symbol
 _atom_site_label
 _atom_site_symmetry_multiplicity
 _atom_site_fract_x
 _atom_site_fract_y
 _atom_site_fract_z
 _atom_site_occupancy
  C  C0  1  0.00000000  0.00000000  0.00000000  1
  C  C1  1  0.33333300  0.66666700  0.50000000  1
  Ni  Ni2  1  0.10294100  0.45031300  0.00000000  1
  Ni  Ni3  1  0.34737200  0.89705900  0.00000000  1
  Ni  Ni4  1  0.54968700  0.65262800  0.00000000  1
  Cu  Cu5  1  0.26736700  0.23817200  0.50000000  1
  Cu  Cu6  1  0.97080500  0.73263300  0.50000000  1
  Cu  Cu7  1  0.76182800  0.02919500  0.50000000  1
