# generated using pymatgen
data_Cu2NiC12
_symmetry_space_group_name_H-M   'P 1'
_cell_length_a   9.91042050
_cell_length_b   9.91042050
_cell_length_c   9.91042050
_cell_angle_alpha   146.58664325
_cell_angle_beta   131.23427397
_cell_angle_gamma   60.40546401
_symmetry_Int_Tables_number   1
_chemical_formula_structural   Cu2NiC12
_chemical_formula_sum   'Cu4 Ni2 C24'
_cell_volume   399.34220652
_cell_formula_units_Z   2
loop_
 _symmetry_equiv_pos_site_id
 _symmetry_equiv_pos_as_xyz
  1  'x, y, z'
loop_
 _atom_site_type_symbol
 _atom_site_label
 _atom_site_symmetry_multiplicity
 _atom_site_fract_x
 _atom_site_fract_y
 _atom_site_fract_z
 _atom_site_occupancy
  C  C0  1  0.58392800  0.32635300  0.25757500  1
  C  C1  1  0.93122200  0.67364700  0.25757500  1
  C  C2  1  0.23083000  0.00000000  0.23083000  1
  C  C3  1  0.41607200  0.67364700  0.74242500  1
  C  C4  1  0.76917000  0.00000000  0.76917000  1
  C  C5  1  0.06877800  0.32635300  0.74242500  1
  Ni  Ni6  1  0.83306000  0.83306000  0.00000000  1
  Ni  Ni7  1  0.16694000  0.16694000  0.00000000  1
  Cu  Cu8  1  0.00000000  0.50000000  0.50000000  1
  Cu  Cu9  1  0.33285400  0.83285400  0.50000000  1
  Cu  Cu10  1  0.66714600  0.16714600  0.50000000  1
  Cu  Cu11  1  0.50000000  0.50000000  0.00000000  1
  C  C12  1  0.74536100  0.50000000  0.24536100  1
  C  C13  1  0.10020200  0.83828600  0.26191600  1
  C  C14  1  0.42363000  0.16171400  0.26191600  1
  C  C15  1  0.25463900  0.50000000  0.75463900  1
  C  C16  1  0.57637000  0.83828600  0.73808400  1
  C  C17  1  0.89979800  0.16171400  0.73808400  1
  C  C18  1  0.91928800  0.66417700  0.74489000  1
  C  C19  1  0.25238200  0.00096700  0.74858500  1
  C  C20  1  0.58079400  0.33367600  0.75288200  1
  C  C21  1  0.91928800  0.17439800  0.25511000  1
  C  C22  1  0.25238200  0.50379700  0.25141500  1
  C  C23  1  0.58079400  0.82791200  0.24711800  1
  C  C24  1  0.08071200  0.82560200  0.74489000  1
  C  C25  1  0.41920600  0.17208800  0.75288200  1
  C  C26  1  0.74761800  0.49620300  0.74858500  1
  C  C27  1  0.08071200  0.33582300  0.25511000  1
  C  C28  1  0.41920600  0.66632400  0.24711800  1
  C  C29  1  0.74761800  0.99903300  0.25141500  1
