# generated using pymatgen
data_Cu4Ni2C25
_symmetry_space_group_name_H-M   'P 1'
_cell_length_a   6.54774900
_cell_length_b   9.58149530
_cell_length_c   12.34449304
_cell_angle_alpha   104.50798910
_cell_angle_beta   90.00000000
_cell_angle_gamma   109.97969887
_symmetry_Int_Tables_number   1
_chemical_formula_structural   Cu4Ni2C25
_chemical_formula_sum   'Cu8 Ni4 C50'
_cell_volume   701.51308960
_cell_formula_units_Z   2
loop_
 _symmetry_equiv_pos_site_id
 _symmetry_equiv_pos_as_xyz
  1  'x, y, z'
loop_
 _atom_site_type_symbol
 _atom_site_label
 _atom_site_symmetry_multiplicity
 _atom_site_fract_x
 _atom_site_fract_y
 _atom_site_fract_z
 _atom_site_occupancy
  C  C0  1  0.50000000  0.00000000  0.00000000  1
  C  C1  1  0.50000000  0.00000000  0.50000000  1
  Ni  Ni2  1  0.17254800  0.87096700  0.79277900  1
  Ni  Ni3  1  0.30158200  0.12903300  0.70722100  1
  Ni  Ni4  1  0.82745200  0.12903300  0.20722100  1
  Ni  Ni5  1  0.69841800  0.87096700  0.29277900  1
  C  C6  1  0.66037000  0.11472300  0.82873400  1
  C  C7  1  0.54564700  0.88527700  0.67126600  1
  C  C8  1  0.33963000  0.88527700  0.17126600  1
  C  C9  1  0.45435300  0.11472300  0.32873400  1
  C  C10  1  0.85399500  0.06473200  0.87624200  1
  C  C11  1  0.78926300  0.93526800  0.62375800  1
  C  C12  1  0.14600500  0.93526800  0.12375800  1
  C  C13  1  0.21073700  0.06473200  0.37624200  1
  C  C14  1  0.95914800  0.31503300  0.02966100  1
  C  C15  1  0.64411500  0.68496700  0.47033900  1
  C  C16  1  0.04085200  0.68496700  0.97033900  1
  C  C17  1  0.35588500  0.31503300  0.52966100  1
  C  C18  1  0.78648800  0.36139700  0.94330500  1
  C  C19  1  0.42509100  0.63860300  0.55669500  1
  C  C20  1  0.21351200  0.63860300  0.05669500  1
  C  C21  1  0.57490900  0.36139700  0.44330500  1
  C  C22  1  0.02403200  0.32918900  0.89082300  1
  C  C23  1  0.69484300  0.67081100  0.60917700  1
  C  C24  1  0.97596800  0.67081100  0.10917700  1
  C  C25  1  0.30515700  0.32918900  0.39082300  1
  C  C26  1  0.78234000  0.84681900  0.93758300  1
  C  C27  1  0.93552200  0.15318100  0.56241700  1
  C  C28  1  0.21766000  0.15318100  0.06241700  1
  C  C29  1  0.06447800  0.84681900  0.43758300  1
  C  C30  1  0.64388100  0.78167700  0.03611500  1
  C  C31  1  0.86220400  0.21832300  0.46388500  1
  C  C32  1  0.35611900  0.21832300  0.96388500  1
  C  C33  1  0.13779600  0.78167700  0.53611500  1
  C  C34  1  0.51238200  0.66149500  0.79103000  1
  C  C35  1  0.85088800  0.33850500  0.70897000  1
  C  C36  1  0.48761800  0.33850500  0.20897000  1
  C  C37  1  0.14911200  0.66149500  0.29103000  1
  C  C38  1  0.63039100  0.57137400  0.87062300  1
  C  C39  1  0.05901700  0.42862600  0.62937700  1
  C  C40  1  0.36960900  0.42862600  0.12937700  1
  C  C41  1  0.94098300  0.57137400  0.37062300  1
  C  C42  1  0.36802300  0.58113200  0.89574800  1
  C  C43  1  0.78689100  0.41886800  0.60425200  1
  C  C44  1  0.63197700  0.41886800  0.10425200  1
  C  C45  1  0.21310900  0.58113200  0.39574800  1
  Cu  Cu46  1  0.89007900  0.29234100  0.94304700  1
  Cu  Cu47  1  0.59773800  0.70766000  0.55695300  1
  Cu  Cu48  1  0.10992100  0.70766000  0.05695300  1
  Cu  Cu49  1  0.40226200  0.29234000  0.44304700  1
  Cu  Cu50  1  0.53036600  0.64409900  0.87454500  1
  Cu  Cu51  1  0.88626700  0.35590100  0.62545500  1
  Cu  Cu52  1  0.46963400  0.35590100  0.12545500  1
  Cu  Cu53  1  0.11373300  0.64409900  0.37454500  1
  C  C54  1  0.75495500  0.12764000  0.90011200  1
  C  C55  1  0.62731500  0.87236000  0.59988800  1
  C  C56  1  0.24504500  0.87236000  0.09988800  1
  C  C57  1  0.37268500  0.12764000  0.40011200  1
  C  C58  1  0.62637200  0.79587100  0.95716000  1
  C  C59  1  0.83050100  0.20412900  0.54284000  1
  C  C60  1  0.37362800  0.20412900  0.04284000  1
  C  C61  1  0.16949900  0.79587100  0.45716000  1
