# generated using pymatgen
data_Cu3Ni5C9
_symmetry_space_group_name_H-M   'P 1'
_cell_length_a   6.44483823
_cell_length_b   9.78117277
_cell_length_c   19.63680900
_cell_angle_alpha   90.00000000
_cell_angle_beta   90.00000000
_cell_angle_gamma   139.36183915
_symmetry_Int_Tables_number   1
_chemical_formula_structural   Cu3Ni5C9
_chemical_formula_sum   'Cu12 Ni20 C36'
_cell_volume   806.19751701
_cell_formula_units_Z   4
loop_
 _symmetry_equiv_pos_site_id
 _symmetry_equiv_pos_as_xyz
  1  'x, y, z'
loop_
 _atom_site_type_symbol
 _atom_site_label
 _atom_site_symmetry_multiplicity
 _atom_site_fract_x
 _atom_site_fract_y
 _atom_site_fract_z
 _atom_site_occupancy
  Ni  Ni0  1  -0.00000000  0.57102950  0.84838235  1
  Ni  Ni1  1  0.00000000  0.42897050  0.15161765  1
  Ni  Ni2  1  0.00000000  0.92897050  0.34838235  1
  Ni  Ni3  1  -0.00000000  0.07102950  0.65161765  1
  Ni  Ni4  1  0.58064347  0.08487632  0.87144378  1
  Ni  Ni5  1  0.58064347  0.49576615  0.12855622  1
  Ni  Ni6  1  0.58064347  0.99576615  0.37144378  1
  Ni  Ni7  1  0.58064347  0.58487632  0.62855622  1
  Ni  Ni8  1  0.41935653  0.91512368  0.12855622  1
  Ni  Ni9  1  0.41935653  0.50423385  0.87144378  1
  Ni  Ni10  1  0.41935653  0.00423385  0.62855622  1
  Ni  Ni11  1  0.41935653  0.41512368  0.37144378  1
  Ni  Ni12  1  -0.00000000  0.51374968  0.60381796  1
  Ni  Ni13  1  0.00000000  0.48625032  0.39618204  1
  Ni  Ni14  1  0.00000000  0.98625032  0.10381796  1
  Ni  Ni15  1  -0.00000000  0.01374968  0.89618204  1
  Ni  Ni16  1  0.64053243  0.32026572  0.00000000  1
  Ni  Ni17  1  0.64053243  0.82026572  0.50000000  1
  Ni  Ni18  1  0.35946757  0.67973428  0.00000000  1
  Ni  Ni19  1  0.35946757  0.17973428  0.50000000  1
  Cu  Cu20  1  -0.00000000  0.78409211  0.98446941  1
  Cu  Cu21  1  0.00000000  0.21590789  0.01553059  1
  Cu  Cu22  1  0.00000000  0.71590789  0.48446941  1
  Cu  Cu23  1  -0.00000000  0.28409211  0.51553059  1
  Cu  Cu24  1  -0.00000000  0.34540837  0.73961881  1
  Cu  Cu25  1  0.00000000  0.65459163  0.26038119  1
  Cu  Cu26  1  0.00000000  0.15459163  0.23961881  1
  Cu  Cu27  1  -0.00000000  0.84540837  0.76038119  1
  Cu  Cu28  1  0.50000000  0.81189279  0.75000000  1
  Cu  Cu29  1  0.50000000  0.68810721  0.25000000  1
  Cu  Cu30  1  0.50000000  0.18810721  0.25000000  1
  Cu  Cu31  1  0.50000000  0.31189279  0.75000000  1
  C  C32  1  0.00000000  0.51834726  0.69751575  1
  C  C33  1  -0.00000000  0.48165274  0.30248425  1
  C  C34  1  -0.00000000  0.98165274  0.19751575  1
  C  C35  1  0.00000000  0.01834726  0.80248425  1
  C  C36  1  0.00000000  0.21125324  0.91967129  1
  C  C37  1  -0.00000000  0.78874676  0.08032871  1
  C  C38  1  -0.00000000  0.28874676  0.41967129  1
  C  C39  1  0.00000000  0.71125324  0.58032871  1
  C  C40  1  -0.00000000  0.60181163  0.95228051  1
  C  C41  1  0.00000000  0.39818837  0.04771949  1
  C  C42  1  0.00000000  0.89818837  0.45228051  1
  C  C43  1  -0.00000000  0.10181163  0.54771949  1
  C  C44  1  0.69027726  0.54546556  0.80975514  1
  C  C45  1  0.69027726  0.14481170  0.19024486  1
  C  C46  1  0.69027726  0.64481170  0.30975514  1
  C  C47  1  0.69027726  0.04546556  0.69024486  1
  C  C48  1  0.30972274  0.45453444  0.19024486  1
  C  C49  1  0.30972274  0.85518830  0.80975514  1
  C  C50  1  0.30972274  0.35518830  0.69024486  1
  C  C51  1  0.30972274  0.95453444  0.30975514  1
  C  C52  1  0.70214105  0.27872736  0.80949818  1
  C  C53  1  0.70214105  0.42341369  0.19050182  1
  C  C54  1  0.70214105  0.92341369  0.30949818  1
  C  C55  1  0.70214105  0.77872736  0.69050182  1
  C  C56  1  0.29785895  0.72127264  0.19050182  1
  C  C57  1  0.29785895  0.57658631  0.80949818  1
  C  C58  1  0.29785895  0.07658631  0.69050182  1
  C  C59  1  0.29785895  0.22127264  0.30949818  1
  C  C60  1  0.33873671  0.05937349  0.94531726  1
  C  C61  1  0.33873671  0.27936322  0.05468274  1
  C  C62  1  0.33873671  0.77936322  0.44531726  1
  C  C63  1  0.33873671  0.55937349  0.55468274  1
  C  C64  1  0.66126329  0.94062651  0.05468274  1
  C  C65  1  0.66126329  0.72063678  0.94531726  1
  C  C66  1  0.66126329  0.22063678  0.55468274  1
  C  C67  1  0.66126329  0.44062651  0.44531726  1
