# generated using pymatgen
data_Cu(NiC6)2
_symmetry_space_group_name_H-M   'P 1'
_cell_length_a   10.53965900
_cell_length_b   6.01151100
_cell_length_c   13.54054603
_cell_angle_alpha   90.00000000
_cell_angle_beta   96.32336584
_cell_angle_gamma   90.00000000
_symmetry_Int_Tables_number   1
_chemical_formula_structural   Cu(NiC6)2
_chemical_formula_sum   'Cu4 Ni8 C48'
_cell_volume   852.69971761
_cell_formula_units_Z   4
loop_
 _symmetry_equiv_pos_site_id
 _symmetry_equiv_pos_as_xyz
  1  'x, y, z'
loop_
 _atom_site_type_symbol
 _atom_site_label
 _atom_site_symmetry_multiplicity
 _atom_site_fract_x
 _atom_site_fract_y
 _atom_site_fract_z
 _atom_site_occupancy
  C  C0  1  0.10222400  0.20787400  0.18748000  1
  C  C1  1  0.89777600  0.70787400  0.31252000  1
  C  C2  1  0.89777600  0.79212600  0.81252000  1
  C  C3  1  0.10222400  0.29212600  0.68748000  1
  C  C4  1  0.38669700  0.72011600  0.17274400  1
  C  C5  1  0.61330300  0.22011600  0.32725600  1
  C  C6  1  0.61330300  0.27988400  0.82725600  1
  C  C7  1  0.38669700  0.77988400  0.67274400  1
  Ni  Ni8  1  0.04601200  0.29224600  0.45670000  1
  Ni  Ni9  1  0.95398800  0.79224600  0.04330000  1
  Ni  Ni10  1  0.95398800  0.70775400  0.54330000  1
  Ni  Ni11  1  0.04601200  0.20775400  0.95670000  1
  Ni  Ni12  1  0.14472000  0.48244200  0.48397400  1
  Ni  Ni13  1  0.85528000  0.98244200  0.01602600  1
  Ni  Ni14  1  0.85528000  0.51755800  0.51602600  1
  Ni  Ni15  1  0.14472000  0.01755800  0.98397400  1
  Cu  Cu16  1  0.24164000  0.89955200  0.40014800  1
  Cu  Cu17  1  0.75836000  0.39955200  0.09985200  1
  Cu  Cu18  1  0.75836000  0.10044800  0.59985200  1
  Cu  Cu19  1  0.24164000  0.60044800  0.90014800  1
  C  C20  1  0.01711800  0.93911600  0.20602400  1
  C  C21  1  0.98288200  0.43911600  0.29397600  1
  C  C22  1  0.98288200  0.06088400  0.79397600  1
  C  C23  1  0.01711800  0.56088400  0.70602400  1
  C  C24  1  0.09562700  0.80626900  0.42058900  1
  C  C25  1  0.90437300  0.30626900  0.07941100  1
  C  C26  1  0.90437300  0.19373100  0.57941100  1
  C  C27  1  0.09562700  0.69373100  0.92058900  1
  C  C28  1  0.11230200  0.34229200  0.50755700  1
  C  C29  1  0.88769800  0.84229200  0.99244300  1
  C  C30  1  0.88769800  0.65770800  0.49244300  1
  C  C31  1  0.11230200  0.15770800  0.00755700  1
  C  C32  1  0.18803200  0.46849300  0.17013900  1
  C  C33  1  0.81196800  0.96849300  0.32986100  1
  C  C34  1  0.81196800  0.53150700  0.82986100  1
  C  C35  1  0.18803200  0.03150700  0.67013900  1
  C  C36  1  0.27299100  0.95715400  0.14503400  1
  C  C37  1  0.72700900  0.45715400  0.35496600  1
  C  C38  1  0.72700900  0.04284600  0.85496600  1
  C  C39  1  0.27299100  0.54284600  0.64503400  1
  C  C40  1  0.31012700  0.70829500  0.33291600  1
  C  C41  1  0.68987300  0.20829500  0.16708400  1
  C  C42  1  0.68987300  0.29170500  0.66708400  1
  C  C43  1  0.31012700  0.79170500  0.83291600  1
  C  C44  1  0.32650500  0.54993300  0.00715300  1
  C  C45  1  0.67349500  0.04993300  0.49284700  1
  C  C46  1  0.67349500  0.45006700  0.99284700  1
  C  C47  1  0.32650500  0.95006700  0.50715300  1
  C  C48  1  0.52253900  0.96479000  0.28688900  1
  C  C49  1  0.47746100  0.46479000  0.21311100  1
  C  C50  1  0.47746100  0.03521000  0.71311100  1
  C  C51  1  0.52253900  0.53521000  0.78688900  1
  C  C52  1  0.50776300  0.82227500  0.09594200  1
  C  C53  1  0.49223700  0.32227500  0.40405800  1
  C  C54  1  0.49223700  0.17772500  0.90405800  1
  C  C55  1  0.50776300  0.67772500  0.59594200  1
  C  C56  1  0.77617300  0.63927000  0.16541700  1
  C  C57  1  0.22382700  0.13927000  0.33458300  1
  C  C58  1  0.22382700  0.36073000  0.83458300  1
  C  C59  1  0.77617300  0.86073000  0.66541700  1
