# generated using pymatgen
data_Cu2Ni8C7
_symmetry_space_group_name_H-M   'P 1'
_cell_length_a   6.08084230
_cell_length_b   6.08084230
_cell_length_c   4.80456800
_cell_angle_alpha   90.00000000
_cell_angle_beta   90.00000000
_cell_angle_gamma   120.00000331
_symmetry_Int_Tables_number   1
_chemical_formula_structural   Cu2Ni8C7
_chemical_formula_sum   'Cu2 Ni8 C7'
_cell_volume   153.85529365
_cell_formula_units_Z   1
loop_
 _symmetry_equiv_pos_site_id
 _symmetry_equiv_pos_as_xyz
  1  'x, y, z'
loop_
 _atom_site_type_symbol
 _atom_site_label
 _atom_site_symmetry_multiplicity
 _atom_site_fract_x
 _atom_site_fract_y
 _atom_site_fract_z
 _atom_site_occupancy
  C  C0  1  0.00000000  0.00000000  0.00000000  1
  Ni  Ni1  1  0.33333300  0.66666700  0.09544500  1
  Ni  Ni2  1  0.66666700  0.33333300  0.90455500  1
  Ni  Ni3  1  0.24138700  0.48277300  0.38224400  1
  Ni  Ni4  1  0.24138700  0.75861300  0.38224400  1
  Ni  Ni5  1  0.51722700  0.75861300  0.38224400  1
  Ni  Ni6  1  0.75861300  0.51722700  0.61775600  1
  Ni  Ni7  1  0.75861300  0.24138700  0.61775600  1
  Ni  Ni8  1  0.48277300  0.24138700  0.61775600  1
  Cu  Cu9  1  0.33333300  0.66666700  0.30975400  1
  Cu  Cu10  1  0.66666700  0.33333300  0.69024600  1
  C  C11  1  0.14811300  0.85188700  0.77574100  1
  C  C12  1  0.70377400  0.85188700  0.77574100  1
  C  C13  1  0.14811300  0.29622600  0.77574100  1
  C  C14  1  0.85188700  0.14811300  0.22425900  1
  C  C15  1  0.29622600  0.14811300  0.22425900  1
  C  C16  1  0.85188700  0.70377400  0.22425900  1
