# generated using pymatgen
data_Cu(NiC4)2
_symmetry_space_group_name_H-M   'P 1'
_cell_length_a   5.49106300
_cell_length_b   10.66584100
_cell_length_c   17.02834533
_cell_angle_alpha   85.26829861
_cell_angle_beta   90.00000000
_cell_angle_gamma   90.00000000
_symmetry_Int_Tables_number   1
_chemical_formula_structural   Cu(NiC4)2
_chemical_formula_sum   'Cu8 Ni16 C64'
_cell_volume   993.89689307
_cell_formula_units_Z   8
loop_
 _symmetry_equiv_pos_site_id
 _symmetry_equiv_pos_as_xyz
  1  'x, y, z'
loop_
 _atom_site_type_symbol
 _atom_site_label
 _atom_site_symmetry_multiplicity
 _atom_site_fract_x
 _atom_site_fract_y
 _atom_site_fract_z
 _atom_site_occupancy
  C  C0  1  0.40119000  0.64024100  0.73658000  1
  C  C1  1  0.90119000  0.35975900  0.76342000  1
  C  C2  1  0.59881000  0.35975900  0.26342000  1
  C  C3  1  0.09881000  0.64024100  0.23658000  1
  C  C4  1  0.88992900  0.68503500  0.71415600  1
  C  C5  1  0.38992900  0.31496500  0.78584400  1
  C  C6  1  0.11007100  0.31496500  0.28584400  1
  C  C7  1  0.61007100  0.68503500  0.21415600  1
  C  C8  1  0.81103000  0.94239300  0.71845100  1
  C  C9  1  0.31103000  0.05760700  0.78154900  1
  C  C10  1  0.18897000  0.05760700  0.28154900  1
  C  C11  1  0.68897000  0.94239300  0.21845100  1
  C  C12  1  0.74967200  0.95785400  0.61452900  1
  C  C13  1  0.24967200  0.04214600  0.88547100  1
  C  C14  1  0.25032800  0.04214600  0.38547100  1
  C  C15  1  0.75032800  0.95785400  0.11452900  1
  C  C16  1  0.01444000  0.03014800  0.65334900  1
  C  C17  1  0.51444000  0.96985200  0.84665100  1
  C  C18  1  0.98556000  0.96985200  0.34665100  1
  C  C19  1  0.48556000  0.03014800  0.15334900  1
  C  C20  1  0.51446600  0.16983300  0.66833800  1
  C  C21  1  0.01446600  0.83016700  0.83166200  1
  C  C22  1  0.48553400  0.83016700  0.33166200  1
  C  C23  1  0.98553400  0.16983300  0.16833800  1
  C  C24  1  0.62388600  0.29182000  0.59815900  1
  C  C25  1  0.12388600  0.70818000  0.90184100  1
  C  C26  1  0.37611400  0.70818000  0.40184100  1
  C  C27  1  0.87611400  0.29182000  0.09815900  1
  C  C28  1  0.37536000  0.19285100  0.57321200  1
  C  C29  1  0.87536000  0.80714900  0.92678800  1
  C  C30  1  0.62464000  0.80714900  0.42678800  1
  C  C31  1  0.12464000  0.19285100  0.07321200  1
  C  C32  1  0.14388100  0.37507300  0.53838000  1
  C  C33  1  0.64388100  0.62492700  0.96162000  1
  C  C34  1  0.85611900  0.62492700  0.46162000  1
  C  C35  1  0.35611900  0.37507300  0.03838000  1
  C  C36  1  0.26595800  0.92233000  0.56433800  1
  C  C37  1  0.76595800  0.07767000  0.93566200  1
  C  C38  1  0.73404200  0.07767000  0.43566200  1
  C  C39  1  0.23404200  0.92233000  0.06433800  1
  C  C40  1  0.25214800  0.75576700  0.56377000  1
  C  C41  1  0.75214800  0.24423300  0.93623000  1
  C  C42  1  0.74785200  0.24423300  0.43623000  1
  C  C43  1  0.24785200  0.75576700  0.06377000  1
  C  C44  1  0.38151800  0.47734100  0.56774700  1
  C  C45  1  0.88151800  0.52265900  0.93225300  1
  C  C46  1  0.61848200  0.52265900  0.43225300  1
  C  C47  1  0.11848200  0.47734100  0.06774700  1
  C  C48  1  0.08077000  0.48718800  0.60787500  1
  C  C49  1  0.58077000  0.51281200  0.89212500  1
  C  C50  1  0.91923000  0.51281200  0.39212500  1
  C  C51  1  0.41923000  0.48718800  0.10787500  1
  C  C52  1  0.00179500  0.84956900  0.52576700  1
  C  C53  1  0.50179500  0.15043100  0.97423300  1
  C  C54  1  0.99820500  0.15043100  0.47423300  1
  C  C55  1  0.49820500  0.84956900  0.02576700  1
  Ni  Ni56  1  0.89500100  0.94728300  0.65971500  1
  Ni  Ni57  1  0.39500100  0.05271700  0.84028500  1
  Ni  Ni58  1  0.10499900  0.05271700  0.34028500  1
  Ni  Ni59  1  0.60499900  0.94728300  0.15971500  1
  Ni  Ni60  1  0.45875200  0.24087400  0.62129600  1
  Ni  Ni61  1  0.95875200  0.75912600  0.87870400  1
  Ni  Ni62  1  0.54124800  0.75912600  0.37870400  1
  Ni  Ni63  1  0.04124800  0.24087400  0.12129600  1
  Ni  Ni64  1  0.14451000  0.84038400  0.57187000  1
  Ni  Ni65  1  0.64451000  0.15961600  0.92813000  1
  Ni  Ni66  1  0.85549000  0.15961600  0.42813000  1
  Ni  Ni67  1  0.35549000  0.84038400  0.07187000  1
  Ni  Ni68  1  0.21865600  0.42214800  0.58831700  1
  Ni  Ni69  1  0.71865600  0.57785200  0.91168300  1
  Ni  Ni70  1  0.78134400  0.57785200  0.41168300  1
  Ni  Ni71  1  0.28134400  0.42214800  0.08831700  1
  Cu  Cu72  1  0.28242600  0.32692600  0.65145500  1
  Cu  Cu73  1  0.78242600  0.67307400  0.84854500  1
  Cu  Cu74  1  0.71757400  0.67307400  0.34854500  1
  Cu  Cu75  1  0.21757400  0.32692600  0.15145500  1
  Cu  Cu76  1  0.03997500  0.83421000  0.65098800  1
  Cu  Cu77  1  0.53997500  0.16579000  0.84901200  1
  Cu  Cu78  1  0.96002500  0.16579000  0.34901200  1
  Cu  Cu79  1  0.46002500  0.83421000  0.15098800  1
  C  C80  1  0.39880900  0.39159500  0.71251000  1
  C  C81  1  0.89880900  0.60840500  0.78749000  1
  C  C82  1  0.60119100  0.60840500  0.28749000  1
  C  C83  1  0.10119100  0.39159500  0.21251000  1
  C  C84  1  0.87253000  0.72871000  0.65536600  1
  C  C85  1  0.37253000  0.27129000  0.84463400  1
  C  C86  1  0.12747000  0.27129000  0.34463400  1
  C  C87  1  0.62747000  0.72871000  0.15536600  1
