# generated using pymatgen
data_Cu23NiC13
_symmetry_space_group_name_H-M   'P 1'
_cell_length_a   9.48127673
_cell_length_b   9.48127673
_cell_length_c   6.69226020
_cell_angle_alpha   75.33258242
_cell_angle_beta   75.33258242
_cell_angle_gamma   107.93211103
_symmetry_Int_Tables_number   1
_chemical_formula_structural   Cu23NiC13
_chemical_formula_sum   'Cu23 Ni1 C13'
_cell_volume   516.63764683
_cell_formula_units_Z   1
loop_
 _symmetry_equiv_pos_site_id
 _symmetry_equiv_pos_as_xyz
  1  'x, y, z'
loop_
 _atom_site_type_symbol
 _atom_site_label
 _atom_site_symmetry_multiplicity
 _atom_site_fract_x
 _atom_site_fract_y
 _atom_site_fract_z
 _atom_site_occupancy
  C  C0  1  0.65200800  0.93090400  0.01538300  1
  C  C1  1  0.08055000  0.36449600  0.98244100  1
  C  C2  1  0.36449600  0.08055000  0.98244100  1
  C  C3  1  0.93090400  0.65200800  0.01538300  1
  C  C4  1  0.99459200  0.99459200  0.47762800  1
  C  C5  1  0.25252300  0.75080600  0.49728500  1
  C  C6  1  0.75080600  0.25252300  0.49728500  1
  C  C7  1  0.83194000  0.62450800  0.56800300  1
  C  C8  1  0.37551900  0.16936100  0.43294600  1
  C  C9  1  0.16936100  0.37551900  0.43294600  1
  C  C10  1  0.62450800  0.83194000  0.56800300  1
  C  C11  1  0.67926800  0.32754200  0.99904900  1
  C  C12  1  0.32754200  0.67926800  0.99904900  1
  Ni  Ni13  1  0.98410700  0.98410700  0.02001500  1
  Cu  Cu14  1  0.25384200  0.25384200  0.51953300  1
  Cu  Cu15  1  0.75357000  0.75357000  0.48158200  1
  Cu  Cu16  1  0.70492900  0.49294300  0.81085400  1
  Cu  Cu17  1  0.50739400  0.28943600  0.18558200  1
  Cu  Cu18  1  0.28943600  0.50739400  0.18558200  1
  Cu  Cu19  1  0.49294300  0.70492900  0.81085400  1
  Cu  Cu20  1  0.13676600  0.46395300  0.60619400  1
  Cu  Cu21  1  0.53808800  0.86319600  0.39259900  1
  Cu  Cu22  1  0.86319600  0.53808800  0.39259900  1
  Cu  Cu23  1  0.46395300  0.13676600  0.60619400  1
  Cu  Cu24  1  0.98489300  0.72881400  0.61316700  1
  Cu  Cu25  1  0.26566100  0.01736600  0.39060800  1
  Cu  Cu26  1  0.01736600  0.26566100  0.39060800  1
  Cu  Cu27  1  0.72881400  0.98489300  0.61316700  1
  Cu  Cu28  1  0.65334000  0.18466300  0.89991300  1
  Cu  Cu29  1  0.82174800  0.36397800  0.09675300  1
  Cu  Cu30  1  0.36397800  0.82174800  0.09675300  1
  Cu  Cu31  1  0.18466300  0.65334000  0.89991300  1
  Cu  Cu32  1  0.66875000  0.66875000  0.12368000  1
  Cu  Cu33  1  0.31019400  0.31019400  0.89754900  1
  Cu  Cu34  1  0.91834600  0.91834600  0.89587800  1
  Cu  Cu35  1  0.93876700  0.08514000  0.08289100  1
  Cu  Cu36  1  0.08514000  0.93876700  0.08289100  1
