# generated using pymatgen
data_CuNiC5
_symmetry_space_group_name_H-M   'P 1'
_cell_length_a   5.45315953
_cell_length_b   6.94756368
_cell_length_c   5.45336037
_cell_angle_alpha   66.90730363
_cell_angle_beta   89.88116033
_cell_angle_gamma   89.94764269
_symmetry_Int_Tables_number   1
_chemical_formula_structural   CuNiC5
_chemical_formula_sum   'Cu2 Ni2 C10'
_cell_volume   190.05144037
_cell_formula_units_Z   2
loop_
 _symmetry_equiv_pos_site_id
 _symmetry_equiv_pos_as_xyz
  1  'x, y, z'
loop_
 _atom_site_type_symbol
 _atom_site_label
 _atom_site_symmetry_multiplicity
 _atom_site_fract_x
 _atom_site_fract_y
 _atom_site_fract_z
 _atom_site_occupancy
  Ni  Ni0  1  0.99999800  0.28473500  0.35762200  1
  Ni  Ni1  1  0.49999600  0.28468200  0.85766800  1
  Cu  Cu2  1  0.49998800  0.71412200  0.14295300  1
  Cu  Cu3  1  0.00001300  0.71443600  0.64278100  1
  C  C4  1  0.49999600  0.00756900  0.49623600  1
  C  C5  1  0.99999800  0.00722900  0.99639700  1
  C  C6  1  0.00002700  0.66640700  0.16678800  1
  C  C7  1  0.49999300  0.66660600  0.66666100  1
  C  C8  1  0.50001100  0.34758600  0.32622000  1
  C  C9  1  0.99997700  0.34778500  0.82609100  1
  C  C10  1  0.74237000  0.98978200  0.74675200  1
  C  C11  1  0.25766000  0.98979200  0.26345100  1
  C  C12  1  0.75805700  0.98963800  0.24738500  1
  C  C13  1  0.24191600  0.98963300  0.76299500  1
