# generated using pymatgen
data_Cu2NiC62
_symmetry_space_group_name_H-M   'P 1'
_cell_length_a   6.37796700
_cell_length_b   6.51198857
_cell_length_c   15.55751254
_cell_angle_alpha   94.32037348
_cell_angle_beta   89.97490883
_cell_angle_gamma   100.47247915
_symmetry_Int_Tables_number   1
_chemical_formula_structural   Cu2NiC62
_chemical_formula_sum   'Cu2 Ni1 C62'
_cell_volume   633.52719686
_cell_formula_units_Z   1
loop_
 _symmetry_equiv_pos_site_id
 _symmetry_equiv_pos_as_xyz
  1  'x, y, z'
loop_
 _atom_site_type_symbol
 _atom_site_label
 _atom_site_symmetry_multiplicity
 _atom_site_fract_x
 _atom_site_fract_y
 _atom_site_fract_z
 _atom_site_occupancy
  Ni  Ni0  1  0.00000000  0.00000000  0.00000000  1
  Cu  Cu1  1  0.59335800  0.33626800  0.67985900  1
  Cu  Cu2  1  0.40664200  0.66373200  0.32014100  1
  C  C3  1  0.79919600  0.33907300  0.98934400  1
  C  C4  1  0.20080400  0.66092700  0.01065600  1
  C  C5  1  0.84821400  0.25870000  0.89270300  1
  C  C6  1  0.15178600  0.74130000  0.10729700  1
  C  C7  1  0.32311900  0.26341600  0.93693000  1
  C  C8  1  0.67688100  0.73658400  0.06307000  1
  C  C9  1  0.37132800  0.03492600  0.90765300  1
  C  C10  1  0.62867200  0.96507400  0.09234700  1
  C  C11  1  0.23954200  0.18454100  0.13907300  1
  C  C12  1  0.76045800  0.81545900  0.86092700  1
  C  C13  1  0.00979600  0.24967400  0.15688900  1
  C  C14  1  0.99020400  0.75032600  0.84311100  1
  C  C15  1  0.96788900  0.37711500  0.76005100  1
  C  C16  1  0.03211100  0.62288500  0.23994900  1
  C  C17  1  0.90288900  0.13652400  0.72047300  1
  C  C18  1  0.09711100  0.86347600  0.27952700  1
  C  C19  1  0.46430600  0.95372000  0.74532100  1
  C  C20  1  0.53569400  0.04628000  0.25467900  1
  C  C21  1  0.27990600  0.00389900  0.68440500  1
  C  C22  1  0.72009400  0.99610100  0.31559500  1
  C  C23  1  0.79258200  0.28266700  0.52289000  1
  C  C24  1  0.20741800  0.71733300  0.47711000  1
  C  C25  1  0.71832500  0.06100900  0.56121700  1
  C  C26  1  0.28167500  0.93899100  0.43878300  1
  C  C27  1  0.30283900  0.30498800  0.55046600  1
  C  C28  1  0.69716100  0.69501200  0.44953400  1
  C  C29  1  0.24617600  0.48730800  0.61620900  1
  C  C30  1  0.75382400  0.51269200  0.38379100  1
  C  C31  1  0.36034300  0.59475100  0.83395700  1
  C  C32  1  0.63965700  0.40524900  0.16604300  1
  C  C33  1  0.91027400  0.76175400  0.61333800  1
  C  C34  1  0.08972600  0.23824600  0.38666200  1
  C  C35  1  0.47913800  0.43638100  0.78952200  1
  C  C36  1  0.52086200  0.56361900  0.21047800  1
  C  C37  1  0.15465500  0.58468000  0.78739700  1
  C  C38  1  0.84534500  0.41532000  0.21260300  1
  C  C39  1  0.48851000  0.81090300  0.83013700  1
  C  C40  1  0.51149000  0.18909700  0.16986300  1
  C  C41  1  0.33292800  0.53970500  0.92362000  1
  C  C42  1  0.66707200  0.46029500  0.07638000  1
  C  C43  1  0.76379100  0.61812500  0.66822700  1
  C  C44  1  0.23620900  0.38187500  0.33177300  1
  C  C45  1  0.07583500  0.65208600  0.57564900  1
  C  C46  1  0.92416500  0.34791400  0.42435100  1
  C  C47  1  0.77872500  0.82647300  0.54459700  1
  C  C48  1  0.22127500  0.17352700  0.45540300  1
  C  C49  1  0.00867000  0.94823800  0.67021100  1
  C  C50  1  0.99133000  0.05176200  0.32978900  1
  C  C51  1  0.88885000  0.25951600  0.95314900  1
  C  C52  1  0.11115000  0.74048400  0.04685100  1
  C  C53  1  0.30566300  0.11640500  0.95203200  1
  C  C54  1  0.69433700  0.88359500  0.04796800  1
  C  C55  1  0.09210500  0.17033900  0.11721800  1
  C  C56  1  0.90789500  0.82966100  0.88278200  1
  C  C57  1  0.84413100  0.25743400  0.74904900  1
  C  C58  1  0.15586900  0.74256600  0.25095100  1
  C  C59  1  0.43704200  0.03662000  0.69608800  1
  C  C60  1  0.56295800  0.96338000  0.30391200  1
  C  C61  1  0.70089700  0.21178500  0.56753200  1
  C  C62  1  0.29910300  0.78821500  0.43246800  1
  C  C63  1  0.33514400  0.37724700  0.60937400  1
  C  C64  1  0.66485600  0.62275300  0.39062600  1
