# generated using pymatgen
data_Cu2NiC10
_symmetry_space_group_name_H-M   'P 1'
_cell_length_a   14.13220608
_cell_length_b   14.13220608
_cell_length_c   14.13220608
_cell_angle_alpha   163.99966382
_cell_angle_beta   163.99966382
_cell_angle_gamma   22.70266226
_symmetry_Int_Tables_number   1
_chemical_formula_structural   Cu2NiC10
_chemical_formula_sum   'Cu2 Ni1 C10'
_cell_volume   214.40705373
_cell_formula_units_Z   1
loop_
 _symmetry_equiv_pos_site_id
 _symmetry_equiv_pos_as_xyz
  1  'x, y, z'
loop_
 _atom_site_type_symbol
 _atom_site_label
 _atom_site_symmetry_multiplicity
 _atom_site_fract_x
 _atom_site_fract_y
 _atom_site_fract_z
 _atom_site_occupancy
  C  C0  1  0.50000000  0.50000000  0.00000000  1
  C  C1  1  0.63818500  0.63818500  0.00000000  1
  C  C2  1  0.36181500  0.36181500  0.00000000  1
  Ni  Ni3  1  0.75000000  0.25000000  0.50000000  1
  Cu  Cu4  1  0.07175700  0.07175700  0.00000000  1
  Cu  Cu5  1  0.92824300  0.92824300  0.00000000  1
  C  C6  1  0.19391900  0.19391900  0.00000000  1
  C  C7  1  0.80608100  0.80608100  0.00000000  1
  C  C8  1  0.07952000  0.57952000  0.50000000  1
  C  C9  1  0.58030000  0.08030000  0.50000000  1
  C  C10  1  0.91970000  0.41970000  0.50000000  1
  C  C11  1  0.42048000  0.92048000  0.50000000  1
  C  C12  1  0.00000000  0.00000000  0.00000000  1
