# generated using pymatgen
data_Cu8Ni3C4
_symmetry_space_group_name_H-M   'P 1'
_cell_length_a   10.90748600
_cell_length_b   10.90748600
_cell_length_c   10.90748600
_cell_angle_alpha   90.00000000
_cell_angle_beta   90.00000000
_cell_angle_gamma   90.00000000
_symmetry_Int_Tables_number   1
_chemical_formula_structural   Cu8Ni3C4
_chemical_formula_sum   'Cu32 Ni12 C16'
_cell_volume   1297.69906791
_cell_formula_units_Z   4
loop_
 _symmetry_equiv_pos_site_id
 _symmetry_equiv_pos_as_xyz
  1  'x, y, z'
loop_
 _atom_site_type_symbol
 _atom_site_label
 _atom_site_symmetry_multiplicity
 _atom_site_fract_x
 _atom_site_fract_y
 _atom_site_fract_z
 _atom_site_occupancy
  C  C0  1  0.37500000  0.62500000  0.12500000  1
  C  C1  1  0.12500000  0.37500000  0.62500000  1
  C  C2  1  0.62500000  0.12500000  0.37500000  1
  C  C3  1  0.87500000  0.87500000  0.87500000  1
  C  C4  1  0.85476000  0.89524000  0.37500000  1
  C  C5  1  0.64524000  0.10476000  0.87500000  1
  C  C6  1  0.14524000  0.39524000  0.12500000  1
  C  C7  1  0.35476000  0.60476000  0.62500000  1
  C  C8  1  0.89524000  0.37500000  0.85476000  1
  C  C9  1  0.10476000  0.87500000  0.64524000  1
  C  C10  1  0.39524000  0.12500000  0.14524000  1
  C  C11  1  0.60476000  0.62500000  0.35476000  1
  C  C12  1  0.37500000  0.85476000  0.89524000  1
  C  C13  1  0.87500000  0.64524000  0.10476000  1
  C  C14  1  0.12500000  0.14524000  0.39524000  1
  C  C15  1  0.62500000  0.35476000  0.60476000  1
  Ni  Ni16  1  0.11404000  0.63596000  0.37500000  1
  Ni  Ni17  1  0.38596000  0.36404000  0.87500000  1
  Ni  Ni18  1  0.88596000  0.13596000  0.12500000  1
  Ni  Ni19  1  0.61404000  0.86404000  0.62500000  1
  Ni  Ni20  1  0.63596000  0.37500000  0.11404000  1
  Ni  Ni21  1  0.36404000  0.87500000  0.38596000  1
  Ni  Ni22  1  0.13596000  0.12500000  0.88596000  1
  Ni  Ni23  1  0.86404000  0.62500000  0.61404000  1
  Ni  Ni24  1  0.37500000  0.11404000  0.63596000  1
  Ni  Ni25  1  0.87500000  0.38596000  0.36404000  1
  Ni  Ni26  1  0.12500000  0.88596000  0.13596000  1
  Ni  Ni27  1  0.62500000  0.61404000  0.86404000  1
  Cu  Cu28  1  0.35104900  0.63835100  0.38757700  1
  Cu  Cu29  1  0.14895100  0.36164900  0.88757700  1
  Cu  Cu30  1  0.64895100  0.13835100  0.11242300  1
  Cu  Cu31  1  0.85104900  0.86164900  0.61242300  1
  Cu  Cu32  1  0.63835100  0.38757700  0.35104900  1
  Cu  Cu33  1  0.36164900  0.88757700  0.14895100  1
  Cu  Cu34  1  0.13835100  0.11242300  0.64895100  1
  Cu  Cu35  1  0.86164900  0.61242300  0.85104900  1
  Cu  Cu36  1  0.38757700  0.35104900  0.63835100  1
  Cu  Cu37  1  0.88757700  0.14895100  0.36164900  1
  Cu  Cu38  1  0.11242300  0.64895100  0.13835100  1
  Cu  Cu39  1  0.61242300  0.85104900  0.86164900  1
  Cu  Cu40  1  0.39895100  0.36242300  0.11164900  1
  Cu  Cu41  1  0.60104900  0.86242300  0.38835100  1
  Cu  Cu42  1  0.10104900  0.63757700  0.61164900  1
  Cu  Cu43  1  0.89895100  0.13757700  0.88835100  1
  Cu  Cu44  1  0.11164900  0.39895100  0.36242300  1
  Cu  Cu45  1  0.38835100  0.60104900  0.86242300  1
  Cu  Cu46  1  0.61164900  0.10104900  0.63757700  1
  Cu  Cu47  1  0.88835100  0.89895100  0.13757700  1
  Cu  Cu48  1  0.36242300  0.11164900  0.39895100  1
  Cu  Cu49  1  0.86242300  0.38835100  0.60104900  1
  Cu  Cu50  1  0.63757700  0.61164900  0.10104900  1
  Cu  Cu51  1  0.13757700  0.88835100  0.89895100  1
  Cu  Cu52  1  0.12108000  0.87892000  0.37892000  1
  Cu  Cu53  1  0.37892000  0.12108000  0.87892000  1
  Cu  Cu54  1  0.87892000  0.37892000  0.12108000  1
  Cu  Cu55  1  0.62108000  0.62108000  0.62108000  1
  Cu  Cu56  1  0.62892000  0.37108000  0.87108000  1
  Cu  Cu57  1  0.37108000  0.87108000  0.62892000  1
  Cu  Cu58  1  0.87108000  0.62892000  0.37108000  1
  Cu  Cu59  1  0.12892000  0.12892000  0.12892000  1
