# generated using pymatgen
data_Cu3Ni3C22
_symmetry_space_group_name_H-M   'P 1'
_cell_length_a   6.11814342
_cell_length_b   6.11814342
_cell_length_c   9.84774571
_cell_angle_alpha   87.85020209
_cell_angle_beta   87.85020209
_cell_angle_gamma   58.16963651
_symmetry_Int_Tables_number   1
_chemical_formula_structural   Cu3Ni3C22
_chemical_formula_sum   'Cu3 Ni3 C22'
_cell_volume   312.89380689
_cell_formula_units_Z   1
loop_
 _symmetry_equiv_pos_site_id
 _symmetry_equiv_pos_as_xyz
  1  'x, y, z'
loop_
 _atom_site_type_symbol
 _atom_site_label
 _atom_site_symmetry_multiplicity
 _atom_site_fract_x
 _atom_site_fract_y
 _atom_site_fract_z
 _atom_site_occupancy
  C  C0  1  0.66013000  0.66013000  0.10496100  1
  C  C1  1  0.99801700  0.99801700  0.00879300  1
  C  C2  1  0.00479100  0.00479100  0.50750700  1
  C  C3  1  0.33223500  0.33223500  0.60455300  1
  Ni  Ni4  1  0.16823200  0.16823200  0.28192700  1
  Ni  Ni5  1  0.34024700  0.83378500  0.78552400  1
  Ni  Ni6  1  0.83378500  0.34024700  0.78552400  1
  Cu  Cu7  1  0.83088000  0.83088000  0.78620800  1
  Cu  Cu8  1  0.16787600  0.66009100  0.28782400  1
  Cu  Cu9  1  0.66009100  0.16787600  0.28782400  1
  C  C10  1  0.67060000  0.67060000  0.50881200  1
  C  C11  1  0.33461400  0.33461400  0.01042700  1
  C  C12  1  0.33524700  0.85359700  0.39972100  1
  C  C13  1  0.51852800  0.51852800  0.66578900  1
  C  C14  1  0.65002800  0.65002800  0.89422900  1
  C  C15  1  0.01197000  0.01197000  0.69278900  1
  C  C16  1  0.00033500  0.00033500  0.19634100  1
  C  C17  1  0.85359700  0.33524700  0.39972100  1
  C  C18  1  0.49925500  0.96242600  0.65650100  1
  C  C19  1  0.96242600  0.49925500  0.65650100  1
  C  C20  1  0.16522700  0.16522700  0.89446000  1
  C  C21  1  0.84635200  0.84635200  0.40535000  1
  C  C22  1  0.02827200  0.46585800  0.15588200  1
  C  C23  1  0.46585800  0.02827200  0.15588200  1
  C  C24  1  0.33089800  0.33089800  0.38767700  1
  C  C25  1  0.17599600  0.67789700  0.90345400  1
  C  C26  1  0.47655900  0.47655900  0.16452000  1
  C  C27  1  0.67789700  0.17599600  0.90345400  1
