# generated using pymatgen
data_CuNi3C11
_symmetry_space_group_name_H-M   'P 1'
_cell_length_a   6.10791472
_cell_length_b   6.08845063
_cell_length_c   8.44732864
_cell_angle_alpha   89.14258802
_cell_angle_beta   90.68957467
_cell_angle_gamma   88.71057058
_symmetry_Int_Tables_number   1
_chemical_formula_structural   CuNi3C11
_chemical_formula_sum   'Cu2 Ni6 C22'
_cell_volume   313.99827595
_cell_formula_units_Z   2
loop_
 _symmetry_equiv_pos_site_id
 _symmetry_equiv_pos_as_xyz
  1  'x, y, z'
loop_
 _atom_site_type_symbol
 _atom_site_label
 _atom_site_symmetry_multiplicity
 _atom_site_fract_x
 _atom_site_fract_y
 _atom_site_fract_z
 _atom_site_occupancy
  C  C0  1  0.25000000  0.75000000  0.75000100  1
  C  C1  1  0.75000000  0.24999900  0.25000000  1
  C  C2  1  0.99908600  0.50132600  0.99646400  1
  C  C3  1  0.50091200  0.99867400  0.50353700  1
  C  C4  1  0.24999900  0.25000000  0.25000100  1
  C  C5  1  0.75000000  0.75000100  0.74999900  1
  Ni  Ni6  1  0.00758600  0.50591900  0.50713600  1
  Ni  Ni7  1  0.49241700  0.99408400  0.99286500  1
  Ni  Ni8  1  0.24999700  0.24999800  0.74999900  1
  Ni  Ni9  1  0.75000300  0.74999500  0.25000000  1
  Ni  Ni10  1  0.75000000  0.25000300  0.75000200  1
  Ni  Ni11  1  0.24999800  0.75000100  0.25000100  1
  Cu  Cu12  1  0.99753700  0.00062800  0.99923400  1
  Cu  Cu13  1  0.50246200  0.49937200  0.50076500  1
  C  C14  1  0.50296100  0.00728500  0.77075500  1
  C  C15  1  0.98368500  0.52186700  0.27103700  1
  C  C16  1  0.99704200  0.49271400  0.72924300  1
  C  C17  1  0.51631900  0.97813500  0.22896200  1
  C  C18  1  0.26665300  0.27525300  0.49881700  1
  C  C19  1  0.76734600  0.76941300  0.00426700  1
  C  C20  1  0.23332900  0.22475000  0.00118400  1
  C  C21  1  0.73266000  0.73058600  0.49573100  1
  C  C22  1  0.98451600  0.02479600  0.76151900  1
  C  C23  1  0.50965800  0.50671900  0.26550300  1
  C  C24  1  0.51548500  0.47520300  0.73847500  1
  C  C25  1  0.99034900  0.99327900  0.23449800  1
  C  C26  1  0.23606800  0.77082800  0.99737600  1
  C  C27  1  0.74118500  0.26442300  0.51984700  1
  C  C28  1  0.26393500  0.72917600  0.50262100  1
  C  C29  1  0.75881600  0.23557900  0.98016600  1
