# generated using pymatgen
data_CuNi3C7
_symmetry_space_group_name_H-M   'P 1'
_cell_length_a   5.42467093
_cell_length_b   7.38765300
_cell_length_c   7.56309883
_cell_angle_alpha   90.00000000
_cell_angle_beta   104.49659482
_cell_angle_gamma   90.00000000
_symmetry_Int_Tables_number   1
_chemical_formula_structural   CuNi3C7
_chemical_formula_sum   'Cu2 Ni6 C14'
_cell_volume   293.44582021
_cell_formula_units_Z   2
loop_
 _symmetry_equiv_pos_site_id
 _symmetry_equiv_pos_as_xyz
  1  'x, y, z'
loop_
 _atom_site_type_symbol
 _atom_site_label
 _atom_site_symmetry_multiplicity
 _atom_site_fract_x
 _atom_site_fract_y
 _atom_site_fract_z
 _atom_site_occupancy
  C  C0  1  0.78693900  0.99747600  0.23285800  1
  C  C1  1  0.21306100  0.49747600  0.76714200  1
  C  C2  1  0.21306100  0.00252400  0.76714200  1
  C  C3  1  0.78693900  0.50252400  0.23285800  1
  Ni  Ni4  1  0.28073400  0.25000000  0.35568600  1
  Ni  Ni5  1  0.71926600  0.75000000  0.64431400  1
  Ni  Ni6  1  0.28649100  0.25000000  0.14721400  1
  Ni  Ni7  1  0.71350900  0.75000000  0.85278600  1
  Ni  Ni8  1  0.68907900  0.25000000  0.88459700  1
  Ni  Ni9  1  0.31092100  0.75000000  0.11540300  1
  Cu  Cu10  1  0.69038400  0.25000000  0.62337400  1
  Cu  Cu11  1  0.30961600  0.75000000  0.37662600  1
  C  C12  1  0.16928200  0.25000000  0.22822600  1
  C  C13  1  0.83071800  0.75000000  0.77177400  1
  C  C14  1  0.44848500  0.25000000  0.58373500  1
  C  C15  1  0.55151500  0.75000000  0.41626600  1
  C  C16  1  0.83431000  0.25000000  0.51495300  1
  C  C17  1  0.16569000  0.75000000  0.48504700  1
  C  C18  1  0.81728400  0.25000000  0.80627800  1
  C  C19  1  0.18271600  0.75000000  0.19372200  1
  C  C20  1  0.49493900  0.75000000  0.99023100  1
  C  C21  1  0.50506100  0.25000000  0.00976900  1
