# generated using pymatgen
data_Cu2Ni6C19
_symmetry_space_group_name_H-M   'P 1'
_cell_length_a   5.92357994
_cell_length_b   8.12419656
_cell_length_c   8.12031558
_cell_angle_alpha   112.59806755
_cell_angle_beta   97.05163681
_cell_angle_gamma   101.24966068
_symmetry_Int_Tables_number   1
_chemical_formula_structural   Cu2Ni6C19
_chemical_formula_sum   'Cu2 Ni6 C19'
_cell_volume   345.31008475
_cell_formula_units_Z   1
loop_
 _symmetry_equiv_pos_site_id
 _symmetry_equiv_pos_as_xyz
  1  'x, y, z'
loop_
 _atom_site_type_symbol
 _atom_site_label
 _atom_site_symmetry_multiplicity
 _atom_site_fract_x
 _atom_site_fract_y
 _atom_site_fract_z
 _atom_site_occupancy
  C  C0  1  0.00000000  0.00000000  0.00000000  1
  Ni  Ni1  1  0.84304500  0.65732000  0.80359100  1
  Ni  Ni2  1  0.15695500  0.34268000  0.19640900  1
  Ni  Ni3  1  0.78090200  0.08320100  0.24868400  1
  Ni  Ni4  1  0.21909800  0.91679900  0.75131600  1
  Ni  Ni5  1  0.81929700  0.41918600  0.44595100  1
  Ni  Ni6  1  0.18070300  0.58081400  0.55404900  1
  C  C7  1  0.63233600  0.74499300  0.51164300  1
  C  C8  1  0.36766400  0.25500700  0.48835700  1
  C  C9  1  0.44061000  0.72997000  0.95378000  1
  C  C10  1  0.55939000  0.27003000  0.04622000  1
  Cu  Cu11  1  0.93917900  0.26456400  0.72099900  1
  Cu  Cu12  1  0.06082100  0.73543600  0.27900100  1
  C  C13  1  0.78922900  0.76805900  0.81353500  1
  C  C14  1  0.21077100  0.23194100  0.18646500  1
  C  C15  1  0.72543500  0.04485600  0.11703500  1
  C  C16  1  0.27456500  0.95514400  0.88296500  1
  C  C17  1  0.67290100  0.43619400  0.39336600  1
  C  C18  1  0.32709900  0.56380600  0.60663400  1
  C  C19  1  0.19556200  0.31811000  0.80771000  1
  C  C20  1  0.80443800  0.68189000  0.19229000  1
  C  C21  1  0.83751900  0.42644400  0.78168600  1
  C  C22  1  0.16248100  0.57355600  0.21831400  1
  C  C23  1  0.91419500  0.18860800  0.51644500  1
  C  C24  1  0.08580500  0.81139200  0.48355500  1
  C  C25  1  0.80495200  0.12003700  0.77054800  1
  C  C26  1  0.19504800  0.87996300  0.22945200  1
