# generated using pymatgen
data_Cu5Ni3C
_symmetry_space_group_name_H-M   'P 1'
_cell_length_a   4.22720500
_cell_length_b   20.50549000
_cell_length_c   7.33812700
_cell_angle_alpha   90.00000000
_cell_angle_beta   90.00000000
_cell_angle_gamma   90.00000000
_symmetry_Int_Tables_number   1
_chemical_formula_structural   Cu5Ni3C
_chemical_formula_sum   'Cu20 Ni12 C4'
_cell_volume   636.07552499
_cell_formula_units_Z   4
loop_
 _symmetry_equiv_pos_site_id
 _symmetry_equiv_pos_as_xyz
  1  'x, y, z'
loop_
 _atom_site_type_symbol
 _atom_site_label
 _atom_site_symmetry_multiplicity
 _atom_site_fract_x
 _atom_site_fract_y
 _atom_site_fract_z
 _atom_site_occupancy
  C  C0  1  0.75000000  0.64606400  0.12215400  1
  C  C1  1  0.25000000  0.35393600  0.87784600  1
  C  C2  1  0.25000000  0.85393600  0.62215400  1
  C  C3  1  0.75000000  0.14606400  0.37784600  1
  Ni  Ni4  1  0.75000000  0.73639300  0.61584000  1
  Ni  Ni5  1  0.25000000  0.26360700  0.38416000  1
  Ni  Ni6  1  0.25000000  0.76360700  0.11584000  1
  Ni  Ni7  1  0.75000000  0.23639300  0.88416000  1
  Ni  Ni8  1  0.75000000  0.92388700  0.34299800  1
  Ni  Ni9  1  0.25000000  0.07611300  0.65700200  1
  Ni  Ni10  1  0.25000000  0.57611300  0.84299800  1
  Ni  Ni11  1  0.75000000  0.42388700  0.15700200  1
  Ni  Ni12  1  0.75000000  0.91433500  0.90965900  1
  Ni  Ni13  1  0.25000000  0.08566500  0.09034100  1
  Ni  Ni14  1  0.25000000  0.58566500  0.40965900  1
  Ni  Ni15  1  0.75000000  0.41433500  0.59034100  1
  Cu  Cu16  1  0.75000000  0.79941700  0.32119800  1
  Cu  Cu17  1  0.25000000  0.20058300  0.67880200  1
  Cu  Cu18  1  0.25000000  0.70058300  0.82119800  1
  Cu  Cu19  1  0.75000000  0.29941700  0.17880200  1
  Cu  Cu20  1  0.75000000  0.98779100  0.62463900  1
  Cu  Cu21  1  0.25000000  0.01220900  0.37536100  1
  Cu  Cu22  1  0.25000000  0.51220900  0.12463900  1
  Cu  Cu23  1  0.75000000  0.48779100  0.87536100  1
  Cu  Cu24  1  0.75000000  0.51896300  0.38011700  1
  Cu  Cu25  1  0.25000000  0.48103700  0.61988300  1
  Cu  Cu26  1  0.25000000  0.98103700  0.88011700  1
  Cu  Cu27  1  0.75000000  0.01896300  0.11988300  1
  Cu  Cu28  1  0.75000000  0.79555600  0.91540300  1
  Cu  Cu29  1  0.25000000  0.20444400  0.08459700  1
  Cu  Cu30  1  0.25000000  0.70444400  0.41540300  1
  Cu  Cu31  1  0.75000000  0.29555600  0.58459700  1
  Cu  Cu32  1  0.75000000  0.61603900  0.67429200  1
  Cu  Cu33  1  0.25000000  0.38396100  0.32570800  1
  Cu  Cu34  1  0.25000000  0.88396100  0.17429200  1
  Cu  Cu35  1  0.75000000  0.11603900  0.82570800  1
