# generated using pymatgen
data_Cu5NiC2
_symmetry_space_group_name_H-M   'P 1'
_cell_length_a   5.61172900
_cell_length_b   5.82728600
_cell_length_c   6.84846900
_cell_angle_alpha   90.00000000
_cell_angle_beta   90.00000000
_cell_angle_gamma   90.00000000
_symmetry_Int_Tables_number   1
_chemical_formula_structural   Cu5NiC2
_chemical_formula_sum   'Cu10 Ni2 C4'
_cell_volume   223.95281093
_cell_formula_units_Z   2
loop_
 _symmetry_equiv_pos_site_id
 _symmetry_equiv_pos_as_xyz
  1  'x, y, z'
loop_
 _atom_site_type_symbol
 _atom_site_label
 _atom_site_symmetry_multiplicity
 _atom_site_fract_x
 _atom_site_fract_y
 _atom_site_fract_z
 _atom_site_occupancy
  C  C0  1  0.47512800  0.00000000  0.58115600  1
  C  C1  1  0.97512800  0.50000000  0.41884400  1
  C  C2  1  0.00252400  0.00000000  0.37724200  1
  C  C3  1  0.50252400  0.50000000  0.62275800  1
  Ni  Ni4  1  0.73473500  0.00000000  0.94913600  1
  Ni  Ni5  1  0.23473500  0.50000000  0.05086400  1
  Cu  Cu6  1  0.93312000  0.00000000  0.93954900  1
  Cu  Cu7  1  0.43312000  0.50000000  0.06045100  1
  Cu  Cu8  1  0.07980200  0.22221400  0.26385200  1
  Cu  Cu9  1  0.57980200  0.27778600  0.73614800  1
  Cu  Cu10  1  0.57980200  0.72221400  0.73614800  1
  Cu  Cu11  1  0.07980200  0.77778600  0.26385200  1
  Cu  Cu12  1  0.12199400  0.00000000  0.58150200  1
  Cu  Cu13  1  0.62199400  0.50000000  0.41849800  1
  Cu  Cu14  1  0.72906400  0.00000000  0.38967100  1
  Cu  Cu15  1  0.22906400  0.50000000  0.61032900  1
