# generated using pymatgen
data_CuNiC6
_symmetry_space_group_name_H-M   'P 1'
_cell_length_a   6.68425600
_cell_length_b   8.80827700
_cell_length_c   17.89482800
_cell_angle_alpha   90.00000000
_cell_angle_beta   90.00000000
_cell_angle_gamma   90.00000000
_symmetry_Int_Tables_number   1
_chemical_formula_structural   CuNiC6
_chemical_formula_sum   'Cu8 Ni8 C48'
_cell_volume   1053.58982243
_cell_formula_units_Z   8
loop_
 _symmetry_equiv_pos_site_id
 _symmetry_equiv_pos_as_xyz
  1  'x, y, z'
loop_
 _atom_site_type_symbol
 _atom_site_label
 _atom_site_symmetry_multiplicity
 _atom_site_fract_x
 _atom_site_fract_y
 _atom_site_fract_z
 _atom_site_occupancy
  C  C0  1  0.10833400  0.13066300  0.25000000  1
  C  C1  1  0.89166600  0.86933700  0.75000000  1
  C  C2  1  0.60833400  0.36933700  0.75000000  1
  C  C3  1  0.39166600  0.63066300  0.25000000  1
  C  C4  1  0.00000000  0.00000000  0.00000000  1
  C  C5  1  0.50000000  0.50000000  0.00000000  1
  C  C6  1  0.00000000  0.00000000  0.50000000  1
  C  C7  1  0.50000000  0.50000000  0.50000000  1
  Ni  Ni8  1  0.15084000  0.31125000  0.56270800  1
  Ni  Ni9  1  0.84916000  0.68875000  0.43729200  1
  Ni  Ni10  1  0.65084000  0.18875000  0.43729200  1
  Ni  Ni11  1  0.84916000  0.68875000  0.06270800  1
  Ni  Ni12  1  0.34916000  0.81125000  0.56270800  1
  Ni  Ni13  1  0.15084000  0.31125000  0.93729200  1
  Ni  Ni14  1  0.34916000  0.81125000  0.93729200  1
  Ni  Ni15  1  0.65084000  0.18875000  0.06270800  1
  Cu  Cu16  1  0.00688400  0.02372500  0.66274600  1
  Cu  Cu17  1  0.99311600  0.97627500  0.33725400  1
  Cu  Cu18  1  0.50688400  0.47627500  0.33725400  1
  Cu  Cu19  1  0.99311600  0.97627500  0.16274600  1
  Cu  Cu20  1  0.49311600  0.52372500  0.66274600  1
  Cu  Cu21  1  0.00688400  0.02372500  0.83725400  1
  Cu  Cu22  1  0.49311600  0.52372500  0.83725400  1
  Cu  Cu23  1  0.50688400  0.47627500  0.16274600  1
  C  C24  1  0.37951100  0.04796600  0.25000000  1
  C  C25  1  0.62048900  0.95203400  0.75000000  1
  C  C26  1  0.87951100  0.45203400  0.75000000  1
  C  C27  1  0.12048900  0.54796600  0.25000000  1
  C  C28  1  0.81943300  0.25681300  0.25000000  1
  C  C29  1  0.18056700  0.74318700  0.75000000  1
  C  C30  1  0.31943300  0.24318700  0.75000000  1
  C  C31  1  0.68056700  0.75681300  0.25000000  1
  C  C32  1  0.22577600  0.47003200  0.50875200  1
  C  C33  1  0.77422400  0.52996800  0.49124800  1
  C  C34  1  0.72577600  0.02996800  0.49124800  1
  C  C35  1  0.77422400  0.52996800  0.00875200  1
  C  C36  1  0.27422400  0.97003200  0.50875200  1
  C  C37  1  0.22577600  0.47003200  0.99124800  1
  C  C38  1  0.27422400  0.97003200  0.99124800  1
  C  C39  1  0.72577600  0.02996800  0.00875200  1
  C  C40  1  0.10174500  0.29612600  0.18780400  1
  C  C41  1  0.89825500  0.70387400  0.81219600  1
  C  C42  1  0.60174500  0.20387400  0.81219600  1
  C  C43  1  0.89825500  0.70387400  0.68780400  1
  C  C44  1  0.39825500  0.79612600  0.18780400  1
  C  C45  1  0.10174500  0.29612600  0.31219600  1
  C  C46  1  0.39825500  0.79612600  0.31219600  1
  C  C47  1  0.60174500  0.20387400  0.68780400  1
  C  C48  1  0.04502600  0.20779000  0.01327900  1
  C  C49  1  0.95497400  0.79221000  0.98672100  1
  C  C50  1  0.54502600  0.29221000  0.98672100  1
  C  C51  1  0.95497400  0.79221000  0.51327900  1
  C  C52  1  0.45497400  0.70779000  0.01327900  1
  C  C53  1  0.04502600  0.20779000  0.48672100  1
  C  C54  1  0.45497400  0.70779000  0.48672100  1
  C  C55  1  0.54502600  0.29221000  0.51327900  1
  C  C56  1  0.45269200  0.11499200  0.10712600  1
  C  C57  1  0.54730800  0.88500800  0.89287400  1
  C  C58  1  0.95269200  0.38500800  0.89287400  1
  C  C59  1  0.54730800  0.88500800  0.60712600  1
  C  C60  1  0.04730800  0.61499200  0.10712600  1
  C  C61  1  0.45269200  0.11499200  0.39287400  1
  C  C62  1  0.04730800  0.61499200  0.39287400  1
  C  C63  1  0.95269200  0.38500800  0.60712600  1
