# generated using pymatgen
data_CuNi2C
_symmetry_space_group_name_H-M   'P 1'
_cell_length_a   6.20509128
_cell_length_b   6.20509128
_cell_length_c   6.20509128
_cell_angle_alpha   108.65723904
_cell_angle_beta   108.65723904
_cell_angle_gamma   111.11174466
_symmetry_Int_Tables_number   1
_chemical_formula_structural   CuNi2C
_chemical_formula_sum   'Cu2 Ni4 C2'
_cell_volume   183.80387161
_cell_formula_units_Z   2
loop_
 _symmetry_equiv_pos_site_id
 _symmetry_equiv_pos_as_xyz
  1  'x, y, z'
loop_
 _atom_site_type_symbol
 _atom_site_label
 _atom_site_symmetry_multiplicity
 _atom_site_fract_x
 _atom_site_fract_y
 _atom_site_fract_z
 _atom_site_occupancy
  C  C0  1  0.75000000  0.25000000  0.50000000  1
  C  C1  1  0.25000000  0.75000000  0.50000000  1
  Ni  Ni2  1  0.69340500  0.19340500  0.88681000  1
  Ni  Ni3  1  0.30659500  0.80659500  0.11319000  1
  Ni  Ni4  1  0.80659500  0.69340500  0.50000000  1
  Ni  Ni5  1  0.19340500  0.30659500  0.50000000  1
  Cu  Cu6  1  0.25000000  0.25000000  0.00000000  1
  Cu  Cu7  1  0.75000000  0.75000000  0.00000000  1
