# generated using pymatgen
data_Cu2Ni
_symmetry_space_group_name_H-M   'P 1'
_cell_length_a   5.25660090
_cell_length_b   5.25660090
_cell_length_c   3.42995305
_cell_angle_alpha   72.55927052
_cell_angle_beta   72.55927052
_cell_angle_gamma   35.22161655
_symmetry_Int_Tables_number   1
_chemical_formula_structural   Cu2Ni
_chemical_formula_sum   'Cu2 Ni1'
_cell_volume   51.88828354
_cell_formula_units_Z   1
loop_
 _symmetry_equiv_pos_site_id
 _symmetry_equiv_pos_as_xyz
  1  'x, y, z'
loop_
 _atom_site_type_symbol
 _atom_site_label
 _atom_site_symmetry_multiplicity
 _atom_site_fract_x
 _atom_site_fract_y
 _atom_site_fract_z
 _atom_site_occupancy
  Ni  Ni0  1  0.00000000  0.00000000  0.50000000  1
  Cu  Cu1  1  0.30255500  0.30255500  0.20163800  1
  Cu  Cu2  1  0.69744500  0.69744500  0.79836200  1
