# generated using pymatgen
data_Cu2NiC4
_symmetry_space_group_name_H-M   'P 1'
_cell_length_a   6.10227306
_cell_length_b   8.87360879
_cell_length_c   10.45788058
_cell_angle_alpha   112.01712367
_cell_angle_beta   90.01628811
_cell_angle_gamma   110.10870684
_symmetry_Int_Tables_number   1
_chemical_formula_structural   Cu2NiC4
_chemical_formula_sum   'Cu8 Ni4 C16'
_cell_volume   487.52850289
_cell_formula_units_Z   4
loop_
 _symmetry_equiv_pos_site_id
 _symmetry_equiv_pos_as_xyz
  1  'x, y, z'
loop_
 _atom_site_type_symbol
 _atom_site_label
 _atom_site_symmetry_multiplicity
 _atom_site_fract_x
 _atom_site_fract_y
 _atom_site_fract_z
 _atom_site_occupancy
  C  C0  1  0.08631300  0.50755400  0.15028200  1
  C  C1  1  0.57898100  0.49264000  0.34966000  1
  C  C2  1  0.91367300  0.49243000  0.84971200  1
  C  C3  1  0.42102200  0.50736600  0.65033400  1
  C  C4  1  0.65558300  0.11073300  0.16699100  1
  C  C5  1  0.54462100  0.88918400  0.33299400  1
  C  C6  1  0.34440900  0.88927500  0.83300600  1
  C  C7  1  0.45536800  0.11081000  0.66701200  1
  Ni  Ni8  1  0.02674800  0.85570700  0.39983000  1
  Ni  Ni9  1  0.17093500  0.14418400  0.10015500  1
  Ni  Ni10  1  0.97325500  0.14429700  0.60017400  1
  Ni  Ni11  1  0.82906500  0.85581800  0.89984200  1
  C  C12  1  0.26905400  0.77517200  0.05921800  1
  C  C13  1  0.49359800  0.22483700  0.44079700  1
  C  C14  1  0.73094100  0.22482500  0.94077400  1
  C  C15  1  0.50639800  0.77516600  0.55921100  1
  C  C16  1  0.09671700  0.38538300  0.38272600  1
  C  C17  1  0.71162700  0.61463500  0.11729200  1
  C  C18  1  0.90328500  0.61461200  0.61727600  1
  C  C19  1  0.28837500  0.38536300  0.88270700  1
  Cu  Cu20  1  0.99626300  0.84433100  0.13198600  1
  Cu  Cu21  1  0.15165800  0.15558000  0.36801900  1
  Cu  Cu22  1  0.00376000  0.15572000  0.86804800  1
  Cu  Cu23  1  0.84831000  0.84439200  0.63195900  1
  Cu  Cu24  1  0.15978800  0.65734000  0.48394900  1
  Cu  Cu25  1  0.50265800  0.34291200  0.01631300  1
  Cu  Cu26  1  0.84024200  0.34264600  0.51604200  1
  Cu  Cu27  1  0.49735300  0.65708900  0.98369200  1
