# generated using pymatgen
data_Cu4Ni6C13
_symmetry_space_group_name_H-M   'P 1'
_cell_length_a   4.95135000
_cell_length_b   5.01894548
_cell_length_c   22.46550200
_cell_angle_alpha   90.00000000
_cell_angle_beta   90.00000000
_cell_angle_gamma   119.55547114
_symmetry_Int_Tables_number   1
_chemical_formula_structural   Cu4Ni6C13
_chemical_formula_sum   'Cu8 Ni12 C26'
_cell_volume   485.63597670
_cell_formula_units_Z   2
loop_
 _symmetry_equiv_pos_site_id
 _symmetry_equiv_pos_as_xyz
  1  'x, y, z'
loop_
 _atom_site_type_symbol
 _atom_site_label
 _atom_site_symmetry_multiplicity
 _atom_site_fract_x
 _atom_site_fract_y
 _atom_site_fract_z
 _atom_site_occupancy
  C  C0  1  0.50000000  0.00000000  0.50000000  1
  C  C1  1  0.00000000  0.00000000  0.00000000  1
  Ni  Ni2  1  0.84099400  0.67244500  0.40553500  1
  Ni  Ni3  1  0.83145100  0.67244500  0.59446500  1
  Ni  Ni4  1  0.33145100  0.67244500  0.90553500  1
  Ni  Ni5  1  0.34099400  0.67244500  0.09446500  1
  Ni  Ni6  1  0.15900600  0.32755500  0.59446500  1
  Ni  Ni7  1  0.16854900  0.32755500  0.40553500  1
  Ni  Ni8  1  0.66854900  0.32755500  0.09446500  1
  Ni  Ni9  1  0.65900600  0.32755500  0.90553500  1
  Ni  Ni10  1  0.91982500  0.00000000  0.28648300  1
  Ni  Ni11  1  0.08017500  0.00000000  0.71351700  1
  Ni  Ni12  1  0.58017500  0.00000000  0.78648300  1
  Ni  Ni13  1  0.41982500  0.00000000  0.21351700  1
  Cu  Cu14  1  0.28001000  0.49904700  0.30780700  1
  Cu  Cu15  1  0.21903700  0.49904700  0.69219300  1
  Cu  Cu16  1  0.71903700  0.49904700  0.80780700  1
  Cu  Cu17  1  0.78001000  0.49904700  0.19219300  1
  Cu  Cu18  1  0.71999000  0.50095300  0.69219300  1
  Cu  Cu19  1  0.78096300  0.50095300  0.30780700  1
  Cu  Cu20  1  0.28096300  0.50095300  0.19219300  1
  Cu  Cu21  1  0.21999000  0.50095300  0.80780700  1
  C  C22  1  0.13872900  0.29916900  0.32998600  1
  C  C23  1  0.16044000  0.29916900  0.67001400  1
  C  C24  1  0.66044000  0.29916900  0.82998600  1
  C  C25  1  0.63872900  0.29916900  0.17001400  1
  C  C26  1  0.86127100  0.70083100  0.67001400  1
  C  C27  1  0.83956000  0.70083100  0.32998600  1
  C  C28  1  0.33956000  0.70083100  0.17001400  1
  C  C29  1  0.36127100  0.70083100  0.82998600  1
  C  C30  1  0.11664800  0.60677300  0.42663100  1
  C  C31  1  0.49012500  0.60677300  0.57336900  1
  C  C32  1  0.99012500  0.60677300  0.92663100  1
  C  C33  1  0.61664800  0.60677300  0.07336900  1
  C  C34  1  0.88335200  0.39322700  0.57336900  1
  C  C35  1  0.50987500  0.39322700  0.42663100  1
  C  C36  1  0.00987500  0.39322700  0.07336900  1
  C  C37  1  0.38335200  0.39322700  0.92663100  1
  C  C38  1  0.59833400  0.00000000  0.27251600  1
  C  C39  1  0.40166600  0.00000000  0.72748400  1
  C  C40  1  0.90166600  0.00000000  0.77251600  1
  C  C41  1  0.09833400  0.00000000  0.22748400  1
  C  C42  1  0.90417700  0.00000000  0.43042800  1
  C  C43  1  0.09582300  0.00000000  0.56957200  1
  C  C44  1  0.59582300  0.00000000  0.93042800  1
  C  C45  1  0.40417700  0.00000000  0.06957200  1
