# generated using pymatgen
data_Cu(Ni2C11)3
_symmetry_space_group_name_H-M   'P 1'
_cell_length_a   8.53798000
_cell_length_b   8.84667200
_cell_length_c   18.69907000
_cell_angle_alpha   90.00000000
_cell_angle_beta   90.00000000
_cell_angle_gamma   90.00000000
_symmetry_Int_Tables_number   1
_chemical_formula_structural   Cu(Ni2C11)3
_chemical_formula_sum   'Cu4 Ni24 C132'
_cell_volume   1412.39140545
_cell_formula_units_Z   4
loop_
 _symmetry_equiv_pos_site_id
 _symmetry_equiv_pos_as_xyz
  1  'x, y, z'
loop_
 _atom_site_type_symbol
 _atom_site_label
 _atom_site_symmetry_multiplicity
 _atom_site_fract_x
 _atom_site_fract_y
 _atom_site_fract_z
 _atom_site_occupancy
  C  C0  1  0.17853500  0.75000000  0.33241600  1
  C  C1  1  0.32146500  0.75000000  0.83241600  1
  C  C2  1  0.82146500  0.25000000  0.66758400  1
  C  C3  1  0.67853500  0.25000000  0.16758400  1
  C  C4  1  0.39217200  0.75000000  0.09882100  1
  C  C5  1  0.10782800  0.75000000  0.59882100  1
  C  C6  1  0.60782800  0.25000000  0.90117900  1
  C  C7  1  0.89217200  0.25000000  0.40117900  1
  C  C8  1  0.13847600  0.50144400  0.39671900  1
  C  C9  1  0.36152400  0.99855600  0.89671900  1
  C  C10  1  0.86152400  0.00144400  0.60328100  1
  C  C11  1  0.63847600  0.49855600  0.10328100  1
  C  C12  1  0.86152400  0.49855600  0.60328100  1
  C  C13  1  0.63847600  0.00144400  0.10328100  1
  C  C14  1  0.13847600  0.99855600  0.39671900  1
  C  C15  1  0.36152400  0.50144400  0.89671900  1
  C  C16  1  0.18945800  0.63201700  0.45571000  1
  C  C17  1  0.31054200  0.86798300  0.95571000  1
  C  C18  1  0.81054200  0.13201700  0.54429000  1
  C  C19  1  0.68945800  0.36798300  0.04429000  1
  C  C20  1  0.81054200  0.36798300  0.54429000  1
  C  C21  1  0.68945800  0.13201700  0.04429000  1
  C  C22  1  0.18945800  0.86798300  0.45571000  1
  C  C23  1  0.31054200  0.63201700  0.95571000  1
  C  C24  1  0.32661200  0.55159300  0.40610200  1
  C  C25  1  0.17338800  0.94840700  0.90610200  1
  C  C26  1  0.67338800  0.05159300  0.59389800  1
  C  C27  1  0.82661200  0.44840700  0.09389800  1
  C  C28  1  0.67338800  0.44840700  0.59389800  1
  C  C29  1  0.82661200  0.05159300  0.09389800  1
  C  C30  1  0.32661200  0.94840700  0.40610200  1
  C  C31  1  0.17338800  0.55159300  0.90610200  1
  C  C32  1  0.42492300  0.75000000  0.25283600  1
  C  C33  1  0.07507700  0.75000000  0.75283600  1
  C  C34  1  0.57507700  0.25000000  0.74716400  1
  C  C35  1  0.92492300  0.25000000  0.24716400  1
  C  C36  1  0.46205300  0.65749500  0.32844600  1
  C  C37  1  0.03794700  0.84250500  0.82844600  1
  C  C38  1  0.53794700  0.15749500  0.67155400  1
  C  C39  1  0.96205300  0.34250500  0.17155400  1
  C  C40  1  0.53794700  0.34250500  0.67155400  1
  C  C41  1  0.96205300  0.15749500  0.17155400  1
  C  C42  1  0.46205300  0.84250500  0.32844600  1
  C  C43  1  0.03794700  0.65749500  0.82844600  1
  C  C44  1  0.88563300  0.75000000  0.31025100  1
  C  C45  1  0.61436700  0.75000000  0.81025100  1
  C  C46  1  0.11436700  0.25000000  0.68974900  1
  C  C47  1  0.38563300  0.25000000  0.18974900  1
  C  C48  1  0.91896900  0.84465700  0.38480600  1
  C  C49  1  0.58103100  0.65534300  0.88480600  1
  C  C50  1  0.08103100  0.34465700  0.61519400  1
  C  C51  1  0.41896900  0.15534300  0.11519400  1
  C  C52  1  0.08103100  0.15534300  0.61519400  1
  C  C53  1  0.41896900  0.34465700  0.11519400  1
  C  C54  1  0.91896900  0.65534300  0.38480600  1
  C  C55  1  0.58103100  0.84465700  0.88480600  1
  C  C56  1  0.04329100  0.62678000  0.22877800  1
  C  C57  1  0.45670900  0.87322000  0.72877800  1
  C  C58  1  0.95670900  0.12678000  0.77122200  1
  C  C59  1  0.54329100  0.37322000  0.27122200  1
  C  C60  1  0.95670900  0.37322000  0.77122200  1
  C  C61  1  0.54329100  0.12678000  0.27122200  1
  C  C62  1  0.04329100  0.87322000  0.22877800  1
  C  C63  1  0.45670900  0.62678000  0.72877800  1
  C  C64  1  0.10802100  0.49281500  0.28338400  1
  C  C65  1  0.39197900  0.00718500  0.78338400  1
  C  C66  1  0.89197900  0.99281500  0.71661600  1
  C  C67  1  0.60802100  0.50718500  0.21661600  1
  C  C68  1  0.89197900  0.50718500  0.71661600  1
  C  C69  1  0.60802100  0.99281500  0.21661600  1
  C  C70  1  0.10802100  0.00718500  0.28338400  1
  C  C71  1  0.39197900  0.49281500  0.78338400  1
  C  C72  1  0.23150200  0.57393600  0.22544100  1
  C  C73  1  0.26849800  0.92606400  0.72544100  1
  C  C74  1  0.76849800  0.07393600  0.77455900  1
  C  C75  1  0.73150200  0.42606400  0.27455900  1
  C  C76  1  0.76849800  0.42606400  0.77455900  1
  C  C77  1  0.73150200  0.07393600  0.27455900  1
  C  C78  1  0.23150200  0.92606400  0.22544100  1
  C  C79  1  0.26849800  0.57393600  0.72544100  1
  C  C80  1  0.71164200  0.75000000  0.01253800  1
  C  C81  1  0.78835800  0.75000000  0.51253800  1
  C  C82  1  0.28835800  0.25000000  0.98746200  1
  C  C83  1  0.21164200  0.25000000  0.48746200  1
  C  C84  1  0.86908900  0.75000000  0.05528000  1
  C  C85  1  0.63091100  0.75000000  0.55528000  1
  C  C86  1  0.13091100  0.25000000  0.94472000  1
  C  C87  1  0.36908900  0.25000000  0.44472000  1
  C  C88  1  0.58941500  0.43761800  0.41854200  1
  C  C89  1  0.91058500  0.06238200  0.91854200  1
  C  C90  1  0.41058500  0.93761800  0.58145800  1
  C  C91  1  0.08941500  0.56238200  0.08145800  1
  C  C92  1  0.41058500  0.56238200  0.58145800  1
  C  C93  1  0.08941500  0.93761800  0.08145800  1
  C  C94  1  0.58941500  0.06238200  0.41854200  1
  C  C95  1  0.91058500  0.43761800  0.91854200  1
  C  C96  1  0.58953400  0.60566700  0.44778700  1
  C  C97  1  0.91046600  0.89433300  0.94778700  1
  C  C98  1  0.41046600  0.10566700  0.55221300  1
  C  C99  1  0.08953400  0.39433300  0.05221300  1
  C  C100  1  0.41046600  0.39433300  0.55221300  1
  C  C101  1  0.08953400  0.10566700  0.05221300  1
  C  C102  1  0.58953400  0.89433300  0.44778700  1
  C  C103  1  0.91046600  0.60566700  0.94778700  1
  Ni  Ni104  1  0.21219300  0.59125700  0.40544000  1
  Ni  Ni105  1  0.28780700  0.90874300  0.90544000  1
  Ni  Ni106  1  0.78780700  0.09125700  0.59456000  1
  Ni  Ni107  1  0.71219300  0.40874300  0.09456000  1
  Ni  Ni108  1  0.78780700  0.40874300  0.59456000  1
  Ni  Ni109  1  0.71219300  0.09125700  0.09456000  1
  Ni  Ni110  1  0.21219300  0.90874300  0.40544000  1
  Ni  Ni111  1  0.28780700  0.59125700  0.90544000  1
  Ni  Ni112  1  0.40558800  0.75000000  0.30704200  1
  Ni  Ni113  1  0.09441200  0.75000000  0.80704200  1
  Ni  Ni114  1  0.59441200  0.25000000  0.69295800  1
  Ni  Ni115  1  0.90558800  0.25000000  0.19295800  1
  Ni  Ni116  1  0.95074800  0.75000000  0.35676200  1
  Ni  Ni117  1  0.54925200  0.75000000  0.85676200  1
  Ni  Ni118  1  0.04925200  0.25000000  0.64323800  1
  Ni  Ni119  1  0.45074800  0.25000000  0.14323800  1
  Ni  Ni120  1  0.13834900  0.59302900  0.25933700  1
  Ni  Ni121  1  0.36165100  0.90697100  0.75933700  1
  Ni  Ni122  1  0.86165100  0.09302900  0.74066300  1
  Ni  Ni123  1  0.63834900  0.40697100  0.24066300  1
  Ni  Ni124  1  0.86165100  0.40697100  0.74066300  1
  Ni  Ni125  1  0.63834900  0.09302900  0.24066300  1
  Ni  Ni126  1  0.13834900  0.90697100  0.25933700  1
  Ni  Ni127  1  0.36165100  0.59302900  0.75933700  1
  Cu  Cu128  1  0.83124400  0.75000000  0.18635200  1
  Cu  Cu129  1  0.66875600  0.75000000  0.68635200  1
  Cu  Cu130  1  0.16875600  0.25000000  0.81364800  1
  Cu  Cu131  1  0.33124400  0.25000000  0.31364800  1
  C  C132  1  0.41716700  0.91486000  0.15382600  1
  C  C133  1  0.08283300  0.58514000  0.65382600  1
  C  C134  1  0.58283300  0.41486000  0.84617400  1
  C  C135  1  0.91716700  0.08514000  0.34617400  1
  C  C136  1  0.58283300  0.08514000  0.84617400  1
  C  C137  1  0.91716700  0.41486000  0.34617400  1
  C  C138  1  0.41716700  0.58514000  0.15382600  1
  C  C139  1  0.08283300  0.91486000  0.65382600  1
  C  C140  1  0.52661500  0.75000000  0.02459500  1
  C  C141  1  0.97338500  0.75000000  0.52459500  1
  C  C142  1  0.47338500  0.25000000  0.97540500  1
  C  C143  1  0.02661500  0.25000000  0.47540500  1
  C  C144  1  0.19732600  0.75000000  0.06188700  1
  C  C145  1  0.30267400  0.75000000  0.56188700  1
  C  C146  1  0.80267400  0.25000000  0.93811300  1
  C  C147  1  0.69732600  0.25000000  0.43811300  1
  C  C148  1  0.82942700  0.75000000  0.00601600  1
  C  C149  1  0.67057300  0.75000000  0.50601600  1
  C  C150  1  0.17057300  0.25000000  0.99398400  1
  C  C151  1  0.32942700  0.25000000  0.49398400  1
  C  C152  1  0.54390000  0.53862900  0.41071500  1
  C  C153  1  0.95610000  0.96137100  0.91071500  1
  C  C154  1  0.45610000  0.03862900  0.58928500  1
  C  C155  1  0.04390000  0.46137100  0.08928500  1
  C  C156  1  0.45610000  0.46137100  0.58928500  1
  C  C157  1  0.04390000  0.03862900  0.08928500  1
  C  C158  1  0.54390000  0.96137100  0.41071500  1
  C  C159  1  0.95610000  0.53862900  0.91071500  1
