# generated using pymatgen
data_Cu4NiC4
_symmetry_space_group_name_H-M   'P 1'
_cell_length_a   10.07596400
_cell_length_b   2.76248100
_cell_length_c   14.44214300
_cell_angle_alpha   90.00000000
_cell_angle_beta   90.00000000
_cell_angle_gamma   90.00000000
_symmetry_Int_Tables_number   1
_chemical_formula_structural   Cu4NiC4
_chemical_formula_sum   'Cu16 Ni4 C16'
_cell_volume   401.99212717
_cell_formula_units_Z   4
loop_
 _symmetry_equiv_pos_site_id
 _symmetry_equiv_pos_as_xyz
  1  'x, y, z'
loop_
 _atom_site_type_symbol
 _atom_site_label
 _atom_site_symmetry_multiplicity
 _atom_site_fract_x
 _atom_site_fract_y
 _atom_site_fract_z
 _atom_site_occupancy
  C  C0  1  0.14085100  0.25000000  0.15354700  1
  C  C1  1  0.64085100  0.25000000  0.34645300  1
  C  C2  1  0.85914900  0.75000000  0.84645300  1
  C  C3  1  0.35914900  0.75000000  0.65354700  1
  C  C4  1  0.90617800  0.25000000  0.05869800  1
  C  C5  1  0.40617800  0.25000000  0.44130200  1
  C  C6  1  0.09382200  0.75000000  0.94130200  1
  C  C7  1  0.59382200  0.75000000  0.55869800  1
  C  C8  1  0.44387900  0.25000000  0.88375500  1
  C  C9  1  0.94387900  0.25000000  0.61624500  1
  C  C10  1  0.55612100  0.75000000  0.11624500  1
  C  C11  1  0.05612100  0.75000000  0.38375500  1
  C  C12  1  0.20541500  0.25000000  0.80264800  1
  C  C13  1  0.70541500  0.25000000  0.69735200  1
  C  C14  1  0.79458500  0.75000000  0.19735200  1
  C  C15  1  0.29458500  0.75000000  0.30264800  1
  Ni  Ni16  1  0.34700600  0.25000000  0.00278200  1
  Ni  Ni17  1  0.84700600  0.25000000  0.49721800  1
  Ni  Ni18  1  0.65299400  0.75000000  0.99721800  1
  Ni  Ni19  1  0.15299400  0.75000000  0.50278200  1
  Cu  Cu20  1  0.65217800  0.25000000  0.21206600  1
  Cu  Cu21  1  0.15217800  0.25000000  0.28793400  1
  Cu  Cu22  1  0.34782200  0.75000000  0.78793400  1
  Cu  Cu23  1  0.84782200  0.75000000  0.71206600  1
  Cu  Cu24  1  0.01156000  0.25000000  0.84496300  1
  Cu  Cu25  1  0.51156000  0.25000000  0.65503700  1
  Cu  Cu26  1  0.98844000  0.75000000  0.15503700  1
  Cu  Cu27  1  0.48844000  0.75000000  0.34496300  1
  Cu  Cu28  1  0.21481400  0.25000000  0.01603500  1
  Cu  Cu29  1  0.71481400  0.25000000  0.48396500  1
  Cu  Cu30  1  0.78518600  0.75000000  0.98396500  1
  Cu  Cu31  1  0.28518600  0.75000000  0.51603500  1
  Cu  Cu32  1  0.42591100  0.25000000  0.07897600  1
  Cu  Cu33  1  0.92591000  0.25000000  0.42102400  1
  Cu  Cu34  1  0.57409000  0.75000000  0.92102400  1
  Cu  Cu35  1  0.07409000  0.75000000  0.57897600  1
