# generated using pymatgen
data_CuNi3C7
_symmetry_space_group_name_H-M   'P 1'
_cell_length_a   8.49706034
_cell_length_b   8.49706034
_cell_length_c   8.49706057
_cell_angle_alpha   92.56700764
_cell_angle_beta   92.56700764
_cell_angle_gamma   92.56700707
_symmetry_Int_Tables_number   1
_chemical_formula_structural   CuNi3C7
_chemical_formula_sum   'Cu2 Ni6 C14'
_cell_volume   611.58406285
_cell_formula_units_Z   2
loop_
 _symmetry_equiv_pos_site_id
 _symmetry_equiv_pos_as_xyz
  1  'x, y, z'
loop_
 _atom_site_type_symbol
 _atom_site_label
 _atom_site_symmetry_multiplicity
 _atom_site_fract_x
 _atom_site_fract_y
 _atom_site_fract_z
 _atom_site_occupancy
  Ni  Ni0  1  0.86974700  0.63025300  0.25000000  1
  Ni  Ni1  1  0.25000000  0.86974700  0.63025300  1
  Ni  Ni2  1  0.63025300  0.25000000  0.86974700  1
  Ni  Ni3  1  0.75000000  0.13025300  0.36974700  1
  Ni  Ni4  1  0.36974700  0.75000000  0.13025300  1
  Ni  Ni5  1  0.13025300  0.36974700  0.75000000  1
  Cu  Cu6  1  0.25000000  0.25000000  0.25000000  1
  Cu  Cu7  1  0.75000000  0.75000000  0.75000000  1
  C  C8  1  0.50000000  0.50000000  0.50000000  1
  C  C9  1  0.00000000  0.00000000  0.00000000  1
  C  C10  1  0.19994500  0.54125900  0.41119800  1
  C  C11  1  0.41119800  0.19994500  0.54125900  1
  C  C12  1  0.54125900  0.41119800  0.19994500  1
  C  C13  1  0.91119800  0.04125900  0.69994500  1
  C  C14  1  0.69994500  0.91119800  0.04125900  1
  C  C15  1  0.04125900  0.69994500  0.91119800  1
  C  C16  1  0.80005500  0.45874100  0.58880200  1
  C  C17  1  0.58880200  0.80005500  0.45874100  1
  C  C18  1  0.45874100  0.58880200  0.80005500  1
  C  C19  1  0.08880200  0.95874100  0.30005500  1
  C  C20  1  0.30005500  0.08880200  0.95874100  1
  C  C21  1  0.95874100  0.30005500  0.08880200  1
