# generated using pymatgen
data_Cu5NiC6
_symmetry_space_group_name_H-M   'P 1'
_cell_length_a   5.75874566
_cell_length_b   6.13186700
_cell_length_c   7.03092855
_cell_angle_alpha   90.00000000
_cell_angle_beta   110.63855024
_cell_angle_gamma   90.00000000
_symmetry_Int_Tables_number   1
_chemical_formula_structural   Cu5NiC6
_chemical_formula_sum   'Cu10 Ni2 C12'
_cell_volume   232.34152517
_cell_formula_units_Z   2
loop_
 _symmetry_equiv_pos_site_id
 _symmetry_equiv_pos_as_xyz
  1  'x, y, z'
loop_
 _atom_site_type_symbol
 _atom_site_label
 _atom_site_symmetry_multiplicity
 _atom_site_fract_x
 _atom_site_fract_y
 _atom_site_fract_z
 _atom_site_occupancy
  C  C0  1  0.00028500  0.03053600  0.00006100  1
  C  C1  1  0.99971500  0.53053600  0.99993900  1
  C  C2  1  0.49659700  0.78480000  0.99718000  1
  C  C3  1  0.50340300  0.28480000  0.00282000  1
  C  C4  1  0.42375900  0.77609900  0.58110300  1
  C  C5  1  0.57624100  0.27609900  0.41889700  1
  C  C6  1  0.87995100  0.77590900  0.71319300  1
  C  C7  1  0.12004900  0.27590900  0.28680700  1
  C  C8  1  0.16266600  0.06415200  0.73371000  1
  C  C9  1  0.83733400  0.56415200  0.26629000  1
  C  C10  1  0.80231800  0.04270600  0.26741100  1
  C  C11  1  0.19768200  0.54270600  0.73258900  1
  Ni  Ni12  1  0.25870300  0.73099000  0.44687600  1
  Ni  Ni13  1  0.74129700  0.23099000  0.55312400  1
  Cu  Cu14  1  0.26011300  0.78520300  0.27474600  1
  Cu  Cu15  1  0.73988700  0.28520300  0.72525400  1
  Cu  Cu16  1  0.84193000  0.77985600  0.83802200  1
  Cu  Cu17  1  0.15807000  0.27985600  0.16197800  1
  Cu  Cu18  1  0.08599800  0.62612100  0.48357300  1
  Cu  Cu19  1  0.91400200  0.12612100  0.51642700  1
  Cu  Cu20  1  0.26714000  0.03899700  0.88111300  1
  Cu  Cu21  1  0.73286000  0.53899700  0.11888700  1
  Cu  Cu22  1  0.72937300  0.03211300  0.11442600  1
  Cu  Cu23  1  0.27062700  0.53211300  0.88557400  1
