# generated using pymatgen
data_Cu3(NiC)4
_symmetry_space_group_name_H-M   'P 1'
_cell_length_a   7.49684700
_cell_length_b   7.46070890
_cell_length_c   10.52110133
_cell_angle_alpha   77.76970490
_cell_angle_beta   90.00004901
_cell_angle_gamma   89.99849115
_symmetry_Int_Tables_number   1
_chemical_formula_structural   Cu3(NiC)4
_chemical_formula_sum   'Cu12 Ni16 C16'
_cell_volume   575.10829416
_cell_formula_units_Z   4
loop_
 _symmetry_equiv_pos_site_id
 _symmetry_equiv_pos_as_xyz
  1  'x, y, z'
loop_
 _atom_site_type_symbol
 _atom_site_label
 _atom_site_symmetry_multiplicity
 _atom_site_fract_x
 _atom_site_fract_y
 _atom_site_fract_z
 _atom_site_occupancy
  C  C0  1  0.50005600  0.49996100  0.00000400  1
  C  C1  1  0.50005200  0.99989200  0.49996100  1
  C  C2  1  0.00003400  0.50008100  0.99998400  1
  C  C3  1  0.00006700  0.99995000  0.50000900  1
  C  C4  1  0.75010500  0.69484200  0.23972500  1
  C  C5  1  0.74992000  0.19479500  0.73972600  1
  C  C6  1  0.25010400  0.30524600  0.76031500  1
  C  C7  1  0.24991400  0.80518600  0.26031800  1
  C  C8  1  0.49992300  0.49996500  0.49987700  1
  C  C9  1  0.00001000  0.00007400  0.99995300  1
  C  C10  1  0.50010300  0.99995800  0.00007800  1
  C  C11  1  0.99985300  0.50010400  0.50008900  1
  C  C12  1  0.74997000  0.66827500  0.70513200  1
  C  C13  1  0.75005400  0.16829400  0.20514900  1
  C  C14  1  0.24996700  0.33170700  0.29485900  1
  C  C15  1  0.25004100  0.83172600  0.79487800  1
  Ni  Ni16  1  0.75004300  0.36522800  0.14339900  1
  Ni  Ni17  1  0.75000500  0.86518600  0.64339700  1
  Ni  Ni18  1  0.25004000  0.63484600  0.85658300  1
  Ni  Ni19  1  0.25001200  0.13479500  0.35657700  1
  Ni  Ni20  1  0.74988400  0.62874600  0.84722600  1
  Ni  Ni21  1  0.75005300  0.12881700  0.34725400  1
  Ni  Ni22  1  0.24988700  0.37120200  0.15274600  1
  Ni  Ni23  1  0.25004900  0.87127500  0.65276700  1
  Ni  Ni24  1  0.58722000  0.57693900  0.66079700  1
  Ni  Ni25  1  0.58719900  0.07699900  0.16092800  1
  Ni  Ni26  1  0.08720000  0.42303700  0.33917700  1
  Ni  Ni27  1  0.08718100  0.92306100  0.83910800  1
  Ni  Ni28  1  0.41285300  0.42299000  0.33902700  1
  Ni  Ni29  1  0.41283300  0.92306000  0.83915700  1
  Ni  Ni30  1  0.91284000  0.57697300  0.66094600  1
  Ni  Ni31  1  0.91282100  0.07699200  0.16088600  1
  Cu  Cu32  1  0.75000500  0.48848400  0.43748200  1
  Cu  Cu33  1  0.74999400  0.98864400  0.93744300  1
  Cu  Cu34  1  0.24999900  0.51132800  0.56255200  1
  Cu  Cu35  1  0.24999500  0.01145800  0.06252400  1
  Cu  Cu36  1  0.49069000  0.24951300  0.90060400  1
  Cu  Cu37  1  0.49070500  0.74942100  0.40052700  1
  Cu  Cu38  1  0.99065000  0.75062700  0.09932300  1
  Cu  Cu39  1  0.99064600  0.25038300  0.59951900  1
  Cu  Cu40  1  0.50929800  0.75042300  0.09950200  1
  Cu  Cu41  1  0.50927300  0.25034700  0.59944400  1
  Cu  Cu42  1  0.00923500  0.24972000  0.90043400  1
  Cu  Cu43  1  0.00921800  0.74945300  0.40061500  1
