# generated using pymatgen
data_Cu8(NiC8)5
_symmetry_space_group_name_H-M   'P 1'
_cell_length_a   5.28831600
_cell_length_b   12.68547966
_cell_length_c   14.27276313
_cell_angle_alpha   90.04356731
_cell_angle_beta   100.67623375
_cell_angle_gamma   90.00000000
_symmetry_Int_Tables_number   1
_chemical_formula_structural   Cu8(NiC8)5
_chemical_formula_sum   'Cu8 Ni5 C40'
_cell_volume   940.91119451
_cell_formula_units_Z   1
loop_
 _symmetry_equiv_pos_site_id
 _symmetry_equiv_pos_as_xyz
  1  'x, y, z'
loop_
 _atom_site_type_symbol
 _atom_site_label
 _atom_site_symmetry_multiplicity
 _atom_site_fract_x
 _atom_site_fract_y
 _atom_site_fract_z
 _atom_site_occupancy
  C  C0  1  0.02956400  0.23221500  0.05912800  1
  C  C1  1  0.97043600  0.76778500  0.94087200  1
  C  C2  1  0.43456700  0.54733300  0.86913400  1
  C  C3  1  0.56543300  0.45266700  0.13086600  1
  C  C4  1  0.36380000  0.14865000  0.72760100  1
  C  C5  1  0.63620000  0.85135000  0.27239900  1
  C  C6  1  0.10123600  0.65640000  0.20247100  1
  C  C7  1  0.89876400  0.34360000  0.79752900  1
  C  C8  1  0.19933900  0.05005200  0.39867800  1
  C  C9  1  0.80066100  0.94994800  0.60132200  1
  C  C10  1  0.50000000  0.00000000  0.00000000  1
  Ni  Ni11  1  0.46988100  0.28610400  0.93976100  1
  Ni  Ni12  1  0.53011900  0.71389600  0.06023900  1
  Ni  Ni13  1  0.00000000  0.50000000  0.00000000  1
  Ni  Ni14  1  0.93302800  0.07998700  0.86605600  1
  Ni  Ni15  1  0.06697200  0.92001300  0.13394400  1
  Cu  Cu16  1  0.16471900  0.36847000  0.32943800  1
  Cu  Cu17  1  0.83528100  0.63153000  0.67056200  1
  Cu  Cu18  1  0.25151100  0.73464600  0.50302300  1
  Cu  Cu19  1  0.74848900  0.26535400  0.49697700  1
  Cu  Cu20  1  0.62241900  0.17813500  0.24483700  1
  Cu  Cu21  1  0.37758100  0.82186500  0.75516300  1
  Cu  Cu22  1  0.29647600  0.42517400  0.59295200  1
  Cu  Cu23  1  0.70352400  0.57482600  0.40704800  1
  C  C24  1  0.26065300  0.26369400  0.52130500  1
  C  C25  1  0.73934700  0.73630600  0.47869500  1
  C  C26  1  0.68575400  0.18740800  0.89453200  1
  C  C27  1  0.31424600  0.81259200  0.10546800  1
  C  C28  1  0.79122200  0.81259200  0.10546800  1
  C  C29  1  0.20877800  0.18740800  0.89453200  1
  C  C30  1  0.36665300  0.37221300  0.73330600  1
  C  C31  1  0.63334700  0.62778700  0.26669400  1
  C  C32  1  0.72348800  0.09526800  0.44697700  1
  C  C33  1  0.27651200  0.90473200  0.55302300  1
  C  C34  1  0.26437300  0.60336400  0.03628200  1
  C  C35  1  0.73562700  0.39663600  0.96371800  1
  C  C36  1  0.22809100  0.39663600  0.96371800  1
  C  C37  1  0.77190900  0.60336400  0.03628200  1
  C  C38  1  0.55311500  0.24088700  0.10623100  1
  C  C39  1  0.44688500  0.75911300  0.89376900  1
  C  C40  1  0.31787200  0.63524500  0.63574400  1
  C  C41  1  0.68212800  0.36475500  0.36425600  1
  C  C42  1  0.13461100  0.20900000  0.26922300  1
  C  C43  1  0.86538900  0.79100000  0.73077700  1
  C  C44  1  0.20113400  0.57992400  0.40226800  1
  C  C45  1  0.79886600  0.42007600  0.59773200  1
  C  C46  1  0.40401600  0.97089100  0.80803100  1
  C  C47  1  0.59598400  0.02910900  0.19196900  1
  C  C48  1  0.09656300  0.43329700  0.19312500  1
  C  C49  1  0.90343700  0.56670300  0.80687500  1
  C  C50  1  0.86444300  0.10182500  0.72888500  1
  C  C51  1  0.13555700  0.89817500  0.27111500  1
  C  C52  1  0.00000000  0.00000000  0.00000000  1
