# generated using pymatgen
data_Cu4NiC
_symmetry_space_group_name_H-M   'P 1'
_cell_length_a   5.10672700
_cell_length_b   6.16333700
_cell_length_c   8.67184000
_cell_angle_alpha   90.00000000
_cell_angle_beta   90.00000000
_cell_angle_gamma   90.00000000
_symmetry_Int_Tables_number   1
_chemical_formula_structural   Cu4NiC
_chemical_formula_sum   'Cu16 Ni4 C4'
_cell_volume   272.94165003
_cell_formula_units_Z   4
loop_
 _symmetry_equiv_pos_site_id
 _symmetry_equiv_pos_as_xyz
  1  'x, y, z'
loop_
 _atom_site_type_symbol
 _atom_site_label
 _atom_site_symmetry_multiplicity
 _atom_site_fract_x
 _atom_site_fract_y
 _atom_site_fract_z
 _atom_site_occupancy
  C  C0  1  0.25000000  0.24339600  0.65143000  1
  C  C1  1  0.25000000  0.25660400  0.15143000  1
  C  C2  1  0.75000000  0.75660400  0.34857000  1
  C  C3  1  0.75000000  0.74339600  0.84857000  1
  Ni  Ni4  1  0.25000000  0.88130100  0.79780300  1
  Ni  Ni5  1  0.25000000  0.61869900  0.29780300  1
  Ni  Ni6  1  0.75000000  0.11869900  0.20219700  1
  Ni  Ni7  1  0.75000000  0.38130100  0.70219700  1
  Cu  Cu8  1  0.25000000  0.70333400  0.86037400  1
  Cu  Cu9  1  0.25000000  0.79666600  0.36037400  1
  Cu  Cu10  1  0.75000000  0.29666600  0.13962600  1
  Cu  Cu11  1  0.75000000  0.20333400  0.63962600  1
  Cu  Cu12  1  0.75000000  0.35641800  0.84359300  1
  Cu  Cu13  1  0.75000000  0.14358200  0.34359300  1
  Cu  Cu14  1  0.25000000  0.64358200  0.15640700  1
  Cu  Cu15  1  0.25000000  0.85641800  0.65640700  1
  Cu  Cu16  1  0.05952600  0.51046000  0.33760900  1
  Cu  Cu17  1  0.44047400  0.98954000  0.83760900  1
  Cu  Cu18  1  0.55952600  0.48954000  0.66239100  1
  Cu  Cu19  1  0.94047400  0.01046000  0.16239100  1
  Cu  Cu20  1  0.94047400  0.48954000  0.66239100  1
  Cu  Cu21  1  0.55952600  0.01046000  0.16239100  1
  Cu  Cu22  1  0.44047400  0.51046000  0.33760900  1
  Cu  Cu23  1  0.05952600  0.98954000  0.83760900  1
