# generated using pymatgen
data_Cu14Ni2C7
_symmetry_space_group_name_H-M   'P 1'
_cell_length_a   9.74005829
_cell_length_b   9.74005829
_cell_length_c   5.74053100
_cell_angle_alpha   90.00000000
_cell_angle_beta   90.00000000
_cell_angle_gamma   120.00000199
_symmetry_Int_Tables_number   1
_chemical_formula_structural   Cu14Ni2C7
_chemical_formula_sum   'Cu14 Ni2 C7'
_cell_volume   471.63475576
_cell_formula_units_Z   1
loop_
 _symmetry_equiv_pos_site_id
 _symmetry_equiv_pos_as_xyz
  1  'x, y, z'
loop_
 _atom_site_type_symbol
 _atom_site_label
 _atom_site_symmetry_multiplicity
 _atom_site_fract_x
 _atom_site_fract_y
 _atom_site_fract_z
 _atom_site_occupancy
  C  C0  1  0.97608500  0.44026000  0.74663600  1
  C  C1  1  0.46417400  0.02391500  0.74663600  1
  C  C2  1  0.55974000  0.53582600  0.74663600  1
  C  C3  1  0.68980700  0.89216300  0.23994800  1
  C  C4  1  0.20235600  0.31019300  0.23994800  1
  C  C5  1  0.10783700  0.79764400  0.23994800  1
  C  C6  1  0.33333300  0.66666700  0.52668700  1
  Ni  Ni7  1  0.66666700  0.33333300  0.16867200  1
  Ni  Ni8  1  0.00000000  0.00000000  0.66064200  1
  Cu  Cu9  1  0.81779500  0.57030300  0.00063700  1
  Cu  Cu10  1  0.75250800  0.18220500  0.00063700  1
  Cu  Cu11  1  0.42969700  0.24749200  0.00063700  1
  Cu  Cu12  1  0.84935600  0.76296500  0.49486300  1
  Cu  Cu13  1  0.91361000  0.15064400  0.49486300  1
  Cu  Cu14  1  0.23703500  0.08639000  0.49486300  1
  Cu  Cu15  1  0.66666700  0.33333300  0.54953100  1
  Cu  Cu16  1  0.00000000  0.00000000  0.04269200  1
  Cu  Cu17  1  0.08281300  0.51284900  0.29740900  1
  Cu  Cu18  1  0.43003600  0.91718700  0.29740900  1
  Cu  Cu19  1  0.48715100  0.56996400  0.29740900  1
  Cu  Cu20  1  0.58353600  0.82286700  0.77840800  1
  Cu  Cu21  1  0.23933100  0.41646400  0.77840800  1
  Cu  Cu22  1  0.17713300  0.76066900  0.77840800  1
