# generated using pymatgen
data_CuNiC6
_symmetry_space_group_name_H-M   'P 1'
_cell_length_a   5.34133500
_cell_length_b   7.11587400
_cell_length_c   11.05283500
_cell_angle_alpha   90.00000000
_cell_angle_beta   90.00000000
_cell_angle_gamma   90.00000000
_symmetry_Int_Tables_number   1
_chemical_formula_structural   CuNiC6
_chemical_formula_sum   'Cu4 Ni4 C24'
_cell_volume   420.09910215
_cell_formula_units_Z   4
loop_
 _symmetry_equiv_pos_site_id
 _symmetry_equiv_pos_as_xyz
  1  'x, y, z'
loop_
 _atom_site_type_symbol
 _atom_site_label
 _atom_site_symmetry_multiplicity
 _atom_site_fract_x
 _atom_site_fract_y
 _atom_site_fract_z
 _atom_site_occupancy
  C  C0  1  0.25103500  0.49839700  0.08833800  1
  C  C1  1  0.71194200  0.74517400  0.15833900  1
  C  C2  1  0.21194200  0.24517400  0.34166100  1
  C  C3  1  0.78805800  0.74517400  0.65833900  1
  C  C4  1  0.74896500  0.99839700  0.91166200  1
  C  C5  1  0.24896500  0.49839700  0.58833800  1
  C  C6  1  0.75103500  0.99839700  0.41166200  1
  C  C7  1  0.28805800  0.24517400  0.84166100  1
  Ni  Ni8  1  0.70315300  0.24745900  0.15640000  1
  Ni  Ni9  1  0.29684700  0.74745900  0.84360000  1
  Ni  Ni10  1  0.79684700  0.24745900  0.65640000  1
  Ni  Ni11  1  0.20315300  0.74745900  0.34360000  1
  Cu  Cu12  1  0.20001300  0.99610600  0.09482000  1
  Cu  Cu13  1  0.29998700  0.99610600  0.59482000  1
  Cu  Cu14  1  0.79998700  0.49610600  0.90518000  1
  Cu  Cu15  1  0.70001300  0.49610600  0.40518000  1
  C  C16  1  0.26894600  0.97099200  0.94948600  1
  C  C17  1  0.73105400  0.47099200  0.05051400  1
  C  C18  1  0.23105400  0.97099200  0.44948600  1
  C  C19  1  0.76894600  0.47099200  0.55051400  1
  C  C20  1  0.71803400  0.30416300  0.82964400  1
  C  C21  1  0.28196600  0.80416300  0.17035600  1
  C  C22  1  0.78196600  0.30416300  0.32964400  1
  C  C23  1  0.21803400  0.80416300  0.67035600  1
  C  C24  1  0.89322000  0.02340800  0.10839800  1
  C  C25  1  0.10678000  0.52340800  0.89160200  1
  C  C26  1  0.60678000  0.02340800  0.60839800  1
  C  C27  1  0.16221300  0.18730200  0.64680300  1
  C  C28  1  0.66221300  0.68730200  0.85319700  1
  C  C29  1  0.33778700  0.18730200  0.14680300  1
  C  C30  1  0.83778700  0.68730200  0.35319700  1
  C  C31  1  0.39322000  0.52340800  0.39160200  1
