# generated using pymatgen
data_Cu14NiC16
_symmetry_space_group_name_H-M   'P 1'
_cell_length_a   8.69165083
_cell_length_b   8.68006673
_cell_length_c   4.43717411
_cell_angle_alpha   90.00000000
_cell_angle_beta   90.00000000
_cell_angle_gamma   90.00000000
_symmetry_Int_Tables_number   1
_chemical_formula_structural   Cu14NiC16
_chemical_formula_sum   'Cu14 Ni1 C16'
_cell_volume   334.75864809
_cell_formula_units_Z   1
loop_
 _symmetry_equiv_pos_site_id
 _symmetry_equiv_pos_as_xyz
  1  'x, y, z'
loop_
 _atom_site_type_symbol
 _atom_site_label
 _atom_site_symmetry_multiplicity
 _atom_site_fract_x
 _atom_site_fract_y
 _atom_site_fract_z
 _atom_site_occupancy
  C  C0  1  0.00068115  0.00000000  0.00000000  1
  Ni  Ni1  1  0.49330539  0.50000000  0.00000000  1
  Cu  Cu2  1  0.99675334  0.50000000  0.00000000  1
  Cu  Cu3  1  0.50048602  0.00000000  0.00000000  1
  Cu  Cu4  1  0.00102684  0.24980172  0.50000000  1
  Cu  Cu5  1  0.00102684  0.75019828  0.50000000  1
  Cu  Cu6  1  0.49886435  0.24025030  0.50000000  1
  Cu  Cu7  1  0.49886435  0.75974970  0.50000000  1
  Cu  Cu8  1  0.24832379  0.00000000  0.50000000  1
  Cu  Cu9  1  0.24494100  0.50000000  0.50000000  1
  Cu  Cu10  1  0.75173342  0.00000000  0.50000000  1
  Cu  Cu11  1  0.75801611  0.50000000  0.50000000  1
  Cu  Cu12  1  0.24189462  0.24313345  -0.00000000  1
  Cu  Cu13  1  0.24189462  0.75686655  0.00000000  1
  Cu  Cu14  1  0.75784393  0.24569862  0.00000000  1
  Cu  Cu15  1  0.75784393  0.75430138  -0.00000000  1
  C  C16  1  0.27716105  0.00000000  0.00000000  1
  C  C17  1  0.72394235  0.00000000  0.00000000  1
  C  C18  1  0.74838930  0.50000000  0.00000000  1
  C  C19  1  0.25102918  0.24411175  0.50000000  1
  C  C20  1  0.25102918  0.75588825  0.50000000  1
  C  C21  1  0.74792778  0.25060076  0.50000000  1
  C  C22  1  0.74792778  0.74939924  0.50000000  1
  C  C23  1  0.99753347  0.00000000  0.50000000  1
  C  C24  1  0.99931760  0.50000000  0.50000000  1
  C  C25  1  0.50116444  0.00000000  0.50000000  1
  C  C26  1  0.50752943  0.50000000  0.50000000  1
  C  C27  1  0.00085161  0.27580294  0.00000000  1
  C  C28  1  0.00085161  0.72419706  -0.00000000  1
  C  C29  1  0.50092275  0.25947896  0.00000000  1
  C  C30  1  0.50092275  0.74052104  0.00000000  1
