# generated using pymatgen
data_Cu9NiC16
_symmetry_space_group_name_H-M   'P 1'
_cell_length_a   7.08038926
_cell_length_b   7.08038926
_cell_length_c   12.07763300
_cell_angle_alpha   90.00000000
_cell_angle_beta   90.00000000
_cell_angle_gamma   105.68543746
_symmetry_Int_Tables_number   1
_chemical_formula_structural   Cu9NiC16
_chemical_formula_sum   'Cu18 Ni2 C32'
_cell_volume   582.92725156
_cell_formula_units_Z   2
loop_
 _symmetry_equiv_pos_site_id
 _symmetry_equiv_pos_as_xyz
  1  'x, y, z'
loop_
 _atom_site_type_symbol
 _atom_site_label
 _atom_site_symmetry_multiplicity
 _atom_site_fract_x
 _atom_site_fract_y
 _atom_site_fract_z
 _atom_site_occupancy
  Ni  Ni0  1  0.28328900  0.64966000  0.25000000  1
  Ni  Ni1  1  0.35034000  0.71671100  0.75000000  1
  Cu  Cu2  1  0.41166700  0.41414500  0.40640700  1
  Cu  Cu3  1  0.58585500  0.58833300  0.59359300  1
  Cu  Cu4  1  0.41166700  0.41414500  0.09359300  1
  Cu  Cu5  1  0.58585500  0.58833300  0.90640700  1
  Cu  Cu6  1  0.15816300  0.15768000  0.85732800  1
  Cu  Cu7  1  0.84232000  0.84183700  0.14267200  1
  Cu  Cu8  1  0.15816300  0.15768000  0.64267200  1
  Cu  Cu9  1  0.84232000  0.84183700  0.35732800  1
  Cu  Cu10  1  0.00644900  0.38282600  0.39890300  1
  Cu  Cu11  1  0.61717400  0.99355100  0.60109700  1
  Cu  Cu12  1  0.00644900  0.38282600  0.10109700  1
  Cu  Cu13  1  0.61717400  0.99355100  0.89890300  1
  Cu  Cu14  1  0.99688900  0.62148500  0.60581200  1
  Cu  Cu15  1  0.37851500  0.00311100  0.39418800  1
  Cu  Cu16  1  0.99688900  0.62148500  0.89418800  1
  Cu  Cu17  1  0.37851500  0.00311100  0.10581200  1
  Cu  Cu18  1  0.71854000  0.33618900  0.75000000  1
  Cu  Cu19  1  0.66381100  0.28146000  0.25000000  1
  C  C20  1  0.10397200  0.71702000  0.42431800  1
  C  C21  1  0.28298000  0.89602800  0.57568200  1
  C  C22  1  0.10397200  0.71702000  0.07568200  1
  C  C23  1  0.28298000  0.89602800  0.92431800  1
  C  C24  1  0.89054800  0.28172900  0.57825400  1
  C  C25  1  0.71827100  0.10945200  0.42174600  1
  C  C26  1  0.89054800  0.28172900  0.92174600  1
  C  C27  1  0.71827100  0.10945200  0.07825400  1
  C  C28  1  0.12651400  0.12651000  0.44070300  1
  C  C29  1  0.87349000  0.87348600  0.55929700  1
  C  C30  1  0.12651400  0.12651000  0.05929700  1
  C  C31  1  0.87349000  0.87348600  0.94070300  1
  C  C32  1  0.58506200  0.57403500  0.25000000  1
  C  C33  1  0.42596500  0.41493800  0.75000000  1
  C  C34  1  0.74833200  0.51629800  0.44228800  1
  C  C35  1  0.48370200  0.25166800  0.55771200  1
  C  C36  1  0.74833200  0.51629800  0.05771200  1
  C  C37  1  0.48370200  0.25166800  0.94228800  1
  C  C38  1  0.24959100  0.48303700  0.56016900  1
  C  C39  1  0.51696300  0.75040900  0.43983100  1
  C  C40  1  0.24959100  0.48303700  0.93983100  1
  C  C41  1  0.51696300  0.75040900  0.06016900  1
  C  C42  1  0.93316500  0.55891500  0.25000000  1
  C  C43  1  0.44108500  0.06683500  0.75000000  1
  C  C44  1  0.06070200  0.42776500  0.75000000  1
  C  C45  1  0.57223500  0.93929800  0.25000000  1
  C  C46  1  0.93848500  0.16411800  0.25000000  1
  C  C47  1  0.83588200  0.06151500  0.75000000  1
  C  C48  1  0.07727700  0.85727100  0.75000000  1
  C  C49  1  0.14272900  0.92272300  0.25000000  1
  C  C50  1  0.73774400  0.69510300  0.75000000  1
  C  C51  1  0.30489700  0.26225600  0.25000000  1
