# generated using pymatgen
data_Cu2Ni4C7
_symmetry_space_group_name_H-M   'P 1'
_cell_length_a   6.48524600
_cell_length_b   7.71024300
_cell_length_c   23.24928900
_cell_angle_alpha   90.00000000
_cell_angle_beta   90.00000000
_cell_angle_gamma   90.00000000
_symmetry_Int_Tables_number   1
_chemical_formula_structural   Cu2Ni4C7
_chemical_formula_sum   'Cu8 Ni16 C28'
_cell_volume   1162.53007286
_cell_formula_units_Z   4
loop_
 _symmetry_equiv_pos_site_id
 _symmetry_equiv_pos_as_xyz
  1  'x, y, z'
loop_
 _atom_site_type_symbol
 _atom_site_label
 _atom_site_symmetry_multiplicity
 _atom_site_fract_x
 _atom_site_fract_y
 _atom_site_fract_z
 _atom_site_occupancy
  C  C0  1  0.44047400  0.25000000  0.64506200  1
  C  C1  1  0.55952600  0.75000000  0.35493800  1
  C  C2  1  0.05952600  0.75000000  0.14506200  1
  C  C3  1  0.94047400  0.25000000  0.85493800  1
  C  C4  1  0.09813400  0.03860000  0.28095300  1
  C  C5  1  0.90186600  0.96140000  0.71904700  1
  C  C6  1  0.40186600  0.96140000  0.78095300  1
  C  C7  1  0.90186600  0.53860000  0.71904700  1
  C  C8  1  0.59813400  0.03860000  0.21904700  1
  C  C9  1  0.09813400  0.46140000  0.28095300  1
  C  C10  1  0.59813400  0.46140000  0.21904700  1
  C  C11  1  0.40186600  0.53860000  0.78095300  1
  C  C12  1  0.00000000  0.00000000  0.00000000  1
  C  C13  1  0.50000000  0.00000000  0.50000000  1
  C  C14  1  0.00000000  0.50000000  0.00000000  1
  C  C15  1  0.50000000  0.50000000  0.50000000  1
  C  C16  1  0.00870200  0.05840900  0.42971400  1
  C  C17  1  0.99129800  0.94159100  0.57028600  1
  C  C18  1  0.49129800  0.94159100  0.92971400  1
  C  C19  1  0.99129800  0.55840900  0.57028600  1
  C  C20  1  0.50870200  0.05840900  0.07028600  1
  C  C21  1  0.00870200  0.44159100  0.42971400  1
  C  C22  1  0.50870200  0.44159100  0.07028600  1
  C  C23  1  0.49129800  0.55840900  0.92971400  1
  C  C24  1  0.01193700  0.25000000  0.13095500  1
  C  C25  1  0.98806300  0.75000000  0.86904500  1
  C  C26  1  0.48806300  0.75000000  0.63095500  1
  C  C27  1  0.51193700  0.25000000  0.36904500  1
  Ni  Ni28  1  0.32190300  0.00634100  0.37264900  1
  Ni  Ni29  1  0.67809700  0.99365900  0.62735100  1
  Ni  Ni30  1  0.17809700  0.99365900  0.87264900  1
  Ni  Ni31  1  0.67809700  0.50634100  0.62735100  1
  Ni  Ni32  1  0.82190300  0.00634100  0.12735100  1
  Ni  Ni33  1  0.32190300  0.49365900  0.37264900  1
  Ni  Ni34  1  0.82190300  0.49365900  0.12735100  1
  Ni  Ni35  1  0.17809700  0.50634100  0.87264900  1
  Ni  Ni36  1  0.22737100  0.25000000  0.20560600  1
  Ni  Ni37  1  0.77262900  0.75000000  0.79439400  1
  Ni  Ni38  1  0.27262900  0.75000000  0.70560600  1
  Ni  Ni39  1  0.72737100  0.25000000  0.29439400  1
  Ni  Ni40  1  0.19574800  0.25000000  0.04634200  1
  Ni  Ni41  1  0.80425200  0.75000000  0.95365800  1
  Ni  Ni42  1  0.30425200  0.75000000  0.54634200  1
  Ni  Ni43  1  0.69574800  0.25000000  0.45365800  1
  Cu  Cu44  1  0.16862400  0.25000000  0.54308900  1
  Cu  Cu45  1  0.83137600  0.75000000  0.45691100  1
  Cu  Cu46  1  0.33137600  0.75000000  0.04308900  1
  Cu  Cu47  1  0.66862400  0.25000000  0.95691100  1
  Cu  Cu48  1  0.12533400  0.25000000  0.71120100  1
  Cu  Cu49  1  0.87466600  0.75000000  0.28879900  1
  Cu  Cu50  1  0.37466600  0.75000000  0.21120100  1
  Cu  Cu51  1  0.62533400  0.25000000  0.78879900  1
