# generated using pymatgen
data_Cu8Ni6C7
_symmetry_space_group_name_H-M   'P 1'
_cell_length_a   8.31746458
_cell_length_b   8.31746458
_cell_length_c   8.31746449
_cell_angle_alpha   108.50198785
_cell_angle_beta   108.50198785
_cell_angle_gamma   108.50198444
_symmetry_Int_Tables_number   1
_chemical_formula_structural   Cu8Ni6C7
_chemical_formula_sum   'Cu8 Ni6 C7'
_cell_volume   458.15200665
_cell_formula_units_Z   1
loop_
 _symmetry_equiv_pos_site_id
 _symmetry_equiv_pos_as_xyz
  1  'x, y, z'
loop_
 _atom_site_type_symbol
 _atom_site_label
 _atom_site_symmetry_multiplicity
 _atom_site_fract_x
 _atom_site_fract_y
 _atom_site_fract_z
 _atom_site_occupancy
  C  C0  1  0.50000000  0.50000000  0.50000000  1
  C  C1  1  0.89320700  0.77928200  0.54070200  1
  C  C2  1  0.54070200  0.89320700  0.77928200  1
  C  C3  1  0.77928200  0.54070200  0.89320700  1
  C  C4  1  0.10679300  0.22071800  0.45929800  1
  C  C5  1  0.45929800  0.10679300  0.22071800  1
  C  C6  1  0.22071800  0.45929800  0.10679300  1
  Ni  Ni7  1  0.20701600  0.72013400  0.83584800  1
  Ni  Ni8  1  0.83584800  0.20701600  0.72013400  1
  Ni  Ni9  1  0.72013400  0.83584800  0.20701600  1
  Ni  Ni10  1  0.79298400  0.27986600  0.16415200  1
  Ni  Ni11  1  0.16415200  0.79298400  0.27986600  1
  Ni  Ni12  1  0.27986600  0.16415200  0.79298400  1
  Cu  Cu13  1  0.47288600  0.40273600  0.25365600  1
  Cu  Cu14  1  0.25365600  0.47288600  0.40273600  1
  Cu  Cu15  1  0.40273600  0.25365600  0.47288600  1
  Cu  Cu16  1  0.52711400  0.59726400  0.74634400  1
  Cu  Cu17  1  0.74634400  0.52711400  0.59726400  1
  Cu  Cu18  1  0.59726400  0.74634400  0.52711400  1
  Cu  Cu19  1  0.92747700  0.92747700  0.92747700  1
  Cu  Cu20  1  0.07252300  0.07252300  0.07252300  1
