# generated using pymatgen
data_Cu6Ni4C5
_symmetry_space_group_name_H-M   'P 1'
_cell_length_a   8.37317123
_cell_length_b   8.37317123
_cell_length_c   16.75577781
_cell_angle_alpha   89.87235336
_cell_angle_beta   89.87235336
_cell_angle_gamma   91.11078050
_symmetry_Int_Tables_number   1
_chemical_formula_structural   Cu6Ni4C5
_chemical_formula_sum   'Cu36 Ni24 C30'
_cell_volume   1174.52082280
_cell_formula_units_Z   6
loop_
 _symmetry_equiv_pos_site_id
 _symmetry_equiv_pos_as_xyz
  1  'x, y, z'
loop_
 _atom_site_type_symbol
 _atom_site_label
 _atom_site_symmetry_multiplicity
 _atom_site_fract_x
 _atom_site_fract_y
 _atom_site_fract_z
 _atom_site_occupancy
  C  C0  1  0.99190100  0.00809900  0.75000000  1
  C  C1  1  0.00809900  0.99190100  0.25000000  1
  C  C2  1  0.50000000  0.00000000  0.50000000  1
  C  C3  1  0.00000000  0.50000000  0.00000000  1
  C  C4  1  0.50000000  0.00000000  0.00000000  1
  C  C5  1  0.00000000  0.50000000  0.50000000  1
  C  C6  1  0.76566100  0.81590400  0.53738300  1
  C  C7  1  0.23433900  0.18409600  0.46261700  1
  C  C8  1  0.18409600  0.23433900  0.96261700  1
  C  C9  1  0.81590400  0.76566100  0.03738300  1
  C  C10  1  0.18635500  0.07300900  0.61939700  1
  C  C11  1  0.81364500  0.92699100  0.38060300  1
  C  C12  1  0.92699100  0.81364500  0.88060300  1
  C  C13  1  0.07300900  0.18635500  0.11939700  1
  C  C14  1  0.76710100  0.06179300  0.09415800  1
  C  C15  1  0.23289900  0.93820700  0.90584200  1
  C  C16  1  0.93820700  0.23289900  0.40584200  1
  C  C17  1  0.06179300  0.76710100  0.59415800  1
  C  C18  1  0.76216700  0.96957500  0.59561700  1
  C  C19  1  0.23783300  0.03042500  0.40438300  1
  C  C20  1  0.03042500  0.23783300  0.90438300  1
  C  C21  1  0.96957500  0.76216700  0.09561700  1
  C  C22  1  0.77050200  0.18974800  0.02186200  1
  C  C23  1  0.22949800  0.81025200  0.97813800  1
  C  C24  1  0.81025200  0.22949800  0.47813800  1
  C  C25  1  0.18974800  0.77050200  0.52186200  1
  C  C26  1  0.80181100  0.95831800  0.88227500  1
  C  C27  1  0.19818900  0.04168200  0.11772500  1
  C  C28  1  0.04168200  0.19818900  0.61772500  1
  C  C29  1  0.95831800  0.80181100  0.38227500  1
  Ni  Ni30  1  0.60906800  0.02275700  0.72708300  1
  Ni  Ni31  1  0.39093200  0.97724300  0.27291700  1
  Ni  Ni32  1  0.97724300  0.39093200  0.77291700  1
  Ni  Ni33  1  0.02275700  0.60906800  0.22708300  1
  Ni  Ni34  1  0.53779300  0.01842000  0.80765100  1
  Ni  Ni35  1  0.46220700  0.98158000  0.19234900  1
  Ni  Ni36  1  0.98158000  0.46220700  0.69234900  1
  Ni  Ni37  1  0.01842000  0.53779300  0.30765100  1
  Ni  Ni38  1  0.54369400  0.38436100  0.50193500  1
  Ni  Ni39  1  0.45630600  0.61563900  0.49806500  1
  Ni  Ni40  1  0.61563900  0.45630600  0.99806500  1
  Ni  Ni41  1  0.38436100  0.54369400  0.00193500  1
  Ni  Ni42  1  0.54610600  0.61659400  0.00265200  1
  Ni  Ni43  1  0.45389400  0.38340600  0.99734800  1
  Ni  Ni44  1  0.38340600  0.45389400  0.49734800  1
  Ni  Ni45  1  0.61659400  0.54610600  0.50265200  1
  Ni  Ni46  1  0.44801600  0.01934300  0.69162700  1
  Ni  Ni47  1  0.55198400  0.98065700  0.30837300  1
  Ni  Ni48  1  0.98065700  0.55198400  0.80837300  1
  Ni  Ni49  1  0.01934300  0.44801600  0.19162700  1
  Ni  Ni50  1  0.37660600  0.01189900  0.77219800  1
  Ni  Ni51  1  0.62339400  0.98810100  0.22780200  1
  Ni  Ni52  1  0.98810100  0.62339400  0.72780200  1
  Ni  Ni53  1  0.01189900  0.37660600  0.27219800  1
  Cu  Cu54  1  0.73594600  0.08071900  0.03803100  1
  Cu  Cu55  1  0.26405400  0.91928100  0.96196900  1
  Cu  Cu56  1  0.91928100  0.26405400  0.46196900  1
  Cu  Cu57  1  0.08071900  0.73594600  0.53803100  1
  Cu  Cu58  1  0.39203800  0.02119600  0.62164000  1
  Cu  Cu59  1  0.60796200  0.97880400  0.37836000  1
  Cu  Cu60  1  0.97880400  0.60796200  0.87836000  1
  Cu  Cu61  1  0.02119600  0.39203800  0.12164000  1
  Cu  Cu62  1  0.23691800  0.00041500  0.80060700  1
  Cu  Cu63  1  0.76308200  0.99958500  0.19939300  1
  Cu  Cu64  1  0.99958500  0.76308200  0.69939300  1
  Cu  Cu65  1  0.00041500  0.23691800  0.30060700  1
  Cu  Cu66  1  0.91130500  0.92764100  0.86696300  1
  Cu  Cu67  1  0.08869500  0.07235900  0.13303700  1
  Cu  Cu68  1  0.07235900  0.08869500  0.63303700  1
  Cu  Cu69  1  0.92764100  0.91130500  0.36696300  1
  Cu  Cu70  1  0.73321500  0.92849500  0.54205100  1
  Cu  Cu71  1  0.26678500  0.07150500  0.45794900  1
  Cu  Cu72  1  0.07150500  0.26678500  0.95794900  1
  Cu  Cu73  1  0.92849500  0.73321500  0.04205100  1
  Cu  Cu74  1  0.59480400  0.01851400  0.87734000  1
  Cu  Cu75  1  0.40519600  0.98148600  0.12266000  1
  Cu  Cu76  1  0.98148600  0.40519600  0.62266000  1
  Cu  Cu77  1  0.01851400  0.59480400  0.37734000  1
  Cu  Cu78  1  0.59900300  0.24511300  0.50460100  1
  Cu  Cu79  1  0.40099700  0.75488700  0.49539900  1
  Cu  Cu80  1  0.75488700  0.40099700  0.99539900  1
  Cu  Cu81  1  0.24511300  0.59900300  0.00460100  1
  Cu  Cu82  1  0.60378900  0.75705300  0.00638900  1
  Cu  Cu83  1  0.39621100  0.24294700  0.99361100  1
  Cu  Cu84  1  0.24294700  0.39621100  0.49361100  1
  Cu  Cu85  1  0.75705300  0.60378900  0.50638900  1
  Cu  Cu86  1  0.74885800  0.02596500  0.69884700  1
  Cu  Cu87  1  0.25114200  0.97403500  0.30115300  1
  Cu  Cu88  1  0.97403500  0.25114200  0.80115300  1
  Cu  Cu89  1  0.02596500  0.74885800  0.19884700  1
