# generated using pymatgen
data_CuNi2C13
_symmetry_space_group_name_H-M   'P 1'
_cell_length_a   5.21493000
_cell_length_b   5.48161500
_cell_length_c   19.12035300
_cell_angle_alpha   90.00000000
_cell_angle_beta   90.00000000
_cell_angle_gamma   90.00000000
_symmetry_Int_Tables_number   1
_chemical_formula_structural   CuNi2C13
_chemical_formula_sum   'Cu2 Ni4 C26'
_cell_volume   546.57897129
_cell_formula_units_Z   2
loop_
 _symmetry_equiv_pos_site_id
 _symmetry_equiv_pos_as_xyz
  1  'x, y, z'
loop_
 _atom_site_type_symbol
 _atom_site_label
 _atom_site_symmetry_multiplicity
 _atom_site_fract_x
 _atom_site_fract_y
 _atom_site_fract_z
 _atom_site_occupancy
  Ni  Ni0  1  0.00000000  0.49614400  0.68212200  1
  Ni  Ni1  1  0.50000000  0.00385600  0.68212200  1
  Ni  Ni2  1  0.00000000  0.50385600  0.31787800  1
  Ni  Ni3  1  0.50000000  0.99614400  0.31787800  1
  Cu  Cu4  1  0.00000000  0.50000000  0.50000000  1
  Cu  Cu5  1  0.50000000  0.00000000  0.50000000  1
  C  C6  1  0.00000000  0.99986400  0.58360600  1
  C  C7  1  0.50000000  0.50013600  0.58360600  1
  C  C8  1  0.00000000  0.00013600  0.41639400  1
  C  C9  1  0.50000000  0.49986400  0.41639400  1
  C  C10  1  0.00000000  0.03276500  0.16950900  1
  C  C11  1  0.50000000  0.46723500  0.16950900  1
  C  C12  1  0.00000000  0.96723500  0.83049100  1
  C  C13  1  0.50000000  0.53276500  0.83049100  1
  C  C14  1  0.00000000  0.50000000  0.00000000  1
  C  C15  1  0.50000000  0.00000000  0.00000000  1
  C  C16  1  0.75000000  0.75000000  0.58421900  1
  C  C17  1  0.25000000  0.75000000  0.58421900  1
  C  C18  1  0.00000000  0.42029700  0.18357600  1
  C  C19  1  0.50000000  0.07970300  0.18357600  1
  C  C20  1  0.00000000  0.98027100  0.27799800  1
  C  C21  1  0.50000000  0.51972900  0.27799800  1
  C  C22  1  0.75000000  0.25000000  0.41578100  1
  C  C23  1  0.25000000  0.25000000  0.41578100  1
  C  C24  1  0.00000000  0.57970300  0.81642400  1
  C  C25  1  0.50000000  0.92029700  0.81642400  1
  C  C26  1  0.00000000  0.01972900  0.72200200  1
  C  C27  1  0.50000000  0.48027100  0.72200200  1
  C  C28  1  0.75000000  0.25000000  0.58280600  1
  C  C29  1  0.25000000  0.25000000  0.58280600  1
  C  C30  1  0.75000000  0.75000000  0.41719400  1
  C  C31  1  0.25000000  0.75000000  0.41719400  1
