# generated using pymatgen
data_CuNi3C10
_symmetry_space_group_name_H-M   'P 1'
_cell_length_a   9.63056811
_cell_length_b   9.63056811
_cell_length_c   10.69653984
_cell_angle_alpha   66.60896210
_cell_angle_beta   66.60896210
_cell_angle_gamma   73.77700025
_symmetry_Int_Tables_number   1
_chemical_formula_structural   CuNi3C10
_chemical_formula_sum   'Cu4 Ni12 C40'
_cell_volume   826.94000051
_cell_formula_units_Z   4
loop_
 _symmetry_equiv_pos_site_id
 _symmetry_equiv_pos_as_xyz
  1  'x, y, z'
loop_
 _atom_site_type_symbol
 _atom_site_label
 _atom_site_symmetry_multiplicity
 _atom_site_fract_x
 _atom_site_fract_y
 _atom_site_fract_z
 _atom_site_occupancy
  C  C0  1  0.34147900  0.65866300  0.25004300  1
  C  C1  1  0.65866300  0.34147900  0.75004300  1
  Ni  Ni2  1  0.42410900  0.05794600  0.41426900  1
  Ni  Ni3  1  0.94039400  0.57894900  0.08365100  1
  Ni  Ni4  1  0.57894900  0.94039400  0.58365100  1
  Ni  Ni5  1  0.05794600  0.42410900  0.91426900  1
  Ni  Ni6  1  0.49609900  0.11664300  0.24544500  1
  Ni  Ni7  1  0.88583300  0.50853200  0.25206400  1
  Ni  Ni8  1  0.50853200  0.88583300  0.75206400  1
  Ni  Ni9  1  0.11664300  0.49609900  0.74544500  1
  Ni  Ni10  1  0.24474900  0.08771600  0.46340000  1
  Ni  Ni11  1  0.91534300  0.75867600  0.03301400  1
  Ni  Ni12  1  0.75867600  0.91534300  0.53301400  1
  Ni  Ni13  1  0.08771600  0.24474900  0.96340000  1
  Cu  Cu14  1  0.48676800  0.13950900  0.51201300  1
  Cu  Cu15  1  0.85936900  0.49801400  0.00226100  1
  Cu  Cu16  1  0.49801400  0.85936900  0.50226100  1
  Cu  Cu17  1  0.13950900  0.48676800  0.01201300  1
  C  C18  1  0.46669600  0.27077900  0.19329700  1
  C  C19  1  0.73211500  0.53396800  0.30323400  1
  C  C20  1  0.53396800  0.73211500  0.80323400  1
  C  C21  1  0.27077900  0.46669600  0.69329700  1
  C  C22  1  0.43523600  0.05612000  0.18852500  1
  C  C23  1  0.94433200  0.56578000  0.31301900  1
  C  C24  1  0.56578000  0.94433200  0.81301900  1
  C  C25  1  0.05612000  0.43523600  0.68852500  1
  C  C26  1  0.19331700  0.99604100  0.42869800  1
  C  C27  1  0.00441400  0.81057000  0.07107300  1
  C  C28  1  0.81057000  0.00441400  0.57107300  1
  C  C29  1  0.99604100  0.19331700  0.92869800  1
  C  C30  1  0.18862800  0.05464800  0.60888000  1
  C  C31  1  0.94781700  0.81782000  0.88897100  1
  C  C32  1  0.81782000  0.94781700  0.38897100  1
  C  C33  1  0.05464800  0.18862800  0.10888000  1
  C  C34  1  0.19156100  0.23474400  0.40257000  1
  C  C35  1  0.76746000  0.80717400  0.09625800  1
  C  C36  1  0.80717400  0.76746000  0.59625800  1
  C  C37  1  0.23474400  0.19156100  0.90257000  1
  C  C38  1  0.64882900  0.07404100  0.20535700  1
  C  C39  1  0.93142000  0.35433900  0.28840100  1
  C  C40  1  0.35433900  0.93142000  0.78840100  1
  C  C41  1  0.07404100  0.64882900  0.70535700  1
  C  C42  1  0.37403300  0.45198100  0.37858100  1
  C  C43  1  0.54575900  0.62455700  0.12228300  1
  C  C44  1  0.62455700  0.54575900  0.62228300  1
  C  C45  1  0.45198100  0.37403300  0.87858100  1
  C  C46  1  0.13948400  0.68766900  0.38004700  1
  C  C47  1  0.31095600  0.86029300  0.11941100  1
  C  C48  1  0.86029300  0.31095600  0.61941100  1
  C  C49  1  0.68766900  0.13948400  0.88004700  1
  C  C50  1  0.41884800  0.73298300  0.34893000  1
  C  C51  1  0.26560100  0.57980600  0.15132200  1
  C  C52  1  0.57980600  0.26560100  0.65132200  1
  C  C53  1  0.73298300  0.41884800  0.84893000  1
  C  C54  1  0.62540000  0.22098800  0.39198400  1
  C  C55  1  0.22098800  0.62540000  0.89198400  1
