# generated using pymatgen
data_Cu13Ni3C
_symmetry_space_group_name_H-M   'P 1'
_cell_length_a   9.23245000
_cell_length_b   9.69649900
_cell_length_c   13.29184565
_cell_angle_alpha   78.90193397
_cell_angle_beta   90.00000000
_cell_angle_gamma   90.00000000
_symmetry_Int_Tables_number   1
_chemical_formula_structural   Cu13Ni3C
_chemical_formula_sum   'Cu52 Ni12 C4'
_cell_volume   1167.66601123
_cell_formula_units_Z   4
loop_
 _symmetry_equiv_pos_site_id
 _symmetry_equiv_pos_as_xyz
  1  'x, y, z'
loop_
 _atom_site_type_symbol
 _atom_site_label
 _atom_site_symmetry_multiplicity
 _atom_site_fract_x
 _atom_site_fract_y
 _atom_site_fract_z
 _atom_site_occupancy
  C  C0  1  0.43891300  0.74812000  0.35645700  1
  C  C1  1  0.93891300  0.25188000  0.14354300  1
  C  C2  1  0.56108700  0.25188000  0.64354300  1
  C  C3  1  0.06108700  0.74812000  0.85645700  1
  Ni  Ni4  1  0.31804300  0.99517700  0.41642000  1
  Ni  Ni5  1  0.81804300  0.00482300  0.08358000  1
  Ni  Ni6  1  0.68195700  0.00482300  0.58358000  1
  Ni  Ni7  1  0.18195700  0.99517700  0.91642000  1
  Ni  Ni8  1  0.24366100  0.51226800  0.41012500  1
  Ni  Ni9  1  0.74366100  0.48773200  0.08987500  1
  Ni  Ni10  1  0.75633900  0.48773200  0.58987500  1
  Ni  Ni11  1  0.25633900  0.51226800  0.91012500  1
  Ni  Ni12  1  0.73675100  0.72097100  0.29447700  1
  Ni  Ni13  1  0.23675100  0.27902900  0.20552300  1
  Ni  Ni14  1  0.26324900  0.27902900  0.70552300  1
  Ni  Ni15  1  0.76324900  0.72097100  0.79447700  1
  Cu  Cu16  1  0.45451500  0.98032500  0.39553500  1
  Cu  Cu17  1  0.95451500  0.01967500  0.10446500  1
  Cu  Cu18  1  0.54548500  0.01967500  0.60446500  1
  Cu  Cu19  1  0.04548500  0.98032500  0.89553500  1
  Cu  Cu20  1  0.23588400  0.89145300  0.40399400  1
  Cu  Cu21  1  0.73588400  0.10854700  0.09600600  1
  Cu  Cu22  1  0.76411600  0.10854700  0.59600600  1
  Cu  Cu23  1  0.26411600  0.89145300  0.90399400  1
  Cu  Cu24  1  0.27237300  0.09863600  0.44587600  1
  Cu  Cu25  1  0.77237300  0.90136400  0.05412400  1
  Cu  Cu26  1  0.72762700  0.90136400  0.55412400  1
  Cu  Cu27  1  0.22762700  0.09863600  0.94587600  1
  Cu  Cu28  1  0.20734000  0.62221800  0.34346800  1
  Cu  Cu29  1  0.70734000  0.37778200  0.15653200  1
  Cu  Cu30  1  0.79266000  0.37778200  0.65653200  1
  Cu  Cu31  1  0.29266000  0.62221800  0.84346800  1
  Cu  Cu32  1  0.37640700  0.51374800  0.44459800  1
  Cu  Cu33  1  0.87640700  0.48625200  0.05540200  1
  Cu  Cu34  1  0.62359300  0.48625200  0.55540200  1
  Cu  Cu35  1  0.12359300  0.51374800  0.94459800  1
  Cu  Cu36  1  0.16247600  0.41411700  0.44041700  1
  Cu  Cu37  1  0.66247600  0.58588300  0.05958300  1
  Cu  Cu38  1  0.83752400  0.58588300  0.55958300  1
  Cu  Cu39  1  0.33752400  0.41411700  0.94041700  1
  Cu  Cu40  1  0.67498500  0.84244200  0.29254600  1
  Cu  Cu41  1  0.17498500  0.15755800  0.20745400  1
  Cu  Cu42  1  0.32501500  0.15755800  0.70745400  1
  Cu  Cu43  1  0.82501500  0.84244200  0.79254600  1
  Cu  Cu44  1  0.65262200  0.61302000  0.32303800  1
  Cu  Cu45  1  0.15262200  0.38698000  0.17696200  1
  Cu  Cu46  1  0.34737800  0.38698000  0.67696200  1
  Cu  Cu47  1  0.84737800  0.61302000  0.82303800  1
  Cu  Cu48  1  0.86310500  0.70970000  0.27140100  1
  Cu  Cu49  1  0.36310500  0.29030000  0.22859900  1
  Cu  Cu50  1  0.13689500  0.29030000  0.72859900  1
  Cu  Cu51  1  0.63689500  0.70970000  0.77140100  1
  Cu  Cu52  1  0.12667100  0.73768700  0.12862300  1
  Cu  Cu53  1  0.62667100  0.26231300  0.37137700  1
  Cu  Cu54  1  0.87332900  0.26231300  0.87137700  1
  Cu  Cu55  1  0.37332900  0.73768700  0.62862300  1
  Cu  Cu56  1  0.45830700  0.73274800  0.55826300  1
  Cu  Cu57  1  0.95830700  0.26725200  0.94173700  1
  Cu  Cu58  1  0.54169300  0.26725200  0.44173700  1
  Cu  Cu59  1  0.04169300  0.73274800  0.05826300  1
  Cu  Cu60  1  0.43821100  0.76433300  0.15564100  1
  Cu  Cu61  1  0.93821100  0.23566700  0.34435900  1
  Cu  Cu62  1  0.56178900  0.23566700  0.84435900  1
  Cu  Cu63  1  0.06178900  0.76433300  0.65564100  1
  Cu  Cu64  1  0.37344200  0.71367000  0.09046000  1
  Cu  Cu65  1  0.87344200  0.28633000  0.40954000  1
  Cu  Cu66  1  0.62655800  0.28633000  0.90954000  1
  Cu  Cu67  1  0.12655800  0.71367000  0.59046000  1
