# generated using pymatgen
data_Cu3Ni2C35
_symmetry_space_group_name_H-M   'P 1'
_cell_length_a   10.03532132
_cell_length_b   10.03532132
_cell_length_c   8.21370800
_cell_angle_alpha   90.00000000
_cell_angle_beta   90.00000000
_cell_angle_gamma   119.99999551
_symmetry_Int_Tables_number   1
_chemical_formula_structural   Cu3Ni2C35
_chemical_formula_sum   'Cu6 Ni4 C70'
_cell_volume   716.36189406
_cell_formula_units_Z   2
loop_
 _symmetry_equiv_pos_site_id
 _symmetry_equiv_pos_as_xyz
  1  'x, y, z'
loop_
 _atom_site_type_symbol
 _atom_site_label
 _atom_site_symmetry_multiplicity
 _atom_site_fract_x
 _atom_site_fract_y
 _atom_site_fract_z
 _atom_site_occupancy
  Ni  Ni0  1  0.66666700  0.33333300  0.45032500  1
  Ni  Ni1  1  0.33333300  0.66666700  0.95032500  1
  Ni  Ni2  1  0.66666700  0.33333300  0.09910900  1
  Ni  Ni3  1  0.33333300  0.66666700  0.59910900  1
  Cu  Cu4  1  0.92039200  0.80443200  0.92458800  1
  Cu  Cu5  1  0.19556800  0.11596000  0.92458800  1
  Cu  Cu6  1  0.88404000  0.07960800  0.92458800  1
  Cu  Cu7  1  0.07960800  0.19556800  0.42458800  1
  Cu  Cu8  1  0.80443200  0.88404000  0.42458800  1
  Cu  Cu9  1  0.11596000  0.92039200  0.42458800  1
  C  C10  1  0.87291600  0.68496000  0.24920700  1
  C  C11  1  0.31504000  0.18795600  0.24920700  1
  C  C12  1  0.81204400  0.12708400  0.24920700  1
  C  C13  1  0.12708400  0.31504000  0.74920700  1
  C  C14  1  0.68496000  0.81204400  0.74920700  1
  C  C15  1  0.18795600  0.87291600  0.74920700  1
  C  C16  1  0.00000000  0.00000000  0.09517700  1
  C  C17  1  0.00000000  0.00000000  0.59517700  1
  C  C18  1  0.87641700  0.59928000  0.61658900  1
  C  C19  1  0.40072000  0.27713700  0.61658900  1
  C  C20  1  0.72286300  0.12358300  0.61658900  1
  C  C21  1  0.12358300  0.40072000  0.11658900  1
  C  C22  1  0.59928000  0.72286300  0.11658900  1
  C  C23  1  0.27713700  0.87641700  0.11658900  1
  C  C24  1  0.83862200  0.45673700  0.72515400  1
  C  C25  1  0.54326300  0.38188500  0.72515400  1
  C  C26  1  0.61811500  0.16137800  0.72515400  1
  C  C27  1  0.16137800  0.54326300  0.22515400  1
  C  C28  1  0.45673700  0.61811500  0.22515400  1
  C  C29  1  0.38188500  0.83862200  0.22515400  1
  C  C30  1  0.62341600  0.54476300  0.93312500  1
  C  C31  1  0.45523700  0.07865300  0.93312500  1
  C  C32  1  0.92134700  0.37658400  0.93312500  1
  C  C33  1  0.37658400  0.45523700  0.43312500  1
  C  C34  1  0.54476300  0.92134700  0.43312500  1
  C  C35  1  0.07865300  0.62341600  0.43312500  1
  C  C36  1  0.46458500  0.39344000  0.98850000  1
  C  C37  1  0.60656000  0.07114500  0.98850000  1
  C  C38  1  0.92885500  0.53541500  0.98850000  1
  C  C39  1  0.53541500  0.60656000  0.48850000  1
  C  C40  1  0.39344000  0.92885500  0.48850000  1
  C  C41  1  0.07114500  0.46458500  0.48850000  1
  C  C42  1  0.79582400  0.78486700  0.26784600  1
  C  C43  1  0.21513300  0.01095700  0.26784600  1
  C  C44  1  0.98904300  0.20417600  0.26784600  1
  C  C45  1  0.20417600  0.21513300  0.76784600  1
  C  C46  1  0.78486700  0.98904300  0.76784600  1
  C  C47  1  0.01095700  0.79582400  0.76784600  1
  C  C48  1  0.94059900  0.71105100  0.07395200  1
  C  C49  1  0.28894900  0.22954900  0.07395200  1
  C  C50  1  0.77045100  0.05940100  0.07395200  1
  C  C51  1  0.05940100  0.28894900  0.57395200  1
  C  C52  1  0.71105100  0.77045100  0.57395200  1
  C  C53  1  0.22954900  0.94059900  0.57395200  1
  C  C54  1  0.00402600  0.73940400  0.37866300  1
  C  C55  1  0.26059600  0.26462200  0.37866300  1
  C  C56  1  0.73537800  0.99597400  0.37866300  1
  C  C57  1  0.99597400  0.26059600  0.87866300  1
  C  C58  1  0.73940400  0.73537800  0.87866300  1
  C  C59  1  0.26462200  0.00402600  0.87866300  1
  C  C60  1  0.75904800  0.51221000  0.27263800  1
  C  C61  1  0.48779000  0.24683800  0.27263800  1
  C  C62  1  0.75316200  0.24095200  0.27263800  1
  C  C63  1  0.24095200  0.48779000  0.77263800  1
  C  C64  1  0.51221000  0.75316200  0.77263800  1
  C  C65  1  0.24683800  0.75904800  0.77263800  1
  C  C66  1  0.83445200  0.48780700  0.61149300  1
  C  C67  1  0.51219300  0.34664400  0.61149300  1
  C  C68  1  0.65335600  0.16554800  0.61149300  1
  C  C69  1  0.16554800  0.51219300  0.11149300  1
  C  C70  1  0.48780700  0.65335600  0.11149300  1
  C  C71  1  0.34664400  0.83445200  0.11149300  1
  C  C72  1  0.56983600  0.13947200  0.94544400  1
  C  C73  1  0.86052800  0.43036400  0.94544400  1
  C  C74  1  0.56963600  0.43016400  0.94544400  1
  C  C75  1  0.43016400  0.86052800  0.44544400  1
  C  C76  1  0.13947200  0.56963600  0.44544400  1
  C  C77  1  0.43036400  0.56983600  0.44544400  1
  C  C78  1  0.00000000  0.00000000  0.97582300  1
  C  C79  1  0.00000000  0.00000000  0.47582300  1
