# generated using pymatgen
data_CuNiC3
_symmetry_space_group_name_H-M   'P 1'
_cell_length_a   7.91122800
_cell_length_b   7.91122800
_cell_length_c   7.91122800
_cell_angle_alpha   90.00000000
_cell_angle_beta   90.00000000
_cell_angle_gamma   90.00000000
_symmetry_Int_Tables_number   1
_chemical_formula_structural   CuNiC3
_chemical_formula_sum   'Cu8 Ni8 C24'
_cell_volume   495.14420767
_cell_formula_units_Z   8
loop_
 _symmetry_equiv_pos_site_id
 _symmetry_equiv_pos_as_xyz
  1  'x, y, z'
loop_
 _atom_site_type_symbol
 _atom_site_label
 _atom_site_symmetry_multiplicity
 _atom_site_fract_x
 _atom_site_fract_y
 _atom_site_fract_z
 _atom_site_occupancy
  C  C0  1  0.35848500  0.61587400  0.97382400  1
  C  C1  1  0.64151500  0.11587400  0.52617600  1
  C  C2  1  0.14151500  0.38412600  0.47382400  1
  C  C3  1  0.85848500  0.88412600  0.02617600  1
  C  C4  1  0.97382400  0.35848500  0.61587400  1
  C  C5  1  0.52617600  0.64151500  0.11587400  1
  C  C6  1  0.47382400  0.14151500  0.38412600  1
  C  C7  1  0.02617600  0.85848500  0.88412600  1
  C  C8  1  0.61587400  0.97382400  0.35848500  1
  C  C9  1  0.11587400  0.52617600  0.64151500  1
  C  C10  1  0.38412600  0.47382400  0.14151500  1
  C  C11  1  0.88412600  0.02617600  0.85848500  1
  C  C12  1  0.64151500  0.38412600  0.02617600  1
  C  C13  1  0.35848500  0.88412600  0.47382400  1
  C  C14  1  0.85848500  0.61587400  0.52617600  1
  C  C15  1  0.14151500  0.11587400  0.97382400  1
  C  C16  1  0.02617600  0.64151500  0.38412600  1
  C  C17  1  0.47382400  0.35848500  0.88412600  1
  C  C18  1  0.52617600  0.85848500  0.61587400  1
  C  C19  1  0.97382400  0.14151500  0.11587400  1
  C  C20  1  0.38412600  0.02617600  0.64151500  1
  C  C21  1  0.88412600  0.47382400  0.35848500  1
  C  C22  1  0.61587400  0.52617600  0.85848500  1
  C  C23  1  0.11587400  0.97382400  0.14151500  1
  Ni  Ni24  1  0.55268800  0.44731200  0.94731200  1
  Ni  Ni25  1  0.44731200  0.94731200  0.55268800  1
  Ni  Ni26  1  0.94731200  0.55268800  0.44731200  1
  Ni  Ni27  1  0.05268800  0.05268800  0.05268800  1
  Ni  Ni28  1  0.44731200  0.55268800  0.05268800  1
  Ni  Ni29  1  0.55268800  0.05268800  0.44731200  1
  Ni  Ni30  1  0.05268800  0.44731200  0.55268800  1
  Ni  Ni31  1  0.94731200  0.94731200  0.94731200  1
  Cu  Cu32  1  0.21806300  0.78193700  0.28193700  1
  Cu  Cu33  1  0.78193700  0.28193700  0.21806300  1
  Cu  Cu34  1  0.28193700  0.21806300  0.78193700  1
  Cu  Cu35  1  0.71806300  0.71806300  0.71806300  1
  Cu  Cu36  1  0.78193700  0.21806300  0.71806300  1
  Cu  Cu37  1  0.21806300  0.71806300  0.78193700  1
  Cu  Cu38  1  0.71806300  0.78193700  0.21806300  1
  Cu  Cu39  1  0.28193700  0.28193700  0.28193700  1
