# generated using pymatgen
data_Cu3Ni8C41
_symmetry_space_group_name_H-M   'P 1'
_cell_length_a   13.39861220
_cell_length_b   13.39814014
_cell_length_c   7.61895540
_cell_angle_alpha   73.48496824
_cell_angle_beta   73.47816135
_cell_angle_gamma   33.03687041
_symmetry_Int_Tables_number   1
_chemical_formula_structural   Cu3Ni8C41
_chemical_formula_sum   'Cu3 Ni8 C41'
_cell_volume   712.11135468
_cell_formula_units_Z   1
loop_
 _symmetry_equiv_pos_site_id
 _symmetry_equiv_pos_as_xyz
  1  'x, y, z'
loop_
 _atom_site_type_symbol
 _atom_site_label
 _atom_site_symmetry_multiplicity
 _atom_site_fract_x
 _atom_site_fract_y
 _atom_site_fract_z
 _atom_site_occupancy
  Ni  Ni0  1  0.85732200  0.85732200  0.14267800  1
  Ni  Ni1  1  0.85733300  0.85733300  0.64266700  1
  Ni  Ni2  1  0.35733300  0.35733300  0.14266700  1
  Ni  Ni3  1  0.35531000  0.35531000  0.64469000  1
  Ni  Ni4  1  0.64469000  0.64469000  0.35531000  1
  Ni  Ni5  1  0.64266700  0.64266700  0.85733300  1
  Ni  Ni6  1  0.14266700  0.14266700  0.35733300  1
  Ni  Ni7  1  0.14267800  0.14267800  0.85732200  1
  Cu  Cu8  1  0.00000000  0.00000000  0.50000000  1
  Cu  Cu9  1  0.50000000  0.50000000  0.00000000  1
  Cu  Cu10  1  0.00000000  0.00000000  0.00000000  1
  C  C11  1  0.50000000  0.50000000  0.50000000  1
  C  C12  1  0.50000000  0.00000000  0.00000000  1
  C  C13  1  0.00000000  0.50000000  0.50000000  1
  C  C14  1  0.17903000  0.68229900  0.82097000  1
  C  C15  1  0.17950800  0.68283500  0.31716500  1
  C  C16  1  0.68283500  0.17950800  0.82049200  1
  C  C17  1  0.68229900  0.17903000  0.31770100  1
  C  C18  1  0.82097000  0.31770100  0.17903000  1
  C  C19  1  0.82049200  0.31716500  0.68283500  1
  C  C20  1  0.31716500  0.82049200  0.17950800  1
  C  C21  1  0.31770100  0.82097000  0.68229900  1
  C  C22  1  0.50000000  0.00000000  0.50000000  1
  C  C23  1  0.00000000  0.50000000  0.00000000  1
  C  C24  1  0.08790900  0.58685600  0.91209100  1
  C  C25  1  0.08626100  0.58458800  0.41541200  1
  C  C26  1  0.58458800  0.08626100  0.91373900  1
  C  C27  1  0.58685600  0.08790900  0.41314400  1
  C  C28  1  0.91209100  0.41314400  0.08790900  1
  C  C29  1  0.91373900  0.41541200  0.58458800  1
  C  C30  1  0.41541200  0.91373900  0.08626100  1
  C  C31  1  0.41314400  0.91209100  0.58685600  1
  C  C32  1  0.75022400  0.75022400  0.24977600  1
  C  C33  1  0.75000000  0.75000000  0.75000000  1
  C  C34  1  0.25000000  0.25000000  0.25000000  1
  C  C35  1  0.24977600  0.24977600  0.75022400  1
  C  C36  1  0.18692700  0.68441000  0.06437700  1
  C  C37  1  0.18748400  0.68533500  0.56351200  1
  C  C38  1  0.68441000  0.18692700  0.06428600  1
  C  C39  1  0.68533500  0.18748400  0.56366900  1
  C  C40  1  0.93562300  0.93571400  0.81307300  1
  C  C41  1  0.93571400  0.93562300  0.31559000  1
  C  C42  1  0.43648800  0.43633100  0.81251600  1
  C  C43  1  0.43633100  0.43648800  0.31466500  1
  C  C44  1  0.81251600  0.31466500  0.43648800  1
  C  C45  1  0.81307300  0.31559000  0.93562300  1
  C  C46  1  0.31466500  0.81251600  0.43633100  1
  C  C47  1  0.31559000  0.81307300  0.93571400  1
  C  C48  1  0.56351200  0.56366900  0.18748400  1
  C  C49  1  0.56366900  0.56351200  0.68533500  1
  C  C50  1  0.06437700  0.06428600  0.18692700  1
  C  C51  1  0.06428600  0.06437700  0.68441000  1
