# generated using pymatgen
data_Cu3(NiC4)2
_symmetry_space_group_name_H-M   'P 1'
_cell_length_a   6.31846817
_cell_length_b   6.31846817
_cell_length_c   9.54304600
_cell_angle_alpha   90.00000000
_cell_angle_beta   90.00000000
_cell_angle_gamma   120.00000180
_symmetry_Int_Tables_number   1
_chemical_formula_structural   Cu3(NiC4)2
_chemical_formula_sum   'Cu6 Ni4 C16'
_cell_volume   329.94476751
_cell_formula_units_Z   2
loop_
 _symmetry_equiv_pos_site_id
 _symmetry_equiv_pos_as_xyz
  1  'x, y, z'
loop_
 _atom_site_type_symbol
 _atom_site_label
 _atom_site_symmetry_multiplicity
 _atom_site_fract_x
 _atom_site_fract_y
 _atom_site_fract_z
 _atom_site_occupancy
  Ni  Ni0  1  0.66666700  0.33333300  0.03043300  1
  Ni  Ni1  1  0.33333300  0.66666700  0.53043300  1
  Ni  Ni2  1  0.66666700  0.33333300  0.40541400  1
  Ni  Ni3  1  0.33333300  0.66666700  0.90541400  1
  Cu  Cu4  1  0.67101400  0.83550700  0.24426300  1
  Cu  Cu5  1  0.83550700  0.16449300  0.74426300  1
  Cu  Cu6  1  0.16449300  0.32898600  0.24426300  1
  Cu  Cu7  1  0.83550700  0.67101400  0.74426300  1
  Cu  Cu8  1  0.32898600  0.16449300  0.74426300  1
  Cu  Cu9  1  0.16449300  0.83550700  0.24426300  1
  C  C10  1  0.83010400  0.16989600  0.14287900  1
  C  C11  1  0.66020900  0.83010400  0.64287900  1
  C  C12  1  0.16989600  0.33979100  0.64287900  1
  C  C13  1  0.83010400  0.66020900  0.14287900  1
  C  C14  1  0.33979100  0.16989600  0.14287900  1
  C  C15  1  0.16989600  0.83010400  0.64287900  1
  C  C16  1  0.51823900  0.48176100  0.87145000  1
  C  C17  1  0.03647900  0.51823900  0.37145000  1
  C  C18  1  0.48176100  0.96352100  0.37145000  1
  C  C19  1  0.51823900  0.03647900  0.87145000  1
  C  C20  1  0.00000000  0.00000000  0.35777900  1
  C  C21  1  0.00000000  0.00000000  0.85777900  1
  C  C22  1  0.33333300  0.66666700  0.12410100  1
  C  C23  1  0.96352100  0.48176100  0.87145000  1
  C  C24  1  0.48176100  0.51823900  0.37145000  1
  C  C25  1  0.66666700  0.33333300  0.62410100  1
