# generated using pymatgen
data_Cu4NiC
_symmetry_space_group_name_H-M   'P 1'
_cell_length_a   14.88334040
_cell_length_b   14.88334040
_cell_length_c   7.71577700
_cell_angle_alpha   90.00000000
_cell_angle_beta   90.00000000
_cell_angle_gamma   120.00000180
_symmetry_Int_Tables_number   1
_chemical_formula_structural   Cu4NiC
_chemical_formula_sum   'Cu72 Ni18 C18'
_cell_volume   1480.16837444
_cell_formula_units_Z   18
loop_
 _symmetry_equiv_pos_site_id
 _symmetry_equiv_pos_as_xyz
  1  'x, y, z'
loop_
 _atom_site_type_symbol
 _atom_site_label
 _atom_site_symmetry_multiplicity
 _atom_site_fract_x
 _atom_site_fract_y
 _atom_site_fract_z
 _atom_site_occupancy
  C  C0  1  0.66666700  0.33333300  0.99780400  1
  C  C1  1  0.33333300  0.66666700  0.00219600  1
  C  C2  1  0.00000000  0.00000000  0.50000000  1
  C  C3  1  0.99658100  0.34500900  0.96326400  1
  C  C4  1  0.00341900  0.65499100  0.03673600  1
  C  C5  1  0.34842800  0.00341900  0.96326400  1
  C  C6  1  0.65157200  0.99658100  0.03673600  1
  C  C7  1  0.65499100  0.65157200  0.96326400  1
  C  C8  1  0.34500900  0.34842800  0.03673600  1
  C  C9  1  0.67839500  0.68138100  0.54699500  1
  C  C10  1  0.32160500  0.31861900  0.45300500  1
  C  C11  1  0.00298600  0.32160500  0.54699500  1
  C  C12  1  0.99701400  0.67839500  0.45300500  1
  C  C13  1  0.31861900  0.99701400  0.54699500  1
  C  C14  1  0.68138100  0.00298600  0.45300500  1
  C  C15  1  0.66666700  0.33333300  0.49714900  1
  C  C16  1  0.33333300  0.66666700  0.50285100  1
  C  C17  1  0.00000000  0.00000000  0.00000000  1
  Ni  Ni18  1  0.86916400  0.09712200  0.76011100  1
  Ni  Ni19  1  0.13083600  0.90287800  0.23988900  1
  Ni  Ni20  1  0.22795800  0.13083600  0.76011100  1
  Ni  Ni21  1  0.77204200  0.86916400  0.23988900  1
  Ni  Ni22  1  0.90287800  0.77204200  0.76011100  1
  Ni  Ni23  1  0.09712200  0.22795800  0.23988900  1
  Ni  Ni24  1  0.56016100  0.79425000  0.74172500  1
  Ni  Ni25  1  0.43983900  0.20575000  0.25827500  1
  Ni  Ni26  1  0.23409000  0.43983900  0.74172500  1
  Ni  Ni27  1  0.76591000  0.56016100  0.25827500  1
  Ni  Ni28  1  0.20575000  0.76591000  0.74172500  1
  Ni  Ni29  1  0.79425000  0.23409000  0.25827500  1
  Ni  Ni30  1  0.89355900  0.46238600  0.73775300  1
  Ni  Ni31  1  0.10644100  0.53761400  0.26224700  1
  Ni  Ni32  1  0.56882800  0.10644100  0.73775300  1
  Ni  Ni33  1  0.43117200  0.89355900  0.26224700  1
  Ni  Ni34  1  0.53761400  0.43117200  0.73775300  1
  Ni  Ni35  1  0.46238600  0.56882800  0.26224700  1
  Cu  Cu36  1  0.45472100  0.70431500  0.70683300  1
  Cu  Cu37  1  0.54527900  0.29568500  0.29316700  1
  Cu  Cu38  1  0.24959400  0.54527900  0.70683300  1
  Cu  Cu39  1  0.75040600  0.45472100  0.29316700  1
  Cu  Cu40  1  0.29568500  0.75040600  0.70683300  1
  Cu  Cu41  1  0.70431500  0.24959400  0.29316700  1
  Cu  Cu42  1  0.89217700  0.50508600  0.91274200  1
  Cu  Cu43  1  0.10782300  0.49491400  0.08725800  1
  Cu  Cu44  1  0.61291000  0.10782300  0.91274200  1
  Cu  Cu45  1  0.38709000  0.89217700  0.08725800  1
  Cu  Cu46  1  0.49491400  0.38709000  0.91274200  1
  Cu  Cu47  1  0.50508600  0.61291000  0.08725800  1
  Cu  Cu48  1  0.83325500  0.05666600  0.58067900  1
  Cu  Cu49  1  0.16674500  0.94333400  0.41932100  1
  Cu  Cu50  1  0.22341100  0.16674500  0.58067900  1
  Cu  Cu51  1  0.77658900  0.83325500  0.41932100  1
  Cu  Cu52  1  0.94333400  0.77658900  0.58067900  1
  Cu  Cu53  1  0.05666600  0.22341100  0.41932100  1
  Cu  Cu54  1  0.61923400  0.07830500  0.60208700  1
  Cu  Cu55  1  0.38076600  0.92169500  0.39791300  1
  Cu  Cu56  1  0.45907100  0.38076600  0.60208700  1
  Cu  Cu57  1  0.54092900  0.61923400  0.39791300  1
  Cu  Cu58  1  0.92169500  0.54092900  0.60208700  1
  Cu  Cu59  1  0.07830500  0.45907100  0.39791300  1
  Cu  Cu60  1  0.95735400  0.08027800  0.80260500  1
  Cu  Cu61  1  0.04264600  0.91972200  0.19739500  1
  Cu  Cu62  1  0.12292400  0.04264600  0.80260500  1
  Cu  Cu63  1  0.87707600  0.95735400  0.19739500  1
  Cu  Cu64  1  0.91972200  0.87707600  0.80260500  1
  Cu  Cu65  1  0.08027800  0.12292400  0.19739500  1
  Cu  Cu66  1  0.96955700  0.42369300  0.74375200  1
  Cu  Cu67  1  0.03044300  0.57630700  0.25624800  1
  Cu  Cu68  1  0.45413600  0.03044300  0.74375200  1
  Cu  Cu69  1  0.54586400  0.96955700  0.25624800  1
  Cu  Cu70  1  0.57630700  0.54586400  0.74375200  1
  Cu  Cu71  1  0.42369300  0.45413600  0.25624800  1
  Cu  Cu72  1  0.90851400  0.21187200  0.76146700  1
  Cu  Cu73  1  0.09148600  0.78812800  0.23853300  1
  Cu  Cu74  1  0.30335700  0.09148600  0.76146700  1
  Cu  Cu75  1  0.69664300  0.90851400  0.23853300  1
  Cu  Cu76  1  0.78812800  0.69664300  0.76146700  1
  Cu  Cu77  1  0.21187200  0.30335700  0.23853300  1
  Cu  Cu78  1  0.55621600  0.84340100  0.90800200  1
  Cu  Cu79  1  0.44378400  0.15659900  0.09199800  1
  Cu  Cu80  1  0.28718500  0.44378400  0.90800200  1
  Cu  Cu81  1  0.71281500  0.55621600  0.09199800  1
  Cu  Cu82  1  0.15659900  0.71281500  0.90800200  1
  Cu  Cu83  1  0.84340100  0.28718500  0.09199800  1
  Cu  Cu84  1  0.59200200  0.86689400  0.59574500  1
  Cu  Cu85  1  0.40799800  0.13310600  0.40425500  1
  Cu  Cu86  1  0.27489100  0.40799800  0.59574500  1
  Cu  Cu87  1  0.72510900  0.59200200  0.40425500  1
  Cu  Cu88  1  0.13310600  0.72510900  0.59574500  1
  Cu  Cu89  1  0.86689400  0.27489100  0.40425500  1
  Cu  Cu90  1  0.78832200  0.37254900  0.70180100  1
  Cu  Cu91  1  0.21167800  0.62745100  0.29819900  1
  Cu  Cu92  1  0.58422700  0.21167800  0.70180100  1
  Cu  Cu93  1  0.41577300  0.78832200  0.29819900  1
  Cu  Cu94  1  0.62745100  0.41577300  0.70180100  1
  Cu  Cu95  1  0.37254900  0.58422700  0.29819900  1
  Cu  Cu96  1  0.63491900  0.75443000  0.76013400  1
  Cu  Cu97  1  0.36508100  0.24557000  0.23986600  1
  Cu  Cu98  1  0.11951100  0.36508100  0.76013400  1
  Cu  Cu99  1  0.88048900  0.63491900  0.23986600  1
  Cu  Cu100  1  0.24557000  0.88048900  0.76013400  1
  Cu  Cu101  1  0.75443000  0.11951100  0.23986600  1
  Cu  Cu102  1  0.78490300  0.04316600  0.88565700  1
  Cu  Cu103  1  0.21509700  0.95683400  0.11434300  1
  Cu  Cu104  1  0.25826300  0.21509700  0.88565700  1
  Cu  Cu105  1  0.74173700  0.78490300  0.11434300  1
  Cu  Cu106  1  0.95683400  0.74173700  0.88565700  1
  Cu  Cu107  1  0.04316600  0.25826300  0.11434300  1
