# generated using pymatgen
data_Cu2NiC8
_symmetry_space_group_name_H-M   'P 1'
_cell_length_a   10.61027200
_cell_length_b   7.55636000
_cell_length_c   8.58323726
_cell_angle_alpha   72.99167725
_cell_angle_beta   90.00000000
_cell_angle_gamma   90.00000000
_symmetry_Int_Tables_number   1
_chemical_formula_structural   Cu2NiC8
_chemical_formula_sum   'Cu8 Ni4 C32'
_cell_volume   658.06273625
_cell_formula_units_Z   4
loop_
 _symmetry_equiv_pos_site_id
 _symmetry_equiv_pos_as_xyz
  1  'x, y, z'
loop_
 _atom_site_type_symbol
 _atom_site_label
 _atom_site_symmetry_multiplicity
 _atom_site_fract_x
 _atom_site_fract_y
 _atom_site_fract_z
 _atom_site_occupancy
  C  C0  1  0.32083500  0.17311000  0.43644500  1
  C  C1  1  0.67916500  0.82689000  0.56355500  1
  C  C2  1  0.82083500  0.82689000  0.06355500  1
  C  C3  1  0.17916500  0.17311000  0.93644500  1
  Ni  Ni4  1  0.39959700  0.76350700  0.25700300  1
  Ni  Ni5  1  0.89959700  0.23649300  0.24299700  1
  Ni  Ni6  1  0.60040300  0.23649300  0.74299700  1
  Ni  Ni7  1  0.10040300  0.76350700  0.75700300  1
  Cu  Cu8  1  0.13809700  0.55816100  0.19405600  1
  Cu  Cu9  1  0.63809700  0.44183900  0.30594400  1
  Cu  Cu10  1  0.86190300  0.44183900  0.80594400  1
  Cu  Cu11  1  0.36190300  0.55816100  0.69405600  1
  Cu  Cu12  1  0.40000700  0.87174100  0.82202800  1
  Cu  Cu13  1  0.09999300  0.87174100  0.32202800  1
  Cu  Cu14  1  0.59999300  0.12825900  0.17797200  1
  Cu  Cu15  1  0.90000700  0.12825900  0.67797200  1
  C  C16  1  0.09648000  0.86876700  0.49816000  1
  C  C17  1  0.59648000  0.13123300  0.00184000  1
  C  C18  1  0.90352000  0.13123300  0.50184000  1
  C  C19  1  0.40352000  0.86876700  0.99816000  1
  C  C20  1  0.08124900  0.36342500  0.24044300  1
  C  C21  1  0.58124900  0.63657500  0.25955700  1
  C  C22  1  0.91875100  0.63657500  0.75955700  1
  C  C23  1  0.41875100  0.36342500  0.74044300  1
  C  C24  1  0.10643700  0.67691700  0.02229300  1
  C  C25  1  0.60643700  0.32308300  0.47770700  1
  C  C26  1  0.89356300  0.32308300  0.97770700  1
  C  C27  1  0.39356300  0.67691700  0.52229300  1
  C  C28  1  0.07188700  0.66183200  0.31563300  1
  C  C29  1  0.57188700  0.33816800  0.18436700  1
  C  C30  1  0.92811300  0.33816800  0.68436700  1
  C  C31  1  0.42811300  0.66183200  0.81563300  1
  C  C32  1  0.22070000  0.53836400  0.73786900  1
  C  C33  1  0.72070000  0.46163600  0.76213100  1
  C  C34  1  0.77930000  0.46163600  0.26213100  1
  C  C35  1  0.27930000  0.53836400  0.23786900  1
  C  C36  1  0.50365800  0.99196200  0.71715500  1
  C  C37  1  0.00365800  0.00803800  0.78284500  1
  C  C38  1  0.49634200  0.00803800  0.28284500  1
  C  C39  1  0.99634200  0.99196200  0.21715500  1
  C  C40  1  0.27013000  0.93162000  0.74339000  1
  C  C41  1  0.77013000  0.06838000  0.75661000  1
  C  C42  1  0.72987000  0.06838000  0.25661000  1
  C  C43  1  0.22987000  0.93162000  0.24339000  1
