# generated using pymatgen
data_Cu2Ni4C15
_symmetry_space_group_name_H-M   'P 1'
_cell_length_a   13.97296300
_cell_length_b   12.09916900
_cell_length_c   7.70505600
_cell_angle_alpha   90.00000000
_cell_angle_beta   90.00000000
_cell_angle_gamma   90.00000000
_symmetry_Int_Tables_number   1
_chemical_formula_structural   Cu2Ni4C15
_chemical_formula_sum   'Cu8 Ni16 C60'
_cell_volume   1302.62632754
_cell_formula_units_Z   4
loop_
 _symmetry_equiv_pos_site_id
 _symmetry_equiv_pos_as_xyz
  1  'x, y, z'
loop_
 _atom_site_type_symbol
 _atom_site_label
 _atom_site_symmetry_multiplicity
 _atom_site_fract_x
 _atom_site_fract_y
 _atom_site_fract_z
 _atom_site_occupancy
  C  C0  1  0.97225300  0.61417600  0.74026200  1
  C  C1  1  0.02774700  0.38582400  0.24026200  1
  C  C2  1  0.52774700  0.11417600  0.24026200  1
  C  C3  1  0.47225300  0.88582400  0.74026200  1
  C  C4  1  0.55016800  0.64457400  0.20754200  1
  C  C5  1  0.44983200  0.35542600  0.70754200  1
  C  C6  1  0.94983200  0.14457400  0.70754200  1
  C  C7  1  0.05016800  0.85542600  0.20754200  1
  C  C8  1  0.74851400  0.40250200  0.89998300  1
  C  C9  1  0.25148600  0.59749800  0.39998300  1
  C  C10  1  0.75148600  0.90250200  0.39998300  1
  C  C11  1  0.24851400  0.09749800  0.89998300  1
  Ni  Ni12  1  0.78554700  0.47080400  0.52287200  1
  Ni  Ni13  1  0.21445300  0.52919600  0.02287200  1
  Ni  Ni14  1  0.71445300  0.97080400  0.02287200  1
  Ni  Ni15  1  0.28554700  0.02919600  0.52287200  1
  Ni  Ni16  1  0.79148400  0.34083000  0.51691600  1
  Ni  Ni17  1  0.20851600  0.65917000  0.01691600  1
  Ni  Ni18  1  0.70851600  0.84083000  0.01691600  1
  Ni  Ni19  1  0.29148400  0.15917000  0.51691600  1
  Ni  Ni20  1  0.62292700  0.38374600  0.35058900  1
  Ni  Ni21  1  0.37707300  0.61625400  0.85058900  1
  Ni  Ni22  1  0.87707300  0.88374600  0.85058900  1
  Ni  Ni23  1  0.12292700  0.11625400  0.35058900  1
  Ni  Ni24  1  0.52388100  0.38809300  0.25355700  1
  Ni  Ni25  1  0.47611900  0.61190700  0.75355700  1
  Ni  Ni26  1  0.97611900  0.88809300  0.75355700  1
  Ni  Ni27  1  0.02388100  0.11190700  0.25355700  1
  Cu  Cu28  1  0.83041600  0.61531700  0.23375400  1
  Cu  Cu29  1  0.16958400  0.38468300  0.73375400  1
  Cu  Cu30  1  0.66958400  0.11531700  0.73375400  1
  Cu  Cu31  1  0.33041600  0.88468300  0.23375400  1
  Cu  Cu32  1  0.68708900  0.69075600  0.73130400  1
  Cu  Cu33  1  0.31291100  0.30924400  0.23130400  1
  Cu  Cu34  1  0.81291100  0.19075600  0.23130400  1
  Cu  Cu35  1  0.18708900  0.80924400  0.73130400  1
  C  C36  1  0.87885900  0.39396800  0.90365200  1
  C  C37  1  0.12114100  0.60603200  0.40365200  1
  C  C38  1  0.62114100  0.89396800  0.40365200  1
  C  C39  1  0.37885900  0.10603200  0.90365200  1
  C  C40  1  0.61910400  0.41291200  0.90283300  1
  C  C41  1  0.38089600  0.58708800  0.40283300  1
  C  C42  1  0.88089600  0.91291200  0.40283300  1
  C  C43  1  0.11910400  0.08708800  0.90283300  1
  C  C44  1  0.63995200  0.75034900  0.90672700  1
  C  C45  1  0.36004800  0.24965100  0.40672700  1
  C  C46  1  0.86004800  0.25034900  0.40672700  1
  C  C47  1  0.13995200  0.74965100  0.90672700  1
  C  C48  1  0.87139500  0.55726200  0.41487900  1
  C  C49  1  0.12860500  0.44273800  0.91487900  1
  C  C50  1  0.62860500  0.05726200  0.91487900  1
  C  C51  1  0.37139500  0.94273800  0.41487900  1
  C  C52  1  0.75682200  0.72258600  0.28251800  1
  C  C53  1  0.24317800  0.27741400  0.78251800  1
  C  C54  1  0.74317800  0.22258600  0.78251800  1
  C  C55  1  0.25682200  0.77741400  0.28251800  1
  C  C56  1  0.75403800  0.52354400  0.14070700  1
  C  C57  1  0.24596200  0.47645600  0.64070700  1
  C  C58  1  0.74596200  0.02354400  0.64070700  1
  C  C59  1  0.25403800  0.97645600  0.14070700  1
  C  C60  1  0.76093700  0.58514800  0.78719700  1
  C  C61  1  0.23906300  0.41485200  0.28719700  1
  C  C62  1  0.73906300  0.08514800  0.28719700  1
  C  C63  1  0.26093700  0.91485200  0.78719700  1
  C  C64  1  0.75677300  0.40335400  0.57481700  1
  C  C65  1  0.24322700  0.59664600  0.07481700  1
  C  C66  1  0.74322700  0.90335400  0.07481700  1
  C  C67  1  0.25677300  0.09664600  0.57481700  1
  C  C68  1  0.76523300  0.78278800  0.64321800  1
  C  C69  1  0.23476700  0.21721200  0.14321800  1
  C  C70  1  0.73476700  0.28278800  0.14321800  1
  C  C71  1  0.26523300  0.71721200  0.64321800  1
  C  C72  1  0.91783800  0.65350700  0.10293900  1
  C  C73  1  0.08216200  0.34649300  0.60293900  1
  C  C74  1  0.58216200  0.15350700  0.60293900  1
  C  C75  1  0.41783800  0.84649300  0.10293900  1
  C  C76  1  0.60191500  0.65092700  0.59672800  1
  C  C77  1  0.39808500  0.34907300  0.09672800  1
  C  C78  1  0.89808500  0.15092700  0.09672800  1
  C  C79  1  0.10191500  0.84907300  0.59672800  1
  C  C80  1  0.55694500  0.41025700  0.35984800  1
  C  C81  1  0.44305500  0.58974300  0.85984800  1
  C  C82  1  0.94305500  0.91025700  0.85984800  1
  C  C83  1  0.05694500  0.08974300  0.35984800  1
