# generated using pymatgen
data_Cu2Ni2C9
_symmetry_space_group_name_H-M   'P 1'
_cell_length_a   8.20150100
_cell_length_b   8.36263900
_cell_length_c   9.26722100
_cell_angle_alpha   90.00000000
_cell_angle_beta   90.00000000
_cell_angle_gamma   90.00000000
_symmetry_Int_Tables_number   1
_chemical_formula_structural   Cu2Ni2C9
_chemical_formula_sum   'Cu8 Ni8 C36'
_cell_volume   635.60339994
_cell_formula_units_Z   4
loop_
 _symmetry_equiv_pos_site_id
 _symmetry_equiv_pos_as_xyz
  1  'x, y, z'
loop_
 _atom_site_type_symbol
 _atom_site_label
 _atom_site_symmetry_multiplicity
 _atom_site_fract_x
 _atom_site_fract_y
 _atom_site_fract_z
 _atom_site_occupancy
  C  C0  1  0.25000000  0.88798500  0.07032400  1
  C  C1  1  0.25000000  0.38798500  0.42967600  1
  C  C2  1  0.75000000  0.11201500  0.92967600  1
  C  C3  1  0.75000000  0.61201500  0.57032400  1
  Ni  Ni4  1  0.94687000  0.55261300  0.18979600  1
  Ni  Ni5  1  0.55313000  0.05261300  0.31020400  1
  Ni  Ni6  1  0.44687000  0.44738700  0.81020400  1
  Ni  Ni7  1  0.05313000  0.94738700  0.68979600  1
  Ni  Ni8  1  0.05313000  0.44738700  0.81020400  1
  Ni  Ni9  1  0.44687000  0.94738700  0.68979600  1
  Ni  Ni10  1  0.55313000  0.55261300  0.18979600  1
  Ni  Ni11  1  0.94687000  0.05261300  0.31020400  1
  Cu  Cu12  1  0.91378000  0.74045400  0.91814500  1
  Cu  Cu13  1  0.58622000  0.24045400  0.58185500  1
  Cu  Cu14  1  0.41378000  0.25954600  0.08185500  1
  Cu  Cu15  1  0.08622000  0.75954600  0.41814500  1
  Cu  Cu16  1  0.08622000  0.25954600  0.08185500  1
  Cu  Cu17  1  0.41378000  0.75954600  0.41814500  1
  Cu  Cu18  1  0.58622000  0.74045400  0.91814500  1
  Cu  Cu19  1  0.91378000  0.24045400  0.58185500  1
  C  C20  1  0.75000000  0.80732700  0.93381300  1
  C  C21  1  0.75000000  0.30732700  0.56618700  1
  C  C22  1  0.25000000  0.19267300  0.06618700  1
  C  C23  1  0.25000000  0.69267300  0.43381300  1
  C  C24  1  0.91388200  0.60739600  0.81500000  1
  C  C25  1  0.58611800  0.10739600  0.68500000  1
  C  C26  1  0.41388200  0.39260400  0.18500000  1
  C  C27  1  0.08611800  0.89260400  0.31500000  1
  C  C28  1  0.08611800  0.39260400  0.18500000  1
  C  C29  1  0.41388200  0.89260400  0.31500000  1
  C  C30  1  0.58611800  0.60739600  0.81500000  1
  C  C31  1  0.91388200  0.10739600  0.68500000  1
  C  C32  1  0.02660700  0.87478500  0.86768500  1
  C  C33  1  0.47339300  0.37478500  0.63231500  1
  C  C34  1  0.52660700  0.12521500  0.13231500  1
  C  C35  1  0.97339300  0.62521500  0.36768500  1
  C  C36  1  0.97339300  0.12521500  0.13231500  1
  C  C37  1  0.52660700  0.62521500  0.36768500  1
  C  C38  1  0.47339300  0.87478500  0.86768500  1
  C  C39  1  0.02660700  0.37478500  0.63231500  1
  C  C40  1  0.99555500  0.69630000  0.05790800  1
  C  C41  1  0.50444500  0.19630000  0.44209200  1
  C  C42  1  0.49555500  0.30370000  0.94209200  1
  C  C43  1  0.00444500  0.80370000  0.55790800  1
  C  C44  1  0.00444500  0.30370000  0.94209200  1
  C  C45  1  0.49555500  0.80370000  0.55790800  1
  C  C46  1  0.50444500  0.69630000  0.05790800  1
  C  C47  1  0.99555500  0.19630000  0.44209200  1
  C  C48  1  0.75000000  0.46916200  0.17171200  1
  C  C49  1  0.75000000  0.96916200  0.32828800  1
  C  C50  1  0.25000000  0.53083800  0.82828800  1
  C  C51  1  0.25000000  0.03083800  0.67171200  1
