# generated using pymatgen
data_Cu2Ni2C9
_symmetry_space_group_name_H-M   'P 1'
_cell_length_a   6.58182457
_cell_length_b   6.58182457
_cell_length_c   13.79498364
_cell_angle_alpha   73.05355830
_cell_angle_beta   73.05355830
_cell_angle_gamma   47.73589242
_symmetry_Int_Tables_number   1
_chemical_formula_structural   Cu2Ni2C9
_chemical_formula_sum   'Cu4 Ni4 C18'
_cell_volume   419.19205129
_cell_formula_units_Z   2
loop_
 _symmetry_equiv_pos_site_id
 _symmetry_equiv_pos_as_xyz
  1  'x, y, z'
loop_
 _atom_site_type_symbol
 _atom_site_label
 _atom_site_symmetry_multiplicity
 _atom_site_fract_x
 _atom_site_fract_y
 _atom_site_fract_z
 _atom_site_occupancy
  Ni  Ni0  1  0.15588800  0.54475000  0.59787700  1
  Ni  Ni1  1  0.45525000  0.84411200  0.90212300  1
  Ni  Ni2  1  0.84411200  0.45525000  0.40212300  1
  Ni  Ni3  1  0.54475000  0.15588800  0.09787700  1
  Cu  Cu4  1  0.33738100  0.90846400  0.62384300  1
  Cu  Cu5  1  0.09153600  0.66261900  0.87615700  1
  Cu  Cu6  1  0.66261900  0.09153600  0.37615700  1
  Cu  Cu7  1  0.90846400  0.33738100  0.12384300  1
  C  C8  1  0.29453800  0.60575400  0.66453300  1
  C  C9  1  0.39424600  0.70546200  0.83546700  1
  C  C10  1  0.70546200  0.39424600  0.33546700  1
  C  C11  1  0.60575400  0.29453800  0.16453300  1
  C  C12  1  0.87231900  0.61500700  0.66395500  1
  C  C13  1  0.38499300  0.12768100  0.83604500  1
  C  C14  1  0.12768100  0.38499300  0.33604500  1
  C  C15  1  0.61500700  0.87231900  0.16395500  1
  C  C16  1  0.39273300  0.20241800  0.57460400  1
  C  C17  1  0.79758200  0.60726700  0.92539600  1
  C  C18  1  0.60726700  0.79758200  0.42539600  1
  C  C19  1  0.20241800  0.39273300  0.07460400  1
  C  C20  1  0.08983000  0.73703800  0.48800400  1
  C  C21  1  0.26296200  0.91017000  0.01199600  1
  C  C22  1  0.91017000  0.26296200  0.51199600  1
  C  C23  1  0.73703800  0.08983000  0.98800400  1
  C  C24  1  0.89540100  0.10459900  0.75000000  1
  C  C25  1  0.10459900  0.89540100  0.25000000  1
