# generated using pymatgen
data_Cu4(NiC5)3
_symmetry_space_group_name_H-M   'P 1'
_cell_length_a   13.48098705
_cell_length_b   13.71779171
_cell_length_c   14.02695693
_cell_angle_alpha   90.00000000
_cell_angle_beta   90.00000000
_cell_angle_gamma   91.92236968
_symmetry_Int_Tables_number   1
_chemical_formula_structural   Cu4(NiC5)3
_chemical_formula_sum   'Cu32 Ni24 C120'
_cell_volume   2592.53642825
_cell_formula_units_Z   8
loop_
 _symmetry_equiv_pos_site_id
 _symmetry_equiv_pos_as_xyz
  1  'x, y, z'
loop_
 _atom_site_type_symbol
 _atom_site_label
 _atom_site_symmetry_multiplicity
 _atom_site_fract_x
 _atom_site_fract_y
 _atom_site_fract_z
 _atom_site_occupancy
  C  C0  1  0.86622797  0.45054759  0.60697837  1
  C  C1  1  0.63377203  0.54945241  0.10697837  1
  C  C2  1  0.13377203  0.54945241  0.39302163  1
  C  C3  1  0.36622797  0.45054759  0.89302163  1
  C  C4  1  0.62990776  0.05876528  0.59091053  1
  C  C5  1  0.87009224  0.94123472  0.09091053  1
  C  C6  1  0.37009224  0.94123472  0.40908947  1
  C  C7  1  0.12990776  0.05876528  0.90908947  1
  Ni  Ni8  1  0.55778953  0.84896210  0.51275776  1
  Ni  Ni9  1  0.94221047  0.15103790  0.01275776  1
  Ni  Ni10  1  0.44221047  0.15103790  0.48724224  1
  Ni  Ni11  1  0.05778953  0.84896210  0.98724224  1
  Ni  Ni12  1  0.94482111  0.65523015  0.51771173  1
  Ni  Ni13  1  0.55517889  0.34476985  0.01771173  1
  Ni  Ni14  1  0.05517889  0.34476985  0.48228827  1
  Ni  Ni15  1  0.44482111  0.65523015  0.98228827  1
  Ni  Ni16  1  0.73762081  0.25448671  0.70192905  1
  Ni  Ni17  1  0.76237919  0.74551329  0.20192905  1
  Ni  Ni18  1  0.26237919  0.74551329  0.29807095  1
  Ni  Ni19  1  0.23762081  0.25448671  0.79807095  1
  Ni  Ni20  1  0.53139076  0.02536681  0.84248579  1
  Ni  Ni21  1  0.96860924  0.97463319  0.34248579  1
  Ni  Ni22  1  0.46860924  0.97463319  0.15751421  1
  Ni  Ni23  1  0.03139076  0.02536681  0.65751421  1
  Ni  Ni24  1  0.56848599  0.53628187  0.34959308  1
  Ni  Ni25  1  0.93151401  0.46371813  0.84959308  1
  Ni  Ni26  1  0.43151401  0.46371813  0.65040692  1
  Ni  Ni27  1  0.06848599  0.53628187  0.15040692  1
  Ni  Ni28  1  0.73172424  0.74939074  0.77120548  1
  Ni  Ni29  1  0.76827576  0.25060926  0.27120548  1
  Ni  Ni30  1  0.26827576  0.25060926  0.22879452  1
  Ni  Ni31  1  0.23172424  0.74939074  0.72879452  1
  Cu  Cu32  1  0.62317657  0.35539599  0.48714407  1
  Cu  Cu33  1  0.87682343  0.64460401  0.98714407  1
  Cu  Cu34  1  0.37682343  0.64460401  0.51285593  1
  Cu  Cu35  1  0.12317657  0.35539599  0.01285593  1
  Cu  Cu36  1  0.83905336  0.50488569  0.31519086  1
  Cu  Cu37  1  0.66094664  0.49511431  0.81519086  1
  Cu  Cu38  1  0.16094664  0.49511431  0.68480914  1
  Cu  Cu39  1  0.33905336  0.50488569  0.18480914  1
  Cu  Cu40  1  0.85897432  0.16289160  0.49109697  1
  Cu  Cu41  1  0.64102568  0.83710840  0.99109697  1
  Cu  Cu42  1  0.14102568  0.83710840  0.50890303  1
  Cu  Cu43  1  0.35897432  0.16289160  0.00890303  1
  Cu  Cu44  1  0.66804499  0.63608885  0.54718221  1
  Cu  Cu45  1  0.83195501  0.36391115  0.04718221  1
  Cu  Cu46  1  0.33195501  0.36391115  0.45281779  1
  Cu  Cu47  1  0.16804499  0.63608885  0.95281779  1
  Cu  Cu48  1  0.83342566  0.86852058  0.54575460  1
  Cu  Cu49  1  0.66657434  0.13147942  0.04575460  1
  Cu  Cu50  1  0.16657434  0.13147942  0.45424540  1
  Cu  Cu51  1  0.33342566  0.86852058  0.95424540  1
  Cu  Cu52  1  0.98563239  0.25468551  0.75150118  1
  Cu  Cu53  1  0.51436761  0.74531449  0.25150118  1
  Cu  Cu54  1  0.01436761  0.74531449  0.24849882  1
  Cu  Cu55  1  0.48563239  0.25468551  0.74849882  1
  Cu  Cu56  1  0.77229561  0.01126076  0.79054205  1
  Cu  Cu57  1  0.72770439  0.98873924  0.29054205  1
  Cu  Cu58  1  0.22770439  0.98873924  0.20945795  1
  Cu  Cu59  1  0.27229561  0.01126076  0.70945795  1
  Cu  Cu60  1  0.49167565  0.77837301  0.75025089  1
  Cu  Cu61  1  0.00832435  0.22162699  0.25025089  1
  Cu  Cu62  1  0.50832435  0.22162699  0.24974911  1
  Cu  Cu63  1  0.99167565  0.77837301  0.74974911  1
  C  C64  1  0.83714394  0.68462054  0.49761993  1
  C  C65  1  0.66285606  0.31537946  0.99761993  1
  C  C66  1  0.16285606  0.31537946  0.50238007  1
  C  C67  1  0.33714394  0.68462054  0.00238007  1
  C  C68  1  0.66463595  0.81415083  0.49621322  1
  C  C69  1  0.83536405  0.18584917  0.99621322  1
  C  C70  1  0.33536405  0.18584917  0.50378678  1
  C  C71  1  0.16463595  0.81415083  0.00378678  1
  C  C72  1  0.49756176  0.76464355  0.56220427  1
  C  C73  1  0.00243824  0.23535645  0.06220427  1
  C  C74  1  0.50243824  0.23535645  0.43779573  1
  C  C75  1  0.99756176  0.76464355  0.93779573  1
  C  C76  1  0.51090926  0.87957186  0.41631848  1
  C  C77  1  0.98909074  0.12042814  0.91631848  1
  C  C78  1  0.48909074  0.12042814  0.58368152  1
  C  C79  1  0.01090926  0.87957186  0.08368152  1
  C  C80  1  0.79298835  0.18513563  0.76808138  1
  C  C81  1  0.70701165  0.81486437  0.26808138  1
  C  C82  1  0.20701165  0.81486437  0.23191862  1
  C  C83  1  0.29298835  0.18513563  0.73191862  1
  C  C84  1  0.99927873  0.74544537  0.56735899  1
  C  C85  1  0.50072127  0.25455463  0.06735899  1
  C  C86  1  0.00072127  0.25455463  0.43264101  1
  C  C87  1  0.49927873  0.74544537  0.93264101  1
  C  C88  1  0.67298674  0.19691166  0.62526981  1
  C  C89  1  0.82701326  0.80308834  0.12526981  1
  C  C90  1  0.32701326  0.80308834  0.37473019  1
  C  C91  1  0.17298674  0.19691166  0.87473019  1
  C  C92  1  0.55944704  0.93445067  0.58767545  1
  C  C93  1  0.94055296  0.06554933  0.08767545  1
  C  C94  1  0.44055296  0.06554933  0.41232455  1
  C  C95  1  0.05944704  0.93445067  0.91232455  1
  C  C96  1  0.99526648  0.62945153  0.42202600  1
  C  C97  1  0.50473352  0.37054847  0.92202600  1
  C  C98  1  0.00473352  0.37054847  0.57797400  1
  C  C99  1  0.49526648  0.62945153  0.07797400  1
  C  C100  1  0.83537884  0.43762066  0.49166879  1
  C  C101  1  0.66462116  0.56237934  0.99166879  1
  C  C102  1  0.16462116  0.56237934  0.50833121  1
  C  C103  1  0.33537884  0.43762066  0.00833121  1
  C  C104  1  0.55367752  0.55611894  0.24128782  1
  C  C105  1  0.94632248  0.44388106  0.74128782  1
  C  C106  1  0.44632248  0.44388106  0.75871218  1
  C  C107  1  0.05367752  0.55611894  0.25871218  1
  C  C108  1  0.59851348  0.05509593  0.75564887  1
  C  C109  1  0.90148652  0.94490407  0.25564887  1
  C  C110  1  0.40148652  0.94490407  0.24435113  1
  C  C111  1  0.09851348  0.05509593  0.74435113  1
  C  C112  1  0.52945857  0.62798415  0.40194000  1
  C  C113  1  0.97054143  0.37201585  0.90194000  1
  C  C114  1  0.47054143  0.37201585  0.59806000  1
  C  C115  1  0.02945857  0.62798415  0.09806000  1
  C  C116  1  0.67929399  0.52726609  0.37951467  1
  C  C117  1  0.82070601  0.47273391  0.87951467  1
  C  C118  1  0.32070601  0.47273391  0.62048533  1
  C  C119  1  0.17929399  0.52726609  0.12048533  1
  C  C120  1  0.65431248  0.07185752  0.47686494  1
  C  C121  1  0.84568752  0.92814248  0.97686494  1
  C  C122  1  0.34568752  0.92814248  0.52313506  1
  C  C123  1  0.15431248  0.07185752  0.02313506  1
  C  C124  1  0.76330921  0.50003429  0.65546415  1
  C  C125  1  0.73669079  0.49996571  0.15546415  1
  C  C126  1  0.23669079  0.49996571  0.34453585  1
  C  C127  1  0.26330921  0.50003429  0.84453585  1
  C  C128  1  0.66741052  0.83613899  0.80625767  1
  C  C129  1  0.83258948  0.16386101  0.30625767  1
  C  C130  1  0.33258948  0.16386101  0.19374233  1
  C  C131  1  0.16741052  0.83613899  0.69374233  1
  C  C132  1  0.94852575  0.57014849  0.59199290  1
  C  C133  1  0.55147425  0.42985151  0.09199290  1
  C  C134  1  0.05147425  0.42985151  0.40800710  1
  C  C135  1  0.44852575  0.57014849  0.90800710  1
  C  C136  1  0.82214075  0.31210422  0.64562275  1
  C  C137  1  0.67785925  0.68789578  0.14562275  1
  C  C138  1  0.17785925  0.68789578  0.35437725  1
  C  C139  1  0.32214075  0.31210422  0.85437725  1
  C  C140  1  0.66656267  0.32231904  0.75339658  1
  C  C141  1  0.83343733  0.67768096  0.25339658  1
  C  C142  1  0.33343733  0.67768096  0.24660342  1
  C  C143  1  0.16656267  0.32231904  0.74660342  1
  C  C144  1  0.47845163  0.11767913  0.87781813  1
  C  C145  1  0.02154837  0.88232087  0.37781813  1
  C  C146  1  0.52154837  0.88232087  0.12218187  1
  C  C147  1  0.97845163  0.11767913  0.62218187  1
  C  C148  1  0.45433226  0.94317800  0.81460682  1
  C  C149  1  0.04566774  0.05682200  0.31460682  1
  C  C150  1  0.54566774  0.05682200  0.18539318  1
  C  C151  1  0.95433226  0.94317800  0.68539318  1
  C  C152  1  0.74398998  0.01066485  0.62785019  1
  C  C153  1  0.75601002  0.98933515  0.12785019  1
  C  C154  1  0.25601002  0.98933515  0.37214981  1
  C  C155  1  0.24398998  0.01066485  0.87214981  1
  C  C156  1  0.51257347  0.44090131  0.38141276  1
  C  C157  1  0.98742653  0.55909869  0.88141276  1
  C  C158  1  0.48742653  0.55909869  0.61858724  1
  C  C159  1  0.01257347  0.44090131  0.11858724  1
  C  C160  1  0.60135420  0.98999458  0.92383614  1
  C  C161  1  0.89864580  0.01000542  0.42383614  1
  C  C162  1  0.39864580  0.01000542  0.07616386  1
  C  C163  1  0.10135420  0.98999458  0.57616386  1
  C  C164  1  0.65726237  0.67176463  0.72724955  1
  C  C165  1  0.84273763  0.32823537  0.22724955  1
  C  C166  1  0.34273763  0.32823537  0.27275045  1
  C  C167  1  0.15726237  0.67176463  0.77275045  1
  C  C168  1  0.80698495  0.78753679  0.69463054  1
  C  C169  1  0.69301505  0.21246321  0.19463054  1
  C  C170  1  0.19301505  0.21246321  0.30536946  1
  C  C171  1  0.30698495  0.78753679  0.80536946  1
  C  C172  1  0.79048775  0.70760256  0.85454573  1
  C  C173  1  0.70951225  0.29239744  0.35454573  1
  C  C174  1  0.20951225  0.29239744  0.14545427  1
  C  C175  1  0.29048775  0.70760256  0.64545427  1
