# generated using pymatgen
data_CuNi7C6
_symmetry_space_group_name_H-M   'P 1'
_cell_length_a   8.08677700
_cell_length_b   6.33944500
_cell_length_c   10.70788200
_cell_angle_alpha   90.00000000
_cell_angle_beta   90.00000000
_cell_angle_gamma   90.00000000
_symmetry_Int_Tables_number   1
_chemical_formula_structural   CuNi7C6
_chemical_formula_sum   'Cu4 Ni28 C24'
_cell_volume   548.94683087
_cell_formula_units_Z   4
loop_
 _symmetry_equiv_pos_site_id
 _symmetry_equiv_pos_as_xyz
  1  'x, y, z'
loop_
 _atom_site_type_symbol
 _atom_site_label
 _atom_site_symmetry_multiplicity
 _atom_site_fract_x
 _atom_site_fract_y
 _atom_site_fract_z
 _atom_site_occupancy
  Ni  Ni0  1  0.00806800  0.68308400  0.94680800  1
  Ni  Ni1  1  0.49193200  0.81691600  0.44680800  1
  Ni  Ni2  1  0.50806800  0.81691600  0.05319200  1
  Ni  Ni3  1  0.99193200  0.68308400  0.55319200  1
  Ni  Ni4  1  0.99193200  0.31691600  0.05319200  1
  Ni  Ni5  1  0.50806800  0.18308400  0.55319200  1
  Ni  Ni6  1  0.49193200  0.18308400  0.94680800  1
  Ni  Ni7  1  0.00806800  0.31691600  0.44680800  1
  Ni  Ni8  1  0.26577100  0.63673200  0.67365000  1
  Ni  Ni9  1  0.23422900  0.86326800  0.17365000  1
  Ni  Ni10  1  0.76577100  0.86326800  0.32635000  1
  Ni  Ni11  1  0.73422900  0.63673200  0.82635000  1
  Ni  Ni12  1  0.73422900  0.36326800  0.32635000  1
  Ni  Ni13  1  0.76577100  0.13673200  0.82635000  1
  Ni  Ni14  1  0.23422900  0.13673200  0.67365000  1
  Ni  Ni15  1  0.26577100  0.36326800  0.17365000  1
  Ni  Ni16  1  0.31590700  0.59394400  0.92268300  1
  Ni  Ni17  1  0.18409300  0.90605600  0.42268300  1
  Ni  Ni18  1  0.81590700  0.90605600  0.07731700  1
  Ni  Ni19  1  0.68409300  0.59394400  0.57731700  1
  Ni  Ni20  1  0.68409300  0.40605600  0.07731700  1
  Ni  Ni21  1  0.81590700  0.09394400  0.57731700  1
  Ni  Ni22  1  0.18409300  0.09394400  0.92268300  1
  Ni  Ni23  1  0.31590700  0.40605600  0.42268300  1
  Ni  Ni24  1  0.00000000  0.39633100  0.75000000  1
  Ni  Ni25  1  0.50000000  0.10366900  0.25000000  1
  Ni  Ni26  1  0.00000000  0.60366900  0.25000000  1
  Ni  Ni27  1  0.50000000  0.89633100  0.75000000  1
  Cu  Cu28  1  0.00000000  0.90023600  0.75000000  1
  Cu  Cu29  1  0.50000000  0.59976400  0.25000000  1
  Cu  Cu30  1  0.00000000  0.09976400  0.25000000  1
  Cu  Cu31  1  0.50000000  0.40023600  0.75000000  1
  C  C32  1  0.14440700  0.58730800  0.81669100  1
  C  C33  1  0.35559300  0.91269200  0.31669100  1
  C  C34  1  0.64440700  0.91269200  0.18330900  1
  C  C35  1  0.85559300  0.58730800  0.68330900  1
  C  C36  1  0.85559300  0.41269200  0.18330900  1
  C  C37  1  0.64440700  0.08730800  0.68330900  1
  C  C38  1  0.35559300  0.08730800  0.81669100  1
  C  C39  1  0.14440700  0.41269200  0.31669100  1
  C  C40  1  0.20739200  0.62538200  0.51045100  1
  C  C41  1  0.29260800  0.87461800  0.01045100  1
  C  C42  1  0.70739200  0.87461800  0.48954900  1
  C  C43  1  0.79260800  0.62538200  0.98954900  1
  C  C44  1  0.79260800  0.37461800  0.48954900  1
  C  C45  1  0.70739200  0.12538200  0.98954900  1
  C  C46  1  0.29260800  0.12538200  0.51045100  1
  C  C47  1  0.20739200  0.37461800  0.01045100  1
  C  C48  1  0.47494700  0.72334600  0.61208700  1
  C  C49  1  0.02505300  0.77665400  0.11208700  1
  C  C50  1  0.97494700  0.77665400  0.38791300  1
  C  C51  1  0.52505300  0.72334600  0.88791300  1
  C  C52  1  0.52505300  0.27665400  0.38791300  1
  C  C53  1  0.97494700  0.22334600  0.88791300  1
  C  C54  1  0.02505300  0.22334600  0.61208700  1
  C  C55  1  0.47494700  0.27665400  0.11208700  1
