# generated using pymatgen
data_Cu15Ni2C3
_symmetry_space_group_name_H-M   'P 1'
_cell_length_a   7.00230557
_cell_length_b   7.00230557
_cell_length_c   7.00230567
_cell_angle_alpha   62.38116914
_cell_angle_beta   62.38116914
_cell_angle_gamma   62.38116709
_symmetry_Int_Tables_number   1
_chemical_formula_structural   Cu15Ni2C3
_chemical_formula_sum   'Cu15 Ni2 C3'
_cell_volume   255.67176974
_cell_formula_units_Z   1
loop_
 _symmetry_equiv_pos_site_id
 _symmetry_equiv_pos_as_xyz
  1  'x, y, z'
loop_
 _atom_site_type_symbol
 _atom_site_label
 _atom_site_symmetry_multiplicity
 _atom_site_fract_x
 _atom_site_fract_y
 _atom_site_fract_z
 _atom_site_occupancy
  C  C0  1  0.00000000  0.00000000  0.50000000  1
  C  C1  1  0.50000000  0.00000000  0.00000000  1
  C  C2  1  0.00000000  0.50000000  0.00000000  1
  Ni  Ni3  1  0.68871100  0.68871100  0.68871100  1
  Ni  Ni4  1  0.31128900  0.31128900  0.31128900  1
  Cu  Cu5  1  0.60271100  0.60271100  0.60271100  1
  Cu  Cu6  1  0.39728900  0.39728900  0.39728900  1
  Cu  Cu7  1  0.83203800  0.49588400  0.83203800  1
  Cu  Cu8  1  0.83203800  0.83203800  0.49588400  1
  Cu  Cu9  1  0.49588400  0.83203800  0.83203800  1
  Cu  Cu10  1  0.16796200  0.50411600  0.16796200  1
  Cu  Cu11  1  0.16796200  0.16796200  0.50411600  1
  Cu  Cu12  1  0.50411600  0.16796200  0.16796200  1
  Cu  Cu13  1  0.75787400  0.09651300  0.75787400  1
  Cu  Cu14  1  0.75787400  0.75787400  0.09651300  1
  Cu  Cu15  1  0.09651300  0.75787400  0.75787400  1
  Cu  Cu16  1  0.24212600  0.90348700  0.24212600  1
  Cu  Cu17  1  0.24212600  0.24212600  0.90348700  1
  Cu  Cu18  1  0.90348700  0.24212600  0.24212600  1
  Cu  Cu19  1  0.00000000  0.00000000  0.00000000  1
