# generated using pymatgen
data_Cu(NiC10)2
_symmetry_space_group_name_H-M   'P 1'
_cell_length_a   3.96007100
_cell_length_b   12.44021200
_cell_length_c   12.53131500
_cell_angle_alpha   90.00000000
_cell_angle_beta   90.00000000
_cell_angle_gamma   90.00000000
_symmetry_Int_Tables_number   1
_chemical_formula_structural   Cu(NiC10)2
_chemical_formula_sum   'Cu2 Ni4 C40'
_cell_volume   617.34424069
_cell_formula_units_Z   2
loop_
 _symmetry_equiv_pos_site_id
 _symmetry_equiv_pos_as_xyz
  1  'x, y, z'
loop_
 _atom_site_type_symbol
 _atom_site_label
 _atom_site_symmetry_multiplicity
 _atom_site_fract_x
 _atom_site_fract_y
 _atom_site_fract_z
 _atom_site_occupancy
  Ni  Ni0  1  0.00000000  0.33006100  0.16833600  1
  Ni  Ni1  1  0.00000000  0.66993900  0.83166400  1
  Ni  Ni2  1  0.00000000  0.83006100  0.33166400  1
  Ni  Ni3  1  0.00000000  0.16993900  0.66833600  1
  Cu  Cu4  1  0.00000000  0.50000000  0.50000000  1
  Cu  Cu5  1  0.00000000  0.00000000  0.00000000  1
  C  C6  1  0.50000000  0.28861100  0.42148400  1
  C  C7  1  0.50000000  0.71138900  0.57851600  1
  C  C8  1  0.50000000  0.78861100  0.07851600  1
  C  C9  1  0.50000000  0.21138900  0.92148400  1
  C  C10  1  0.50000000  0.58028800  0.28885100  1
  C  C11  1  0.50000000  0.41971200  0.71114900  1
  C  C12  1  0.50000000  0.91971200  0.78885100  1
  C  C13  1  0.50000000  0.08028800  0.21114900  1
  C  C14  1  0.50000000  0.00000000  0.50000000  1
  C  C15  1  0.50000000  0.50000000  0.00000000  1
  C  C16  1  0.50000000  0.33985000  0.00701800  1
  C  C17  1  0.50000000  0.66015000  0.99298200  1
  C  C18  1  0.50000000  0.83985000  0.49298200  1
  C  C19  1  0.50000000  0.16015000  0.50701800  1
  C  C20  1  0.50000000  0.98696200  0.33957500  1
  C  C21  1  0.50000000  0.01303800  0.66042500  1
  C  C22  1  0.50000000  0.51303800  0.83957500  1
  C  C23  1  0.50000000  0.48696200  0.16042500  1
  C  C24  1  0.00000000  0.30304800  0.42211400  1
  C  C25  1  0.00000000  0.69695200  0.57788600  1
  C  C26  1  0.00000000  0.80304800  0.07788600  1
  C  C27  1  0.00000000  0.19695200  0.92211400  1
  C  C28  1  0.00000000  0.57979700  0.30040100  1
  C  C29  1  0.00000000  0.42020300  0.69959900  1
  C  C30  1  0.00000000  0.92020300  0.80040100  1
  C  C31  1  0.00000000  0.07979700  0.19959900  1
  C  C32  1  0.50000000  0.43830800  0.36866600  1
  C  C33  1  0.50000000  0.56169200  0.63133400  1
  C  C34  1  0.50000000  0.93830800  0.13133400  1
  C  C35  1  0.50000000  0.06169200  0.86866600  1
  C  C36  1  0.50000000  0.63438300  0.43725100  1
  C  C37  1  0.50000000  0.36561700  0.56274900  1
  C  C38  1  0.50000000  0.86561700  0.93725100  1
  C  C39  1  0.50000000  0.13438300  0.06274900  1
  C  C40  1  0.50000000  0.22849800  0.27281200  1
  C  C41  1  0.50000000  0.77150200  0.72718800  1
  C  C42  1  0.50000000  0.72849800  0.22718800  1
  C  C43  1  0.50000000  0.27150200  0.77281200  1
  C  C44  1  0.00000000  0.00000000  0.50000000  1
  C  C45  1  0.00000000  0.50000000  0.00000000  1
