# generated using pymatgen
data_Cu4NiC4
_symmetry_space_group_name_H-M   'P 1'
_cell_length_a   11.88158800
_cell_length_b   11.88158800
_cell_length_c   11.88158800
_cell_angle_alpha   90.00000000
_cell_angle_beta   90.00000000
_cell_angle_gamma   90.00000000
_symmetry_Int_Tables_number   1
_chemical_formula_structural   Cu4NiC4
_chemical_formula_sum   'Cu32 Ni8 C32'
_cell_volume   1677.34912616
_cell_formula_units_Z   8
loop_
 _symmetry_equiv_pos_site_id
 _symmetry_equiv_pos_as_xyz
  1  'x, y, z'
loop_
 _atom_site_type_symbol
 _atom_site_label
 _atom_site_symmetry_multiplicity
 _atom_site_fract_x
 _atom_site_fract_y
 _atom_site_fract_z
 _atom_site_occupancy
  C  C0  1  0.35436500  0.35436500  0.35436500  1
  C  C1  1  0.64563500  0.64563500  0.35436500  1
  C  C2  1  0.64563500  0.35436500  0.64563500  1
  C  C3  1  0.85436500  0.85436500  0.85436500  1
  C  C4  1  0.35436500  0.64563500  0.64563500  1
  C  C5  1  0.14563500  0.14563500  0.85436500  1
  C  C6  1  0.85436500  0.14563500  0.14563500  1
  C  C7  1  0.14563500  0.85436500  0.14563500  1
  C  C8  1  0.09482300  0.13305900  0.35466800  1
  C  C9  1  0.90517700  0.86694100  0.35466800  1
  C  C10  1  0.90517700  0.13305900  0.64533200  1
  C  C11  1  0.35466800  0.09482300  0.13305900  1
  C  C12  1  0.63305900  0.59482300  0.85466800  1
  C  C13  1  0.09482300  0.86694100  0.64533200  1
  C  C14  1  0.35466800  0.90517700  0.86694100  1
  C  C15  1  0.36694100  0.40517700  0.85466800  1
  C  C16  1  0.64533200  0.90517700  0.13305900  1
  C  C17  1  0.63305900  0.40517700  0.14533200  1
  C  C18  1  0.64533200  0.09482300  0.86694100  1
  C  C19  1  0.36694100  0.59482300  0.14533200  1
  C  C20  1  0.13305900  0.35466800  0.09482300  1
  C  C21  1  0.59482300  0.85466800  0.63305900  1
  C  C22  1  0.13305900  0.64533200  0.90517700  1
  C  C23  1  0.40517700  0.14533200  0.63305900  1
  C  C24  1  0.86694100  0.64533200  0.09482300  1
  C  C25  1  0.59482300  0.14533200  0.36694100  1
  C  C26  1  0.86694100  0.35466800  0.90517700  1
  C  C27  1  0.40517700  0.85466800  0.36694100  1
  C  C28  1  0.85466800  0.63305900  0.59482300  1
  C  C29  1  0.85466800  0.36694100  0.40517700  1
  C  C30  1  0.14533200  0.36694100  0.59482300  1
  C  C31  1  0.14533200  0.63305900  0.40517700  1
  Ni  Ni32  1  0.25000000  0.00000000  0.50000000  1
  Ni  Ni33  1  0.75000000  0.00000000  0.50000000  1
  Ni  Ni34  1  0.50000000  0.25000000  0.00000000  1
  Ni  Ni35  1  0.50000000  0.75000000  0.00000000  1
  Ni  Ni36  1  0.00000000  0.50000000  0.25000000  1
  Ni  Ni37  1  0.00000000  0.50000000  0.75000000  1
  Ni  Ni38  1  0.00000000  0.00000000  0.00000000  1
  Ni  Ni39  1  0.50000000  0.50000000  0.50000000  1
  Cu  Cu40  1  0.10802800  0.38163000  0.35345400  1
  Cu  Cu41  1  0.89197200  0.61837000  0.35345400  1
  Cu  Cu42  1  0.89197200  0.38163000  0.64654600  1
  Cu  Cu43  1  0.35345400  0.10802800  0.38163000  1
  Cu  Cu44  1  0.88163000  0.60802800  0.85345400  1
  Cu  Cu45  1  0.10802800  0.61837000  0.64654600  1
  Cu  Cu46  1  0.35345400  0.89197200  0.61837000  1
  Cu  Cu47  1  0.11837000  0.39197200  0.85345400  1
  Cu  Cu48  1  0.64654600  0.89197200  0.38163000  1
  Cu  Cu49  1  0.88163000  0.39197200  0.14654600  1
  Cu  Cu50  1  0.64654600  0.10802800  0.61837000  1
  Cu  Cu51  1  0.11837000  0.60802800  0.14654600  1
  Cu  Cu52  1  0.38163000  0.35345400  0.10802800  1
  Cu  Cu53  1  0.60802800  0.85345400  0.88163000  1
  Cu  Cu54  1  0.38163000  0.64654600  0.89197200  1
  Cu  Cu55  1  0.39197200  0.14654600  0.88163000  1
  Cu  Cu56  1  0.61837000  0.64654600  0.10802800  1
  Cu  Cu57  1  0.60802800  0.14654600  0.11837000  1
  Cu  Cu58  1  0.61837000  0.35345400  0.89197200  1
  Cu  Cu59  1  0.39197200  0.85345400  0.11837000  1
  Cu  Cu60  1  0.85345400  0.88163000  0.60802800  1
  Cu  Cu61  1  0.85345400  0.11837000  0.39197200  1
  Cu  Cu62  1  0.14654600  0.11837000  0.60802800  1
  Cu  Cu63  1  0.14654600  0.88163000  0.39197200  1
  Cu  Cu64  1  0.10975300  0.10975300  0.10975300  1
  Cu  Cu65  1  0.89024700  0.89024700  0.10975300  1
  Cu  Cu66  1  0.89024700  0.10975300  0.89024700  1
  Cu  Cu67  1  0.60975300  0.60975300  0.60975300  1
  Cu  Cu68  1  0.10975300  0.89024700  0.89024700  1
  Cu  Cu69  1  0.39024700  0.39024700  0.60975300  1
  Cu  Cu70  1  0.60975300  0.39024700  0.39024700  1
  Cu  Cu71  1  0.39024700  0.60975300  0.39024700  1
