# generated using pymatgen
data_Cu2Ni2C29
_symmetry_space_group_name_H-M   'P 1'
_cell_length_a   5.89749086
_cell_length_b   7.70550252
_cell_length_c   10.40101808
_cell_angle_alpha   90.24071051
_cell_angle_beta   89.81889998
_cell_angle_gamma   100.58340803
_symmetry_Int_Tables_number   1
_chemical_formula_structural   Cu2Ni2C29
_chemical_formula_sum   'Cu2 Ni2 C29'
_cell_volume   464.60882025
_cell_formula_units_Z   1
loop_
 _symmetry_equiv_pos_site_id
 _symmetry_equiv_pos_as_xyz
  1  'x, y, z'
loop_
 _atom_site_type_symbol
 _atom_site_label
 _atom_site_symmetry_multiplicity
 _atom_site_fract_x
 _atom_site_fract_y
 _atom_site_fract_z
 _atom_site_occupancy
  C  C0  1  0.64370313  0.33063266  0.06631681  1
  Ni  Ni1  1  0.43680431  0.12827220  0.32071711  1
  Ni  Ni2  1  0.06629993  0.85730787  0.81895788  1
  Cu  Cu3  1  0.56920165  0.87343476  0.68299426  1
  Cu  Cu4  1  0.94356789  0.12218892  0.18410956  1
  C  C5  1  0.87436857  0.51705565  0.36851776  1
  C  C6  1  0.59206592  0.54862733  0.84538980  1
  C  C7  1  0.11234612  0.53868603  0.64430324  1
  C  C8  1  0.32797076  0.48174908  0.17376871  1
  C  C9  1  0.59194340  0.28153857  0.60680688  1
  C  C10  1  0.92156754  0.72139300  0.10065575  1
  C  C11  1  0.43153621  0.73007507  0.40028962  1
  C  C12  1  0.10056396  0.27057440  0.88702459  1
  C  C13  1  0.64438659  0.11757535  0.70949916  1
  C  C14  1  0.85099038  0.88137347  0.20001664  1
  C  C15  1  0.37406945  0.89504668  0.30071791  1
  C  C16  1  0.13504599  0.09106842  0.79866696  1
  C  C17  1  0.84664523  0.39231957  0.53868314  1
  C  C18  1  0.67529610  0.59609912  0.03264797  1
  C  C19  1  0.17224257  0.62795974  0.46642761  1
  C  C20  1  0.35622660  0.35561037  0.96649083  1
  C  C21  1  0.69487463  0.21981439  0.23735670  1
  C  C22  1  0.77556687  0.77664470  0.78066530  1
  C  C23  1  0.27168125  0.77164452  0.72790249  1
  C  C24  1  0.23343048  0.21700564  0.22977521  1
  C  C25  1  0.45311709  0.42659408  0.68870212  1
  C  C26  1  0.02272684  0.56386675  0.19035381  1
  C  C27  1  0.55076757  0.57466578  0.31449861  1
  C  C28  1  0.99073829  0.43226263  0.81214206  1
  C  C29  1  0.41779841  0.18313477  0.48465853  1
  C  C30  1  0.11304559  0.81865499  0.98680131  1
  C  C31  1  0.63323822  0.82212735  0.51198169  1
  C  C32  1  0.89492243  0.20106713  0.00966098  1
