# generated using pymatgen
data_CuNiC7
_symmetry_space_group_name_H-M   'P 1'
_cell_length_a   5.40400600
_cell_length_b   9.52999100
_cell_length_c   18.61233600
_cell_angle_alpha   90.00000000
_cell_angle_beta   90.00000000
_cell_angle_gamma   90.00000000
_symmetry_Int_Tables_number   1
_chemical_formula_structural   CuNiC7
_chemical_formula_sum   'Cu8 Ni8 C56'
_cell_volume   958.53769650
_cell_formula_units_Z   8
loop_
 _symmetry_equiv_pos_site_id
 _symmetry_equiv_pos_as_xyz
  1  'x, y, z'
loop_
 _atom_site_type_symbol
 _atom_site_label
 _atom_site_symmetry_multiplicity
 _atom_site_fract_x
 _atom_site_fract_y
 _atom_site_fract_z
 _atom_site_occupancy
  Ni  Ni0  1  0.25557100  0.86814900  0.31316100  1
  Ni  Ni1  1  0.74442900  0.36814900  0.68683900  1
  Ni  Ni2  1  0.24442900  0.86814900  0.81316100  1
  Ni  Ni3  1  0.75557100  0.36814900  0.18683900  1
  Ni  Ni4  1  0.76015800  0.77258400  0.43337300  1
  Ni  Ni5  1  0.23984200  0.27258400  0.56662700  1
  Ni  Ni6  1  0.73984200  0.77258400  0.93337300  1
  Ni  Ni7  1  0.26015800  0.27258400  0.06662700  1
  Cu  Cu8  1  0.24798400  0.63991000  0.13272900  1
  Cu  Cu9  1  0.75201600  0.13991000  0.86727100  1
  Cu  Cu10  1  0.25201600  0.63991000  0.63272900  1
  Cu  Cu11  1  0.74798400  0.13991000  0.36727100  1
  Cu  Cu12  1  0.24875300  0.50247300  0.38371600  1
  Cu  Cu13  1  0.75124700  0.00247300  0.61628400  1
  Cu  Cu14  1  0.25124700  0.50247300  0.88371600  1
  Cu  Cu15  1  0.74875300  0.00247300  0.11628400  1
  C  C16  1  0.24129000  0.89919500  0.99335100  1
  C  C17  1  0.75871000  0.39919500  0.00664900  1
  C  C18  1  0.25871000  0.89919500  0.49335100  1
  C  C19  1  0.74129000  0.39919500  0.50664900  1
  C  C20  1  0.75185600  0.74134800  0.25470200  1
  C  C21  1  0.24814400  0.24134800  0.74529700  1
  C  C22  1  0.74814400  0.74134800  0.75470300  1
  C  C23  1  0.25185600  0.24134800  0.24529800  1
  C  C24  1  0.46788100  0.17416700  0.17918700  1
  C  C25  1  0.53211900  0.67416700  0.82081300  1
  C  C26  1  0.03211900  0.17416700  0.67918700  1
  C  C27  1  0.96788100  0.67416700  0.32081300  1
  C  C28  1  0.55151000  0.46310600  0.07632000  1
  C  C29  1  0.44849000  0.96310600  0.92368000  1
  C  C30  1  0.94849000  0.46310600  0.57632000  1
  C  C31  1  0.05151000  0.96310600  0.42368000  1
  C  C32  1  0.98637600  0.14923900  0.20784600  1
  C  C33  1  0.01362400  0.64923900  0.79215400  1
  C  C34  1  0.51362400  0.14923900  0.70784600  1
  C  C35  1  0.48637600  0.64923900  0.29215400  1
  C  C36  1  0.33094100  0.74930700  0.43318400  1
  C  C37  1  0.66905900  0.24930700  0.56681600  1
  C  C38  1  0.16905900  0.74930700  0.93318400  1
  C  C39  1  0.83094100  0.24930700  0.06681600  1
  C  C40  1  0.31395700  0.10133000  0.30849100  1
  C  C41  1  0.32058200  0.04012200  0.05451000  1
  C  C42  1  0.68604300  0.60133000  0.69150900  1
  C  C43  1  0.81395700  0.60133000  0.19150900  1
  C  C44  1  0.52908500  0.99367300  0.46007800  1
  C  C45  1  0.47091500  0.49367300  0.53992200  1
  C  C46  1  0.97091500  0.99367300  0.96007800  1
  C  C47  1  0.02908500  0.49367300  0.03992200  1
  C  C48  1  0.00178000  0.83949600  0.21117300  1
  C  C49  1  0.99822000  0.33949600  0.78882700  1
  C  C50  1  0.49821900  0.83949600  0.71117300  1
  C  C51  1  0.50178000  0.33949600  0.28882700  1
  C  C52  1  0.19526800  0.39072300  0.18408400  1
  C  C53  1  0.80473200  0.89072300  0.81591600  1
  C  C54  1  0.30473200  0.39072300  0.68408400  1
  C  C55  1  0.69526800  0.89072300  0.31591600  1
  C  C56  1  0.53291600  0.82189500  0.18989300  1
  C  C57  1  0.46708400  0.32189500  0.81010700  1
  C  C58  1  0.96708400  0.82189500  0.68989300  1
  C  C59  1  0.03291600  0.32189500  0.31010700  1
  C  C60  1  0.02934500  0.82249000  0.06084200  1
  C  C61  1  0.97065500  0.32249000  0.93915800  1
  C  C62  1  0.47065500  0.82249000  0.56084200  1
  C  C63  1  0.52934500  0.32249000  0.43915800  1
  C  C64  1  0.99018500  0.29699100  0.46467200  1
  C  C65  1  0.00981500  0.79699100  0.53532800  1
  C  C66  1  0.50981500  0.29699100  0.96467200  1
  C  C67  1  0.49018500  0.79699100  0.03532800  1
  C  C68  1  0.82058200  0.54012200  0.44549000  1
  C  C69  1  0.17941800  0.04012200  0.55451000  1
  C  C70  1  0.67941800  0.54012200  0.94549000  1
  C  C71  1  0.18604300  0.10133000  0.80849100  1
