# generated using pymatgen
data_Cu3NiC4
_symmetry_space_group_name_H-M   'P 1'
_cell_length_a   6.49112600
_cell_length_b   6.56806500
_cell_length_c   20.11879500
_cell_angle_alpha   90.00000000
_cell_angle_beta   90.00000000
_cell_angle_gamma   90.00000000
_symmetry_Int_Tables_number   1
_chemical_formula_structural   Cu3NiC4
_chemical_formula_sum   'Cu12 Ni4 C16'
_cell_volume   857.74747219
_cell_formula_units_Z   4
loop_
 _symmetry_equiv_pos_site_id
 _symmetry_equiv_pos_as_xyz
  1  'x, y, z'
loop_
 _atom_site_type_symbol
 _atom_site_label
 _atom_site_symmetry_multiplicity
 _atom_site_fract_x
 _atom_site_fract_y
 _atom_site_fract_z
 _atom_site_occupancy
  C  C0  1  0.24570400  0.49532600  0.42714500  1
  C  C1  1  0.74570400  0.00467400  0.07285500  1
  C  C2  1  0.25429600  0.99532600  0.57285500  1
  C  C3  1  0.75429600  0.50467400  0.92714500  1
  C  C4  1  0.75429600  0.50467400  0.57285500  1
  C  C5  1  0.25429600  0.99532600  0.92714500  1
  C  C6  1  0.74570400  0.00467400  0.42714500  1
  C  C7  1  0.24570400  0.49532600  0.07285500  1
  Ni  Ni8  1  0.14529900  0.59063700  0.75000000  1
  Ni  Ni9  1  0.64529900  0.90936300  0.75000000  1
  Ni  Ni10  1  0.35470100  0.09063700  0.25000000  1
  Ni  Ni11  1  0.85470100  0.40936300  0.25000000  1
  Cu  Cu12  1  0.74220400  0.51410000  0.13523600  1
  Cu  Cu13  1  0.74646000  0.52306600  0.75000000  1
  Cu  Cu14  1  0.75354000  0.02306600  0.25000000  1
  Cu  Cu15  1  0.25354000  0.47693400  0.25000000  1
  Cu  Cu16  1  0.24220400  0.98590000  0.36476400  1
  Cu  Cu17  1  0.75779600  0.01410000  0.86476400  1
  Cu  Cu18  1  0.25779600  0.48590000  0.63523600  1
  Cu  Cu19  1  0.25779600  0.48590000  0.86476400  1
  Cu  Cu20  1  0.74220400  0.51410000  0.36476400  1
  Cu  Cu21  1  0.24220400  0.98590000  0.13523600  1
  Cu  Cu22  1  0.24646000  0.97693400  0.75000000  1
  Cu  Cu23  1  0.75779600  0.01410000  0.63523600  1
  C  C24  1  0.49850500  0.25384200  0.99872400  1
  C  C25  1  0.99850500  0.24615800  0.50127600  1
  C  C26  1  0.50149500  0.74615800  0.49872400  1
  C  C27  1  0.49850500  0.25384200  0.50127600  1
  C  C28  1  0.99850500  0.24615800  0.99872400  1
  C  C29  1  0.00149500  0.75384200  0.49872400  1
  C  C30  1  0.50149500  0.74615800  0.00127600  1
  C  C31  1  0.00149500  0.75384200  0.00127600  1
