# generated using pymatgen
data_Cu2Ni3C14
_symmetry_space_group_name_H-M   'P 1'
_cell_length_a   10.36131300
_cell_length_b   10.36131300
_cell_length_c   10.36131300
_cell_angle_alpha   90.00000000
_cell_angle_beta   90.00000000
_cell_angle_gamma   90.00000000
_symmetry_Int_Tables_number   1
_chemical_formula_structural   Cu2Ni3C14
_chemical_formula_sum   'Cu8 Ni12 C56'
_cell_volume   1112.35748088
_cell_formula_units_Z   4
loop_
 _symmetry_equiv_pos_site_id
 _symmetry_equiv_pos_as_xyz
  1  'x, y, z'
loop_
 _atom_site_type_symbol
 _atom_site_label
 _atom_site_symmetry_multiplicity
 _atom_site_fract_x
 _atom_site_fract_y
 _atom_site_fract_z
 _atom_site_occupancy
  Ni  Ni0  1  0.01980300  0.21515600  0.37604400  1
  Ni  Ni1  1  0.48019700  0.78484400  0.87604400  1
  Ni  Ni2  1  0.98019700  0.71515600  0.12395600  1
  Ni  Ni3  1  0.37604400  0.01980300  0.21515600  1
  Ni  Ni4  1  0.51980300  0.28484400  0.62395600  1
  Ni  Ni5  1  0.87604400  0.48019700  0.78484400  1
  Ni  Ni6  1  0.12395600  0.98019700  0.71515600  1
  Ni  Ni7  1  0.62395600  0.51980300  0.28484400  1
  Ni  Ni8  1  0.21515600  0.37604400  0.01980300  1
  Ni  Ni9  1  0.71515600  0.12395600  0.98019700  1
  Ni  Ni10  1  0.28484400  0.62395600  0.51980300  1
  Ni  Ni11  1  0.78484400  0.87604400  0.48019700  1
  C  C12  1  0.04887000  0.04887000  0.04887000  1
  C  C13  1  0.45113000  0.95113000  0.54887000  1
  C  C14  1  0.95113000  0.54887000  0.45113000  1
  C  C15  1  0.54887000  0.45113000  0.95113000  1
  C  C16  1  0.81695900  0.81695900  0.81695900  1
  C  C17  1  0.68304100  0.18304100  0.31695900  1
  C  C18  1  0.18304100  0.31695900  0.68304100  1
  C  C19  1  0.31695900  0.68304100  0.18304100  1
  Cu  Cu20  1  0.33544200  0.33544200  0.33544200  1
  Cu  Cu21  1  0.16455800  0.66455800  0.83544200  1
  Cu  Cu22  1  0.66455800  0.83544200  0.16455800  1
  Cu  Cu23  1  0.83544200  0.16455800  0.66455800  1
  Cu  Cu24  1  0.59842800  0.59842800  0.59842800  1
  Cu  Cu25  1  0.90157200  0.40157200  0.09842800  1
  Cu  Cu26  1  0.40157200  0.09842800  0.90157200  1
  Cu  Cu27  1  0.09842800  0.90157200  0.40157200  1
  C  C28  1  0.01237300  0.06880000  0.32926900  1
  C  C29  1  0.48762700  0.93120000  0.82926900  1
  C  C30  1  0.98762700  0.56880000  0.17073100  1
  C  C31  1  0.32926900  0.01237300  0.06880000  1
  C  C32  1  0.51237300  0.43120000  0.67073100  1
  C  C33  1  0.82926900  0.48762700  0.93120000  1
  C  C34  1  0.17073100  0.98762700  0.56880000  1
  C  C35  1  0.67073100  0.51237300  0.43120000  1
  C  C36  1  0.06880000  0.32926900  0.01237300  1
  C  C37  1  0.56880000  0.17073100  0.98762700  1
  C  C38  1  0.43120000  0.67073100  0.51237300  1
  C  C39  1  0.93120000  0.82926900  0.48762700  1
  C  C40  1  0.26685400  0.49593100  0.43754500  1
  C  C41  1  0.23314600  0.50406900  0.93754500  1
  C  C42  1  0.73314600  0.99593100  0.06245500  1
  C  C43  1  0.43754500  0.26685400  0.49593100  1
  C  C44  1  0.76685400  0.00406900  0.56245500  1
  C  C45  1  0.93754500  0.23314600  0.50406900  1
  C  C46  1  0.06245500  0.73314600  0.99593100  1
  C  C47  1  0.56245500  0.76685400  0.00406900  1
  C  C48  1  0.49593100  0.43754500  0.26685400  1
  C  C49  1  0.99593100  0.06245500  0.73314600  1
  C  C50  1  0.00406900  0.56245500  0.76685400  1
  C  C51  1  0.50406900  0.93754500  0.23314600  1
  C  C52  1  0.04496100  0.80639400  0.22995700  1
  C  C53  1  0.45503900  0.19360600  0.72995700  1
  C  C54  1  0.95503900  0.30639400  0.27004300  1
  C  C55  1  0.22995700  0.04496100  0.80639400  1
  C  C56  1  0.54496100  0.69360600  0.77004300  1
  C  C57  1  0.72995700  0.45503900  0.19360600  1
  C  C58  1  0.27004300  0.95503900  0.30639400  1
  C  C59  1  0.77004300  0.54496100  0.69360600  1
  C  C60  1  0.80639400  0.22995700  0.04496100  1
  C  C61  1  0.30639400  0.27004300  0.95503900  1
  C  C62  1  0.69360600  0.77004300  0.54496100  1
  C  C63  1  0.19360600  0.72995700  0.45503900  1
  C  C64  1  0.16367200  0.25581500  0.40187400  1
  C  C65  1  0.33632800  0.74418500  0.90187400  1
  C  C66  1  0.83632800  0.75581500  0.09812600  1
  C  C67  1  0.40187400  0.16367200  0.25581500  1
  C  C68  1  0.66367200  0.24418500  0.59812600  1
  C  C69  1  0.90187400  0.33632800  0.74418500  1
  C  C70  1  0.09812600  0.83632800  0.75581500  1
  C  C71  1  0.59812600  0.66367200  0.24418500  1
  C  C72  1  0.25581500  0.40187400  0.16367200  1
  C  C73  1  0.75581500  0.09812600  0.83632800  1
  C  C74  1  0.24418500  0.59812600  0.66367200  1
  C  C75  1  0.74418500  0.90187400  0.33632800  1
