# generated using pymatgen
data_Cu2NiC7
_symmetry_space_group_name_H-M   'P 1'
_cell_length_a   5.18843100
_cell_length_b   5.45249200
_cell_length_c   7.56881000
_cell_angle_alpha   90.00000000
_cell_angle_beta   90.00000000
_cell_angle_gamma   90.00000000
_symmetry_Int_Tables_number   1
_chemical_formula_structural   Cu2NiC7
_chemical_formula_sum   'Cu4 Ni2 C14'
_cell_volume   214.12071544
_cell_formula_units_Z   2
loop_
 _symmetry_equiv_pos_site_id
 _symmetry_equiv_pos_as_xyz
  1  'x, y, z'
loop_
 _atom_site_type_symbol
 _atom_site_label
 _atom_site_symmetry_multiplicity
 _atom_site_fract_x
 _atom_site_fract_y
 _atom_site_fract_z
 _atom_site_occupancy
  C  C0  1  0.01664500  0.68214000  0.00000000  1
  C  C1  1  0.51664500  0.31786000  0.50000000  1
  Ni  Ni2  1  0.48464100  0.18931500  0.00000000  1
  Ni  Ni3  1  0.98464100  0.81068500  0.50000000  1
  Cu  Cu4  1  0.00081900  0.24343200  0.75112100  1
  Cu  Cu5  1  0.00081900  0.24343200  0.24887900  1
  Cu  Cu6  1  0.50081900  0.75656800  0.25112100  1
  Cu  Cu7  1  0.50081900  0.75656800  0.74887900  1
  C  C8  1  0.10753400  0.19844800  0.50000000  1
  C  C9  1  0.19799900  0.94710800  0.81122300  1
  C  C10  1  0.19799900  0.94710800  0.18877700  1
  C  C11  1  0.31095000  0.43790600  0.81078400  1
  C  C12  1  0.31095000  0.43790600  0.18921600  1
  C  C13  1  0.37205700  0.71226800  0.50000000  1
  C  C14  1  0.60753400  0.80155200  0.00000000  1
  C  C15  1  0.69799900  0.05289200  0.31122300  1
  C  C16  1  0.69799900  0.05289200  0.68877700  1
  C  C17  1  0.81095000  0.56209400  0.68921600  1
  C  C18  1  0.81095000  0.56209400  0.31078400  1
  C  C19  1  0.87205700  0.28773200  0.00000000  1
