# generated using pymatgen
data_Cu2Ni2C17
_symmetry_space_group_name_H-M   'P 1'
_cell_length_a   8.20443300
_cell_length_b   13.40930500
_cell_length_c   11.59902410
_cell_angle_alpha   90.00000000
_cell_angle_beta   96.37024222
_cell_angle_gamma   90.00000000
_symmetry_Int_Tables_number   1
_chemical_formula_structural   Cu2Ni2C17
_chemical_formula_sum   'Cu8 Ni8 C68'
_cell_volume   1268.19637269
_cell_formula_units_Z   4
loop_
 _symmetry_equiv_pos_site_id
 _symmetry_equiv_pos_as_xyz
  1  'x, y, z'
loop_
 _atom_site_type_symbol
 _atom_site_label
 _atom_site_symmetry_multiplicity
 _atom_site_fract_x
 _atom_site_fract_y
 _atom_site_fract_z
 _atom_site_occupancy
  C  C0  1  0.73241500  0.93775500  0.27156500  1
  C  C1  1  0.26758500  0.43775500  0.22843500  1
  C  C2  1  0.26758500  0.06224500  0.72843500  1
  C  C3  1  0.73241500  0.56224500  0.77156500  1
  C  C4  1  0.27957600  0.72371800  0.03910100  1
  C  C5  1  0.72042400  0.22371800  0.46089900  1
  C  C6  1  0.72042400  0.27628200  0.96089900  1
  C  C7  1  0.27957600  0.77628200  0.53910100  1
  C  C8  1  0.28431300  0.80047600  0.92367100  1
  C  C9  1  0.71568700  0.30047600  0.57632900  1
  C  C10  1  0.71568700  0.19952400  0.07632900  1
  C  C11  1  0.28431300  0.69952400  0.42367100  1
  C  C12  1  0.41825800  0.81614600  0.04218400  1
  C  C13  1  0.58174200  0.31614600  0.45781600  1
  C  C14  1  0.58174200  0.18385400  0.95781600  1
  C  C15  1  0.41825800  0.68385400  0.54218400  1
  C  C16  1  0.80097800  0.83715400  0.58337500  1
  C  C17  1  0.19902200  0.33715400  0.91662500  1
  C  C18  1  0.19902200  0.16284600  0.41662500  1
  C  C19  1  0.80097800  0.66284600  0.08337500  1
  C  C20  1  0.67436400  0.93378100  0.58270600  1
  C  C21  1  0.32563600  0.43378100  0.91729400  1
  C  C22  1  0.32563600  0.06621900  0.41729400  1
  C  C23  1  0.67436400  0.56621900  0.08270600  1
  C  C24  1  0.87465100  0.95138900  0.61955700  1
  C  C25  1  0.12534900  0.45138900  0.88044300  1
  C  C26  1  0.12534900  0.04861100  0.38044300  1
  C  C27  1  0.87465100  0.54861100  0.11955700  1
  C  C28  1  0.80600000  0.35877100  0.34336400  1
  C  C29  1  0.19400000  0.85877100  0.15663600  1
  C  C30  1  0.19400000  0.64122900  0.65663600  1
  C  C31  1  0.80600000  0.14122900  0.84336400  1
  C  C32  1  0.79778200  0.44027800  0.46638400  1
  C  C33  1  0.20221800  0.94027800  0.03361600  1
  C  C34  1  0.20221800  0.55972200  0.53361600  1
  C  C35  1  0.79778200  0.05972200  0.96638400  1
  C  C36  1  0.94647000  0.34193600  0.47124500  1
  C  C37  1  0.05353000  0.84193600  0.02875500  1
  C  C38  1  0.05353000  0.65806400  0.52875500  1
  C  C39  1  0.94647000  0.15806400  0.97124500  1
  C  C40  1  0.86170500  0.83860600  0.78910500  1
  C  C41  1  0.13829500  0.33860600  0.71089500  1
  C  C42  1  0.13829500  0.16139400  0.21089500  1
  C  C43  1  0.86170500  0.66139400  0.28910500  1
  C  C44  1  0.74889700  0.95314900  0.79472600  1
  C  C45  1  0.25110300  0.45314900  0.70527400  1
  C  C46  1  0.25110300  0.04685100  0.20527400  1
  C  C47  1  0.74889700  0.54685100  0.29472600  1
  C  C48  1  0.64307900  0.83986100  0.75417100  1
  C  C49  1  0.35692100  0.33986100  0.74582900  1
  C  C50  1  0.35692100  0.16013900  0.24582900  1
  C  C51  1  0.64307900  0.66013900  0.25417100  1
  Ni  Ni52  1  0.82183400  0.36436200  0.43807800  1
  Ni  Ni53  1  0.17816600  0.86436200  0.06192200  1
  Ni  Ni54  1  0.17816600  0.63563800  0.56192200  1
  Ni  Ni55  1  0.82183400  0.13563800  0.93807800  1
  Ni  Ni56  1  0.75662000  0.88184100  0.75037500  1
  Ni  Ni57  1  0.24338000  0.38184100  0.74962500  1
  Ni  Ni58  1  0.24338000  0.11815900  0.24962500  1
  Ni  Ni59  1  0.75662000  0.61815900  0.25037500  1
  C  C60  1  0.98575800  0.88025800  0.37408000  1
  C  C61  1  0.01424200  0.38025800  0.12592000  1
  C  C62  1  0.01424200  0.11974200  0.62592000  1
  C  C63  1  0.98575800  0.61974200  0.87408000  1
  C  C64  1  0.69246300  0.86543700  0.07969300  1
  C  C65  1  0.30753700  0.36543700  0.42030700  1
  C  C66  1  0.30753700  0.13456300  0.92030700  1
  C  C67  1  0.69246300  0.63456300  0.57969300  1
  C  C68  1  0.75523100  0.11729400  0.26666300  1
  C  C69  1  0.24476900  0.61729400  0.23333700  1
  C  C70  1  0.24476900  0.88270600  0.73333700  1
  C  C71  1  0.75523100  0.38270600  0.76666300  1
  C  C72  1  0.50403500  0.89204200  0.37229500  1
  C  C73  1  0.49596500  0.39204200  0.12770500  1
  C  C74  1  0.49596500  0.10795800  0.62770500  1
  C  C75  1  0.50403500  0.60795800  0.87229500  1
  Cu  Cu76  1  0.29699300  0.79634300  0.01390700  1
  Cu  Cu77  1  0.70300700  0.29634300  0.48609300  1
  Cu  Cu78  1  0.70300700  0.20365700  0.98609300  1
  Cu  Cu79  1  0.29699300  0.70365700  0.51390700  1
  Cu  Cu80  1  0.77841100  0.90202600  0.62671200  1
  Cu  Cu81  1  0.22158900  0.40202600  0.87328800  1
  Cu  Cu82  1  0.22158900  0.09797400  0.37328800  1
  Cu  Cu83  1  0.77841100  0.59797400  0.12671200  1
