# generated using pymatgen
data_Cu(Ni4C17)3
_symmetry_space_group_name_H-M   'P 1'
_cell_length_a   7.16623200
_cell_length_b   10.22458501
_cell_length_c   13.31912509
_cell_angle_alpha   90.24321980
_cell_angle_beta   90.07718234
_cell_angle_gamma   90.00212381
_symmetry_Int_Tables_number   1
_chemical_formula_structural   Cu(Ni4C17)3
_chemical_formula_sum   'Cu1 Ni12 C51'
_cell_volume   975.90590156
_cell_formula_units_Z   1
loop_
 _symmetry_equiv_pos_site_id
 _symmetry_equiv_pos_as_xyz
  1  'x, y, z'
loop_
 _atom_site_type_symbol
 _atom_site_label
 _atom_site_symmetry_multiplicity
 _atom_site_fract_x
 _atom_site_fract_y
 _atom_site_fract_z
 _atom_site_occupancy
  C  C0  1  0.68625900  0.76062800  0.85963400  1
  C  C1  1  0.18498500  0.73942500  0.13821300  1
  C  C2  1  0.31324500  0.25834600  0.63879400  1
  C  C3  1  0.81235500  0.24881500  0.36823200  1
  C  C4  1  0.24993400  0.56896600  0.40477400  1
  C  C5  1  0.75121100  0.91692200  0.58844000  1
  C  C6  1  0.74535000  0.08126000  0.09125200  1
  C  C7  1  0.25190100  0.41982000  0.90885700  1
  C  C8  1  0.26468400  0.95645300  0.70289300  1
  C  C9  1  0.23704600  0.04212000  0.20398200  1
  C  C10  1  0.73848200  0.45792200  0.79607300  1
  Ni  Ni11  1  0.50663000  0.80977600  0.32897400  1
  Ni  Ni12  1  0.00565700  0.68519500  0.66799800  1
  Ni  Ni13  1  0.49073800  0.31966800  0.17115600  1
  Ni  Ni14  1  0.99545700  0.18474800  0.83066500  1
  Ni  Ni15  1  0.23408100  0.97173200  0.44641000  1
  Ni  Ni16  1  0.73252700  0.52476600  0.55065400  1
  Ni  Ni17  1  0.76618200  0.48140200  0.05502600  1
  Ni  Ni18  1  0.26888800  0.02369600  0.94713000  1
  Ni  Ni19  1  0.06655100  0.34926300  0.16935600  1
  Ni  Ni20  1  0.57217500  0.15169900  0.83433200  1
  Ni  Ni21  1  0.92963100  0.84364900  0.33330200  1
  Ni  Ni22  1  0.42865600  0.65021400  0.66487300  1
  Cu  Cu23  1  0.76251000  0.54282200  0.29487600  1
  C  C24  1  0.02083100  0.90730000  0.43770300  1
  C  C25  1  0.51910000  0.58719500  0.56047800  1
  C  C26  1  0.97488300  0.41121100  0.06527000  1
  C  C27  1  0.48156100  0.08910700  0.93856700  1
  C  C28  1  0.98692500  0.41645600  0.27163800  1
  C  C29  1  0.49205000  0.08277800  0.73332800  1
  C  C30  1  0.01089800  0.91382000  0.23355100  1
  C  C31  1  0.50821900  0.58085300  0.76548200  1
  C  C32  1  0.74939900  0.59069300  0.14415000  1
  C  C33  1  0.24721200  0.91868200  0.85609400  1
  C  C34  1  0.25731600  0.07721400  0.35674600  1
  C  C35  1  0.75683300  0.41949500  0.64116600  1
  C  C36  1  0.49244500  0.29236500  0.42379800  1
  C  C37  1  0.99057300  0.22710800  0.58101700  1
  C  C38  1  0.50661000  0.78052300  0.07887900  1
  C  C39  1  0.00698400  0.72067200  0.91894600  1
  C  C40  1  0.52587700  0.65140100  0.32439700  1
  C  C41  1  0.02751600  0.84260900  0.67289500  1
  C  C42  1  0.47004500  0.16192800  0.17411800  1
  C  C43  1  0.97373000  0.34256000  0.82645100  1
  C  C44  1  0.70833000  0.88080600  0.34911700  1
  C  C45  1  0.20685500  0.61270000  0.64942500  1
  C  C46  1  0.28766000  0.39077900  0.15615500  1
  C  C47  1  0.79369300  0.11332300  0.84975800  1
  C  C48  1  0.76958600  0.46533700  0.43990800  1
  C  C49  1  0.27141800  0.03263500  0.55627800  1
  C  C50  1  0.23273600  0.96393500  0.05697700  1
  C  C51  1  0.73483900  0.53848400  0.94346100  1
  C  C52  1  0.59619000  0.37510200  0.27124800  1
  C  C53  1  0.09519700  0.12684100  0.73027100  1
  C  C54  1  0.40672700  0.87060400  0.22991200  1
  C  C55  1  0.90472900  0.62764500  0.76774500  1
  C  C56  1  0.37602500  0.84461600  0.42771400  1
  C  C57  1  0.87515900  0.65117300  0.56903100  1
  C  C58  1  0.61570300  0.35903700  0.07186300  1
  C  C59  1  0.12529900  0.14993400  0.92941200  1
  C  C60  1  0.96273200  0.68524400  0.32666800  1
  C  C61  1  0.46226600  0.80790200  0.67226200  1
  C  C62  1  0.03956400  0.19089000  0.17441800  1
  C  C63  1  0.54115100  0.30973700  0.82781000  1
