# generated using pymatgen
data_CuNi2C9
_symmetry_space_group_name_H-M   'P 1'
_cell_length_a   7.69856600
_cell_length_b   7.69856600
_cell_length_c   4.89643200
_cell_angle_alpha   90.00000000
_cell_angle_beta   90.00000000
_cell_angle_gamma   90.00000000
_symmetry_Int_Tables_number   1
_chemical_formula_structural   CuNi2C9
_chemical_formula_sum   'Cu2 Ni4 C18'
_cell_volume   290.20133250
_cell_formula_units_Z   2
loop_
 _symmetry_equiv_pos_site_id
 _symmetry_equiv_pos_as_xyz
  1  'x, y, z'
loop_
 _atom_site_type_symbol
 _atom_site_label
 _atom_site_symmetry_multiplicity
 _atom_site_fract_x
 _atom_site_fract_y
 _atom_site_fract_z
 _atom_site_occupancy
  Ni  Ni0  1  0.83223700  0.66776300  0.49500000  1
  Ni  Ni1  1  0.33223700  0.83223700  0.50500000  1
  Ni  Ni2  1  0.66776300  0.16776300  0.50500000  1
  Ni  Ni3  1  0.16776300  0.33223700  0.49500000  1
  Cu  Cu4  1  0.50000000  0.50000000  0.00000000  1
  Cu  Cu5  1  0.00000000  0.00000000  0.00000000  1
  C  C6  1  0.85950200  0.35950200  0.92932900  1
  C  C7  1  0.35950200  0.14049800  0.07067100  1
  C  C8  1  0.14049800  0.64049800  0.92932900  1
  C  C9  1  0.64049800  0.85950200  0.07067100  1
  C  C10  1  0.58316100  0.68629100  0.20707300  1
  C  C11  1  0.41683900  0.31370900  0.20707300  1
  C  C12  1  0.31370900  0.58316100  0.79292700  1
  C  C13  1  0.68629100  0.41683900  0.79292700  1
  C  C14  1  0.00000000  0.50000000  0.81857600  1
  C  C15  1  0.50000000  0.00000000  0.18142400  1
  C  C16  1  0.35778000  0.14222000  0.75909500  1
  C  C17  1  0.85778000  0.35778000  0.24090500  1
  C  C18  1  0.14222000  0.64222000  0.24090500  1
  C  C19  1  0.64222000  0.85778000  0.75909500  1
  C  C20  1  0.08316100  0.81370900  0.79292700  1
  C  C21  1  0.18629100  0.08316100  0.20707300  1
  C  C22  1  0.81370900  0.91683900  0.20707300  1
  C  C23  1  0.91683900  0.18629100  0.79292700  1
