# generated using pymatgen
data_CuNiC15
_symmetry_space_group_name_H-M   'P 1'
_cell_length_a   10.94288000
_cell_length_b   7.79196000
_cell_length_c   10.35495039
_cell_angle_alpha   89.86347978
_cell_angle_beta   90.00000000
_cell_angle_gamma   90.00000000
_symmetry_Int_Tables_number   1
_chemical_formula_structural   CuNiC15
_chemical_formula_sum   'Cu4 Ni4 C60'
_cell_volume   882.92769795
_cell_formula_units_Z   4
loop_
 _symmetry_equiv_pos_site_id
 _symmetry_equiv_pos_as_xyz
  1  'x, y, z'
loop_
 _atom_site_type_symbol
 _atom_site_label
 _atom_site_symmetry_multiplicity
 _atom_site_fract_x
 _atom_site_fract_y
 _atom_site_fract_z
 _atom_site_occupancy
  Ni  Ni0  1  0.29807200  0.73924300  0.12314800  1
  Ni  Ni1  1  0.79807200  0.26075700  0.37685200  1
  Ni  Ni2  1  0.70192800  0.26075700  0.87685200  1
  Ni  Ni3  1  0.20192800  0.73924300  0.62314800  1
  Cu  Cu4  1  0.37650000  0.25120100  0.16586200  1
  Cu  Cu5  1  0.87650000  0.74879900  0.33413800  1
  Cu  Cu6  1  0.62350000  0.74879900  0.83413800  1
  Cu  Cu7  1  0.12350000  0.25120100  0.66586200  1
  C  C8  1  0.10958800  0.40215800  0.33770500  1
  C  C9  1  0.60958800  0.59784200  0.16229500  1
  C  C10  1  0.89041200  0.59784200  0.66229500  1
  C  C11  1  0.39041200  0.40215800  0.83770500  1
  C  C12  1  0.14671500  0.03435800  0.35892100  1
  C  C13  1  0.64671500  0.96564200  0.14107900  1
  C  C14  1  0.85328500  0.96564200  0.64107900  1
  C  C15  1  0.35328500  0.03435800  0.85892100  1
  C  C16  1  0.18004100  0.55527200  0.90383500  1
  C  C17  1  0.68004100  0.44472800  0.59616500  1
  C  C18  1  0.81995900  0.44472800  0.09616500  1
  C  C19  1  0.31995900  0.55527200  0.40383500  1
  C  C20  1  0.06853700  0.66491500  0.86743000  1
  C  C21  1  0.56853700  0.33508500  0.63257000  1
  C  C22  1  0.93146300  0.33508500  0.13257000  1
  C  C23  1  0.43146300  0.66491500  0.36743000  1
  C  C24  1  0.49920000  0.32906500  0.43075600  1
  C  C25  1  0.99920000  0.67093500  0.06924400  1
  C  C26  1  0.50080000  0.67093500  0.56924400  1
  C  C27  1  0.00080000  0.32906500  0.93075600  1
  C  C28  1  0.49863400  0.13710500  0.39618100  1
  C  C29  1  0.99863400  0.86289500  0.10381900  1
  C  C30  1  0.50136600  0.86289500  0.60381900  1
  C  C31  1  0.00136600  0.13710500  0.89618100  1
  C  C32  1  0.13853100  0.42577900  0.48094600  1
  C  C33  1  0.63853100  0.57422100  0.01905400  1
  C  C34  1  0.86146900  0.57422100  0.51905400  1
  C  C35  1  0.36146900  0.42577900  0.98094600  1
  C  C36  1  0.99908300  0.50189900  0.28827400  1
  C  C37  1  0.49908300  0.49810100  0.21172600  1
  C  C38  1  0.00091700  0.49810100  0.71172600  1
  C  C39  1  0.50091700  0.50189900  0.78827400  1
  C  C40  1  0.22506200  0.42788100  0.25473500  1
  C  C41  1  0.72506200  0.57211900  0.24526500  1
  C  C42  1  0.77493800  0.57211900  0.74526500  1
  C  C43  1  0.27493800  0.42788100  0.75473500  1
  C  C44  1  0.06325400  0.20294500  0.31777700  1
  C  C45  1  0.56325400  0.79705500  0.18222300  1
  C  C46  1  0.93674600  0.79705500  0.68222300  1
  C  C47  1  0.43674600  0.20294500  0.81777700  1
  C  C48  1  0.17260600  0.05259100  0.50326300  1
  C  C49  1  0.67260600  0.94740900  0.99673700  1
  C  C50  1  0.82739400  0.94740900  0.49673700  1
  C  C51  1  0.32739400  0.05259100  0.00326300  1
  C  C52  1  0.06376000  0.88147700  0.32894600  1
  C  C53  1  0.56376000  0.11852300  0.17105400  1
  C  C54  1  0.93624000  0.11852300  0.67105400  1
  C  C55  1  0.43624000  0.88147700  0.82894600  1
  C  C56  1  0.25952500  0.03871900  0.27201900  1
  C  C57  1  0.75952500  0.96128100  0.22798100  1
  C  C58  1  0.74047500  0.96128100  0.72798100  1
  C  C59  1  0.24047500  0.03871900  0.77201900  1
  C  C60  1  0.12957400  0.65091600  0.93555200  1
  C  C61  1  0.62957400  0.34908400  0.56444800  1
  C  C62  1  0.87042600  0.34908400  0.06444800  1
  C  C63  1  0.37042600  0.65091600  0.43555200  1
  C  C64  1  0.44494600  0.23735200  0.40058500  1
  C  C65  1  0.94494600  0.76264800  0.09941500  1
  C  C66  1  0.55505400  0.76264800  0.59941500  1
  C  C67  1  0.05505400  0.23735200  0.90058500  1
