# generated using pymatgen
data_CuNi3C20
_symmetry_space_group_name_H-M   'P 1'
_cell_length_a   9.39600121
_cell_length_b   9.39600121
_cell_length_c   13.03201940
_cell_angle_alpha   89.41586658
_cell_angle_beta   89.41586658
_cell_angle_gamma   132.02509652
_symmetry_Int_Tables_number   1
_chemical_formula_structural   CuNi3C20
_chemical_formula_sum   'Cu2 Ni6 C40'
_cell_volume   854.40414069
_cell_formula_units_Z   2
loop_
 _symmetry_equiv_pos_site_id
 _symmetry_equiv_pos_as_xyz
  1  'x, y, z'
loop_
 _atom_site_type_symbol
 _atom_site_label
 _atom_site_symmetry_multiplicity
 _atom_site_fract_x
 _atom_site_fract_y
 _atom_site_fract_z
 _atom_site_occupancy
  C  C0  1  0.96129300  0.02410100  0.32368900  1
  C  C1  1  0.02410100  0.96129300  0.82368900  1
  C  C2  1  0.09376200  0.83751500  0.11000300  1
  C  C3  1  0.83751500  0.09376200  0.61000300  1
  C  C4  1  0.58982800  0.50290900  0.22585300  1
  C  C5  1  0.50290900  0.58982800  0.72585300  1
  C  C6  1  0.02898700  0.68152200  0.38825000  1
  C  C7  1  0.68152200  0.02898700  0.88825000  1
  Ni  Ni8  1  0.50845600  0.88175200  0.18240700  1
  Ni  Ni9  1  0.88175200  0.50845600  0.68240700  1
  Ni  Ni10  1  0.33990700  0.57381000  0.47089000  1
  Ni  Ni11  1  0.57381000  0.33990700  0.97089000  1
  Ni  Ni12  1  0.07812900  0.29985200  0.09079000  1
  Ni  Ni13  1  0.29985200  0.07812900  0.59079000  1
  Cu  Cu14  1  0.15659800  0.61661300  0.90688200  1
  Cu  Cu15  1  0.61661300  0.15659800  0.40688200  1
  C  C16  1  0.26595800  0.74225500  0.19963800  1
  C  C17  1  0.74225500  0.26595800  0.69963800  1
  C  C18  1  0.56677800  0.81753000  0.28490300  1
  C  C19  1  0.81753000  0.56677800  0.78490300  1
  C  C20  1  0.52616200  0.78939900  0.07923200  1
  C  C21  1  0.78939900  0.52616200  0.57923200  1
  C  C22  1  0.55406400  0.69049300  0.52799800  1
  C  C23  1  0.69049300  0.55406400  0.02799800  1
  C  C24  1  0.18407800  0.48339200  0.57249300  1
  C  C25  1  0.48339200  0.18407800  0.07249300  1
  C  C26  1  0.28953700  0.38564300  0.41309700  1
  C  C27  1  0.38564300  0.28953700  0.91309700  1
  C  C28  1  0.96714500  0.12353500  0.00323500  1
  C  C29  1  0.12353500  0.96714500  0.50323500  1
  C  C30  1  0.19107700  0.25510900  0.16887300  1
  C  C31  1  0.25510900  0.19107700  0.66887300  1
  C  C32  1  0.90386400  0.24828400  0.16638800  1
  C  C33  1  0.24828400  0.90386400  0.66638800  1
  C  C34  1  0.85041900  0.82435100  0.18226700  1
  C  C35  1  0.82435100  0.85041900  0.68226700  1
  C  C36  1  0.13982400  0.94070300  0.27960200  1
  C  C37  1  0.94070300  0.13982400  0.77960200  1
  C  C38  1  0.88326200  0.57837700  0.22360500  1
  C  C39  1  0.57837700  0.88326200  0.72360500  1
  C  C40  1  0.79369800  0.69291500  0.36719000  1
  C  C41  1  0.69291500  0.79369800  0.86719000  1
  C  C42  1  0.54376900  0.19963700  0.34848300  1
  C  C43  1  0.19963700  0.54376900  0.84848300  1
  C  C44  1  0.79750800  0.26395300  0.41083600  1
  C  C45  1  0.26395300  0.79750800  0.91083600  1
  C  C46  1  0.51056300  0.00646400  0.46266900  1
  C  C47  1  0.00646400  0.51056300  0.96266900  1
