# generated using pymatgen
data_Cu6NiC9
_symmetry_space_group_name_H-M   'P 1'
_cell_length_a   6.64229099
_cell_length_b   6.64229099
_cell_length_c   6.64229099
_cell_angle_alpha   60.00000000
_cell_angle_beta   60.00000000
_cell_angle_gamma   60.00000000
_symmetry_Int_Tables_number   1
_chemical_formula_structural   Cu6NiC9
_chemical_formula_sum   'Cu6 Ni1 C9'
_cell_volume   207.22335194
_cell_formula_units_Z   1
loop_
 _symmetry_equiv_pos_site_id
 _symmetry_equiv_pos_as_xyz
  1  'x, y, z'
loop_
 _atom_site_type_symbol
 _atom_site_label
 _atom_site_symmetry_multiplicity
 _atom_site_fract_x
 _atom_site_fract_y
 _atom_site_fract_z
 _atom_site_occupancy
  C  C0  1  0.00000000  0.00000000  0.00000000  1
  Ni  Ni1  1  0.50000000  0.50000000  0.50000000  1
  Cu  Cu2  1  0.50000000  0.50000000  0.00000000  1
  Cu  Cu3  1  0.00000000  0.50000000  0.50000000  1
  Cu  Cu4  1  0.50000000  0.00000000  0.50000000  1
  Cu  Cu5  1  0.00000000  0.00000000  0.50000000  1
  Cu  Cu6  1  0.50000000  0.00000000  0.00000000  1
  Cu  Cu7  1  0.00000000  0.50000000  0.00000000  1
  C  C8  1  0.64222500  0.64222500  0.07332400  1
  C  C9  1  0.64222500  0.07332400  0.64222500  1
  C  C10  1  0.07332400  0.64222500  0.64222500  1
  C  C11  1  0.35777500  0.92667600  0.35777500  1
  C  C12  1  0.64222500  0.64222500  0.64222500  1
  C  C13  1  0.35777500  0.35777500  0.35777500  1
  C  C14  1  0.35777500  0.35777500  0.92667600  1
  C  C15  1  0.92667600  0.35777500  0.35777500  1
