# generated using pymatgen
data_Cu3NiC10
_symmetry_space_group_name_H-M   'P 1'
_cell_length_a   7.04755100
_cell_length_b   5.70635400
_cell_length_c   12.01727405
_cell_angle_alpha   89.38155382
_cell_angle_beta   90.00000000
_cell_angle_gamma   90.00000000
_symmetry_Int_Tables_number   1
_chemical_formula_structural   Cu3NiC10
_chemical_formula_sum   'Cu6 Ni2 C20'
_cell_volume   483.25638708
_cell_formula_units_Z   2
loop_
 _symmetry_equiv_pos_site_id
 _symmetry_equiv_pos_as_xyz
  1  'x, y, z'
loop_
 _atom_site_type_symbol
 _atom_site_label
 _atom_site_symmetry_multiplicity
 _atom_site_fract_x
 _atom_site_fract_y
 _atom_site_fract_z
 _atom_site_occupancy
  Ni  Ni0  1  0.75000000  0.47917200  0.74884600  1
  Ni  Ni1  1  0.25000000  0.52082800  0.25115400  1
  Cu  Cu2  1  0.00000000  0.50000000  0.00000000  1
  Cu  Cu3  1  0.00000000  0.00000000  0.50000000  1
  Cu  Cu4  1  0.50000000  0.00000000  0.50000000  1
  Cu  Cu5  1  0.50000000  0.50000000  0.00000000  1
  Cu  Cu6  1  0.25000000  0.98144700  0.75626700  1
  Cu  Cu7  1  0.75000000  0.01855300  0.24373300  1
  C  C8  1  0.75000000  0.10761300  0.90674100  1
  C  C9  1  0.25000000  0.89238700  0.09325900  1
  C  C10  1  0.25000000  0.59000600  0.59269300  1
  C  C11  1  0.75000000  0.40999400  0.40730700  1
  C  C12  1  0.01200600  0.26071200  0.83082200  1
  C  C13  1  0.98799400  0.73928800  0.16917800  1
  C  C14  1  0.99327300  0.76540100  0.66881700  1
  C  C15  1  0.00672700  0.23459900  0.33118300  1
  C  C16  1  0.49327300  0.23459900  0.33118300  1
  C  C17  1  0.50672700  0.76540100  0.66881700  1
  C  C18  1  0.51200600  0.73928800  0.16917800  1
  C  C19  1  0.48799400  0.26071200  0.83082200  1
  C  C20  1  0.25000000  0.73613000  0.91827600  1
  C  C21  1  0.75000000  0.26387000  0.08172400  1
  C  C22  1  0.75000000  0.24221500  0.58297800  1
  C  C23  1  0.25000000  0.75778500  0.41702200  1
  C  C24  1  0.75000000  0.71713700  0.91790200  1
  C  C25  1  0.25000000  0.28286300  0.08209800  1
  C  C26  1  0.25000000  0.20149900  0.58736700  1
  C  C27  1  0.75000000  0.79850100  0.41263300  1
