# generated using pymatgen
data_Cu3(NiC4)2
_symmetry_space_group_name_H-M   'P 1'
_cell_length_a   5.84912899
_cell_length_b   5.84912899
_cell_length_c   9.39133300
_cell_angle_alpha   90.00000000
_cell_angle_beta   90.00000000
_cell_angle_gamma   119.99998854
_symmetry_Int_Tables_number   1
_chemical_formula_structural   Cu3(NiC4)2
_chemical_formula_sum   'Cu6 Ni4 C16'
_cell_volume   278.25329722
_cell_formula_units_Z   2
loop_
 _symmetry_equiv_pos_site_id
 _symmetry_equiv_pos_as_xyz
  1  'x, y, z'
loop_
 _atom_site_type_symbol
 _atom_site_label
 _atom_site_symmetry_multiplicity
 _atom_site_fract_x
 _atom_site_fract_y
 _atom_site_fract_z
 _atom_site_occupancy
  Ni  Ni0  1  0.66666700  0.33333300  0.02517900  1
  Ni  Ni1  1  0.33333300  0.66666700  0.52517900  1
  Ni  Ni2  1  0.66666700  0.33333300  0.41877700  1
  Ni  Ni3  1  0.33333300  0.66666700  0.91877700  1
  Cu  Cu4  1  0.67096600  0.83548300  0.24550000  1
  Cu  Cu5  1  0.83548300  0.16451700  0.74550000  1
  Cu  Cu6  1  0.16451700  0.32903400  0.24550000  1
  Cu  Cu7  1  0.83548300  0.67096600  0.74550000  1
  Cu  Cu8  1  0.32903400  0.16451700  0.74550000  1
  Cu  Cu9  1  0.16451700  0.83548300  0.24550000  1
  C  C10  1  0.83996500  0.16003500  0.14434900  1
  C  C11  1  0.67993100  0.83996500  0.64434900  1
  C  C12  1  0.16003500  0.32006900  0.64434900  1
  C  C13  1  0.83996500  0.67993100  0.14434900  1
  C  C14  1  0.32006900  0.16003500  0.14434900  1
  C  C15  1  0.16003500  0.83996500  0.64434900  1
  C  C16  1  0.51864300  0.48135700  0.86420500  1
  C  C17  1  0.03728700  0.51864300  0.36420500  1
  C  C18  1  0.48135700  0.96271300  0.36420500  1
  C  C19  1  0.51864300  0.03728700  0.86420500  1
  C  C20  1  0.00000000  0.00000000  0.35099300  1
  C  C21  1  0.00000000  0.00000000  0.85099300  1
  C  C22  1  0.33333300  0.66666700  0.13638900  1
  C  C23  1  0.96271300  0.48135700  0.86420500  1
  C  C24  1  0.48135700  0.51864300  0.36420500  1
  C  C25  1  0.66666700  0.33333300  0.63638900  1
