# generated using pymatgen
data_Cu6Ni5C39
_symmetry_space_group_name_H-M   'P 1'
_cell_length_a   10.54788220
_cell_length_b   10.54788220
_cell_length_c   13.82225000
_cell_angle_alpha   90.00000000
_cell_angle_beta   90.00000000
_cell_angle_gamma   120.00000126
_symmetry_Int_Tables_number   1
_chemical_formula_structural   Cu6Ni5C39
_chemical_formula_sum   'Cu12 Ni10 C78'
_cell_volume   1331.80276354
_cell_formula_units_Z   2
loop_
 _symmetry_equiv_pos_site_id
 _symmetry_equiv_pos_as_xyz
  1  'x, y, z'
loop_
 _atom_site_type_symbol
 _atom_site_label
 _atom_site_symmetry_multiplicity
 _atom_site_fract_x
 _atom_site_fract_y
 _atom_site_fract_z
 _atom_site_occupancy
  C  C0  1  0.33333300  0.66666700  0.38088800  1
  C  C1  1  0.66666700  0.33333300  0.61911200  1
  C  C2  1  0.66666700  0.33333300  0.88088800  1
  C  C3  1  0.33333300  0.66666700  0.11911200  1
  C  C4  1  0.16925500  0.83074500  0.75000000  1
  C  C5  1  0.16925500  0.33850900  0.75000000  1
  C  C6  1  0.66149100  0.83074500  0.75000000  1
  C  C7  1  0.83074500  0.16925500  0.25000000  1
  C  C8  1  0.33850900  0.16925500  0.25000000  1
  C  C9  1  0.83074500  0.66149100  0.25000000  1
  C  C10  1  0.00000000  0.00000000  0.25000000  1
  C  C11  1  0.00000000  0.00000000  0.75000000  1
  C  C12  1  0.00781300  0.50390700  0.75000000  1
  C  C13  1  0.49609300  0.50390700  0.75000000  1
  C  C14  1  0.49609300  0.99218700  0.75000000  1
  C  C15  1  0.50390700  0.00781300  0.25000000  1
  C  C16  1  0.50390700  0.49609300  0.25000000  1
  C  C17  1  0.99218700  0.49609300  0.25000000  1
  Ni  Ni18  1  0.33333300  0.66666700  0.59669600  1
  Ni  Ni19  1  0.66666700  0.33333300  0.40330400  1
  Ni  Ni20  1  0.66666700  0.33333300  0.09669600  1
  Ni  Ni21  1  0.33333300  0.66666700  0.90330400  1
  Ni  Ni22  1  0.16671600  0.83328400  0.25000000  1
  Ni  Ni23  1  0.16671600  0.33343200  0.25000000  1
  Ni  Ni24  1  0.66656800  0.83328400  0.25000000  1
  Ni  Ni25  1  0.83328400  0.16671600  0.75000000  1
  Ni  Ni26  1  0.33343200  0.16671600  0.75000000  1
  Ni  Ni27  1  0.83328400  0.66656800  0.75000000  1
  Cu  Cu28  1  0.26667200  0.00000000  0.50000000  1
  Cu  Cu29  1  0.00000000  0.26667200  0.50000000  1
  Cu  Cu30  1  0.73332800  0.73332800  0.50000000  1
  Cu  Cu31  1  0.73332800  0.00000000  0.00000000  1
  Cu  Cu32  1  0.00000000  0.73332800  0.00000000  1
  Cu  Cu33  1  0.26667200  0.26667200  0.00000000  1
  Cu  Cu34  1  0.38940200  0.38940200  0.50000000  1
  Cu  Cu35  1  0.61059800  0.00000000  0.50000000  1
  Cu  Cu36  1  0.00000000  0.61059800  0.50000000  1
  Cu  Cu37  1  0.61059800  0.61059800  0.00000000  1
  Cu  Cu38  1  0.38940200  0.00000000  0.00000000  1
  Cu  Cu39  1  0.00000000  0.38940200  0.00000000  1
  C  C40  1  0.33482600  0.00982000  0.67173400  1
  C  C41  1  0.99018000  0.32500600  0.67173400  1
  C  C42  1  0.67499400  0.66517400  0.67173400  1
  C  C43  1  0.00982000  0.33482600  0.32826600  1
  C  C44  1  0.32500600  0.99018000  0.32826600  1
  C  C45  1  0.66517400  0.67499400  0.32826600  1
  C  C46  1  0.66517400  0.99018000  0.17173400  1
  C  C47  1  0.00982000  0.67499400  0.17173400  1
  C  C48  1  0.32500600  0.33482600  0.17173400  1
  C  C49  1  0.99018000  0.66517400  0.82826600  1
  C  C50  1  0.67499400  0.00982000  0.82826600  1
  C  C51  1  0.33482600  0.32500600  0.82826600  1
  C  C52  1  0.17063200  0.66907100  0.66200000  1
  C  C53  1  0.33092900  0.50156100  0.66200000  1
  C  C54  1  0.49843900  0.82936800  0.66200000  1
  C  C55  1  0.66907100  0.17063200  0.33800000  1
  C  C56  1  0.50156100  0.33092900  0.33800000  1
  C  C57  1  0.82936800  0.49843900  0.33800000  1
  C  C58  1  0.82936800  0.33092900  0.16200000  1
  C  C59  1  0.66907100  0.49843900  0.16200000  1
  C  C60  1  0.50156100  0.17063200  0.16200000  1
  C  C61  1  0.33092900  0.82936800  0.83800000  1
  C  C62  1  0.49843900  0.66907100  0.83800000  1
  C  C63  1  0.17063200  0.50156100  0.83800000  1
  C  C64  1  0.16898200  0.98955600  0.17228000  1
  C  C65  1  0.01044400  0.17942600  0.17228000  1
  C  C66  1  0.82057400  0.83101800  0.17228000  1
  C  C67  1  0.98955600  0.16898200  0.82772000  1
  C  C68  1  0.17942600  0.01044400  0.82772000  1
  C  C69  1  0.83101800  0.82057400  0.82772000  1
  C  C70  1  0.83101800  0.01044400  0.67228000  1
  C  C71  1  0.98955600  0.82057400  0.67228000  1
  C  C72  1  0.17942600  0.16898200  0.67228000  1
  C  C73  1  0.01044400  0.83101800  0.32772000  1
  C  C74  1  0.82057400  0.98955600  0.32772000  1
  C  C75  1  0.16898200  0.17942600  0.32772000  1
  C  C76  1  0.32634300  0.84337800  0.17046000  1
  C  C77  1  0.15662200  0.48296500  0.17046000  1
  C  C78  1  0.51703500  0.67365700  0.17046000  1
  C  C79  1  0.84337800  0.32634300  0.82954000  1
  C  C80  1  0.48296500  0.15662200  0.82954000  1
  C  C81  1  0.67365700  0.51703500  0.82954000  1
  C  C82  1  0.67365700  0.15662200  0.67046000  1
  C  C83  1  0.84337800  0.51703500  0.67046000  1
  C  C84  1  0.48296500  0.32634300  0.67046000  1
  C  C85  1  0.15662200  0.67365700  0.32954000  1
  C  C86  1  0.51703500  0.84337800  0.32954000  1
  C  C87  1  0.32634300  0.48296500  0.32954000  1
  C  C88  1  0.34736000  0.82044200  0.50253900  1
  C  C89  1  0.17955800  0.52691800  0.50253900  1
  C  C90  1  0.47308200  0.65264000  0.50253900  1
  C  C91  1  0.82044200  0.34736000  0.49746100  1
  C  C92  1  0.52691800  0.17955800  0.49746100  1
  C  C93  1  0.65264000  0.47308200  0.49746100  1
  C  C94  1  0.65264000  0.17955800  0.00253900  1
  C  C95  1  0.82044200  0.47308200  0.00253900  1
  C  C96  1  0.52691800  0.34736000  0.00253900  1
  C  C97  1  0.17955800  0.65264000  0.99746100  1
  C  C98  1  0.47308200  0.82044200  0.99746100  1
  C  C99  1  0.34736000  0.52691800  0.99746100  1
