# generated using pymatgen
data_Cu2NiC9
_symmetry_space_group_name_H-M   'P 1'
_cell_length_a   8.41732000
_cell_length_b   8.41732000
_cell_length_c   5.35818400
_cell_angle_alpha   90.00000000
_cell_angle_beta   90.00000000
_cell_angle_gamma   90.00000000
_symmetry_Int_Tables_number   1
_chemical_formula_structural   Cu2NiC9
_chemical_formula_sum   'Cu4 Ni2 C18'
_cell_volume   379.63417335
_cell_formula_units_Z   2
loop_
 _symmetry_equiv_pos_site_id
 _symmetry_equiv_pos_as_xyz
  1  'x, y, z'
loop_
 _atom_site_type_symbol
 _atom_site_label
 _atom_site_symmetry_multiplicity
 _atom_site_fract_x
 _atom_site_fract_y
 _atom_site_fract_z
 _atom_site_occupancy
  C  C0  1  0.66722400  0.16722400  0.50916400  1
  C  C1  1  0.83277600  0.66722400  0.49083600  1
  C  C2  1  0.16722400  0.33277600  0.49083600  1
  C  C3  1  0.33277600  0.83277600  0.50916400  1
  Ni  Ni4  1  0.50000000  0.50000000  0.00000000  1
  Ni  Ni5  1  0.00000000  0.00000000  0.00000000  1
  Cu  Cu6  1  0.86595000  0.36595000  0.97552200  1
  Cu  Cu7  1  0.63405000  0.86595000  0.02447800  1
  Cu  Cu8  1  0.36595000  0.13405000  0.02447800  1
  Cu  Cu9  1  0.13405000  0.63405000  0.97552200  1
  C  C10  1  0.69779000  0.42115000  0.84376300  1
  C  C11  1  0.30221000  0.57885000  0.84376300  1
  C  C12  1  0.42115000  0.30221000  0.15623700  1
  C  C13  1  0.57885000  0.69779000  0.15623700  1
  C  C14  1  0.92115000  0.19779000  0.84376300  1
  C  C15  1  0.80221000  0.92115000  0.15623700  1
  C  C16  1  0.19779000  0.07885000  0.15623700  1
  C  C17  1  0.07885000  0.80221000  0.84376300  1
  C  C18  1  0.86603600  0.36603600  0.27732100  1
  C  C19  1  0.63396400  0.86603600  0.72267900  1
  C  C20  1  0.00000000  0.50000000  0.86965500  1
  C  C21  1  0.50000000  0.00000000  0.13034500  1
  C  C22  1  0.13396400  0.63396400  0.27732100  1
  C  C23  1  0.36603600  0.13396400  0.72267900  1
