# generated using pymatgen
data_Cu4NiC
_symmetry_space_group_name_H-M   'P 1'
_cell_length_a   9.77164274
_cell_length_b   12.23556327
_cell_length_c   12.24120586
_cell_angle_alpha   119.99874207
_cell_angle_beta   90.00000000
_cell_angle_gamma   90.00000000
_symmetry_Int_Tables_number   1
_chemical_formula_structural   Cu4NiC
_chemical_formula_sum   'Cu72 Ni18 C18'
_cell_volume   1267.51143350
_cell_formula_units_Z   18
loop_
 _symmetry_equiv_pos_site_id
 _symmetry_equiv_pos_as_xyz
  1  'x, y, z'
loop_
 _atom_site_type_symbol
 _atom_site_label
 _atom_site_symmetry_multiplicity
 _atom_site_fract_x
 _atom_site_fract_y
 _atom_site_fract_z
 _atom_site_occupancy
  C  C0  1  0.75976442  0.11837191  0.23061548  1
  C  C1  1  0.76012366  0.76968005  0.88821305  1
  C  C2  1  0.76036103  0.11138566  0.88090566  1
  C  C3  1  0.24023558  0.11837191  0.23061548  1
  C  C4  1  0.23987634  0.76968005  0.88821305  1
  C  C5  1  0.23963897  0.11138566  0.88090566  1
  C  C6  1  0.74347892  0.78494641  0.56283363  1
  C  C7  1  0.74341024  0.43699281  0.22191351  1
  C  C8  1  0.74338553  0.77862031  0.21528741  1
  C  C9  1  0.25652108  0.78494641  0.56283363  1
  C  C10  1  0.25658976  0.43699281  0.22191351  1
  C  C11  1  0.25661447  0.77862031  0.21528741  1
  C  C12  1  0.74429643  0.10298073  0.54671244  1
  C  C13  1  0.74430008  0.45282081  0.55597734  1
  C  C14  1  0.74441635  0.44407280  0.89699899  1
  C  C15  1  0.25570357  0.10298073  0.54671244  1
  C  C16  1  0.25569992  0.45282081  0.55597734  1
  C  C17  1  0.25558365  0.44407280  0.89699899  1
  Ni  Ni18  1  0.00000000  0.64736513  0.50931173  1
  Ni  Ni19  1  0.00000000  0.49059542  0.13797851  1
  Ni  Ni20  1  0.00000000  0.86165005  0.35250008  1
  Ni  Ni21  1  0.00000000  0.20332287  0.11079114  1
  Ni  Ni22  1  0.00000000  0.88930471  0.09260102  1
  Ni  Ni23  1  0.00000000  0.90751364  0.79681005  1
  Ni  Ni24  1  0.00000000  0.16389575  0.47011500  1
  Ni  Ni25  1  0.00000000  0.53004592  0.69388635  1
  Ni  Ni26  1  0.00000000  0.30608022  0.83618147  1
  Ni  Ni27  1  0.50000000  0.87132526  0.42387932  1
  Ni  Ni28  1  0.50000000  0.57602725  0.44741439  1
  Ni  Ni29  1  0.50000000  0.55267301  0.12857120  1
  Ni  Ni30  1  0.50000000  0.23584773  0.77367491  1
  Ni  Ni31  1  0.50000000  0.22610184  0.46205910  1
  Ni  Ni32  1  0.50000000  0.53804054  0.76419019  1
  Ni  Ni33  1  0.50000000  0.20023514  0.17880215  1
  Ni  Ni34  1  0.50000000  0.82149304  0.02151409  1
  Ni  Ni35  1  0.50000000  0.97852975  0.80008762  1
  Cu  Cu36  1  0.00000000  0.75587547  0.51335945  1
  Cu  Cu37  1  0.00000000  0.48667444  0.24249475  1
  Cu  Cu38  1  0.00000000  0.75736247  0.24408692  1
  Cu  Cu39  1  0.88378635  0.59766155  0.50933394  1
  Cu  Cu40  1  0.88379589  0.49052808  0.08825847  1
  Cu  Cu41  1  0.88375588  0.91142631  0.40219251  1
  Cu  Cu42  1  0.11621365  0.59766155  0.50933394  1
  Cu  Cu43  1  0.11620411  0.49052808  0.08825847  1
  Cu  Cu44  1  0.11624412  0.91142631  0.40219251  1
  Cu  Cu45  1  0.00000000  0.14055003  0.17034095  1
  Cu  Cu46  1  0.00000000  0.82992393  0.97035636  1
  Cu  Cu47  1  0.00000000  0.02973991  0.85958736  1
  Cu  Cu48  1  0.88428161  0.91790992  0.15185048  1
  Cu  Cu49  1  0.88423604  0.84823177  0.76621997  1
  Cu  Cu50  1  0.88422667  0.23379779  0.08198984  1
  Cu  Cu51  1  0.11571839  0.91790992  0.15185048  1
  Cu  Cu52  1  0.11576396  0.84823177  0.76621997  1
  Cu  Cu53  1  0.11577333  0.23379779  0.08198984  1
  Cu  Cu54  1  0.00000000  0.15872613  0.57319953  1
  Cu  Cu55  1  0.00000000  0.42687095  0.58564075  1
  Cu  Cu56  1  0.00000000  0.41438032  0.84124906  1
  Cu  Cu57  1  0.88437302  0.16397443  0.41950670  1
  Cu  Cu58  1  0.88433966  0.58063066  0.74453044  1
  Cu  Cu59  1  0.88432242  0.25552141  0.83619096  1
  Cu  Cu60  1  0.11562698  0.16397443  0.41950670  1
  Cu  Cu61  1  0.11566034  0.58063066  0.74453044  1
  Cu  Cu62  1  0.11567758  0.25552141  0.83619096  1
  Cu  Cu63  1  0.50000000  0.69762419  0.50173089  1
  Cu  Cu64  1  0.50000000  0.49830485  0.19583938  1
  Cu  Cu65  1  0.50000000  0.80419022  0.30248014  1
  Cu  Cu66  1  0.61513665  0.90507202  0.48440968  1
  Cu  Cu67  1  0.61511913  0.51555208  0.42058339  1
  Cu  Cu68  1  0.61514452  0.57947716  0.09495129  1
  Cu  Cu69  1  0.38486335  0.90507202  0.48440968  1
  Cu  Cu70  1  0.38488087  0.51555208  0.42058339  1
  Cu  Cu71  1  0.38485548  0.57947716  0.09495129  1
  Cu  Cu72  1  0.50000000  0.16266914  0.52092079  1
  Cu  Cu73  1  0.50000000  0.47919315  0.64184371  1
  Cu  Cu74  1  0.50000000  0.35813825  0.83738869  1
  Cu  Cu75  1  0.61560844  0.17598871  0.74267151  1
  Cu  Cu76  1  0.61556100  0.25696928  0.43313166  1
  Cu  Cu77  1  0.61561950  0.56687169  0.82391351  1
  Cu  Cu78  1  0.38439156  0.17598871  0.74267151  1
  Cu  Cu79  1  0.38443900  0.25696928  0.43313166  1
  Cu  Cu80  1  0.38438050  0.56687169  0.82391351  1
  Cu  Cu81  1  0.50000000  0.09559625  0.18159127  1
  Cu  Cu82  1  0.50000000  0.81828352  0.91391536  1
  Cu  Cu83  1  0.50000000  0.08586706  0.90448575  1
  Cu  Cu84  1  0.61544511  0.25087814  0.17866765  1
  Cu  Cu85  1  0.61541365  0.82186083  0.07242331  1
  Cu  Cu86  1  0.61551395  0.92771782  0.74939938  1
  Cu  Cu87  1  0.38455489  0.25087814  0.17866765  1
  Cu  Cu88  1  0.38458635  0.82186083  0.07242331  1
  Cu  Cu89  1  0.38448605  0.92771782  0.74939938  1
  Cu  Cu90  1  0.74114594  0.00007780  0.00023232  1
  Cu  Cu91  1  0.25885406  0.00007780  0.00023232  1
  Cu  Cu92  1  0.75414489  0.66696334  0.33317526  1
  Cu  Cu93  1  0.24585511  0.66696334  0.33317526  1
  Cu  Cu94  1  0.75605163  0.33320625  0.66664242  1
  Cu  Cu95  1  0.24394837  0.33320625  0.66664242  1
  Cu  Cu96  1  0.69067063  0.67614525  0.67401669  1
  Cu  Cu97  1  0.69086482  0.32582332  0.00196811  1
  Cu  Cu98  1  0.69105379  0.99774063  0.32365957  1
  Cu  Cu99  1  0.30932937  0.67614525  0.67401669  1
  Cu  Cu100  1  0.30913518  0.32582332  0.00196811  1
  Cu  Cu101  1  0.30894621  0.99774063  0.32365957  1
  Cu  Cu102  1  0.80889809  0.00086369  0.65869658  1
  Cu  Cu103  1  0.80871580  0.34109517  0.34210336  1
  Cu  Cu104  1  0.80859759  0.65813466  0.99938377  1
  Cu  Cu105  1  0.19110191  0.00086369  0.65869658  1
  Cu  Cu106  1  0.19128420  0.34109517  0.34210336  1
  Cu  Cu107  1  0.19140241  0.65813466  0.99938377  1
