# generated using pymatgen
data_Cu(NiC7)2
_symmetry_space_group_name_H-M   'P 1'
_cell_length_a   7.04701300
_cell_length_b   7.28095300
_cell_length_c   20.66920900
_cell_angle_alpha   90.00000000
_cell_angle_beta   90.00000000
_cell_angle_gamma   90.00000000
_symmetry_Int_Tables_number   1
_chemical_formula_structural   Cu(NiC7)2
_chemical_formula_sum   'Cu4 Ni8 C56'
_cell_volume   1060.51583367
_cell_formula_units_Z   4
loop_
 _symmetry_equiv_pos_site_id
 _symmetry_equiv_pos_as_xyz
  1  'x, y, z'
loop_
 _atom_site_type_symbol
 _atom_site_label
 _atom_site_symmetry_multiplicity
 _atom_site_fract_x
 _atom_site_fract_y
 _atom_site_fract_z
 _atom_site_occupancy
  C  C0  1  0.00000000  0.00000000  0.00000000  1
  C  C1  1  0.50000000  0.50000000  0.00000000  1
  C  C2  1  0.00000000  0.00000000  0.50000000  1
  C  C3  1  0.50000000  0.50000000  0.50000000  1
  Ni  Ni4  1  0.37528600  0.14055900  0.58551300  1
  Ni  Ni5  1  0.62471400  0.85944100  0.41448700  1
  Ni  Ni6  1  0.87528600  0.35944100  0.41448700  1
  Ni  Ni7  1  0.62471400  0.85944100  0.08551300  1
  Ni  Ni8  1  0.12471400  0.64055900  0.58551300  1
  Ni  Ni9  1  0.37528600  0.14055900  0.91448700  1
  Ni  Ni10  1  0.12471400  0.64055900  0.91448700  1
  Ni  Ni11  1  0.87528600  0.35944100  0.08551300  1
  Cu  Cu12  1  0.21980100  0.03284300  0.25000000  1
  Cu  Cu13  1  0.78019900  0.96715700  0.75000000  1
  Cu  Cu14  1  0.71980100  0.46715700  0.75000000  1
  Cu  Cu15  1  0.28019900  0.53284300  0.25000000  1
  C  C16  1  0.12602900  0.04498800  0.19303300  1
  C  C17  1  0.87397100  0.95501200  0.80696700  1
  C  C18  1  0.62602900  0.45501200  0.80696700  1
  C  C19  1  0.87397100  0.95501200  0.69303300  1
  C  C20  1  0.37397100  0.54498800  0.19303300  1
  C  C21  1  0.12602900  0.04498800  0.30696700  1
  C  C22  1  0.37397100  0.54498800  0.30696700  1
  C  C23  1  0.62602900  0.45501200  0.69303300  1
  C  C24  1  0.41026400  0.00719700  0.25000000  1
  C  C25  1  0.58973600  0.99280300  0.75000000  1
  C  C26  1  0.91026400  0.49280300  0.75000000  1
  C  C27  1  0.08973600  0.50719700  0.25000000  1
  C  C28  1  0.28792800  0.21679600  0.64851100  1
  C  C29  1  0.71207200  0.78320400  0.35148900  1
  C  C30  1  0.78792800  0.28320400  0.35148900  1
  C  C31  1  0.71207200  0.78320400  0.14851100  1
  C  C32  1  0.21207200  0.71679600  0.64851100  1
  C  C33  1  0.28792800  0.21679600  0.85148900  1
  C  C34  1  0.21207200  0.71679600  0.85148900  1
  C  C35  1  0.78792800  0.28320400  0.14851100  1
  C  C36  1  0.22200700  0.07583000  0.53800600  1
  C  C37  1  0.77799300  0.92417000  0.46199400  1
  C  C38  1  0.72200700  0.42417000  0.46199400  1
  C  C39  1  0.77799300  0.92417000  0.03800600  1
  C  C40  1  0.27799300  0.57583000  0.53800600  1
  C  C41  1  0.22200700  0.07583000  0.96199400  1
  C  C42  1  0.27799300  0.57583000  0.96199400  1
  C  C43  1  0.72200700  0.42417000  0.03800600  1
  C  C44  1  0.00004900  0.21659100  0.05028200  1
  C  C45  1  0.99995100  0.78340900  0.94971800  1
  C  C46  1  0.50004900  0.28340900  0.94971800  1
  C  C47  1  0.99995100  0.78340900  0.55028200  1
  C  C48  1  0.49995100  0.71659100  0.05028200  1
  C  C49  1  0.00004900  0.21659100  0.44971800  1
  C  C50  1  0.49995100  0.71659100  0.44971800  1
  C  C51  1  0.50004900  0.28340900  0.55028200  1
  C  C52  1  0.50424400  0.02241500  0.11033700  1
  C  C53  1  0.49575600  0.97758500  0.88966300  1
  C  C54  1  0.00424400  0.47758500  0.88966300  1
  C  C55  1  0.49575600  0.97758500  0.61033700  1
  C  C56  1  0.99575600  0.52241500  0.11033700  1
  C  C57  1  0.50424400  0.02241500  0.38966300  1
  C  C58  1  0.99575600  0.52241500  0.38966300  1
  C  C59  1  0.00424400  0.47758500  0.61033700  1
  C  C60  1  0.36859500  0.37360700  0.06786400  1
  C  C61  1  0.63140500  0.62639300  0.93213600  1
  C  C62  1  0.86859500  0.12639300  0.93213600  1
  C  C63  1  0.63140500  0.62639300  0.56786400  1
  C  C64  1  0.13140500  0.87360700  0.06786400  1
  C  C65  1  0.36859500  0.37360700  0.43213600  1
  C  C66  1  0.13140500  0.87360700  0.43213600  1
  C  C67  1  0.86859500  0.12639300  0.56786400  1
