# generated using pymatgen
data_Cu3Ni2C7
_symmetry_space_group_name_H-M   'P 1'
_cell_length_a   6.71840000
_cell_length_b   6.74843496
_cell_length_c   14.42353164
_cell_angle_alpha   90.44547209
_cell_angle_beta   100.96910246
_cell_angle_gamma   96.98690113
_symmetry_Int_Tables_number   1
_chemical_formula_structural   Cu3Ni2C7
_chemical_formula_sum   'Cu12 Ni8 C28'
_cell_volume   636.90799302
_cell_formula_units_Z   4
loop_
 _symmetry_equiv_pos_site_id
 _symmetry_equiv_pos_as_xyz
  1  'x, y, z'
loop_
 _atom_site_type_symbol
 _atom_site_label
 _atom_site_symmetry_multiplicity
 _atom_site_fract_x
 _atom_site_fract_y
 _atom_site_fract_z
 _atom_site_occupancy
  C  C0  1  0.88608600  0.10098800  0.75920600  1
  C  C1  1  0.11391400  0.89901200  0.24079400  1
  C  C2  1  0.50000000  0.50000000  0.00000000  1
  C  C3  1  0.50000000  0.50000000  0.50000000  1
  C  C4  1  0.84590900  0.75737900  0.00469000  1
  C  C5  1  0.15409100  0.24262100  0.99531000  1
  C  C6  1  0.83803300  0.59068600  0.92435400  1
  C  C7  1  0.16196700  0.40931400  0.07564600  1
  C  C8  1  0.76427300  0.44558700  0.16137500  1
  C  C9  1  0.23572700  0.55441300  0.83862500  1
  C  C10  1  0.55249000  0.32222100  0.16905600  1
  C  C11  1  0.44751000  0.67777900  0.83094400  1
  C  C12  1  0.53455900  0.15002100  0.89718300  1
  C  C13  1  0.46544100  0.84997900  0.10281700  1
  C  C14  1  0.66978800  0.14597800  0.00036700  1
  C  C15  1  0.33021200  0.85402200  0.99963300  1
  C  C16  1  0.46637400  0.60975700  0.31623100  1
  C  C17  1  0.53362600  0.39024300  0.68376900  1
  C  C18  1  0.68202600  0.71240300  0.36913300  1
  C  C19  1  0.31797400  0.28759700  0.63086700  1
  C  C20  1  0.84439800  0.54856500  0.63008700  1
  C  C21  1  0.15560200  0.45143500  0.36991300  1
  C  C22  1  0.83982700  0.74658400  0.57366400  1
  C  C23  1  0.16017300  0.25341600  0.42633600  1
  C  C24  1  0.70462500  0.16461000  0.50860800  1
  C  C25  1  0.29537500  0.83539000  0.49139200  1
  C  C26  1  0.56213600  0.16229400  0.40728300  1
  C  C27  1  0.43786400  0.83770600  0.59271700  1
  Ni  Ni28  1  0.08810400  0.98315000  0.88566200  1
  Ni  Ni29  1  0.91189600  0.01685000  0.11433800  1
  Ni  Ni30  1  0.88220200  0.44472000  0.77664400  1
  Ni  Ni31  1  0.11779800  0.55528000  0.22335600  1
  Ni  Ni32  1  0.55341200  0.95889200  0.75186400  1
  Ni  Ni33  1  0.44658800  0.04110800  0.24813600  1
  Ni  Ni34  1  0.98166200  0.06121400  0.61721600  1
  Ni  Ni35  1  0.01833800  0.93878600  0.38278400  1
  Cu  Cu36  1  0.79248500  0.61908000  0.98318900  1
  Cu  Cu37  1  0.20751500  0.38092000  0.01681100  1
  Cu  Cu38  1  0.61551400  0.44178500  0.14186000  1
  Cu  Cu39  1  0.38448600  0.55821500  0.85814000  1
  Cu  Cu40  1  0.56877100  0.21670700  0.95984400  1
  Cu  Cu41  1  0.43122900  0.78329300  0.04015600  1
  Cu  Cu42  1  0.57801300  0.59751800  0.36969900  1
  Cu  Cu43  1  0.42198700  0.40248200  0.63030100  1
  Cu  Cu44  1  0.79866900  0.60091200  0.56690800  1
  Cu  Cu45  1  0.20133100  0.39908800  0.43309200  1
  Cu  Cu46  1  0.58026600  0.21183700  0.47299500  1
  Cu  Cu47  1  0.41973400  0.78816300  0.52700500  1
