# generated using pymatgen
data_CuNiC3
_symmetry_space_group_name_H-M   'P 1'
_cell_length_a   15.21500851
_cell_length_b   15.21500851
_cell_length_c   15.21500851
_cell_angle_alpha   70.52877937
_cell_angle_beta   70.52877937
_cell_angle_gamma   109.47122063
_symmetry_Int_Tables_number   1
_chemical_formula_structural   CuNiC3
_chemical_formula_sum   'Cu24 Ni24 C72'
_cell_volume   2711.40697053
_cell_formula_units_Z   24
loop_
 _symmetry_equiv_pos_site_id
 _symmetry_equiv_pos_as_xyz
  1  'x, y, z'
loop_
 _atom_site_type_symbol
 _atom_site_label
 _atom_site_symmetry_multiplicity
 _atom_site_fract_x
 _atom_site_fract_y
 _atom_site_fract_z
 _atom_site_occupancy
  C  C0  1  -0.00000000  -0.00000000  0.50060098  1
  C  C1  1  0.49939902  0.50000000  0.50000000  1
  C  C2  1  0.00060098  0.50060098  0.99939902  1
  C  C3  1  0.50000000  0.99939902  0.00000000  1
  C  C4  1  0.25000000  0.94268732  0.30731268  1
  C  C5  1  0.75000000  0.55731268  0.19268732  1
  C  C6  1  0.69268732  0.75000000  0.55731268  1
  C  C7  1  0.80731268  0.25000000  0.94268732  1
  C  C8  1  0.05731268  0.30731268  0.25000000  1
  C  C9  1  0.44268732  0.19268732  0.75000000  1
  C  C10  1  0.75000000  0.05686882  0.69313118  1
  C  C11  1  0.25000000  0.44313118  0.80686882  1
  C  C12  1  0.30686882  0.25000000  0.44313118  1
  C  C13  1  0.19313118  0.75000000  0.05686882  1
  C  C14  1  0.94313118  0.69313118  0.75000000  1
  C  C15  1  0.55686882  0.80686882  0.25000000  1
  C  C16  1  0.10207719  0.99034774  0.03894835  1
  C  C17  1  0.97070390  0.50965226  0.38827055  1
  C  C18  1  0.52929610  0.14102555  0.46105165  1
  C  C19  1  0.39792281  0.35897445  0.11172945  1
  C  C20  1  0.88827055  0.89792281  0.14102555  1
  C  C21  1  0.53894835  0.02929610  0.35897445  1
  C  C22  1  0.61172945  0.47070390  0.99034774  1
  C  C23  1  0.96105165  0.60207719  0.50965226  1
  C  C24  1  0.00965226  0.11172945  0.02929610  1
  C  C25  1  0.49034774  0.46105165  0.89792281  1
  C  C26  1  0.85897445  0.38827055  0.60207719  1
  C  C27  1  0.64102555  0.03894835  0.47070390  1
  C  C28  1  0.89917525  0.00952208  0.95816667  1
  C  C29  1  0.03231125  0.49047792  0.61034683  1
  C  C30  1  0.46768875  0.85734192  0.54183333  1
  C  C31  1  0.60082475  0.64265808  0.88965317  1
  C  C32  1  0.11034683  0.10082475  0.85734192  1
  C  C33  1  0.45816667  0.96768875  0.64265808  1
  C  C34  1  0.38965317  0.53231125  0.00952208  1
  C  C35  1  0.04183333  0.39917525  0.49047792  1
  C  C36  1  0.99047792  0.88965317  0.96768875  1
  C  C37  1  0.50952208  0.54183333  0.10082475  1
  C  C38  1  0.14265808  0.61034683  0.39917525  1
  C  C39  1  0.35734192  0.95816667  0.53231125  1
  C  C40  1  -0.00000000  0.00000000  0.21826711  1
  C  C41  1  0.78173289  0.50000000  0.50000000  1
  C  C42  1  0.71826711  0.21826711  0.28173289  1
  C  C43  1  0.50000000  0.28173289  0.00000000  1
  Ni  Ni44  1  0.22126183  0.98442987  0.07745861  1
  Ni  Ni45  1  0.93811152  0.51557013  0.26316804  1
  Ni  Ni46  1  0.56188848  0.29872044  0.42254139  1
  Ni  Ni47  1  0.27873817  0.20127956  0.23683196  1
  Ni  Ni48  1  0.76316804  0.77873817  0.29872044  1
  Ni  Ni49  1  0.57745861  0.06188848  0.20127956  1
  Ni  Ni50  1  0.73683196  0.43811152  0.98442987  1
  Ni  Ni51  1  0.92254139  0.72126183  0.51557013  1
  Ni  Ni52  1  0.01557013  0.23683196  0.06188848  1
  Ni  Ni53  1  0.48442987  0.42254139  0.77873817  1
  Ni  Ni54  1  0.70127956  0.26316804  0.72126183  1
  Ni  Ni55  1  0.79872044  0.07745861  0.43811152  1
  Ni  Ni56  1  0.77934741  0.01554631  0.92082778  1
  Ni  Ni57  1  0.06362592  0.48445369  0.73619889  1
  Ni  Ni58  1  0.43637408  0.70017519  0.57917222  1
  Ni  Ni59  1  0.72065259  0.79982481  0.76380111  1
  Ni  Ni60  1  0.23619889  0.22065259  0.70017519  1
  Ni  Ni61  1  0.42082778  0.93637408  0.79982481  1
  Ni  Ni62  1  0.26380111  0.56362592  0.01554631  1
  Ni  Ni63  1  0.07917222  0.27934741  0.48445369  1
  Ni  Ni64  1  0.98445369  0.76380111  0.93637408  1
  Ni  Ni65  1  0.51554631  0.57917222  0.22065259  1
  Ni  Ni66  1  0.29982481  0.73619889  0.27934741  1
  Ni  Ni67  1  0.20017519  0.92082778  0.56362592  1
  C  C68  1  0.98183748  0.79711333  0.13658516  1
  C  C69  1  0.06630151  0.70288667  0.31527585  1
  C  C70  1  0.43369849  0.11842264  0.36341484  1
  C  C71  1  0.51816252  0.38157736  0.18472415  1
  C  C72  1  0.81527585  0.01816252  0.11842264  1
  C  C73  1  0.63658516  0.93369849  0.38157736  1
  C  C74  1  0.68472415  0.56630151  0.79711333  1
  C  C75  1  0.86341484  0.48183748  0.70288667  1
  C  C76  1  0.20288667  0.18472415  0.93369849  1
  C  C77  1  0.29711333  0.36341484  0.01816252  1
  C  C78  1  0.88157736  0.31527585  0.48183748  1
  C  C79  1  0.61842264  0.13658516  0.56630151  1
  C  C80  1  0.01818919  0.20303452  0.86035387  1
  C  C81  1  0.93661161  0.29696548  0.68484533  1
  C  C82  1  0.56338839  0.87854306  0.63964613  1
  C  C83  1  0.48181081  0.62145694  0.81515467  1
  C  C84  1  0.18484533  0.98181081  0.87854306  1
  C  C85  1  0.36035387  0.06338839  0.62145694  1
  C  C86  1  0.31515467  0.43661161  0.20303452  1
  C  C87  1  0.13964613  0.51818919  0.29696548  1
  C  C88  1  0.79696548  0.81515467  0.06338839  1
  C  C89  1  0.70303452  0.63964613  0.98181081  1
  C  C90  1  0.12145694  0.68484533  0.51818919  1
  C  C91  1  0.37854306  0.86035387  0.43661161  1
  C  C92  1  -0.00000000  0.00000000  0.80301049  1
  C  C93  1  0.19698951  0.50000000  0.50000000  1
  C  C94  1  0.30301049  0.80301049  0.69698951  1
  C  C95  1  0.50000000  0.69698951  -0.00000000  1
  Cu  Cu96  1  0.29001696  0.98336379  0.09673873  1
  Cu  Cu97  1  0.91989748  0.51663621  0.19334683  1
  Cu  Cu98  1  0.58010252  0.38675570  0.40326127  1
  Cu  Cu99  1  0.20998304  0.11324430  0.30665317  1
  Cu  Cu100  1  0.69334683  0.70998304  0.38675570  1
  Cu  Cu101  1  0.59673873  0.08010252  0.11324430  1
  Cu  Cu102  1  0.80665317  0.41989748  0.98336379  1
  Cu  Cu103  1  0.90326127  0.79001696  0.51663621  1
  Cu  Cu104  1  0.01663621  0.30665317  0.08010252  1
  Cu  Cu105  1  0.48336379  0.40326127  0.70998304  1
  Cu  Cu106  1  0.61324430  0.19334683  0.79001696  1
  Cu  Cu107  1  0.88675570  0.09673873  0.41989748  1
  Cu  Cu108  1  0.70977090  0.01701123  0.90333197  1
  Cu  Cu109  1  0.07965680  0.48298877  0.80724033  1
  Cu  Cu110  1  0.42034320  0.61310287  0.59666803  1
  Cu  Cu111  1  0.79022910  0.88689713  0.69275967  1
  Cu  Cu112  1  0.30724033  0.29022910  0.61310287  1
  Cu  Cu113  1  0.40333197  0.92034320  0.88689713  1
  Cu  Cu114  1  0.19275967  0.57965680  0.01701123  1
  Cu  Cu115  1  0.09666803  0.20977090  0.48298877  1
  Cu  Cu116  1  0.98298877  0.69275967  0.92034320  1
  Cu  Cu117  1  0.51701123  0.59666803  0.29022910  1
  Cu  Cu118  1  0.38689713  0.80724033  0.20977090  1
  Cu  Cu119  1  0.11310287  0.90333197  0.57965680  1
