# generated using pymatgen
data_CuNiC9
_symmetry_space_group_name_H-M   'P 1'
_cell_length_a   8.38002700
_cell_length_b   7.01039800
_cell_length_c   9.12816972
_cell_angle_alpha   66.60331942
_cell_angle_beta   90.00000000
_cell_angle_gamma   90.00000000
_symmetry_Int_Tables_number   1
_chemical_formula_structural   CuNiC9
_chemical_formula_sum   'Cu4 Ni4 C36'
_cell_volume   492.16334832
_cell_formula_units_Z   4
loop_
 _symmetry_equiv_pos_site_id
 _symmetry_equiv_pos_as_xyz
  1  'x, y, z'
loop_
 _atom_site_type_symbol
 _atom_site_label
 _atom_site_symmetry_multiplicity
 _atom_site_fract_x
 _atom_site_fract_y
 _atom_site_fract_z
 _atom_site_occupancy
  Ni  Ni0  1  0.94077300  0.69453000  0.18063900  1
  Ni  Ni1  1  0.44077300  0.30547000  0.31936100  1
  Ni  Ni2  1  0.55922700  0.69453000  0.68063900  1
  Ni  Ni3  1  0.05922700  0.30547000  0.81936100  1
  Cu  Cu4  1  0.07472900  0.22993500  0.38989400  1
  Cu  Cu5  1  0.92527100  0.77006500  0.61010600  1
  Cu  Cu6  1  0.57472900  0.77006500  0.11010600  1
  Cu  Cu7  1  0.42527100  0.22993500  0.88989400  1
  C  C8  1  0.73292900  0.05980600  0.75954800  1
  C  C9  1  0.22754900  0.53059500  0.03208600  1
  C  C10  1  0.76707100  0.05980600  0.25954800  1
  C  C11  1  0.27245100  0.53059500  0.53208600  1
  C  C12  1  0.23292900  0.94019400  0.74045200  1
  C  C13  1  0.72754900  0.46940500  0.46791400  1
  C  C14  1  0.77245100  0.46940500  0.96791400  1
  C  C15  1  0.26707100  0.94019400  0.24045200  1
  C  C16  1  0.17385900  0.74858200  0.89914500  1
  C  C17  1  0.61009000  0.11236300  0.31461200  1
  C  C18  1  0.88991000  0.11236300  0.81461200  1
  C  C19  1  0.39022100  0.55072100  0.10298100  1
  C  C20  1  0.82614100  0.25141800  0.10085500  1
  C  C21  1  0.09523800  0.97522600  0.62014600  1
  C  C22  1  0.60977900  0.44927900  0.89701900  1
  C  C23  1  0.09139400  0.48404300  0.15395100  1
  C  C24  1  0.26502900  0.37486300  0.45097300  1
  C  C25  1  0.90476200  0.02477400  0.37985400  1
  C  C26  1  0.40476200  0.97522600  0.12014600  1
  C  C27  1  0.76011700  0.87941900  0.20317600  1
  C  C28  1  0.26011700  0.12058100  0.29682400  1
  C  C29  1  0.32614100  0.74858200  0.39914500  1
  C  C30  1  0.59523800  0.02477400  0.87985400  1
  C  C31  1  0.11009000  0.88763700  0.18538800  1
  C  C32  1  0.23988300  0.12058100  0.79682400  1
  C  C33  1  0.90860600  0.51595700  0.84604900  1
  C  C34  1  0.23497100  0.37486300  0.95097300  1
  C  C35  1  0.76502900  0.62513700  0.04902700  1
  C  C36  1  0.89022100  0.44927900  0.39701900  1
  C  C37  1  0.40860600  0.48404300  0.65395100  1
  C  C38  1  0.59139400  0.51595700  0.34604900  1
  C  C39  1  0.38991000  0.88763700  0.68538800  1
  C  C40  1  0.73988300  0.87941900  0.70317600  1
  C  C41  1  0.10977900  0.55072100  0.60298100  1
  C  C42  1  0.73497100  0.62513700  0.54902700  1
  C  C43  1  0.67385900  0.25141800  0.60085500  1
