# generated using pymatgen
data_Cu3Ni3C5
_symmetry_space_group_name_H-M   'P 1'
_cell_length_a   9.12876600
_cell_length_b   12.31238200
_cell_length_c   13.29316400
_cell_angle_alpha   90.00000000
_cell_angle_beta   90.00000000
_cell_angle_gamma   90.00000000
_symmetry_Int_Tables_number   1
_chemical_formula_structural   Cu3Ni3C5
_chemical_formula_sum   'Cu12 Ni12 C20'
_cell_volume   1494.10981571
_cell_formula_units_Z   4
loop_
 _symmetry_equiv_pos_site_id
 _symmetry_equiv_pos_as_xyz
  1  'x, y, z'
loop_
 _atom_site_type_symbol
 _atom_site_label
 _atom_site_symmetry_multiplicity
 _atom_site_fract_x
 _atom_site_fract_y
 _atom_site_fract_z
 _atom_site_occupancy
  C  C0  1  0.46709200  0.75000000  0.13814300  1
  C  C1  1  0.03290800  0.75000000  0.63814300  1
  C  C2  1  0.53290800  0.25000000  0.86185700  1
  C  C3  1  0.96709200  0.25000000  0.36185700  1
  C  C4  1  0.67965200  0.75000000  0.11305100  1
  C  C5  1  0.82034800  0.75000000  0.61305100  1
  C  C6  1  0.32034800  0.25000000  0.88694900  1
  C  C7  1  0.17965200  0.25000000  0.38694900  1
  C  C8  1  0.01541900  0.75000000  0.17609700  1
  C  C9  1  0.48458100  0.75000000  0.67609700  1
  C  C10  1  0.98458100  0.25000000  0.82390300  1
  C  C11  1  0.51541900  0.25000000  0.32390300  1
  C  C12  1  0.98045400  0.65754800  0.02910600  1
  C  C13  1  0.51954600  0.84245200  0.52910600  1
  C  C14  1  0.01954600  0.15754800  0.97089400  1
  C  C15  1  0.48045400  0.34245200  0.47089400  1
  C  C16  1  0.01954600  0.34245200  0.97089400  1
  C  C17  1  0.48045400  0.15754800  0.47089400  1
  C  C18  1  0.98045400  0.84245200  0.02910600  1
  C  C19  1  0.51954600  0.65754800  0.52910600  1
  Ni  Ni20  1  0.80692800  0.75000000  0.24432500  1
  Ni  Ni21  1  0.69307200  0.75000000  0.74432500  1
  Ni  Ni22  1  0.19307200  0.25000000  0.75567500  1
  Ni  Ni23  1  0.30692800  0.25000000  0.25567500  1
  Ni  Ni24  1  0.75605500  0.61594500  0.03213900  1
  Ni  Ni25  1  0.74394500  0.88405500  0.53213900  1
  Ni  Ni26  1  0.24394500  0.11594500  0.96786100  1
  Ni  Ni27  1  0.25605500  0.38405500  0.46786100  1
  Ni  Ni28  1  0.24394500  0.38405500  0.96786100  1
  Ni  Ni29  1  0.25605500  0.11594500  0.46786100  1
  Ni  Ni30  1  0.75605500  0.88405500  0.03213900  1
  Ni  Ni31  1  0.74394500  0.61594500  0.53213900  1
  Cu  Cu32  1  0.36390700  0.75000000  0.98474600  1
  Cu  Cu33  1  0.13609300  0.75000000  0.48474600  1
  Cu  Cu34  1  0.63609300  0.25000000  0.01525400  1
  Cu  Cu35  1  0.86390700  0.25000000  0.51525400  1
  Cu  Cu36  1  0.42014200  0.59809700  0.22295400  1
  Cu  Cu37  1  0.07985800  0.90190300  0.72295400  1
  Cu  Cu38  1  0.57985800  0.09809700  0.77704600  1
  Cu  Cu39  1  0.92014200  0.40190300  0.27704600  1
  Cu  Cu40  1  0.57985800  0.40190300  0.77704600  1
  Cu  Cu41  1  0.92014200  0.09809700  0.27704600  1
  Cu  Cu42  1  0.42014200  0.90190300  0.22295400  1
  Cu  Cu43  1  0.07985800  0.59809700  0.72295400  1
