# generated using pymatgen
data_Cu6NiC29
_symmetry_space_group_name_H-M   'P 1'
_cell_length_a   8.63161391
_cell_length_b   8.63161391
_cell_length_c   8.63161352
_cell_angle_alpha   60.74485392
_cell_angle_beta   60.74485392
_cell_angle_gamma   60.74485714
_symmetry_Int_Tables_number   1
_chemical_formula_structural   Cu6NiC29
_chemical_formula_sum   'Cu6 Ni1 C29'
_cell_volume   462.38029344
_cell_formula_units_Z   1
loop_
 _symmetry_equiv_pos_site_id
 _symmetry_equiv_pos_as_xyz
  1  'x, y, z'
loop_
 _atom_site_type_symbol
 _atom_site_label
 _atom_site_symmetry_multiplicity
 _atom_site_fract_x
 _atom_site_fract_y
 _atom_site_fract_z
 _atom_site_occupancy
  C  C0  1  0.85593800  0.85593800  0.85593800  1
  C  C1  1  0.64439400  0.64439400  0.64439400  1
  C  C2  1  0.35691900  0.35691900  0.35691900  1
  C  C3  1  0.99618400  0.99618400  0.99618400  1
  C  C4  1  0.50078300  0.50078300  0.50078300  1
  Ni  Ni5  1  0.14361400  0.14361400  0.14361400  1
  Cu  Cu6  1  0.04413700  0.74820000  0.45827100  1
  Cu  Cu7  1  0.74820000  0.45827100  0.04413700  1
  Cu  Cu8  1  0.45827100  0.04413700  0.74820000  1
  Cu  Cu9  1  0.54659600  0.95418400  0.25215700  1
  Cu  Cu10  1  0.25215700  0.54659600  0.95418400  1
  Cu  Cu11  1  0.95418400  0.25215700  0.54659600  1
  C  C12  1  0.49772500  0.88636800  0.68536200  1
  C  C13  1  0.88636800  0.68536200  0.49772500  1
  C  C14  1  0.73902500  0.94035500  0.08996100  1
  C  C15  1  0.68536200  0.49772500  0.88636800  1
  C  C16  1  0.39157800  0.98618200  0.18861300  1
  C  C17  1  0.56255700  0.76017000  0.41144600  1
  C  C18  1  0.08996100  0.73902500  0.94035500  1
  C  C19  1  0.41144600  0.56255700  0.76017000  1
  C  C20  1  0.00254800  0.81621300  0.61312300  1
  C  C21  1  0.76017000  0.41144600  0.56255700  1
  C  C22  1  0.05666500  0.90917800  0.26083600  1
  C  C23  1  0.81621300  0.61312300  0.00254800  1
  C  C24  1  0.18861300  0.39157800  0.98618200  1
  C  C25  1  0.94035500  0.08996100  0.73902500  1
  C  C26  1  0.23879300  0.59050600  0.44134500  1
  C  C27  1  0.98618200  0.18861300  0.39157800  1
  C  C28  1  0.59050600  0.44134500  0.23879300  1
  C  C29  1  0.90917800  0.26083600  0.05666500  1
  C  C30  1  0.44134500  0.23879300  0.59050600  1
  C  C31  1  0.61312300  0.00254800  0.81621300  1
  C  C32  1  0.31392700  0.50175600  0.11439100  1
  C  C33  1  0.26083600  0.05666500  0.90917800  1
  C  C34  1  0.11439100  0.31392700  0.50175600  1
  C  C35  1  0.50175600  0.11439100  0.31392700  1
