# generated using pymatgen
data_Cu6Ni18C
_symmetry_space_group_name_H-M   'P 1'
_cell_length_a   6.48368949
_cell_length_b   13.54790553
_cell_length_c   21.65654949
_cell_angle_alpha   90.00000000
_cell_angle_beta   90.00000000
_cell_angle_gamma   90.00000000
_symmetry_Int_Tables_number   1
_chemical_formula_structural   Cu6Ni18C
_chemical_formula_sum   'Cu48 Ni144 C8'
_cell_volume   1902.32024478
_cell_formula_units_Z   8
loop_
 _symmetry_equiv_pos_site_id
 _symmetry_equiv_pos_as_xyz
  1  'x, y, z'
loop_
 _atom_site_type_symbol
 _atom_site_label
 _atom_site_symmetry_multiplicity
 _atom_site_fract_x
 _atom_site_fract_y
 _atom_site_fract_z
 _atom_site_occupancy
  Ni  Ni0  1  0.84953582  0.95204370  0.24125066  1
  Ni  Ni1  1  0.15046418  0.04795630  0.74125066  1
  Ni  Ni2  1  0.84953582  0.54795630  0.74125066  1
  Ni  Ni3  1  0.15046418  0.45204370  0.24125066  1
  Ni  Ni4  1  0.97232212  0.85329133  0.28114978  1
  Ni  Ni5  1  0.02767788  0.14670867  0.78114978  1
  Ni  Ni6  1  0.97232212  0.64670867  0.78114978  1
  Ni  Ni7  1  0.02767788  0.35329133  0.28114978  1
  Ni  Ni8  1  0.94383708  0.84815982  0.19961547  1
  Ni  Ni9  1  0.05616292  0.15184018  0.69961547  1
  Ni  Ni10  1  0.94383708  0.65184018  0.69961547  1
  Ni  Ni11  1  0.05616292  0.34815982  0.19961547  1
  Ni  Ni12  1  0.58847746  0.96867637  0.18483906  1
  Ni  Ni13  1  0.41152254  0.03132363  0.68483906  1
  Ni  Ni14  1  0.58847746  0.53132363  0.68483906  1
  Ni  Ni15  1  0.41152254  0.46867637  0.18483906  1
  Ni  Ni16  1  0.56861137  0.86548058  0.13405707  1
  Ni  Ni17  1  0.43138863  0.13451942  0.63405707  1
  Ni  Ni18  1  0.56861137  0.63451942  0.63405707  1
  Ni  Ni19  1  0.43138863  0.36548058  0.13405707  1
  Ni  Ni20  1  0.34852335  0.90556786  0.17623624  1
  Ni  Ni21  1  0.65147665  0.09443214  0.67623624  1
  Ni  Ni22  1  0.34852335  0.59443214  0.67623624  1
  Ni  Ni23  1  0.65147665  0.40556786  0.17623624  1
  Ni  Ni24  1  0.57932807  0.99353033  0.27598068  1
  Ni  Ni25  1  0.42067193  0.00646967  0.77598068  1
  Ni  Ni26  1  0.57932807  0.50646967  0.77598068  1
  Ni  Ni27  1  0.42067193  0.49353033  0.27598068  1
  Ni  Ni28  1  0.35639464  0.93643605  0.30904821  1
  Ni  Ni29  1  0.64360536  0.06356395  0.80904821  1
  Ni  Ni30  1  0.35639464  0.56356395  0.80904821  1
  Ni  Ni31  1  0.64360536  0.43643605  0.30904821  1
  Ni  Ni32  1  0.60108313  0.92385434  0.34540740  1
  Ni  Ni33  1  0.39891687  0.07614566  0.84540740  1
  Ni  Ni34  1  0.60108313  0.57614566  0.84540740  1
  Ni  Ni35  1  0.39891687  0.42385434  0.34540740  1
  Ni  Ni36  1  0.72045572  0.60897792  0.26907084  1
  Ni  Ni37  1  0.27954428  0.39102208  0.76907084  1
  Ni  Ni38  1  0.72045572  0.89102208  0.76907084  1
  Ni  Ni39  1  0.27954428  0.10897792  0.26907084  1
  Ni  Ni40  1  0.91451131  0.66949836  0.22413117  1
  Ni  Ni41  1  0.08548869  0.33050164  0.72413117  1
  Ni  Ni42  1  0.91451131  0.83050164  0.72413117  1
  Ni  Ni43  1  0.08548869  0.16949836  0.22413117  1
  Ni  Ni44  1  0.90242040  0.68817626  0.30595845  1
  Ni  Ni45  1  0.09757960  0.31182374  0.80595845  1
  Ni  Ni46  1  0.90242040  0.81182374  0.80595845  1
  Ni  Ni47  1  0.09757960  0.18817626  0.30595845  1
  Ni  Ni48  1  0.37182511  0.63561480  0.20558876  1
  Ni  Ni49  1  0.62817489  0.36438520  0.70558876  1
  Ni  Ni50  1  0.37182511  0.86438520  0.70558876  1
  Ni  Ni51  1  0.62817489  0.13561480  0.20558876  1
  Ni  Ni52  1  0.25598984  0.74367074  0.17314124  1
  Ni  Ni53  1  0.74401016  0.25632926  0.67314124  1
  Ni  Ni54  1  0.25598984  0.75632926  0.67314124  1
  Ni  Ni55  1  0.74401016  0.24367074  0.17314124  1
  Ni  Ni56  1  0.49453150  0.69847662  0.14295925  1
  Ni  Ni57  1  0.50546850  0.30152338  0.64295925  1
  Ni  Ni58  1  0.49453150  0.80152338  0.64295925  1
  Ni  Ni59  1  0.50546850  0.19847662  0.14295925  1
  Ni  Ni60  1  0.39752570  0.66581894  0.33083678  1
  Ni  Ni61  1  0.60247430  0.33418106  0.83083678  1
  Ni  Ni62  1  0.39752570  0.83418106  0.83083678  1
  Ni  Ni63  1  0.60247430  0.16581894  0.33083678  1
  Ni  Ni64  1  0.50943930  0.76451417  0.37415610  1
  Ni  Ni65  1  0.49056070  0.23548583  0.87415610  1
  Ni  Ni66  1  0.50943930  0.73548583  0.87415610  1
  Ni  Ni67  1  0.49056070  0.26451417  0.37415610  1
  Ni  Ni68  1  0.26321315  0.78118543  0.33837280  1
  Ni  Ni69  1  0.73678685  0.21881457  0.83837280  1
  Ni  Ni70  1  0.26321315  0.71881457  0.83837280  1
  Ni  Ni71  1  0.73678685  0.28118543  0.33837280  1
  Ni  Ni72  1  0.83507372  0.70467365  0.06902419  1
  Ni  Ni73  1  0.16492628  0.29532635  0.56902419  1
  Ni  Ni74  1  0.83507372  0.79532635  0.56902419  1
  Ni  Ni75  1  0.16492628  0.20467365  0.06902419  1
  Ni  Ni76  1  0.81791896  0.59533079  0.11476758  1
  Ni  Ni77  1  0.18208104  0.40466921  0.61476758  1
  Ni  Ni78  1  0.81791896  0.90466921  0.61476758  1
  Ni  Ni79  1  0.18208104  0.09533079  0.11476758  1
  Ni  Ni80  1  0.05953523  0.63111225  0.08340173  1
  Ni  Ni81  1  0.94046477  0.36888775  0.58340173  1
  Ni  Ni82  1  0.05953523  0.86888775  0.58340173  1
  Ni  Ni83  1  0.94046477  0.13111225  0.08340173  1
  Ni  Ni84  1  0.83556465  0.73440441  0.97092052  1
  Ni  Ni85  1  0.16443535  0.26559559  0.47092052  1
  Ni  Ni86  1  0.83556465  0.76559559  0.47092052  1
  Ni  Ni87  1  0.16443535  0.23440441  0.97092052  1
  Ni  Ni88  1  0.07405793  0.67468853  0.95153284  1
  Ni  Ni89  1  0.92594207  0.32531147  0.45153284  1
  Ni  Ni90  1  0.07405793  0.82531147  0.45153284  1
  Ni  Ni91  1  0.92594207  0.17468853  0.95153284  1
  Ni  Ni92  1  0.85637908  0.66136101  0.90249926  1
  Ni  Ni93  1  0.14362092  0.33863899  0.40249926  1
  Ni  Ni94  1  0.85637908  0.83863899  0.40249926  1
  Ni  Ni95  1  0.14362092  0.16136101  0.90249926  1
  Ni  Ni96  1  0.56196428  0.69073994  0.01261806  1
  Ni  Ni97  1  0.43803572  0.30926006  0.51261806  1
  Ni  Ni98  1  0.56196428  0.80926006  0.51261806  1
  Ni  Ni99  1  0.43803572  0.19073994  0.01261806  1
  Ni  Ni100  1  0.45111398  0.59632182  0.96580069  1
  Ni  Ni101  1  0.54888602  0.40367818  0.46580069  1
  Ni  Ni102  1  0.45111398  0.90367818  0.46580069  1
  Ni  Ni103  1  0.54888602  0.09632182  0.96580069  1
  Ni  Ni104  1  0.46561650  0.58004272  0.04689881  1
  Ni  Ni105  1  0.53438350  0.41995728  0.54689881  1
  Ni  Ni106  1  0.46561650  0.91995728  0.54689881  1
  Ni  Ni107  1  0.53438350  0.08004272  0.04689881  1
  Ni  Ni108  1  0.01315112  0.36782276  0.04126773  1
  Ni  Ni109  1  0.98684888  0.63217724  0.54126773  1
  Ni  Ni110  1  0.01315112  0.13217724  0.54126773  1
  Ni  Ni111  1  0.98684888  0.86782276  0.04126773  1
  Ni  Ni112  1  0.16042499  0.46837317  0.07246578  1
  Ni  Ni113  1  0.83957501  0.53162683  0.57246578  1
  Ni  Ni114  1  0.16042499  0.03162683  0.57246578  1
  Ni  Ni115  1  0.83957501  0.96837317  0.07246578  1
  Ni  Ni116  1  0.91783196  0.43619634  0.10596877  1
  Ni  Ni117  1  0.08216804  0.56380366  0.60596877  1
  Ni  Ni118  1  0.91783196  0.06380366  0.60596877  1
  Ni  Ni119  1  0.08216804  0.93619634  0.10596877  1
  Ni  Ni120  1  0.02110031  0.40681511  0.91692720  1
  Ni  Ni121  1  0.97889969  0.59318489  0.41692720  1
  Ni  Ni122  1  0.02110031  0.09318489  0.41692720  1
  Ni  Ni123  1  0.97889969  0.90681511  0.91692720  1
  Ni  Ni124  1  0.91983514  0.50919465  0.87461619  1
  Ni  Ni125  1  0.08016486  0.49080535  0.37461619  1
  Ni  Ni126  1  0.91983514  0.99080535  0.37461619  1
  Ni  Ni127  1  0.08016486  0.00919465  0.87461619  1
  Ni  Ni128  1  0.16076795  0.52111124  0.91374909  1
  Ni  Ni129  1  0.83923205  0.47888876  0.41374909  1
  Ni  Ni130  1  0.16076795  0.97888876  0.41374909  1
  Ni  Ni131  1  0.83923205  0.02111124  0.91374909  1
  Ni  Ni132  1  0.67719694  0.34983501  0.97467032  1
  Ni  Ni133  1  0.32280306  0.65016499  0.47467032  1
  Ni  Ni134  1  0.67719694  0.15016499  0.47467032  1
  Ni  Ni135  1  0.32280306  0.84983501  0.97467032  1
  Ni  Ni136  1  0.48997930  0.41530110  0.01996490  1
  Ni  Ni137  1  0.51002070  0.58469890  0.51996490  1
  Ni  Ni138  1  0.48997930  0.08469890  0.51996490  1
  Ni  Ni139  1  0.51002070  0.91530110  0.01996490  1
  Ni  Ni140  1  0.51444484  0.44012768  0.93905333  1
  Ni  Ni141  1  0.48555516  0.55987232  0.43905333  1
  Ni  Ni142  1  0.51444484  0.05987232  0.43905333  1
  Ni  Ni143  1  0.48555516  0.94012768  0.93905333  1
  C  C144  1  0.57930459  0.78762563  0.25215863  1
  C  C145  1  0.42069541  0.21237437  0.75215863  1
  C  C146  1  0.57930459  0.71237437  0.75215863  1
  C  C147  1  0.42069541  0.28762563  0.25215863  1
  C  C148  1  0.83635319  0.52677183  0.99695882  1
  C  C149  1  0.16364681  0.47322817  0.49695882  1
  C  C150  1  0.83635319  0.97322817  0.49695882  1
  C  C151  1  0.16364681  0.02677183  0.99695882  1
  Cu  Cu152  1  0.86826515  0.87152610  0.24270649  1
  Cu  Cu153  1  0.13173485  0.12847390  0.74270649  1
  Cu  Cu154  1  0.86826515  0.62847390  0.74270649  1
  Cu  Cu155  1  0.13173485  0.37152610  0.24270649  1
  Cu  Cu156  1  0.51691720  0.89607045  0.17847852  1
  Cu  Cu157  1  0.48308280  0.10392955  0.67847852  1
  Cu  Cu158  1  0.51691720  0.60392955  0.67847852  1
  Cu  Cu159  1  0.48308280  0.39607045  0.17847852  1
  Cu  Cu160  1  0.52255853  0.92801218  0.30039254  1
  Cu  Cu161  1  0.47744147  0.07198782  0.80039254  1
  Cu  Cu162  1  0.52255853  0.57198782  0.80039254  1
  Cu  Cu163  1  0.47744147  0.42801218  0.30039254  1
  Cu  Cu164  1  0.81045981  0.67785014  0.26378710  1
  Cu  Cu165  1  0.18954019  0.32214986  0.76378710  1
  Cu  Cu166  1  0.81045981  0.82214986  0.76378710  1
  Cu  Cu167  1  0.18954019  0.17785014  0.26378710  1
  Cu  Cu168  1  0.40321927  0.70884728  0.18526049  1
  Cu  Cu169  1  0.59678073  0.29115272  0.68526049  1
  Cu  Cu170  1  0.40321927  0.79115272  0.68526049  1
  Cu  Cu171  1  0.59678073  0.20884728  0.18526049  1
  Cu  Cu172  1  0.41565972  0.74687648  0.33328120  1
  Cu  Cu173  1  0.58434028  0.25312352  0.83328120  1
  Cu  Cu174  1  0.41565972  0.75312352  0.83328120  1
  Cu  Cu175  1  0.58434028  0.24687648  0.33328120  1
  Cu  Cu176  1  0.89260802  0.62908590  0.07421208  1
  Cu  Cu177  1  0.10739198  0.37091410  0.57421208  1
  Cu  Cu178  1  0.89260802  0.87091410  0.57421208  1
  Cu  Cu179  1  0.10739198  0.12908590  0.07421208  1
  Cu  Cu180  1  0.90486709  0.66778808  0.95106699  1
  Cu  Cu181  1  0.09513291  0.33221192  0.45106699  1
  Cu  Cu182  1  0.90486709  0.83221192  0.45106699  1
  Cu  Cu183  1  0.09513291  0.16778808  0.95106699  1
  Cu  Cu184  1  0.54753157  0.61066877  0.00664015  1
  Cu  Cu185  1  0.45246843  0.38933123  0.50664015  1
  Cu  Cu186  1  0.54753157  0.88933123  0.50664015  1
  Cu  Cu187  1  0.45246843  0.11066877  0.00664015  1
  Cu  Cu188  1  0.00401161  0.44195446  0.06237528  1
  Cu  Cu189  1  0.99598839  0.55804554  0.56237528  1
  Cu  Cu190  1  0.00401161  0.05804554  0.56237528  1
  Cu  Cu191  1  0.99598839  0.94195446  0.06237528  1
  Cu  Cu192  1  0.00644507  0.48801238  0.91620056  1
  Cu  Cu193  1  0.99355493  0.51198762  0.41620056  1
  Cu  Cu194  1  0.00644507  0.01198762  0.41620056  1
  Cu  Cu195  1  0.99355493  0.98801238  0.91620056  1
  Cu  Cu196  1  0.59918958  0.42149582  0.98143421  1
  Cu  Cu197  1  0.40081042  0.57850418  0.48143421  1
  Cu  Cu198  1  0.59918958  0.07850418  0.48143421  1
  Cu  Cu199  1  0.40081042  0.92149582  0.98143421  1
