# generated using pymatgen
data_Cu12Ni3C4
_symmetry_space_group_name_H-M   'P 1'
_cell_length_a   11.10975100
_cell_length_b   9.93735300
_cell_length_c   17.17991940
_cell_angle_alpha   69.48868276
_cell_angle_beta   90.00000000
_cell_angle_gamma   90.00000000
_symmetry_Int_Tables_number   1
_chemical_formula_structural   Cu12Ni3C4
_chemical_formula_sum   'Cu48 Ni12 C16'
_cell_volume   1776.44476219
_cell_formula_units_Z   4
loop_
 _symmetry_equiv_pos_site_id
 _symmetry_equiv_pos_as_xyz
  1  'x, y, z'
loop_
 _atom_site_type_symbol
 _atom_site_label
 _atom_site_symmetry_multiplicity
 _atom_site_fract_x
 _atom_site_fract_y
 _atom_site_fract_z
 _atom_site_occupancy
  C  C0  1  0.73705900  0.97062700  0.20920100  1
  C  C1  1  0.23705900  0.02937300  0.29079900  1
  C  C2  1  0.26294100  0.02937300  0.79079900  1
  C  C3  1  0.76294100  0.97062700  0.70920100  1
  C  C4  1  0.12778200  0.60823500  0.36489300  1
  C  C5  1  0.62778200  0.39176500  0.13510700  1
  C  C6  1  0.87221800  0.39176500  0.63510700  1
  C  C7  1  0.37221800  0.60823500  0.86489300  1
  C  C8  1  0.85051600  0.18596100  0.44081900  1
  C  C9  1  0.35051600  0.81403900  0.05918100  1
  C  C10  1  0.14948400  0.81403900  0.55918100  1
  C  C11  1  0.64948400  0.18596100  0.94081900  1
  C  C12  1  0.51858000  0.51740500  0.37442600  1
  C  C13  1  0.01858000  0.48259500  0.12557400  1
  C  C14  1  0.48142000  0.48259500  0.62557400  1
  C  C15  1  0.98142000  0.51740500  0.87442600  1
  Ni  Ni16  1  0.78591100  0.52572500  0.26693300  1
  Ni  Ni17  1  0.28591100  0.47427500  0.23306700  1
  Ni  Ni18  1  0.21408900  0.47427500  0.73306700  1
  Ni  Ni19  1  0.71408900  0.52572500  0.76693300  1
  Ni  Ni20  1  0.62030500  0.24420500  0.55913100  1
  Ni  Ni21  1  0.12030500  0.75579500  0.94086900  1
  Ni  Ni22  1  0.37969500  0.75579500  0.44086900  1
  Ni  Ni23  1  0.87969500  0.24420500  0.05913100  1
  Ni  Ni24  1  0.95133700  0.90059600  0.38078800  1
  Ni  Ni25  1  0.45133700  0.09940400  0.11921200  1
  Ni  Ni26  1  0.04866300  0.09940400  0.61921200  1
  Ni  Ni27  1  0.54866300  0.90059600  0.88078800  1
  Cu  Cu28  1  0.95832100  0.43576400  0.31386200  1
  Cu  Cu29  1  0.45832100  0.56423600  0.18613800  1
  Cu  Cu30  1  0.04167900  0.56423600  0.68613800  1
  Cu  Cu31  1  0.54167900  0.43576400  0.81386200  1
  Cu  Cu32  1  0.44524900  0.31732600  0.52573900  1
  Cu  Cu33  1  0.94524900  0.68267400  0.97426100  1
  Cu  Cu34  1  0.55475100  0.68267400  0.47426100  1
  Cu  Cu35  1  0.05475100  0.31732600  0.02573900  1
  Cu  Cu36  1  0.77448100  0.97971700  0.37094800  1
  Cu  Cu37  1  0.27448100  0.02028300  0.12905200  1
  Cu  Cu38  1  0.22551900  0.02028300  0.62905200  1
  Cu  Cu39  1  0.72551900  0.97971700  0.87094800  1
  Cu  Cu40  1  0.02076500  0.30540900  0.52695400  1
  Cu  Cu41  1  0.52076500  0.69459100  0.97304600  1
  Cu  Cu42  1  0.97923500  0.69459100  0.47304600  1
  Cu  Cu43  1  0.47923500  0.30540900  0.02695400  1
  Cu  Cu44  1  0.02778500  0.88309500  0.26973300  1
  Cu  Cu45  1  0.52778500  0.11690500  0.23026700  1
  Cu  Cu46  1  0.97221500  0.11690500  0.73026700  1
  Cu  Cu47  1  0.47221500  0.88309500  0.76973300  1
  Cu  Cu48  1  0.06503000  0.05502500  0.40705200  1
  Cu  Cu49  1  0.56503000  0.94497500  0.09294800  1
  Cu  Cu50  1  0.93497000  0.94497500  0.59294800  1
  Cu  Cu51  1  0.43497000  0.05502500  0.90705200  1
  Cu  Cu52  1  0.65971100  0.04332200  0.55143500  1
  Cu  Cu53  1  0.15971100  0.95667800  0.94856500  1
  Cu  Cu54  1  0.34028900  0.95667800  0.44856500  1
  Cu  Cu55  1  0.84028900  0.04332200  0.05143500  1
  Cu  Cu56  1  0.74206400  0.40500000  0.48621400  1
  Cu  Cu57  1  0.24206400  0.59500000  0.01378600  1
  Cu  Cu58  1  0.25793600  0.59500000  0.51378600  1
  Cu  Cu59  1  0.75793600  0.40500000  0.98621400  1
  Cu  Cu60  1  0.66622700  0.34347600  0.31367000  1
  Cu  Cu61  1  0.16622700  0.65652400  0.18633000  1
  Cu  Cu62  1  0.33377300  0.65652400  0.68633000  1
  Cu  Cu63  1  0.83377300  0.34347600  0.81367000  1
  Cu  Cu64  1  0.28973200  0.39684100  0.36422000  1
  Cu  Cu65  1  0.78973200  0.60315900  0.13578000  1
  Cu  Cu66  1  0.71026800  0.60315900  0.63578000  1
  Cu  Cu67  1  0.21026800  0.39684100  0.86422000  1
  Cu  Cu68  1  0.34780000  0.76557900  0.31586500  1
  Cu  Cu69  1  0.84780000  0.23442100  0.18413500  1
  Cu  Cu70  1  0.65220000  0.23442100  0.68413500  1
  Cu  Cu71  1  0.15220000  0.76557900  0.81586500  1
  Cu  Cu72  1  0.72064300  0.68981900  0.30795900  1
  Cu  Cu73  1  0.22064300  0.31018100  0.19204100  1
  Cu  Cu74  1  0.27935700  0.31018100  0.69204100  1
  Cu  Cu75  1  0.77935700  0.68981900  0.80795900  1
