# generated using pymatgen
data_Cu(NiC12)2
_symmetry_space_group_name_H-M   'P 1'
_cell_length_a   9.28340500
_cell_length_b   5.50585000
_cell_length_c   10.99506672
_cell_angle_alpha   83.16234194
_cell_angle_beta   90.00000000
_cell_angle_gamma   90.00000000
_symmetry_Int_Tables_number   1
_chemical_formula_structural   Cu(NiC12)2
_chemical_formula_sum   'Cu2 Ni4 C48'
_cell_volume   557.99405630
_cell_formula_units_Z   2
loop_
 _symmetry_equiv_pos_site_id
 _symmetry_equiv_pos_as_xyz
  1  'x, y, z'
loop_
 _atom_site_type_symbol
 _atom_site_label
 _atom_site_symmetry_multiplicity
 _atom_site_fract_x
 _atom_site_fract_y
 _atom_site_fract_z
 _atom_site_occupancy
  Ni  Ni0  1  0.75000000  0.93037000  0.56234300  1
  Ni  Ni1  1  0.25000000  0.06963000  0.43765700  1
  Ni  Ni2  1  0.75000000  0.46834700  0.93263000  1
  Ni  Ni3  1  0.25000000  0.53165300  0.06737000  1
  Cu  Cu4  1  0.75000000  0.70163700  0.25211000  1
  Cu  Cu5  1  0.25000000  0.29836300  0.74789000  1
  C  C6  1  0.12705900  0.65195600  0.60147400  1
  C  C7  1  0.62705900  0.34804400  0.39852600  1
  C  C8  1  0.87294100  0.34804400  0.39852600  1
  C  C9  1  0.37294100  0.65195600  0.60147400  1
  C  C10  1  0.53199100  0.60688400  0.39566500  1
  C  C11  1  0.03199100  0.39311600  0.60433500  1
  C  C12  1  0.46800900  0.39311600  0.60433500  1
  C  C13  1  0.96800900  0.60688400  0.39566500  1
  C  C14  1  0.98008700  0.43724900  0.28191000  1
  C  C15  1  0.48008700  0.56275100  0.71809000  1
  C  C16  1  0.01991300  0.56275100  0.71809000  1
  C  C17  1  0.51991300  0.43724900  0.28191000  1
  C  C18  1  0.12820800  0.92805100  0.88227800  1
  C  C19  1  0.62820800  0.07194900  0.11772200  1
  C  C20  1  0.87179200  0.07194900  0.11772200  1
  C  C21  1  0.37179200  0.92805100  0.88227800  1
  C  C22  1  0.50260100  0.91420300  0.19904200  1
  C  C23  1  0.00260100  0.08579700  0.80095800  1
  C  C24  1  0.49739900  0.08579700  0.80095800  1
  C  C25  1  0.99739900  0.91420300  0.19904200  1
  C  C26  1  0.07338000  0.19385600  0.92325900  1
  C  C27  1  0.57338000  0.80614400  0.07674100  1
  C  C28  1  0.92662000  0.80614400  0.07674100  1
  C  C29  1  0.42662000  0.19385600  0.92325900  1
  C  C30  1  0.40957600  0.50105700  0.65634000  1
  C  C31  1  0.90957600  0.49894300  0.34366000  1
  C  C32  1  0.59042400  0.49894300  0.34366000  1
  C  C33  1  0.09042400  0.50105700  0.65634000  1
  C  C34  1  0.59604100  0.89832200  0.15036000  1
  C  C35  1  0.09604100  0.10167800  0.84964000  1
  C  C36  1  0.40395900  0.10167800  0.84964000  1
  C  C37  1  0.90395900  0.89832200  0.15036000  1
  C  C38  1  0.89327200  0.04253700  0.61880300  1
  C  C39  1  0.39327200  0.95746300  0.38119700  1
  C  C40  1  0.10672800  0.95746300  0.38119700  1
  C  C41  1  0.60672800  0.04253700  0.61880300  1
  C  C42  1  0.25000000  0.99817600  0.58682700  1
  C  C43  1  0.75000000  0.00182400  0.41317300  1
  C  C44  1  0.25000000  0.36369300  0.40820000  1
  C  C45  1  0.75000000  0.63630700  0.59180000  1
  C  C46  1  0.10638000  0.37854400  0.11147700  1
  C  C47  1  0.60638000  0.62145600  0.88852300  1
  C  C48  1  0.89362000  0.62145600  0.88852300  1
  C  C49  1  0.39362000  0.37854400  0.11147700  1
  C  C50  1  0.75000000  0.41459500  0.08274000  1
  C  C51  1  0.25000000  0.58540500  0.91726000  1
  C  C52  1  0.75000000  0.20981900  0.87776400  1
  C  C53  1  0.25000000  0.79018100  0.12223600  1
