# generated using pymatgen
data_Cu7(NiC3)2
_symmetry_space_group_name_H-M   'P 1'
_cell_length_a   7.31737156
_cell_length_b   7.31737156
_cell_length_c   16.08266305
_cell_angle_alpha   80.76343466
_cell_angle_beta   80.76343466
_cell_angle_gamma   98.52731798
_symmetry_Int_Tables_number   1
_chemical_formula_structural   Cu7(NiC3)2
_chemical_formula_sum   'Cu14 Ni4 C12'
_cell_volume   825.44701248
_cell_formula_units_Z   2
loop_
 _symmetry_equiv_pos_site_id
 _symmetry_equiv_pos_as_xyz
  1  'x, y, z'
loop_
 _atom_site_type_symbol
 _atom_site_label
 _atom_site_symmetry_multiplicity
 _atom_site_fract_x
 _atom_site_fract_y
 _atom_site_fract_z
 _atom_site_occupancy
  C  C0  1  0.50000000  0.50000000  0.00000000  1
  C  C1  1  0.50000000  0.50000000  0.50000000  1
  C  C2  1  0.96916000  0.26339600  0.92865400  1
  C  C3  1  0.73660400  0.03084000  0.57134600  1
  C  C4  1  0.03084000  0.73660400  0.07134600  1
  C  C5  1  0.26339600  0.96916000  0.42865400  1
  C  C6  1  0.41978700  0.58021300  0.75000000  1
  C  C7  1  0.58021300  0.41978700  0.25000000  1
  C  C8  1  0.95488300  0.50833100  0.64128700  1
  C  C9  1  0.49166900  0.04511700  0.85871300  1
  C  C10  1  0.04511700  0.49166900  0.35871300  1
  C  C11  1  0.50833100  0.95488300  0.14128700  1
  Ni  Ni12  1  0.92398200  0.75938300  0.86017400  1
  Ni  Ni13  1  0.24061700  0.07601800  0.63982600  1
  Ni  Ni14  1  0.07601800  0.24061700  0.13982600  1
  Ni  Ni15  1  0.75938300  0.92398200  0.36017400  1
  Cu  Cu16  1  0.75191400  0.49605600  0.82017000  1
  Cu  Cu17  1  0.50394400  0.24808600  0.67983000  1
  Cu  Cu18  1  0.24808600  0.50394400  0.17983000  1
  Cu  Cu19  1  0.49605600  0.75191400  0.32017000  1
  Cu  Cu20  1  0.73671100  0.86977900  0.97109600  1
  Cu  Cu21  1  0.13022100  0.26328900  0.52890400  1
  Cu  Cu22  1  0.26328900  0.13022100  0.02890400  1
  Cu  Cu23  1  0.86977900  0.73671100  0.47109600  1
  Cu  Cu24  1  0.21004200  0.68769300  0.89555000  1
  Cu  Cu25  1  0.31230700  0.78995800  0.60445000  1
  Cu  Cu26  1  0.78995800  0.31230700  0.10445000  1
  Cu  Cu27  1  0.68769300  0.21004200  0.39555000  1
  Cu  Cu28  1  0.96057800  0.03942200  0.75000000  1
  Cu  Cu29  1  0.03942200  0.96057800  0.25000000  1
