# generated using pymatgen
data_Cu2NiC8
_symmetry_space_group_name_H-M   'P 1'
_cell_length_a   5.89847500
_cell_length_b   7.28390159
_cell_length_c   7.62675375
_cell_angle_alpha   101.16600955
_cell_angle_beta   90.36449261
_cell_angle_gamma   98.71689502
_symmetry_Int_Tables_number   1
_chemical_formula_structural   Cu2NiC8
_chemical_formula_sum   'Cu4 Ni2 C16'
_cell_volume   317.54358166
_cell_formula_units_Z   2
loop_
 _symmetry_equiv_pos_site_id
 _symmetry_equiv_pos_as_xyz
  1  'x, y, z'
loop_
 _atom_site_type_symbol
 _atom_site_label
 _atom_site_symmetry_multiplicity
 _atom_site_fract_x
 _atom_site_fract_y
 _atom_site_fract_z
 _atom_site_occupancy
  C  C0  1  0.69034400  0.27475000  0.93572000  1
  C  C1  1  0.30965600  0.72525000  0.06428000  1
  Ni  Ni2  1  0.31550100  0.83232500  0.60085200  1
  Ni  Ni3  1  0.68449900  0.16767500  0.39914800  1
  Cu  Cu4  1  0.81727600  0.77883300  0.82064000  1
  Cu  Cu5  1  0.18272400  0.22116700  0.17936000  1
  Cu  Cu6  1  0.79238000  0.66908500  0.38622200  1
  Cu  Cu7  1  0.20762000  0.33091500  0.61377800  1
  C  C8  1  0.93448100  0.22518200  0.64122900  1
  C  C9  1  0.06551900  0.77481800  0.35877100  1
  C  C10  1  0.76760000  0.63445500  0.97019100  1
  C  C11  1  0.23240000  0.36554500  0.02980900  1
  C  C12  1  0.78695900  0.61851400  0.60751500  1
  C  C13  1  0.21304100  0.38148600  0.39248500  1
  C  C14  1  0.60575200  0.91696600  0.82340300  1
  C  C15  1  0.39424800  0.08303400  0.17659700  1
  C  C16  1  0.58843100  0.81550200  0.37556100  1
  C  C17  1  0.41156900  0.18449800  0.62443900  1
  C  C18  1  0.28596900  0.55367200  0.73207100  1
  C  C19  1  0.71403100  0.44632800  0.26792900  1
  C  C20  1  0.09159100  0.89696000  0.83968600  1
  C  C21  1  0.90840900  0.10304000  0.16031400  1
