# generated using pymatgen
data_CuNiC
_symmetry_space_group_name_H-M   'P 1'
_cell_length_a   3.25649217
_cell_length_b   3.25649217
_cell_length_c   36.85964700
_cell_angle_alpha   90.00000000
_cell_angle_beta   90.00000000
_cell_angle_gamma   120.00000353
_symmetry_Int_Tables_number   1
_chemical_formula_structural   CuNiC
_chemical_formula_sum   'Cu4 Ni4 C4'
_cell_volume   338.51807733
_cell_formula_units_Z   4
loop_
 _symmetry_equiv_pos_site_id
 _symmetry_equiv_pos_as_xyz
  1  'x, y, z'
loop_
 _atom_site_type_symbol
 _atom_site_label
 _atom_site_symmetry_multiplicity
 _atom_site_fract_x
 _atom_site_fract_y
 _atom_site_fract_z
 _atom_site_occupancy
  C  C0  1  0.33333300  0.66666700  0.09391300  1
  C  C1  1  0.33333300  0.66666700  0.46965500  1
  C  C2  1  0.66666700  0.33333300  0.65754900  1
  C  C3  1  0.66666700  0.33333300  0.28177200  1
  Ni  Ni4  1  0.33333300  0.66666700  0.32811000  1
  Ni  Ni5  1  0.33333300  0.66666700  0.70360600  1
  Ni  Ni6  1  0.33333300  0.66666700  0.23546100  1
  Ni  Ni7  1  0.33333300  0.66666700  0.61150500  1
  Cu  Cu8  1  0.66666700  0.33333300  0.05205200  1
  Cu  Cu9  1  0.66666700  0.33333300  0.42781500  1
  Cu  Cu10  1  0.66666700  0.33333300  0.13579000  1
  Cu  Cu11  1  0.66666700  0.33333300  0.51152000  1
