# generated using pymatgen
data_Cu(NiC2)4
_symmetry_space_group_name_H-M   'P 1'
_cell_length_a   3.32781360
_cell_length_b   3.32781360
_cell_length_c   33.39609100
_cell_angle_alpha   90.00000000
_cell_angle_beta   90.00000000
_cell_angle_gamma   119.99999203
_symmetry_Int_Tables_number   1
_chemical_formula_structural   Cu(NiC2)4
_chemical_formula_sum   'Cu2 Ni8 C16'
_cell_volume   320.29066904
_cell_formula_units_Z   2
loop_
 _symmetry_equiv_pos_site_id
 _symmetry_equiv_pos_as_xyz
  1  'x, y, z'
loop_
 _atom_site_type_symbol
 _atom_site_label
 _atom_site_symmetry_multiplicity
 _atom_site_fract_x
 _atom_site_fract_y
 _atom_site_fract_z
 _atom_site_occupancy
  Ni  Ni0  1  0.66666700  0.33333300  0.40777300  1
  Ni  Ni1  1  0.33333300  0.66666700  0.59222700  1
  Ni  Ni2  1  0.33333300  0.66666700  0.90777300  1
  Ni  Ni3  1  0.66666700  0.33333300  0.09222700  1
  Ni  Ni4  1  0.00000000  0.00000000  0.32894800  1
  Ni  Ni5  1  0.00000000  0.00000000  0.67105200  1
  Ni  Ni6  1  0.00000000  0.00000000  0.82894800  1
  Ni  Ni7  1  0.00000000  0.00000000  0.17105200  1
  Cu  Cu8  1  0.00000000  0.00000000  0.50000000  1
  Cu  Cu9  1  0.00000000  0.00000000  0.00000000  1
  C  C10  1  0.66666700  0.33333300  0.25000000  1
  C  C11  1  0.33333300  0.66666700  0.75000000  1
  C  C12  1  0.66666700  0.33333300  0.46720100  1
  C  C13  1  0.33333300  0.66666700  0.53279900  1
  C  C14  1  0.33333300  0.66666700  0.96720100  1
  C  C15  1  0.66666700  0.33333300  0.03279900  1
  C  C16  1  0.00000000  0.00000000  0.38889600  1
  C  C17  1  0.00000000  0.00000000  0.61110400  1
  C  C18  1  0.00000000  0.00000000  0.88889600  1
  C  C19  1  0.00000000  0.00000000  0.11110400  1
  C  C20  1  0.66666700  0.33333300  0.31001300  1
  C  C21  1  0.33333300  0.66666700  0.68998700  1
  C  C22  1  0.33333300  0.66666700  0.81001300  1
  C  C23  1  0.66666700  0.33333300  0.18998700  1
  C  C24  1  0.00000000  0.00000000  0.25000000  1
  C  C25  1  0.00000000  0.00000000  0.75000000  1
