# generated using pymatgen
data_CuNiC6
_symmetry_space_group_name_H-M   'P 1'
_cell_length_a   5.23060600
_cell_length_b   10.35825900
_cell_length_c   16.09411600
_cell_angle_alpha   90.00000000
_cell_angle_beta   90.00000000
_cell_angle_gamma   90.00000000
_symmetry_Int_Tables_number   1
_chemical_formula_structural   CuNiC6
_chemical_formula_sum   'Cu8 Ni8 C48'
_cell_volume   871.97874901
_cell_formula_units_Z   8
loop_
 _symmetry_equiv_pos_site_id
 _symmetry_equiv_pos_as_xyz
  1  'x, y, z'
loop_
 _atom_site_type_symbol
 _atom_site_label
 _atom_site_symmetry_multiplicity
 _atom_site_fract_x
 _atom_site_fract_y
 _atom_site_fract_z
 _atom_site_occupancy
  Ni  Ni0  1  0.53366400  0.38253000  0.56084300  1
  Ni  Ni1  1  0.03366400  0.11747000  0.56084300  1
  Ni  Ni2  1  0.03366400  0.61747000  0.93915700  1
  Ni  Ni3  1  0.96633600  0.38253000  0.06084300  1
  Ni  Ni4  1  0.46633600  0.11747000  0.06084300  1
  Ni  Ni5  1  0.96633600  0.88253000  0.43915700  1
  Ni  Ni6  1  0.46633600  0.61747000  0.43915700  1
  Ni  Ni7  1  0.53366400  0.88253000  0.93915700  1
  Cu  Cu8  1  0.01341800  0.85990600  0.77577900  1
  Cu  Cu9  1  0.98658200  0.14009400  0.22422100  1
  Cu  Cu10  1  0.48658200  0.35990600  0.22422100  1
  Cu  Cu11  1  0.98658200  0.64009400  0.27577900  1
  Cu  Cu12  1  0.51341800  0.14009400  0.72422100  1
  Cu  Cu13  1  0.51341800  0.64009400  0.77577900  1
  Cu  Cu14  1  0.48658200  0.85990600  0.27577900  1
  Cu  Cu15  1  0.01341800  0.35990600  0.72422100  1
  C  C16  1  0.00880900  0.37277900  0.41595000  1
  C  C17  1  0.49119100  0.87277900  0.58405000  1
  C  C18  1  0.99119100  0.62722100  0.58405000  1
  C  C19  1  0.50880900  0.12722100  0.41595000  1
  C  C20  1  0.99119100  0.12722100  0.91595000  1
  C  C21  1  0.00880900  0.87277900  0.08405000  1
  C  C22  1  0.49119100  0.37277900  0.91595000  1
  C  C23  1  0.50880900  0.62722100  0.08405000  1
  C  C24  1  0.87208900  0.32231900  0.30768600  1
  C  C25  1  0.24814900  0.01929700  0.96595600  1
  C  C26  1  0.25185100  0.51929700  0.03404400  1
  C  C27  1  0.32595200  0.78263200  0.85274300  1
  C  C28  1  0.17404800  0.28263200  0.14725700  1
  C  C29  1  0.87208900  0.82231900  0.19231400  1
  C  C30  1  0.17404800  0.78263200  0.35274300  1
  C  C31  1  0.62791100  0.82231900  0.69231400  1
  C  C32  1  0.24814900  0.51929700  0.53404400  1
  C  C33  1  0.12791100  0.67768100  0.69231400  1
  C  C34  1  0.62791100  0.32231900  0.80768600  1
  C  C35  1  0.79993800  0.22052700  0.46994800  1
  C  C36  1  0.74814900  0.98070300  0.53404400  1
  C  C37  1  0.67404800  0.71736800  0.35274300  1
  C  C38  1  0.22837600  0.00404900  0.13589000  1
  C  C39  1  0.74814900  0.48070300  0.96595600  1
  C  C40  1  0.12791100  0.17768100  0.80768600  1
  C  C41  1  0.82595200  0.21736800  0.64725700  1
  C  C42  1  0.29993800  0.77947300  0.03005200  1
  C  C43  1  0.25185100  0.01929700  0.46595600  1
  C  C44  1  0.20006200  0.77947300  0.53005200  1
  C  C45  1  0.77162400  0.99595100  0.86411000  1
  C  C46  1  0.67404800  0.21736800  0.14725700  1
  C  C47  1  0.72837600  0.99595100  0.36411000  1
  C  C48  1  0.20006200  0.27947300  0.96994800  1
  C  C49  1  0.29993800  0.27947300  0.46994800  1
  C  C50  1  0.75185100  0.48070300  0.46595600  1
  C  C51  1  0.75185100  0.98070300  0.03404400  1
  C  C52  1  0.72837600  0.49595100  0.13589000  1
  C  C53  1  0.70006200  0.72052700  0.53005200  1
  C  C54  1  0.70006200  0.22052700  0.96994800  1
  C  C55  1  0.79993800  0.72052700  0.03005200  1
  C  C56  1  0.77162400  0.49595100  0.63589000  1
  C  C57  1  0.82595200  0.71736800  0.85274300  1
  C  C58  1  0.32595200  0.28263200  0.64725700  1
  C  C59  1  0.22837600  0.50404900  0.36411000  1
  C  C60  1  0.27162400  0.50404900  0.86411000  1
  C  C61  1  0.37208900  0.17768100  0.30768600  1
  C  C62  1  0.27162400  0.00404900  0.63589000  1
  C  C63  1  0.37208900  0.67768100  0.19231400  1
