# generated using pymatgen
data_Cu28Ni28C23
_symmetry_space_group_name_H-M   'P 1'
_cell_length_a   10.11794000
_cell_length_b   10.46002600
_cell_length_c   24.76830652
_cell_angle_alpha   90.00000000
_cell_angle_beta   105.31400977
_cell_angle_gamma   90.00000000
_symmetry_Int_Tables_number   1
_chemical_formula_structural   Cu28Ni28C23
_chemical_formula_sum   'Cu56 Ni56 C46'
_cell_volume   2528.25106066
_cell_formula_units_Z   2
loop_
 _symmetry_equiv_pos_site_id
 _symmetry_equiv_pos_as_xyz
  1  'x, y, z'
loop_
 _atom_site_type_symbol
 _atom_site_label
 _atom_site_symmetry_multiplicity
 _atom_site_fract_x
 _atom_site_fract_y
 _atom_site_fract_z
 _atom_site_occupancy
  C  C0  1  0.66596800  0.54430600  0.22364700  1
  C  C1  1  0.33403200  0.04430600  0.27635300  1
  C  C2  1  0.33403200  0.45569400  0.77635300  1
  C  C3  1  0.66596800  0.95569400  0.72364700  1
  C  C4  1  0.06968500  0.67997900  0.07738800  1
  C  C5  1  0.93031500  0.17997900  0.42261200  1
  C  C6  1  0.93031500  0.32002100  0.92261200  1
  C  C7  1  0.06968500  0.82002100  0.57738800  1
  C  C8  1  0.00000000  0.00000000  0.00000000  1
  C  C9  1  0.00000000  0.50000000  0.50000000  1
  C  C10  1  0.32865700  0.71026600  0.21672100  1
  C  C11  1  0.67134300  0.21026600  0.28327900  1
  C  C12  1  0.67134300  0.28973400  0.78327900  1
  C  C13  1  0.32865700  0.78973400  0.71672100  1
  C  C14  1  0.73759400  0.55064300  0.08668100  1
  C  C15  1  0.26240600  0.05064300  0.41331900  1
  C  C16  1  0.26240600  0.44935700  0.91331900  1
  C  C17  1  0.73759400  0.94935700  0.58668100  1
  C  C18  1  0.37932900  0.78776600  0.36613100  1
  C  C19  1  0.62067100  0.28776600  0.13386900  1
  C  C20  1  0.62067100  0.21223400  0.63386900  1
  C  C21  1  0.37932900  0.71223400  0.86613100  1
  C  C22  1  0.77227200  0.86662300  0.05116600  1
  C  C23  1  0.22772800  0.36662300  0.44883400  1
  C  C24  1  0.22772800  0.13337700  0.94883400  1
  C  C25  1  0.77227200  0.63337700  0.55116600  1
  C  C26  1  0.22796600  0.97193600  0.12713800  1
  C  C27  1  0.77203400  0.47193600  0.37286200  1
  C  C28  1  0.77203400  0.02806400  0.87286200  1
  C  C29  1  0.22796600  0.52806400  0.62713800  1
  C  C30  1  0.63346200  0.88229200  0.24581000  1
  C  C31  1  0.36653800  0.38229200  0.25419000  1
  C  C32  1  0.36653800  0.11770800  0.75419000  1
  C  C33  1  0.63346200  0.61770800  0.74581000  1
  C  C34  1  0.41373500  0.62865900  0.08107500  1
  C  C35  1  0.58626500  0.12865900  0.41892500  1
  C  C36  1  0.58626500  0.37134100  0.91892500  1
  C  C37  1  0.41373500  0.87134100  0.58107500  1
  C  C38  1  0.01026800  0.85586800  0.43583000  1
  C  C39  1  0.98973200  0.35586800  0.06417000  1
  C  C40  1  0.98973200  0.14413200  0.56417000  1
  C  C41  1  0.01026800  0.64413200  0.93583000  1
  C  C42  1  0.00212500  0.64740700  0.21920500  1
  C  C43  1  0.99787500  0.14740700  0.28079500  1
  C  C44  1  0.99787500  0.35259300  0.78079500  1
  C  C45  1  0.00212500  0.85259300  0.71920500  1
  Ni  Ni46  1  0.33461100  0.85618200  0.41174000  1
  Ni  Ni47  1  0.66538900  0.35618200  0.08826000  1
  Ni  Ni48  1  0.66538900  0.14381800  0.58826000  1
  Ni  Ni49  1  0.33461100  0.64381800  0.91174000  1
  Ni  Ni50  1  0.32209200  0.82385800  0.30581000  1
  Ni  Ni51  1  0.67790800  0.32385800  0.19419000  1
  Ni  Ni52  1  0.67790800  0.17614200  0.69419000  1
  Ni  Ni53  1  0.32209200  0.67614200  0.80581000  1
  Ni  Ni54  1  0.19276800  0.41804100  0.49986100  1
  Ni  Ni55  1  0.80723200  0.91804100  0.00013900  1
  Ni  Ni56  1  0.80723200  0.58195900  0.50013900  1
  Ni  Ni57  1  0.19276800  0.08195900  0.99986100  1
  Ni  Ni58  1  0.82725200  0.73713200  0.07346100  1
  Ni  Ni59  1  0.17274800  0.23713200  0.42653900  1
  Ni  Ni60  1  0.17274800  0.26286800  0.92653900  1
  Ni  Ni61  1  0.82725200  0.76286800  0.57346100  1
  Ni  Ni62  1  0.09558600  0.92886600  0.08671600  1
  Ni  Ni63  1  0.90441400  0.42886600  0.41328400  1
  Ni  Ni64  1  0.90441400  0.07113400  0.91328400  1
  Ni  Ni65  1  0.09558600  0.57113400  0.58671600  1
  Ni  Ni66  1  0.26022300  0.92226700  0.18591900  1
  Ni  Ni67  1  0.73977700  0.42226700  0.31408100  1
  Ni  Ni68  1  0.73977700  0.07773300  0.81408100  1
  Ni  Ni69  1  0.26022300  0.57773300  0.68591900  1
  Ni  Ni70  1  0.56947200  0.00068900  0.26240000  1
  Ni  Ni71  1  0.43052800  0.50068900  0.23760000  1
  Ni  Ni72  1  0.43052800  0.99931100  0.73760000  1
  Ni  Ni73  1  0.56947200  0.49931100  0.76240000  1
  Ni  Ni74  1  0.54998300  0.76199100  0.22880100  1
  Ni  Ni75  1  0.45001700  0.26199100  0.27119900  1
  Ni  Ni76  1  0.45001700  0.23800900  0.77119900  1
  Ni  Ni77  1  0.54998300  0.73800900  0.72880100  1
  Ni  Ni78  1  0.56132600  0.62149800  0.11540300  1
  Ni  Ni79  1  0.43867400  0.12149800  0.38459700  1
  Ni  Ni80  1  0.43867400  0.37850200  0.88459700  1
  Ni  Ni81  1  0.56132600  0.87850200  0.61540300  1
  Ni  Ni82  1  0.30713700  0.65698000  0.11141800  1
  Ni  Ni83  1  0.69286300  0.15698000  0.38858200  1
  Ni  Ni84  1  0.69286300  0.34302000  0.88858200  1
  Ni  Ni85  1  0.30713700  0.84302000  0.61141800  1
  Ni  Ni86  1  0.08611500  0.98248800  0.44359100  1
  Ni  Ni87  1  0.91388500  0.48248800  0.05640900  1
  Ni  Ni88  1  0.91388500  0.01751200  0.55640900  1
  Ni  Ni89  1  0.08611500  0.51751200  0.94359100  1
  Ni  Ni90  1  0.03872900  0.76003500  0.48212200  1
  Ni  Ni91  1  0.96127100  0.26003500  0.01787800  1
  Ni  Ni92  1  0.96127100  0.23996500  0.51787800  1
  Ni  Ni93  1  0.03872900  0.73996500  0.98212200  1
  Ni  Ni94  1  0.13230000  0.08392600  0.30664400  1
  Ni  Ni95  1  0.86770000  0.58392600  0.19335600  1
  Ni  Ni96  1  0.86770000  0.91607400  0.69335600  1
  Ni  Ni97  1  0.13230000  0.41607400  0.80664400  1
  Ni  Ni98  1  0.11459700  0.63540800  0.18950200  1
  Ni  Ni99  1  0.88540300  0.13540800  0.31049800  1
  Ni  Ni100  1  0.88540300  0.36459200  0.81049800  1
  Ni  Ni101  1  0.11459700  0.86459200  0.68950200  1
  Cu  Cu102  1  0.35822000  0.64164600  0.37393600  1
  Cu  Cu103  1  0.64178000  0.14164600  0.12606400  1
  Cu  Cu104  1  0.64178000  0.35835400  0.62606400  1
  Cu  Cu105  1  0.35822000  0.85835400  0.87393600  1
  Cu  Cu106  1  0.54021200  0.79064300  0.38000300  1
  Cu  Cu107  1  0.45978800  0.29064300  0.11999700  1
  Cu  Cu108  1  0.45978800  0.20935700  0.61999700  1
  Cu  Cu109  1  0.54021200  0.70935700  0.88000300  1
  Cu  Cu110  1  0.38670200  0.13284300  0.96120000  1
  Cu  Cu111  1  0.61329800  0.63284300  0.53880000  1
  Cu  Cu112  1  0.61329800  0.86715700  0.03880000  1
  Cu  Cu113  1  0.38670200  0.36715700  0.46120000  1
  Cu  Cu114  1  0.81173100  0.96518200  0.09986400  1
  Cu  Cu115  1  0.18826900  0.46518200  0.40013600  1
  Cu  Cu116  1  0.18826900  0.03481800  0.90013600  1
  Cu  Cu117  1  0.81173100  0.53481800  0.59986400  1
  Cu  Cu118  1  0.23439400  0.37890200  0.62929500  1
  Cu  Cu119  1  0.76560600  0.87890200  0.87070500  1
  Cu  Cu120  1  0.76560600  0.62109800  0.37070500  1
  Cu  Cu121  1  0.23439400  0.12109800  0.12929500  1
  Cu  Cu122  1  0.35003500  0.94433200  0.10106100  1
  Cu  Cu123  1  0.64996500  0.44433200  0.39893900  1
  Cu  Cu124  1  0.64996500  0.05566800  0.89893900  1
  Cu  Cu125  1  0.35003500  0.55566800  0.60106100  1
  Cu  Cu126  1  0.70396600  0.91711800  0.19863700  1
  Cu  Cu127  1  0.29603400  0.41711800  0.30136300  1
  Cu  Cu128  1  0.29603400  0.08288200  0.80136300  1
  Cu  Cu129  1  0.70396600  0.58288200  0.69863700  1
  Cu  Cu130  1  0.23678600  0.34233600  0.20711700  1
  Cu  Cu131  1  0.76321400  0.84233600  0.29288300  1
  Cu  Cu132  1  0.76321400  0.65766400  0.79288300  1
  Cu  Cu133  1  0.23678600  0.15766400  0.70711700  1
  Cu  Cu134  1  0.37772200  0.50233600  0.04600300  1
  Cu  Cu135  1  0.62227800  0.00233600  0.45399700  1
  Cu  Cu136  1  0.62227800  0.49766400  0.95399700  1
  Cu  Cu137  1  0.37772200  0.99766400  0.54600300  1
  Cu  Cu138  1  0.40015500  0.72428300  0.03167600  1
  Cu  Cu139  1  0.59984500  0.22428300  0.46832400  1
  Cu  Cu140  1  0.59984500  0.27571700  0.96832400  1
  Cu  Cu141  1  0.40015500  0.77571700  0.53167600  1
  Cu  Cu142  1  0.14605600  0.39215900  0.08166800  1
  Cu  Cu143  1  0.85394400  0.89215900  0.41833200  1
  Cu  Cu144  1  0.85394400  0.60784100  0.91833200  1
  Cu  Cu145  1  0.14605600  0.10784100  0.58166800  1
  Cu  Cu146  1  0.02249200  0.79023800  0.38057000  1
  Cu  Cu147  1  0.97750800  0.29023800  0.11943000  1
  Cu  Cu148  1  0.97750800  0.20976200  0.61943000  1
  Cu  Cu149  1  0.02249200  0.70976200  0.88057000  1
  Cu  Cu150  1  0.97983200  0.79269300  0.22938900  1
  Cu  Cu151  1  0.02016800  0.29269300  0.27061100  1
  Cu  Cu152  1  0.02016800  0.20730700  0.77061100  1
  Cu  Cu153  1  0.97983200  0.70730700  0.72938900  1
  Cu  Cu154  1  0.05735700  0.60260600  0.28144300  1
  Cu  Cu155  1  0.94264300  0.10260600  0.21855700  1
  Cu  Cu156  1  0.94264300  0.39739400  0.71855700  1
  Cu  Cu157  1  0.05735700  0.89739400  0.78144300  1
