# generated using pymatgen
data_Cu5Ni3C
_symmetry_space_group_name_H-M   'P 1'
_cell_length_a   16.97047429
_cell_length_b   16.53675226
_cell_length_c   6.08330734
_cell_angle_alpha   83.58662603
_cell_angle_beta   75.54508631
_cell_angle_gamma   20.86828766
_symmetry_Int_Tables_number   1
_chemical_formula_structural   Cu5Ni3C
_chemical_formula_sum   'Cu20 Ni12 C4'
_cell_volume   551.12122003
_cell_formula_units_Z   4
loop_
 _symmetry_equiv_pos_site_id
 _symmetry_equiv_pos_as_xyz
  1  'x, y, z'
loop_
 _atom_site_type_symbol
 _atom_site_label
 _atom_site_symmetry_multiplicity
 _atom_site_fract_x
 _atom_site_fract_y
 _atom_site_fract_z
 _atom_site_occupancy
  C  C0  1  0.81349400  0.18363500  0.81572000  1
  C  C1  1  0.18715000  0.81572000  0.18363500  1
  C  C2  1  0.06636500  0.43650600  0.06285000  1
  C  C3  1  0.43428000  0.06285000  0.43650600  1
  Ni  Ni4  1  0.30830300  0.54173100  0.72359200  1
  Ni  Ni5  1  0.42637400  0.72359200  0.54173100  1
  Ni  Ni6  1  0.05075900  0.73850200  0.10021900  1
  Ni  Ni7  1  0.11051900  0.10021900  0.73850200  1
  Ni  Ni8  1  0.15686700  0.63332500  0.86497900  1
  Ni  Ni9  1  0.34482900  0.86497900  0.63332500  1
  Ni  Ni10  1  0.70826900  0.94169700  0.82362600  1
  Ni  Ni11  1  0.52640800  0.82362600  0.94169700  1
  Ni  Ni12  1  0.51149800  0.19924100  0.13948100  1
  Ni  Ni13  1  0.14978100  0.13948100  0.19924100  1
  Ni  Ni14  1  0.61667500  0.09313300  0.90517100  1
  Ni  Ni15  1  0.38502100  0.90517100  0.09313300  1
  Cu  Cu16  1  0.16273600  0.82377100  0.55611600  1
  Cu  Cu17  1  0.45737600  0.55611600  0.82377100  1
  Cu  Cu18  1  0.69982500  0.17997100  0.81345600  1
  Cu  Cu19  1  0.30674900  0.81345600  0.17997100  1
  Cu  Cu20  1  0.86175400  0.26538200  0.67200800  1
  Cu  Cu21  1  0.20085700  0.67200800  0.26538200  1
  Cu  Cu22  1  0.96526400  0.96311600  0.03736900  1
  Cu  Cu23  1  0.03425100  0.03736900  0.96311600  1
  Cu  Cu24  1  0.83745800  0.16860700  0.44109600  1
  Cu  Cu25  1  0.55284000  0.44109600  0.16860700  1
  Cu  Cu26  1  0.42622900  0.08726400  0.79262400  1
  Cu  Cu27  1  0.69388400  0.79262400  0.08726400  1
  Cu  Cu28  1  0.98461800  0.38824600  0.04914300  1
  Cu  Cu29  1  0.57799200  0.04914300  0.38824600  1
  Cu  Cu30  1  0.28688400  0.28473600  0.21574900  1
  Cu  Cu31  1  0.21263100  0.21574900  0.28473600  1
  Cu  Cu32  1  0.07002900  0.55017500  0.94325100  1
  Cu  Cu33  1  0.43654400  0.94325100  0.55017500  1
  Cu  Cu34  1  0.08139300  0.41254200  0.69716000  1
  Cu  Cu35  1  0.80890400  0.69716000  0.41254200  1
