# generated using pymatgen
data_Cu2NiC2
_symmetry_space_group_name_H-M   'P 1'
_cell_length_a   5.54260030
_cell_length_b   5.54260030
_cell_length_c   9.80801382
_cell_angle_alpha   63.34474851
_cell_angle_beta   63.34474851
_cell_angle_gamma   43.48767384
_symmetry_Int_Tables_number   1
_chemical_formula_structural   Cu2NiC2
_chemical_formula_sum   'Cu4 Ni2 C4'
_cell_volume   181.56897129
_cell_formula_units_Z   2
loop_
 _symmetry_equiv_pos_site_id
 _symmetry_equiv_pos_as_xyz
  1  'x, y, z'
loop_
 _atom_site_type_symbol
 _atom_site_label
 _atom_site_symmetry_multiplicity
 _atom_site_fract_x
 _atom_site_fract_y
 _atom_site_fract_z
 _atom_site_occupancy
  C  C0  1  0.99941600  0.99941600  0.32855100  1
  C  C1  1  0.00058400  0.00058400  0.67144900  1
  C  C2  1  0.81209300  0.81209300  0.10901200  1
  C  C3  1  0.18790700  0.18790700  0.89098800  1
  Ni  Ni4  1  0.72917000  0.72917000  0.62468600  1
  Ni  Ni5  1  0.27083000  0.27083000  0.37531400  1
  Cu  Cu6  1  0.65175200  0.65175200  0.43625700  1
  Cu  Cu7  1  0.34824800  0.34824800  0.56374300  1
  Cu  Cu8  1  0.50245100  0.50245100  0.12606800  1
  Cu  Cu9  1  0.49754900  0.49754900  0.87393200  1
