# generated using pymatgen
data_Cu10Ni3C
_symmetry_space_group_name_H-M   'P 1'
_cell_length_a   11.24080200
_cell_length_b   8.77997600
_cell_length_c   8.25067900
_cell_angle_alpha   90.00000000
_cell_angle_beta   90.00000000
_cell_angle_gamma   90.00000000
_symmetry_Int_Tables_number   1
_chemical_formula_structural   Cu10Ni3C
_chemical_formula_sum   'Cu40 Ni12 C4'
_cell_volume   814.29228040
_cell_formula_units_Z   4
loop_
 _symmetry_equiv_pos_site_id
 _symmetry_equiv_pos_as_xyz
  1  'x, y, z'
loop_
 _atom_site_type_symbol
 _atom_site_label
 _atom_site_symmetry_multiplicity
 _atom_site_fract_x
 _atom_site_fract_y
 _atom_site_fract_z
 _atom_site_occupancy
  C  C0  1  0.00000000  0.78366900  0.75000000  1
  C  C1  1  0.50000000  0.71633100  0.25000000  1
  C  C2  1  0.00000000  0.21633100  0.25000000  1
  C  C3  1  0.50000000  0.28366900  0.75000000  1
  Ni  Ni4  1  0.00000000  0.78406800  0.25000000  1
  Ni  Ni5  1  0.50000000  0.71593200  0.75000000  1
  Ni  Ni6  1  0.00000000  0.21593200  0.75000000  1
  Ni  Ni7  1  0.50000000  0.28406800  0.25000000  1
  Ni  Ni8  1  0.17429200  0.57038700  0.40259100  1
  Ni  Ni9  1  0.32570800  0.92961300  0.90259100  1
  Ni  Ni10  1  0.67429200  0.92961300  0.59740900  1
  Ni  Ni11  1  0.82570800  0.57038700  0.09740900  1
  Ni  Ni12  1  0.82570800  0.42961300  0.59740900  1
  Ni  Ni13  1  0.67429200  0.07038700  0.09740900  1
  Ni  Ni14  1  0.32570800  0.07038700  0.40259100  1
  Ni  Ni15  1  0.17429200  0.42961300  0.90259100  1
  Cu  Cu16  1  0.99253800  0.86732300  0.39956400  1
  Cu  Cu17  1  0.50746200  0.63267700  0.89956400  1
  Cu  Cu18  1  0.49253800  0.63267700  0.60043600  1
  Cu  Cu19  1  0.00746200  0.86732300  0.10043600  1
  Cu  Cu20  1  0.00746200  0.13267700  0.60043600  1
  Cu  Cu21  1  0.49253800  0.36732300  0.10043600  1
  Cu  Cu22  1  0.50746200  0.36732300  0.39956400  1
  Cu  Cu23  1  0.99253800  0.13267700  0.89956400  1
  Cu  Cu24  1  0.11144200  0.67556000  0.24582800  1
  Cu  Cu25  1  0.38855800  0.82444000  0.74582800  1
  Cu  Cu26  1  0.61144200  0.82444000  0.75417200  1
  Cu  Cu27  1  0.88855800  0.67556000  0.25417200  1
  Cu  Cu28  1  0.88855800  0.32444000  0.75417200  1
  Cu  Cu29  1  0.61144200  0.17556000  0.25417200  1
  Cu  Cu30  1  0.38855800  0.17556000  0.24582800  1
  Cu  Cu31  1  0.11144200  0.32444000  0.74582800  1
  Cu  Cu32  1  0.10557000  0.43019500  0.39991700  1
  Cu  Cu33  1  0.39443000  0.06980500  0.89991700  1
  Cu  Cu34  1  0.60557000  0.06980500  0.60008300  1
  Cu  Cu35  1  0.89443000  0.43019500  0.10008300  1
  Cu  Cu36  1  0.89443000  0.56980500  0.60008300  1
  Cu  Cu37  1  0.60557000  0.93019500  0.10008300  1
  Cu  Cu38  1  0.39443000  0.93019500  0.39991700  1
  Cu  Cu39  1  0.10557000  0.56980500  0.89991700  1
  Cu  Cu40  1  0.16027200  0.66241300  0.54738600  1
  Cu  Cu41  1  0.33972800  0.83758700  0.04738600  1
  Cu  Cu42  1  0.66027200  0.83758700  0.45261400  1
  Cu  Cu43  1  0.83972800  0.66241300  0.95261400  1
  Cu  Cu44  1  0.83972800  0.33758700  0.45261400  1
  Cu  Cu45  1  0.66027200  0.16241300  0.95261400  1
  Cu  Cu46  1  0.33972800  0.16241300  0.54738600  1
  Cu  Cu47  1  0.16027200  0.33758700  0.04738600  1
  Cu  Cu48  1  0.29327300  0.55999600  0.33730700  1
  Cu  Cu49  1  0.20672700  0.94000400  0.83730700  1
  Cu  Cu50  1  0.79327300  0.94000400  0.66269300  1
  Cu  Cu51  1  0.70672700  0.55999600  0.16269300  1
  Cu  Cu52  1  0.70672700  0.44000400  0.66269300  1
  Cu  Cu53  1  0.79327300  0.05999600  0.16269300  1
  Cu  Cu54  1  0.20672700  0.05999600  0.33730700  1
  Cu  Cu55  1  0.29327300  0.44000400  0.83730700  1
