# generated using pymatgen
data_Cu2(NiC4)3
_symmetry_space_group_name_H-M   'P 1'
_cell_length_a   5.37339500
_cell_length_b   5.87264328
_cell_length_c   7.74224801
_cell_angle_alpha   98.43142182
_cell_angle_beta   104.91893225
_cell_angle_gamma   91.50218736
_symmetry_Int_Tables_number   1
_chemical_formula_structural   Cu2(NiC4)3
_chemical_formula_sum   'Cu2 Ni3 C12'
_cell_volume   233.00404452
_cell_formula_units_Z   1
loop_
 _symmetry_equiv_pos_site_id
 _symmetry_equiv_pos_as_xyz
  1  'x, y, z'
loop_
 _atom_site_type_symbol
 _atom_site_label
 _atom_site_symmetry_multiplicity
 _atom_site_fract_x
 _atom_site_fract_y
 _atom_site_fract_z
 _atom_site_occupancy
  Ni  Ni0  1  0.00000000  0.00000000  0.00000000  1
  Ni  Ni1  1  0.13061600  0.72511100  0.39564300  1
  Ni  Ni2  1  0.86938400  0.27488900  0.60435700  1
  Cu  Cu3  1  0.72176500  0.76580600  0.63085700  1
  Cu  Cu4  1  0.27823500  0.23419400  0.36914300  1
  C  C5  1  0.83327700  0.57759400  0.74420800  1
  C  C6  1  0.16672300  0.42240600  0.25579200  1
  C  C7  1  0.43148000  0.77856700  0.60296200  1
  C  C8  1  0.56852000  0.22143300  0.39703800  1
  C  C9  1  0.85437700  0.00941500  0.75759300  1
  C  C10  1  0.14562300  0.99058500  0.24240700  1
  C  C11  1  0.80229300  0.75676700  0.45413700  1
  C  C12  1  0.19770700  0.24323300  0.54586300  1
  C  C13  1  0.59397300  0.75166400  0.04532300  1
  C  C14  1  0.40602700  0.24833600  0.95467700  1
  C  C15  1  0.36861200  0.73933700  0.95241800  1
  C  C16  1  0.63138800  0.26066300  0.04758200  1
