# generated using pymatgen
data_CuNiC4
_symmetry_space_group_name_H-M   'P 1'
_cell_length_a   4.73995855
_cell_length_b   4.73995855
_cell_length_c   9.23303000
_cell_angle_alpha   90.00000000
_cell_angle_beta   90.00000000
_cell_angle_gamma   90.54086322
_symmetry_Int_Tables_number   1
_chemical_formula_structural   CuNiC4
_chemical_formula_sum   'Cu3 Ni3 C12'
_cell_volume   207.43115428
_cell_formula_units_Z   3
loop_
 _symmetry_equiv_pos_site_id
 _symmetry_equiv_pos_as_xyz
  1  'x, y, z'
loop_
 _atom_site_type_symbol
 _atom_site_label
 _atom_site_symmetry_multiplicity
 _atom_site_fract_x
 _atom_site_fract_y
 _atom_site_fract_z
 _atom_site_occupancy
  Ni  Ni0  1  0.00000000  0.00000000  0.33739000  1
  Ni  Ni1  1  0.50000000  0.50000000  0.15748100  1
  Ni  Ni2  1  0.00000000  0.00000000  0.67848200  1
  Cu  Cu3  1  0.50000000  0.50000000  0.50372600  1
  Cu  Cu4  1  0.00000000  0.00000000  0.00026500  1
  Cu  Cu5  1  0.50000000  0.50000000  0.82729100  1
  C  C6  1  0.80333900  0.19666100  0.83022500  1
  C  C7  1  0.19666100  0.80333900  0.83022500  1
  C  C8  1  0.30185600  0.30185600  0.32919400  1
  C  C9  1  0.69814400  0.69814400  0.32919400  1
  C  C10  1  0.19860500  0.80139500  0.17134900  1
  C  C11  1  0.80139500  0.19860500  0.17134900  1
  C  C12  1  0.70065200  0.70065200  0.66455400  1
  C  C13  1  0.29934800  0.29934800  0.66455400  1
  C  C14  1  0.80745100  0.19254900  0.49736700  1
  C  C15  1  0.19254900  0.80745100  0.49736700  1
  C  C16  1  0.30262000  0.30262000  0.00499400  1
  C  C17  1  0.69738000  0.69738000  0.00499400  1
