# generated using pymatgen
data_CuNiC12
_symmetry_space_group_name_H-M   'P 1'
_cell_length_a   7.81100400
_cell_length_b   10.73130100
_cell_length_c   14.86167421
_cell_angle_alpha   75.79007155
_cell_angle_beta   90.00000000
_cell_angle_gamma   90.00000000
_symmetry_Int_Tables_number   1
_chemical_formula_structural   CuNiC12
_chemical_formula_sum   'Cu4 Ni4 C48'
_cell_volume   1207.62266523
_cell_formula_units_Z   4
loop_
 _symmetry_equiv_pos_site_id
 _symmetry_equiv_pos_as_xyz
  1  'x, y, z'
loop_
 _atom_site_type_symbol
 _atom_site_label
 _atom_site_symmetry_multiplicity
 _atom_site_fract_x
 _atom_site_fract_y
 _atom_site_fract_z
 _atom_site_occupancy
  Ni  Ni0  1  0.25000000  0.29911700  0.63825300  1
  Ni  Ni1  1  0.75000000  0.70088300  0.36174700  1
  Ni  Ni2  1  0.25000000  0.28669800  0.13806500  1
  Ni  Ni3  1  0.75000000  0.71330200  0.86193500  1
  Cu  Cu4  1  0.25000000  0.78169700  0.14026600  1
  Cu  Cu5  1  0.75000000  0.21830300  0.85973400  1
  Cu  Cu6  1  0.25000000  0.76743700  0.62109500  1
  Cu  Cu7  1  0.75000000  0.23256300  0.37890500  1
  C  C8  1  0.42321600  0.68992700  0.08432100  1
  C  C9  1  0.57678400  0.31007300  0.91567900  1
  C  C10  1  0.92321600  0.31007300  0.91567900  1
  C  C11  1  0.07678400  0.68992700  0.08432100  1
  C  C12  1  0.50043400  0.80636700  0.59816800  1
  C  C13  1  0.49956600  0.19363300  0.40183200  1
  C  C14  1  0.00043400  0.19363300  0.40183200  1
  C  C15  1  0.99956600  0.80636700  0.59816800  1
  C  C16  1  0.25000000  0.62901900  0.70783900  1
  C  C17  1  0.75000000  0.37098100  0.29216100  1
  C  C18  1  0.25000000  0.71292100  0.25622600  1
  C  C19  1  0.75000000  0.28707900  0.74377400  1
  C  C20  1  0.42259300  0.92371400  0.12603800  1
  C  C21  1  0.57740700  0.07628600  0.87396200  1
  C  C22  1  0.92259300  0.07628600  0.87396200  1
  C  C23  1  0.07740700  0.92371400  0.12603800  1
  C  C24  1  0.25000000  0.70896200  0.50476200  1
  C  C25  1  0.75000000  0.29103800  0.49523800  1
  C  C26  1  0.25000000  0.91083000  0.68825600  1
  C  C27  1  0.75000000  0.08917000  0.31174400  1
  C  C28  1  0.25000000  0.90432800  0.96521200  1
  C  C29  1  0.75000000  0.09567200  0.03478800  1
  C  C30  1  0.25000000  0.47399500  0.02070600  1
  C  C31  1  0.75000000  0.52600500  0.97929400  1
  C  C32  1  0.25000000  0.97624000  0.49184600  1
  C  C33  1  0.75000000  0.02376000  0.50815400  1
  C  C34  1  0.25000000  0.25488800  0.79865400  1
  C  C35  1  0.75000000  0.74511200  0.20134600  1
  C  C36  1  0.95702000  0.28679700  0.13967900  1
  C  C37  1  0.04298000  0.71320300  0.86032100  1
  C  C38  1  0.45702000  0.71320300  0.86032100  1
  C  C39  1  0.54298000  0.28679700  0.13967900  1
  C  C40  1  0.25000000  0.34411000  0.47961000  1
  C  C41  1  0.75000000  0.65589000  0.52039000  1
  C  C42  1  0.25000000  0.10191700  0.25457400  1
  C  C43  1  0.75000000  0.89808300  0.74542600  1
  C  C44  1  0.25000000  0.16365500  0.03163600  1
  C  C45  1  0.75000000  0.83634500  0.96836400  1
  C  C46  1  0.96044700  0.85007100  0.35627300  1
  C  C47  1  0.03955300  0.14992900  0.64372700  1
  C  C48  1  0.46044700  0.14992900  0.64372700  1
  C  C49  1  0.53955300  0.85007100  0.35627300  1
  C  C50  1  0.95488200  0.54403000  0.36448500  1
  C  C51  1  0.04511800  0.45597000  0.63551500  1
  C  C52  1  0.45488200  0.45597000  0.63551500  1
  C  C53  1  0.54511800  0.54403000  0.36448500  1
  C  C54  1  0.25000000  0.41117400  0.24433300  1
  C  C55  1  0.75000000  0.58882600  0.75566700  1
