# generated using pymatgen
data_CuNiC17
_symmetry_space_group_name_H-M   'P 1'
_cell_length_a   10.40269400
_cell_length_b   10.40269400
_cell_length_c   10.40269400
_cell_angle_alpha   90.00000000
_cell_angle_beta   90.00000000
_cell_angle_gamma   90.00000000
_symmetry_Int_Tables_number   1
_chemical_formula_structural   CuNiC17
_chemical_formula_sum   'Cu4 Ni4 C68'
_cell_volume   1125.73837558
_cell_formula_units_Z   4
loop_
 _symmetry_equiv_pos_site_id
 _symmetry_equiv_pos_as_xyz
  1  'x, y, z'
loop_
 _atom_site_type_symbol
 _atom_site_label
 _atom_site_symmetry_multiplicity
 _atom_site_fract_x
 _atom_site_fract_y
 _atom_site_fract_z
 _atom_site_occupancy
  C  C0  1  0.81829500  0.81829500  0.81829500  1
  C  C1  1  0.68170500  0.18170500  0.31829500  1
  C  C2  1  0.18170500  0.31829500  0.68170500  1
  C  C3  1  0.31829500  0.68170500  0.18170500  1
  C  C4  1  0.04088300  0.04088300  0.04088300  1
  C  C5  1  0.45911700  0.95911700  0.54088300  1
  C  C6  1  0.95911700  0.54088300  0.45911700  1
  C  C7  1  0.54088300  0.45911700  0.95911700  1
  Ni  Ni8  1  0.33752500  0.33752500  0.33752500  1
  Ni  Ni9  1  0.16247500  0.66247500  0.83752500  1
  Ni  Ni10  1  0.66247500  0.83752500  0.16247500  1
  Ni  Ni11  1  0.83752500  0.16247500  0.66247500  1
  Cu  Cu12  1  0.60424500  0.60424500  0.60424500  1
  Cu  Cu13  1  0.89575500  0.39575500  0.10424500  1
  Cu  Cu14  1  0.39575500  0.10424500  0.89575500  1
  Cu  Cu15  1  0.10424500  0.89575500  0.39575500  1
  C  C16  1  0.02099800  0.20593800  0.37198600  1
  C  C17  1  0.47900200  0.79406200  0.87198600  1
  C  C18  1  0.97900200  0.70593800  0.12801400  1
  C  C19  1  0.37198600  0.02099800  0.20593800  1
  C  C20  1  0.52099800  0.29406200  0.62801400  1
  C  C21  1  0.87198600  0.47900200  0.79406200  1
  C  C22  1  0.12801400  0.97900200  0.70593800  1
  C  C23  1  0.62801400  0.52099800  0.29406200  1
  C  C24  1  0.20593800  0.37198600  0.02099800  1
  C  C25  1  0.70593800  0.12801400  0.97900200  1
  C  C26  1  0.29406200  0.62801400  0.52099800  1
  C  C27  1  0.79406200  0.87198600  0.47900200  1
  C  C28  1  0.27600500  0.49685100  0.44904500  1
  C  C29  1  0.22399500  0.50314900  0.94904500  1
  C  C30  1  0.72399500  0.99685100  0.05095500  1
  C  C31  1  0.44904500  0.27600500  0.49685100  1
  C  C32  1  0.77600500  0.00314900  0.55095500  1
  C  C33  1  0.94904500  0.22399500  0.50314900  1
  C  C34  1  0.05095500  0.72399500  0.99685100  1
  C  C35  1  0.55095500  0.77600500  0.00314900  1
  C  C36  1  0.49685100  0.44904500  0.27600500  1
  C  C37  1  0.99685100  0.05095500  0.72399500  1
  C  C38  1  0.00314900  0.55095500  0.77600500  1
  C  C39  1  0.50314900  0.94904500  0.22399500  1
  C  C40  1  0.16008700  0.25768000  0.39157400  1
  C  C41  1  0.33991300  0.74232000  0.89157400  1
  C  C42  1  0.83991300  0.75768000  0.10842600  1
  C  C43  1  0.39157400  0.16008700  0.25768000  1
  C  C44  1  0.66008700  0.24232000  0.60842600  1
  C  C45  1  0.89157400  0.33991300  0.74232000  1
  C  C46  1  0.10842600  0.83991300  0.75768000  1
  C  C47  1  0.60842600  0.66008700  0.24232000  1
  C  C48  1  0.25768000  0.39157400  0.16008700  1
  C  C49  1  0.75768000  0.10842600  0.83991300  1
  C  C50  1  0.24232000  0.60842600  0.66008700  1
  C  C51  1  0.74232000  0.89157400  0.33991300  1
  C  C52  1  0.04998300  0.78300800  0.23194100  1
  C  C53  1  0.45001700  0.21699200  0.73194100  1
  C  C54  1  0.95001700  0.28300800  0.26805900  1
  C  C55  1  0.23194100  0.04998300  0.78300800  1
  C  C56  1  0.54998300  0.71699200  0.76805900  1
  C  C57  1  0.73194100  0.45001700  0.21699200  1
  C  C58  1  0.26805900  0.95001700  0.28300800  1
  C  C59  1  0.76805900  0.54998300  0.71699200  1
  C  C60  1  0.78300800  0.23194100  0.04998300  1
  C  C61  1  0.28300800  0.26805900  0.95001700  1
  C  C62  1  0.71699200  0.76805900  0.54998300  1
  C  C63  1  0.21699200  0.73194100  0.45001700  1
  C  C64  1  0.01963200  0.06246300  0.33260700  1
  C  C65  1  0.48036800  0.93753700  0.83260700  1
  C  C66  1  0.98036800  0.56246300  0.16739300  1
  C  C67  1  0.33260700  0.01963200  0.06246300  1
  C  C68  1  0.51963200  0.43753700  0.66739300  1
  C  C69  1  0.83260700  0.48036800  0.93753700  1
  C  C70  1  0.16739300  0.98036800  0.56246300  1
  C  C71  1  0.66739300  0.51963200  0.43753700  1
  C  C72  1  0.06246300  0.33260700  0.01963200  1
  C  C73  1  0.56246300  0.16739300  0.98036800  1
  C  C74  1  0.43753700  0.66739300  0.51963200  1
  C  C75  1  0.93753700  0.83260700  0.48036800  1
