# generated using pymatgen
data_Cu2Ni7C5
_symmetry_space_group_name_H-M   'P 1'
_cell_length_a   5.64258700
_cell_length_b   8.51554400
_cell_length_c   11.92871300
_cell_angle_alpha   90.00000000
_cell_angle_beta   90.00000000
_cell_angle_gamma   90.00000000
_symmetry_Int_Tables_number   1
_chemical_formula_structural   Cu2Ni7C5
_chemical_formula_sum   'Cu4 Ni14 C10'
_cell_volume   573.17105566
_cell_formula_units_Z   2
loop_
 _symmetry_equiv_pos_site_id
 _symmetry_equiv_pos_as_xyz
  1  'x, y, z'
loop_
 _atom_site_type_symbol
 _atom_site_label
 _atom_site_symmetry_multiplicity
 _atom_site_fract_x
 _atom_site_fract_y
 _atom_site_fract_z
 _atom_site_occupancy
  C  C0  1  0.00000000  0.88071200  0.74837400  1
  C  C1  1  0.50000000  0.11928800  0.24837400  1
  C  C2  1  0.00000000  0.52982400  0.87736200  1
  C  C3  1  0.50000000  0.47017600  0.37736200  1
  C  C4  1  0.50000000  0.94996200  0.67162300  1
  C  C5  1  0.00000000  0.05003800  0.17162300  1
  C  C6  1  0.50000000  0.94998100  0.01781800  1
  C  C7  1  0.00000000  0.05001900  0.51781800  1
  C  C8  1  0.00000000  0.65279200  0.30429800  1
  C  C9  1  0.50000000  0.34720800  0.80429800  1
  Ni  Ni10  1  0.00000000  0.86393400  0.59987300  1
  Ni  Ni11  1  0.50000000  0.13606600  0.09987300  1
  Ni  Ni12  1  0.00000000  0.70996500  0.81731100  1
  Ni  Ni13  1  0.50000000  0.29003500  0.31731100  1
  Ni  Ni14  1  0.00000000  0.36922600  0.81173100  1
  Ni  Ni15  1  0.50000000  0.63077400  0.31173100  1
  Ni  Ni16  1  0.76258600  0.52477100  0.99211200  1
  Ni  Ni17  1  0.23741400  0.52477100  0.99211200  1
  Ni  Ni18  1  0.73741400  0.47522900  0.49211200  1
  Ni  Ni19  1  0.26258600  0.47522900  0.49211200  1
  Ni  Ni20  1  0.74567700  0.98696800  0.77361000  1
  Ni  Ni21  1  0.25432300  0.98696800  0.77361000  1
  Ni  Ni22  1  0.75432300  0.01303200  0.27361000  1
  Ni  Ni23  1  0.24567700  0.01303200  0.27361000  1
  Cu  Cu24  1  0.73233100  0.56307500  0.56763300  1
  Cu  Cu25  1  0.26766900  0.56307500  0.56763300  1
  Cu  Cu26  1  0.76766900  0.43692500  0.06763300  1
  Cu  Cu27  1  0.23233100  0.43692500  0.06763300  1
