# generated using pymatgen
data_Cu3NiC2
_symmetry_space_group_name_H-M   'P 1'
_cell_length_a   3.22227474
_cell_length_b   3.22227474
_cell_length_c   36.30303600
_cell_angle_alpha   90.00000000
_cell_angle_beta   90.00000000
_cell_angle_gamma   120.00001526
_symmetry_Int_Tables_number   1
_chemical_formula_structural   Cu3NiC2
_chemical_formula_sum   'Cu6 Ni2 C4'
_cell_volume   326.43644958
_cell_formula_units_Z   2
loop_
 _symmetry_equiv_pos_site_id
 _symmetry_equiv_pos_as_xyz
  1  'x, y, z'
loop_
 _atom_site_type_symbol
 _atom_site_label
 _atom_site_symmetry_multiplicity
 _atom_site_fract_x
 _atom_site_fract_y
 _atom_site_fract_z
 _atom_site_occupancy
  C  C0  1  0.00000000  0.00000000  0.09393200  1
  C  C1  1  0.33333300  0.66666700  0.28180400  1
  C  C2  1  0.33333300  0.66666700  0.65754300  1
  C  C3  1  0.00000000  0.00000000  0.46965600  1
  Ni  Ni4  1  0.33333300  0.66666700  0.42228800  1
  Ni  Ni5  1  0.33333300  0.66666700  0.51703300  1
  Cu  Cu6  1  0.00000000  0.00000000  0.32460400  1
  Cu  Cu7  1  0.00000000  0.00000000  0.70037600  1
  Cu  Cu8  1  0.33333300  0.66666700  0.05108200  1
  Cu  Cu9  1  0.33333300  0.66666700  0.13675600  1
  Cu  Cu10  1  0.00000000  0.00000000  0.23896500  1
  Cu  Cu11  1  0.00000000  0.00000000  0.61470800  1
