# generated using pymatgen
data_CuNiC11
_symmetry_space_group_name_H-M   'P 1'
_cell_length_a   5.74496800
_cell_length_b   6.98154316
_cell_length_c   9.63758241
_cell_angle_alpha   109.92493801
_cell_angle_beta   101.06915653
_cell_angle_gamma   98.27141253
_symmetry_Int_Tables_number   1
_chemical_formula_structural   CuNiC11
_chemical_formula_sum   'Cu2 Ni2 C22'
_cell_volume   347.35445042
_cell_formula_units_Z   2
loop_
 _symmetry_equiv_pos_site_id
 _symmetry_equiv_pos_as_xyz
  1  'x, y, z'
loop_
 _atom_site_type_symbol
 _atom_site_label
 _atom_site_symmetry_multiplicity
 _atom_site_fract_x
 _atom_site_fract_y
 _atom_site_fract_z
 _atom_site_occupancy
  Ni  Ni0  1  0.25883300  0.75233200  0.05466700  1
  Ni  Ni1  1  0.74116700  0.24766800  0.94533300  1
  Cu  Cu2  1  0.99962000  0.75716300  0.66132600  1
  Cu  Cu3  1  0.00038000  0.24283700  0.33867400  1
  C  C4  1  0.65291500  0.28878500  0.56363000  1
  C  C5  1  0.34708500  0.71121500  0.43637000  1
  C  C6  1  0.39010800  0.19213600  0.22317000  1
  C  C7  1  0.60989200  0.80786400  0.77683000  1
  C  C8  1  0.83823400  0.73226500  0.29770100  1
  C  C9  1  0.16176600  0.26773500  0.70229900  1
  C  C10  1  0.83670600  0.67520800  0.87964700  1
  C  C11  1  0.62314700  0.28104700  0.16907300  1
  C  C12  1  0.66449800  0.03400800  0.77130600  1
  C  C13  1  0.96869400  0.40724500  0.70219000  1
  C  C14  1  0.37685300  0.71895300  0.83092700  1
  C  C15  1  0.00806000  0.14796500  0.59400900  1
  C  C16  1  0.99194000  0.85203500  0.40599100  1
  C  C17  1  0.27271600  0.12785200  0.86521100  1
  C  C18  1  0.33550200  0.96599200  0.22869400  1
  C  C19  1  0.72728400  0.87214800  0.13478900  1
  C  C20  1  0.16329400  0.32479200  0.12035300  1
  C  C21  1  0.41633700  0.19451700  0.38653800  1
  C  C22  1  0.58366300  0.80548300  0.61346200  1
  C  C23  1  0.63682300  0.59451600  0.37439100  1
  C  C24  1  0.03130600  0.59275500  0.29781000  1
  C  C25  1  0.36317700  0.40548400  0.62560900  1
