# generated using pymatgen
data_Cu5Ni2C25
_symmetry_space_group_name_H-M   'P 1'
_cell_length_a   4.97284100
_cell_length_b   5.88044064
_cell_length_c   9.77856976
_cell_angle_alpha   98.60848127
_cell_angle_beta   93.80772814
_cell_angle_gamma   89.97334192
_symmetry_Int_Tables_number   1
_chemical_formula_structural   Cu5Ni2C25
_chemical_formula_sum   'Cu5 Ni2 C25'
_cell_volume   282.09121908
_cell_formula_units_Z   1
loop_
 _symmetry_equiv_pos_site_id
 _symmetry_equiv_pos_as_xyz
  1  'x, y, z'
loop_
 _atom_site_type_symbol
 _atom_site_label
 _atom_site_symmetry_multiplicity
 _atom_site_fract_x
 _atom_site_fract_y
 _atom_site_fract_z
 _atom_site_occupancy
  C  C0  1  0.36758500  0.06439200  0.24720500  1
  C  C1  1  0.63473900  0.43548400  0.75496000  1
  C  C2  1  0.87811300  0.80465600  0.24870100  1
  C  C3  1  0.87639900  0.31854900  0.24563100  1
  C  C4  1  0.12198600  0.68194100  0.75204900  1
  C  C5  1  0.36657200  0.55948200  0.24597400  1
  C  C6  1  0.63037800  0.94213200  0.75247400  1
  C  C7  1  0.12274700  0.19324200  0.75276900  1
  C  C8  1  0.00096200  0.49587100  0.00016300  1
  Ni  Ni9  1  0.00018000  0.00570400  0.00006700  1
  Ni  Ni10  1  0.50007800  0.74026900  0.00000300  1
  Cu  Cu11  1  0.25036100  0.37482000  0.49982600  1
  Cu  Cu12  1  0.74976400  0.12485900  0.49960300  1
  Cu  Cu13  1  0.25026300  0.87519200  0.49984200  1
  Cu  Cu14  1  0.50045800  0.25243400  0.00006400  1
  Cu  Cu15  1  0.74892600  0.62550200  0.50054900  1
  C  C16  1  0.19109100  0.79434700  0.11017900  1
  C  C17  1  0.44781700  0.15431200  0.61661600  1
  C  C18  1  0.65636500  0.52951000  0.11030400  1
  C  C19  1  0.68480000  0.02684900  0.10793700  1
  C  C20  1  0.94913300  0.40480200  0.61814900  1
  C  C21  1  0.18852700  0.26170700  0.11044700  1
  C  C22  1  0.44756200  0.65423100  0.61652300  1
  C  C23  1  0.94927800  0.90373900  0.61661200  1
  C  C24  1  0.55171800  0.34614900  0.38349100  1
  C  C25  1  0.80839700  0.73949000  0.88994000  1
  C  C26  1  0.05058600  0.09613600  0.38328600  1
  C  C27  1  0.05055500  0.59518200  0.38183000  1
  C  C28  1  0.31606600  0.97250400  0.89227700  1
  C  C29  1  0.55213400  0.84598000  0.38317600  1
  C  C30  1  0.81250600  0.20634600  0.88944100  1
  C  C31  1  0.34395200  0.47418800  0.88991300  1
