# generated using pymatgen
data_CuNiC4
_symmetry_space_group_name_H-M   'P 1'
_cell_length_a   5.79663999
_cell_length_b   5.79663999
_cell_length_c   11.29749532
_cell_angle_alpha   76.40069255
_cell_angle_beta   76.40069255
_cell_angle_gamma   72.69141529
_symmetry_Int_Tables_number   1
_chemical_formula_structural   CuNiC4
_chemical_formula_sum   'Cu4 Ni4 C16'
_cell_volume   346.63132936
_cell_formula_units_Z   4
loop_
 _symmetry_equiv_pos_site_id
 _symmetry_equiv_pos_as_xyz
  1  'x, y, z'
loop_
 _atom_site_type_symbol
 _atom_site_label
 _atom_site_symmetry_multiplicity
 _atom_site_fract_x
 _atom_site_fract_y
 _atom_site_fract_z
 _atom_site_occupancy
  C  C0  1  0.97480600  0.30392900  0.86455600  1
  C  C1  1  0.69607100  0.02519400  0.63544400  1
  C  C2  1  0.02519400  0.69607100  0.13544400  1
  C  C3  1  0.30392900  0.97480600  0.36455600  1
  Ni  Ni4  1  0.37100100  0.57956900  0.64925400  1
  Ni  Ni5  1  0.42043100  0.62899900  0.85074600  1
  Ni  Ni6  1  0.62899900  0.42043100  0.35074600  1
  Ni  Ni7  1  0.57956900  0.37100100  0.14925400  1
  Cu  Cu8  1  0.08787000  0.45566000  0.54987900  1
  Cu  Cu9  1  0.54434000  0.91213000  0.95012100  1
  Cu  Cu10  1  0.91213000  0.54434000  0.45012100  1
  Cu  Cu11  1  0.45566000  0.08787000  0.04987900  1
  C  C12  1  0.16514900  0.22802100  0.58715700  1
  C  C13  1  0.77197900  0.83485100  0.91284300  1
  C  C14  1  0.83485100  0.77197900  0.41284300  1
  C  C15  1  0.22802100  0.16514900  0.08715700  1
  C  C16  1  0.13636200  0.62577100  0.58632300  1
  C  C17  1  0.37422900  0.86363800  0.91367700  1
  C  C18  1  0.86363800  0.37422900  0.41367700  1
  C  C19  1  0.62577100  0.13636200  0.08632300  1
  C  C20  1  0.52697700  0.55445200  0.68346200  1
  C  C21  1  0.44554800  0.47302300  0.81653800  1
  C  C22  1  0.47302300  0.44554800  0.31653800  1
  C  C23  1  0.55445200  0.52697700  0.18346200  1
