# generated using pymatgen
data_CuNiC11
_symmetry_space_group_name_H-M   'P 1'
_cell_length_a   7.27958900
_cell_length_b   7.56155950
_cell_length_c   7.86335366
_cell_angle_alpha   115.16573446
_cell_angle_beta   106.78707466
_cell_angle_gamma   100.59955225
_symmetry_Int_Tables_number   1
_chemical_formula_structural   CuNiC11
_chemical_formula_sum   'Cu2 Ni2 C22'
_cell_volume   350.77039045
_cell_formula_units_Z   2
loop_
 _symmetry_equiv_pos_site_id
 _symmetry_equiv_pos_as_xyz
  1  'x, y, z'
loop_
 _atom_site_type_symbol
 _atom_site_label
 _atom_site_symmetry_multiplicity
 _atom_site_fract_x
 _atom_site_fract_y
 _atom_site_fract_z
 _atom_site_occupancy
  Ni  Ni0  1  0.96758900  0.34974000  0.82142700  1
  Ni  Ni1  1  0.03241100  0.65026000  0.17857300  1
  C  C2  1  0.48275300  0.23091900  0.19605500  1
  C  C3  1  0.51724700  0.76908100  0.80394500  1
  C  C4  1  0.58762400  0.64418500  0.17460600  1
  C  C5  1  0.41237600  0.35581500  0.82539400  1
  C  C6  1  0.21180700  0.77380200  0.42400400  1
  C  C7  1  0.78819300  0.22619800  0.57599600  1
  Cu  Cu8  1  0.13029400  0.99552500  0.74100700  1
  Cu  Cu9  1  0.86970600  0.00447500  0.25899300  1
  C  C10  1  0.16841900  0.27880900  0.86084300  1
  C  C11  1  0.83158100  0.72119100  0.13915700  1
  C  C12  1  0.61614800  0.73783000  0.95054000  1
  C  C13  1  0.38385200  0.26217000  0.04946000  1
  C  C14  1  0.73604300  0.24881300  0.07515700  1
  C  C15  1  0.26395700  0.75118700  0.92484300  1
  C  C16  1  0.30750500  0.00370300  0.40348900  1
  C  C17  1  0.69249500  0.99629700  0.59651100  1
  C  C18  1  0.43380600  0.72626900  0.31788600  1
  C  C19  1  0.56619400  0.27373100  0.68211400  1
  C  C20  1  0.91039700  0.21334200  0.70166200  1
  C  C21  1  0.08960300  0.78665800  0.29833800  1
  C  C22  1  0.46654200  0.39227800  0.28725600  1
  C  C23  1  0.53345800  0.60772200  0.71274400  1
  C  C24  1  0.05066300  0.61254600  0.66752900  1
  C  C25  1  0.94933700  0.38745400  0.33247100  1
