# generated using pymatgen
data_Cu(NiC11)3
_symmetry_space_group_name_H-M   'P 1'
_cell_length_a   7.11576556
_cell_length_b   12.69490080
_cell_length_c   23.19725043
_cell_angle_alpha   90.00000000
_cell_angle_beta   90.00000000
_cell_angle_gamma   90.00000000
_symmetry_Int_Tables_number   1
_chemical_formula_structural   Cu(NiC11)3
_chemical_formula_sum   'Cu4 Ni12 C132'
_cell_volume   2095.49897980
_cell_formula_units_Z   4
loop_
 _symmetry_equiv_pos_site_id
 _symmetry_equiv_pos_as_xyz
  1  'x, y, z'
loop_
 _atom_site_type_symbol
 _atom_site_label
 _atom_site_symmetry_multiplicity
 _atom_site_fract_x
 _atom_site_fract_y
 _atom_site_fract_z
 _atom_site_occupancy
  Ni  Ni0  1  0.98741295  0.48931366  0.79838472  1
  Ni  Ni1  1  0.01258705  0.51068634  0.20161528  1
  Ni  Ni2  1  0.48741295  0.51068634  0.70161528  1
  Ni  Ni3  1  0.01258705  0.98931366  0.20161528  1
  Ni  Ni4  1  0.51258705  0.48931366  0.29838472  1
  Ni  Ni5  1  0.98741295  0.01068634  0.79838472  1
  Ni  Ni6  1  0.51258705  0.01068634  0.29838472  1
  Ni  Ni7  1  0.48741295  0.98931366  0.70161528  1
  Ni  Ni8  1  0.97869113  0.75000000  0.50182725  1
  Ni  Ni9  1  0.02130887  0.25000000  0.49817275  1
  Ni  Ni10  1  0.47869113  0.25000000  0.99817275  1
  Ni  Ni11  1  0.52130887  0.75000000  0.00182725  1
  Cu  Cu12  1  0.10706735  0.75000000  0.90886939  1
  Cu  Cu13  1  0.89293265  0.25000000  0.09113061  1
  Cu  Cu14  1  0.60706735  0.25000000  0.59113061  1
  Cu  Cu15  1  0.39293265  0.75000000  0.40886939  1
  C  C16  1  0.99133392  0.88634741  0.65920719  1
  C  C17  1  0.00866608  0.11365259  0.34079281  1
  C  C18  1  0.49133392  0.11365259  0.84079281  1
  C  C19  1  0.00866608  0.38634741  0.34079281  1
  C  C20  1  0.50866608  0.88634741  0.15920719  1
  C  C21  1  0.99133392  0.61365259  0.65920719  1
  C  C22  1  0.50866608  0.61365259  0.15920719  1
  C  C23  1  0.49133392  0.38634741  0.84079281  1
  C  C24  1  0.50643552  0.87120611  0.84897904  1
  C  C25  1  0.49356448  0.12879389  0.15102096  1
  C  C26  1  0.00643552  0.12879389  0.65102096  1
  C  C27  1  0.49356448  0.37120611  0.15102096  1
  C  C28  1  0.99356448  0.87120611  0.34897904  1
  C  C29  1  0.50643552  0.62879389  0.84897904  1
  C  C30  1  0.99356448  0.62879389  0.34897904  1
  C  C31  1  0.00643552  0.37120611  0.65102096  1
  C  C32  1  0.77785443  0.75000000  0.76175256  1
  C  C33  1  0.22214557  0.25000000  0.23824744  1
  C  C34  1  0.27785443  0.25000000  0.73824744  1
  C  C35  1  0.72214557  0.75000000  0.26175256  1
  C  C36  1  0.80129061  0.47305900  0.93581350  1
  C  C37  1  0.19870939  0.52694100  0.06418650  1
  C  C38  1  0.30129061  0.52694100  0.56418650  1
  C  C39  1  0.19870939  0.97305900  0.06418650  1
  C  C40  1  0.69870939  0.47305900  0.43581350  1
  C  C41  1  0.80129061  0.02694100  0.93581350  1
  C  C42  1  0.69870939  0.02694100  0.43581350  1
  C  C43  1  0.30129061  0.97305900  0.56418650  1
  C  C44  1  0.74862018  0.99329443  0.56259996  1
  C  C45  1  0.25137982  0.00670557  0.43740004  1
  C  C46  1  0.24862018  0.00670557  0.93740004  1
  C  C47  1  0.25137982  0.49329443  0.43740004  1
  C  C48  1  0.75137982  0.99329443  0.06259996  1
  C  C49  1  0.74862018  0.50670557  0.56259996  1
  C  C50  1  0.75137982  0.50670557  0.06259996  1
  C  C51  1  0.24862018  0.49329443  0.93740004  1
  C  C52  1  0.17649601  0.75000000  0.76075145  1
  C  C53  1  0.82350399  0.25000000  0.23924855  1
  C  C54  1  0.67649601  0.25000000  0.73924855  1
  C  C55  1  0.32350399  0.75000000  0.26075145  1
  C  C56  1  0.66840546  0.85945548  0.77627567  1
  C  C57  1  0.33159454  0.14054452  0.22372433  1
  C  C58  1  0.16840546  0.14054452  0.72372433  1
  C  C59  1  0.33159454  0.35945548  0.22372433  1
  C  C60  1  0.83159454  0.85945548  0.27627567  1
  C  C61  1  0.66840546  0.64054452  0.77627567  1
  C  C62  1  0.83159454  0.64054452  0.27627567  1
  C  C63  1  0.16840546  0.35945548  0.72372433  1
  C  C64  1  0.47698843  0.99360541  0.41991232  1
  C  C65  1  0.52301157  0.00639459  0.58008768  1
  C  C66  1  0.97698843  0.00639459  0.08008768  1
  C  C67  1  0.52301157  0.49360541  0.58008768  1
  C  C68  1  0.02301157  0.99360541  0.91991232  1
  C  C69  1  0.47698843  0.50639459  0.41991232  1
  C  C70  1  0.02301157  0.50639459  0.91991232  1
  C  C71  1  0.97698843  0.49360541  0.08008768  1
  C  C72  1  0.33714089  0.75000000  0.81148980  1
  C  C73  1  0.66285911  0.25000000  0.18851020  1
  C  C74  1  0.83714089  0.25000000  0.68851020  1
  C  C75  1  0.16285911  0.75000000  0.31148980  1
  C  C76  1  0.67769185  0.35812120  0.77895831  1
  C  C77  1  0.32230815  0.64187880  0.22104169  1
  C  C78  1  0.17769185  0.64187880  0.72104169  1
  C  C79  1  0.32230815  0.85812120  0.22104169  1
  C  C80  1  0.82230815  0.35812120  0.27895831  1
  C  C81  1  0.67769185  0.14187880  0.77895831  1
  C  C82  1  0.82230815  0.14187880  0.27895831  1
  C  C83  1  0.17769185  0.85812120  0.72104169  1
  C  C84  1  0.87637850  0.48764545  0.68887080  1
  C  C85  1  0.12362150  0.51235455  0.31112920  1
  C  C86  1  0.37637850  0.51235455  0.81112920  1
  C  C87  1  0.12362150  0.98764545  0.31112920  1
  C  C88  1  0.62362150  0.48764545  0.18887080  1
  C  C89  1  0.87637850  0.01235455  0.68887080  1
  C  C90  1  0.62362150  0.01235455  0.18887080  1
  C  C91  1  0.37637850  0.98764545  0.81112920  1
  C  C92  1  0.34447187  0.89369219  0.92019034  1
  C  C93  1  0.65552813  0.10630781  0.07980966  1
  C  C94  1  0.84447187  0.10630781  0.57980966  1
  C  C95  1  0.65552813  0.39369219  0.07980966  1
  C  C96  1  0.15552813  0.89369219  0.42019034  1
  C  C97  1  0.34447187  0.60630781  0.92019034  1
  C  C98  1  0.15552813  0.60630781  0.42019034  1
  C  C99  1  0.84447187  0.39369219  0.57980966  1
  C  C100  1  0.02120907  0.75000000  0.00798453  1
  C  C101  1  0.97879093  0.25000000  0.99201547  1
  C  C102  1  0.52120907  0.25000000  0.49201547  1
  C  C103  1  0.47879093  0.75000000  0.50798453  1
  C  C104  1  0.73876680  0.95842387  0.99369659  1
  C  C105  1  0.26123320  0.04157613  0.00630341  1
  C  C106  1  0.23876680  0.04157613  0.50630341  1
  C  C107  1  0.26123320  0.45842387  0.00630341  1
  C  C108  1  0.76123320  0.95842387  0.49369659  1
  C  C109  1  0.73876680  0.54157613  0.99369659  1
  C  C110  1  0.76123320  0.54157613  0.49369659  1
  C  C111  1  0.23876680  0.45842387  0.50630341  1
  C  C112  1  0.68595557  0.99102032  0.87729534  1
  C  C113  1  0.31404443  0.00897968  0.12270466  1
  C  C114  1  0.18595557  0.00897968  0.62270466  1
  C  C115  1  0.31404443  0.49102032  0.12270466  1
  C  C116  1  0.81404443  0.99102032  0.37729534  1
  C  C117  1  0.68595557  0.50897968  0.87729534  1
  C  C118  1  0.81404443  0.50897968  0.37729534  1
  C  C119  1  0.18595557  0.49102032  0.62270466  1
  C  C120  1  0.62094086  0.75000000  0.88328299  1
  C  C121  1  0.37905914  0.25000000  0.11671701  1
  C  C122  1  0.12094086  0.25000000  0.61671701  1
  C  C123  1  0.87905914  0.75000000  0.38328299  1
  C  C124  1  0.97897276  0.75000000  0.80052275  1
  C  C125  1  0.02102724  0.25000000  0.19947725  1
  C  C126  1  0.47897276  0.25000000  0.69947725  1
  C  C127  1  0.52102724  0.75000000  0.30052275  1
  C  C128  1  0.83980443  0.88874222  0.59338672  1
  C  C129  1  0.16019557  0.11125778  0.40661328  1
  C  C130  1  0.33980443  0.11125778  0.90661328  1
  C  C131  1  0.16019557  0.38874222  0.40661328  1
  C  C132  1  0.66019557  0.88874222  0.09338672  1
  C  C133  1  0.83980443  0.61125778  0.59338672  1
  C  C134  1  0.66019557  0.61125778  0.09338672  1
  C  C135  1  0.33980443  0.38874222  0.90661328  1
  C  C136  1  0.84852773  0.75000000  0.69310973  1
  C  C137  1  0.15147227  0.25000000  0.30689027  1
  C  C138  1  0.34852773  0.25000000  0.80689027  1
  C  C139  1  0.65147227  0.75000000  0.19310973  1
  C  C140  1  0.76121154  0.35079173  0.94478970  1
  C  C141  1  0.23878846  0.64920827  0.05521030  1
  C  C142  1  0.26121154  0.64920827  0.55521030  1
  C  C143  1  0.23878846  0.85079173  0.05521030  1
  C  C144  1  0.73878846  0.35079173  0.44478970  1
  C  C145  1  0.76121154  0.14920827  0.94478970  1
  C  C146  1  0.73878846  0.14920827  0.44478970  1
  C  C147  1  0.26121154  0.85079173  0.55521030  1
