# generated using pymatgen
data_CuNiC4
_symmetry_space_group_name_H-M   'P 1'
_cell_length_a   7.75269007
_cell_length_b   7.75269007
_cell_length_c   7.75269007
_cell_angle_alpha   146.37046151
_cell_angle_beta   131.42995692
_cell_angle_gamma   60.37377454
_symmetry_Int_Tables_number   1
_chemical_formula_structural   CuNiC4
_chemical_formula_sum   'Cu1 Ni1 C4'
_cell_volume   191.67992907
_cell_formula_units_Z   1
loop_
 _symmetry_equiv_pos_site_id
 _symmetry_equiv_pos_as_xyz
  1  'x, y, z'
loop_
 _atom_site_type_symbol
 _atom_site_label
 _atom_site_symmetry_multiplicity
 _atom_site_fract_x
 _atom_site_fract_y
 _atom_site_fract_z
 _atom_site_occupancy
  C  C0  1  0.99986500  0.99986500  0.00000000  1
  Ni  Ni1  1  0.32860700  0.32860700  0.00000000  1
  C  C2  1  0.49311700  0.99311700  0.50000000  1
  C  C3  1  0.15936400  0.65936400  0.50000000  1
  C  C4  1  0.84611000  0.34611000  0.50000000  1
  Cu  Cu5  1  0.67293900  0.67293900  0.00000000  1
