# generated using pymatgen
data_CuNi7C6
_symmetry_space_group_name_H-M   'P 1'
_cell_length_a   12.07415100
_cell_length_b   6.49851100
_cell_length_c   12.14957800
_cell_angle_alpha   90.00000000
_cell_angle_beta   90.00000000
_cell_angle_gamma   90.00000000
_symmetry_Int_Tables_number   1
_chemical_formula_structural   CuNi7C6
_chemical_formula_sum   'Cu4 Ni28 C24'
_cell_volume   953.30452572
_cell_formula_units_Z   4
loop_
 _symmetry_equiv_pos_site_id
 _symmetry_equiv_pos_as_xyz
  1  'x, y, z'
loop_
 _atom_site_type_symbol
 _atom_site_label
 _atom_site_symmetry_multiplicity
 _atom_site_fract_x
 _atom_site_fract_y
 _atom_site_fract_z
 _atom_site_occupancy
  Ni  Ni0  1  0.02841300  0.72650300  0.99689500  1
  Ni  Ni1  1  0.47158700  0.77349700  0.49689500  1
  Ni  Ni2  1  0.52841300  0.77349700  0.00310500  1
  Ni  Ni3  1  0.97158700  0.72650300  0.50310500  1
  Ni  Ni4  1  0.97158700  0.27349700  0.00310500  1
  Ni  Ni5  1  0.52841300  0.22650300  0.50310500  1
  Ni  Ni6  1  0.47158700  0.22650300  0.99689500  1
  Ni  Ni7  1  0.02841300  0.27349700  0.49689500  1
  Ni  Ni8  1  0.22434400  0.73589000  0.68092200  1
  Ni  Ni9  1  0.27565600  0.76411000  0.18092200  1
  Ni  Ni10  1  0.72434400  0.76411000  0.31907800  1
  Ni  Ni11  1  0.77565600  0.73589000  0.81907800  1
  Ni  Ni12  1  0.77565600  0.26411000  0.31907800  1
  Ni  Ni13  1  0.72434400  0.23589000  0.81907800  1
  Ni  Ni14  1  0.27565600  0.23589000  0.68092200  1
  Ni  Ni15  1  0.22434400  0.26411000  0.18092200  1
  Ni  Ni16  1  0.27297200  0.51386800  0.93979000  1
  Ni  Ni17  1  0.22702800  0.98613200  0.43979000  1
  Ni  Ni18  1  0.77297200  0.98613200  0.06021000  1
  Ni  Ni19  1  0.72702800  0.51386800  0.56021000  1
  Ni  Ni20  1  0.72702800  0.48613200  0.06021000  1
  Ni  Ni21  1  0.77297200  0.01386800  0.56021000  1
  Ni  Ni22  1  0.22702800  0.01386800  0.93979000  1
  Ni  Ni23  1  0.27297200  0.48613200  0.43979000  1
  Ni  Ni24  1  0.00000000  0.51002200  0.75000000  1
  Ni  Ni25  1  0.50000000  0.98997800  0.25000000  1
  Ni  Ni26  1  0.00000000  0.48997800  0.25000000  1
  Ni  Ni27  1  0.50000000  0.01002200  0.75000000  1
  Cu  Cu28  1  0.00000000  0.01978200  0.75000000  1
  Cu  Cu29  1  0.50000000  0.48021800  0.25000000  1
  Cu  Cu30  1  0.00000000  0.98021800  0.25000000  1
  Cu  Cu31  1  0.50000000  0.51978200  0.75000000  1
  C  C32  1  0.10730900  0.80284400  0.82658100  1
  C  C33  1  0.39269100  0.69715600  0.32658100  1
  C  C34  1  0.60730900  0.69715600  0.17341900  1
  C  C35  1  0.89269100  0.80284400  0.67341900  1
  C  C36  1  0.89269100  0.19715600  0.17341900  1
  C  C37  1  0.60730900  0.30284400  0.67341900  1
  C  C38  1  0.39269100  0.30284400  0.82658100  1
  C  C39  1  0.10730900  0.19715600  0.32658100  1
  C  C40  1  0.15333100  0.70521000  0.51114800  1
  C  C41  1  0.34666900  0.79479000  0.01114800  1
  C  C42  1  0.65333100  0.79479000  0.48885200  1
  C  C43  1  0.84666900  0.70521000  0.98885200  1
  C  C44  1  0.84666900  0.29479000  0.48885200  1
  C  C45  1  0.65333100  0.20521000  0.98885200  1
  C  C46  1  0.34666900  0.20521000  0.51114800  1
  C  C47  1  0.15333100  0.29479000  0.01114800  1
  C  C48  1  0.40612000  0.73955300  0.66575500  1
  C  C49  1  0.09388000  0.76044700  0.16575500  1
  C  C50  1  0.90612000  0.76044700  0.33424500  1
  C  C51  1  0.59388000  0.73955300  0.83424500  1
  C  C52  1  0.59388000  0.26044700  0.33424500  1
  C  C53  1  0.90612000  0.23955300  0.83424500  1
  C  C54  1  0.09388000  0.23955300  0.66575500  1
  C  C55  1  0.40612000  0.26044700  0.16575500  1
