# generated using pymatgen
data_CuNiC17
_symmetry_space_group_name_H-M   'P 1'
_cell_length_a   6.61416100
_cell_length_b   6.96851800
_cell_length_c   9.11046808
_cell_angle_alpha   90.00000000
_cell_angle_beta   92.35859015
_cell_angle_gamma   90.00000000
_symmetry_Int_Tables_number   1
_chemical_formula_structural   CuNiC17
_chemical_formula_sum   'Cu2 Ni2 C34'
_cell_volume   419.55393982
_cell_formula_units_Z   2
loop_
 _symmetry_equiv_pos_site_id
 _symmetry_equiv_pos_as_xyz
  1  'x, y, z'
loop_
 _atom_site_type_symbol
 _atom_site_label
 _atom_site_symmetry_multiplicity
 _atom_site_fract_x
 _atom_site_fract_y
 _atom_site_fract_z
 _atom_site_occupancy
  C  C0  1  0.15299900  0.25000000  0.79161500  1
  C  C1  1  0.84700100  0.75000000  0.20838500  1
  C  C2  1  0.80895700  0.36425900  0.56518600  1
  C  C3  1  0.19104300  0.86425900  0.43481400  1
  C  C4  1  0.19104300  0.63574100  0.43481400  1
  C  C5  1  0.80895700  0.13574100  0.56518600  1
  C  C6  1  0.42095400  0.91717800  0.09929500  1
  C  C7  1  0.57904600  0.41717800  0.90070500  1
  C  C8  1  0.57904600  0.08282200  0.90070500  1
  C  C9  1  0.42095400  0.58282200  0.09929500  1
  C  C10  1  0.48614400  0.04417900  0.23428700  1
  C  C11  1  0.51385600  0.54417900  0.76571300  1
  C  C12  1  0.51385600  0.95582100  0.76571300  1
  C  C13  1  0.48614400  0.45582100  0.23428700  1
  Ni  Ni14  1  0.99273400  0.25000000  0.11191200  1
  Ni  Ni15  1  0.00726600  0.75000000  0.88808800  1
  Cu  Cu16  1  0.31237500  0.25000000  0.48028600  1
  Cu  Cu17  1  0.68762500  0.75000000  0.51971400  1
  C  C18  1  0.20467100  0.25000000  0.05843900  1
  C  C19  1  0.79532900  0.75000000  0.94156100  1
  C  C20  1  0.85760500  0.25000000  0.97536500  1
  C  C21  1  0.14239500  0.75000000  0.02463500  1
  C  C22  1  0.95930700  0.42157900  0.20373500  1
  C  C23  1  0.04069300  0.92157900  0.79626500  1
  C  C24  1  0.04069300  0.57842100  0.79626500  1
  C  C25  1  0.95930700  0.07842100  0.20373500  1
  C  C26  1  0.39830900  0.25000000  0.36117600  1
  C  C27  1  0.60169100  0.75000000  0.63882400  1
  C  C28  1  0.26717700  0.40647000  0.54474600  1
  C  C29  1  0.73282300  0.90647000  0.45525400  1
  C  C30  1  0.73282300  0.59353000  0.45525400  1
  C  C31  1  0.26717700  0.09353000  0.54474600  1
  C  C32  1  0.85043500  0.25000000  0.62197300  1
  C  C33  1  0.14956500  0.75000000  0.37802700  1
  C  C34  1  0.46203400  0.04541300  0.83819600  1
  C  C35  1  0.53796600  0.54541300  0.16180400  1
  C  C36  1  0.53796600  0.95458700  0.16180400  1
  C  C37  1  0.46203400  0.45458700  0.83819600  1
