# generated using pymatgen
data_CuNi4C5
_symmetry_space_group_name_H-M   'P 1'
_cell_length_a   3.29568034
_cell_length_b   3.29568034
_cell_length_c   26.41461900
_cell_angle_alpha   90.00000000
_cell_angle_beta   90.00000000
_cell_angle_gamma   120.00000691
_symmetry_Int_Tables_number   1
_chemical_formula_structural   CuNi4C5
_chemical_formula_sum   'Cu2 Ni8 C10'
_cell_volume   248.46494017
_cell_formula_units_Z   2
loop_
 _symmetry_equiv_pos_site_id
 _symmetry_equiv_pos_as_xyz
  1  'x, y, z'
loop_
 _atom_site_type_symbol
 _atom_site_label
 _atom_site_symmetry_multiplicity
 _atom_site_fract_x
 _atom_site_fract_y
 _atom_site_fract_z
 _atom_site_occupancy
  Ni  Ni0  1  0.66666700  0.33333300  0.09868600  1
  Ni  Ni1  1  0.66666700  0.33333300  0.29879100  1
  Ni  Ni2  1  0.66666700  0.33333300  0.49872100  1
  Ni  Ni3  1  0.66666700  0.33333300  0.69876300  1
  Ni  Ni4  1  0.66666700  0.33333300  0.89868200  1
  Ni  Ni5  1  0.00000000  0.00000000  0.19882800  1
  Ni  Ni6  1  0.00000000  0.00000000  0.39876000  1
  Ni  Ni7  1  0.00000000  0.00000000  0.59870700  1
  Cu  Cu8  1  0.00000000  0.00000000  0.79873200  1
  Cu  Cu9  1  0.00000000  0.00000000  0.99880500  1
  C  C10  1  0.66666700  0.33333300  0.02241100  1
  C  C11  1  0.66666700  0.33333300  0.22243300  1
  C  C12  1  0.66666700  0.33333300  0.42253600  1
  C  C13  1  0.66666700  0.33333300  0.62263800  1
  C  C14  1  0.66666700  0.33333300  0.82258200  1
  C  C15  1  0.00000000  0.00000000  0.12241400  1
  C  C16  1  0.00000000  0.00000000  0.32246200  1
  C  C17  1  0.00000000  0.00000000  0.52258400  1
  C  C18  1  0.00000000  0.00000000  0.72267700  1
  C  C19  1  0.00000000  0.00000000  0.92258700  1
