# generated using pymatgen
data_Cu9NiC
_symmetry_space_group_name_H-M   'P 1'
_cell_length_a   11.28373600
_cell_length_b   7.63205600
_cell_length_c   10.55033008
_cell_angle_alpha   54.88810557
_cell_angle_beta   90.00000000
_cell_angle_gamma   90.00000000
_symmetry_Int_Tables_number   1
_chemical_formula_structural   Cu9NiC
_chemical_formula_sum   'Cu36 Ni4 C4'
_cell_volume   743.24144438
_cell_formula_units_Z   4
loop_
 _symmetry_equiv_pos_site_id
 _symmetry_equiv_pos_as_xyz
  1  'x, y, z'
loop_
 _atom_site_type_symbol
 _atom_site_label
 _atom_site_symmetry_multiplicity
 _atom_site_fract_x
 _atom_site_fract_y
 _atom_site_fract_z
 _atom_site_occupancy
  C  C0  1  0.08685700  0.17829400  0.30635400  1
  C  C1  1  0.58685700  0.82170600  0.19364600  1
  C  C2  1  0.91314300  0.82170600  0.69364600  1
  C  C3  1  0.41314300  0.17829400  0.80635400  1
  Ni  Ni4  1  0.32910100  0.01456300  0.22903600  1
  Ni  Ni5  1  0.82910100  0.98543700  0.27096400  1
  Ni  Ni6  1  0.67089900  0.98543700  0.77096400  1
  Ni  Ni7  1  0.17089900  0.01456300  0.72903600  1
  Cu  Cu8  1  0.42702800  0.08213400  0.05360200  1
  Cu  Cu9  1  0.92702800  0.91786600  0.44639800  1
  Cu  Cu10  1  0.57297200  0.91786600  0.94639800  1
  Cu  Cu11  1  0.07297200  0.08213400  0.55360200  1
  Cu  Cu12  1  0.46162200  0.22099900  0.24919100  1
  Cu  Cu13  1  0.96162200  0.77900100  0.25080900  1
  Cu  Cu14  1  0.53837800  0.77900100  0.75080900  1
  Cu  Cu15  1  0.03837800  0.22099900  0.74919100  1
  Cu  Cu16  1  0.22191900  0.23583800  0.10801100  1
  Cu  Cu17  1  0.72191900  0.76416200  0.39198900  1
  Cu  Cu18  1  0.77808100  0.76416200  0.89198900  1
  Cu  Cu19  1  0.27808100  0.23583800  0.60801100  1
  Cu  Cu20  1  0.22752000  0.61358200  0.26335400  1
  Cu  Cu21  1  0.72752000  0.38641800  0.23664600  1
  Cu  Cu22  1  0.77248000  0.38641800  0.73664600  1
  Cu  Cu23  1  0.27248000  0.61358200  0.76335400  1
  Cu  Cu24  1  0.92699100  0.59738500  0.28651700  1
  Cu  Cu25  1  0.42699100  0.40261500  0.21348300  1
  Cu  Cu26  1  0.07300900  0.40261500  0.71348300  1
  Cu  Cu27  1  0.57300900  0.59738500  0.78651700  1
  Cu  Cu28  1  0.93667500  0.20674800  0.15567500  1
  Cu  Cu29  1  0.43667500  0.79325200  0.34432500  1
  Cu  Cu30  1  0.06332500  0.79325200  0.84432500  1
  Cu  Cu31  1  0.56332500  0.20674800  0.65567500  1
  Cu  Cu32  1  0.74683500  0.04544600  0.09729200  1
  Cu  Cu33  1  0.24683500  0.95455400  0.40270800  1
  Cu  Cu34  1  0.25316500  0.95455400  0.90270800  1
  Cu  Cu35  1  0.75316500  0.04544600  0.59729200  1
  Cu  Cu36  1  0.69876400  0.19363800  0.29330500  1
  Cu  Cu37  1  0.19876400  0.80636200  0.20669500  1
  Cu  Cu38  1  0.30123600  0.80636200  0.70669500  1
  Cu  Cu39  1  0.80123600  0.19363800  0.79330500  1
  Cu  Cu40  1  0.57385700  0.47393800  0.31910200  1
  Cu  Cu41  1  0.07385700  0.52606200  0.18089800  1
  Cu  Cu42  1  0.42614300  0.52606200  0.68089800  1
  Cu  Cu43  1  0.92614300  0.47393800  0.81910200  1
