# generated using pymatgen
data_CuNi7C22
_symmetry_space_group_name_H-M   'P 1'
_cell_length_a   5.82335600
_cell_length_b   7.79995500
_cell_length_c   8.24344493
_cell_angle_alpha   89.87401576
_cell_angle_beta   90.00000000
_cell_angle_gamma   90.00000000
_symmetry_Int_Tables_number   1
_chemical_formula_structural   CuNi7C22
_chemical_formula_sum   'Cu1 Ni7 C22'
_cell_volume   374.43214759
_cell_formula_units_Z   1
loop_
 _symmetry_equiv_pos_site_id
 _symmetry_equiv_pos_as_xyz
  1  'x, y, z'
loop_
 _atom_site_type_symbol
 _atom_site_label
 _atom_site_symmetry_multiplicity
 _atom_site_fract_x
 _atom_site_fract_y
 _atom_site_fract_z
 _atom_site_occupancy
  Ni  Ni0  1  0.26243500  0.00000000  0.00000000  1
  Ni  Ni1  1  0.73860600  0.50000000  0.50000000  1
  Ni  Ni2  1  0.73822300  0.00000000  0.00000000  1
  Ni  Ni3  1  0.50207800  0.35033500  0.15953900  1
  Ni  Ni4  1  0.50207800  0.64966500  0.84046100  1
  Ni  Ni5  1  0.50179000  0.85435900  0.33728000  1
  Ni  Ni6  1  0.50179000  0.14564100  0.66272000  1
  Cu  Cu7  1  0.25806600  0.50000000  0.50000000  1
  C  C8  1  0.99735600  0.16917700  0.32998400  1
  C  C9  1  0.99735600  0.83082300  0.67001600  1
  C  C10  1  0.99843900  0.67227100  0.16752800  1
  C  C11  1  0.99843900  0.32772900  0.83247200  1
  C  C12  1  0.25016300  0.37111200  0.28530800  1
  C  C13  1  0.25016300  0.62888800  0.71469200  1
  C  C14  1  0.74825900  0.87743400  0.20582600  1
  C  C15  1  0.74825900  0.12256600  0.79417400  1
  C  C16  1  0.74793200  0.62624700  0.70868800  1
  C  C17  1  0.74793200  0.37375300  0.29131200  1
  C  C18  1  0.25259800  0.12499500  0.79245800  1
  C  C19  1  0.25259800  0.87500500  0.20754200  1
  C  C20  1  0.50243600  0.50000000  0.00000000  1
  C  C21  1  0.49950400  0.00000000  0.50000000  1
  C  C22  1  0.50067200  0.13742200  0.08536100  1
  C  C23  1  0.50067200  0.86257800  0.91463900  1
  C  C24  1  0.51223200  0.64090700  0.41070900  1
  C  C25  1  0.51223200  0.35909300  0.58929100  1
  C  C26  1  0.00003000  0.14265400  0.06505500  1
  C  C27  1  0.00003000  0.85734600  0.93494500  1
  C  C28  1  0.98881800  0.64795700  0.43333000  1
  C  C29  1  0.98881800  0.35204300  0.56667000  1
