# generated using pymatgen
data_Cu4NiC9
_symmetry_space_group_name_H-M   'P 1'
_cell_length_a   5.83024500
_cell_length_b   5.83024500
_cell_length_c   10.98073600
_cell_angle_alpha   90.00000000
_cell_angle_beta   90.00000000
_cell_angle_gamma   90.00000000
_symmetry_Int_Tables_number   1
_chemical_formula_structural   Cu4NiC9
_chemical_formula_sum   'Cu4 Ni1 C9'
_cell_volume   373.25450716
_cell_formula_units_Z   1
loop_
 _symmetry_equiv_pos_site_id
 _symmetry_equiv_pos_as_xyz
  1  'x, y, z'
loop_
 _atom_site_type_symbol
 _atom_site_label
 _atom_site_symmetry_multiplicity
 _atom_site_fract_x
 _atom_site_fract_y
 _atom_site_fract_z
 _atom_site_occupancy
  C  C0  1  0.50000000  0.50000000  0.50000000  1
  Ni  Ni1  1  0.00000000  0.00000000  0.00000000  1
  Cu  Cu2  1  0.50000000  0.50000000  0.00000000  1
  Cu  Cu3  1  0.00000000  0.00000000  0.50000000  1
  Cu  Cu4  1  0.00000000  0.50000000  0.25106200  1
  Cu  Cu5  1  0.50000000  0.00000000  0.74893800  1
  C  C6  1  0.24549600  0.76119400  0.36886400  1
  C  C7  1  0.73848300  0.27204900  0.86234000  1
  C  C8  1  0.75450400  0.23880600  0.36886400  1
  C  C9  1  0.26151700  0.72795100  0.86234000  1
  C  C10  1  0.72795100  0.73848300  0.13766000  1
  C  C11  1  0.23880600  0.24549600  0.63113600  1
  C  C12  1  0.27204900  0.26151700  0.13766000  1
  C  C13  1  0.76119400  0.75450400  0.63113600  1
