# generated using pymatgen
data_Cu(Ni3C4)4
_symmetry_space_group_name_H-M   'P 1'
_cell_length_a   9.14387737
_cell_length_b   9.14387737
_cell_length_c   9.11429908
_cell_angle_alpha   70.67009108
_cell_angle_beta   70.67009108
_cell_angle_gamma   109.47109882
_symmetry_Int_Tables_number   1
_chemical_formula_structural   Cu(Ni3C4)4
_chemical_formula_sum   'Cu1 Ni12 C16'
_cell_volume   588.66438300
_cell_formula_units_Z   1
loop_
 _symmetry_equiv_pos_site_id
 _symmetry_equiv_pos_as_xyz
  1  'x, y, z'
loop_
 _atom_site_type_symbol
 _atom_site_label
 _atom_site_symmetry_multiplicity
 _atom_site_fract_x
 _atom_site_fract_y
 _atom_site_fract_z
 _atom_site_occupancy
  C  C0  1  0.00010300  0.00010300  0.34590200  1
  C  C1  1  0.34139500  0.34139500  0.66354100  1
  C  C2  1  0.31341300  0.31341300  0.28840000  1
  C  C3  1  0.00111900  0.00111900  0.00001500  1
  C  C4  1  0.39698900  0.68044800  0.00227300  1
  C  C5  1  0.28600100  0.59962600  0.40010700  1
  C  C6  1  0.68589100  0.00302100  0.60023500  1
  C  C7  1  0.65460600  0.00326400  0.99449400  1
  C  C8  1  0.31859600  0.71225200  0.68338000  1
  C  C9  1  0.99810400  0.40065400  0.31712400  1
  C  C10  1  0.40065400  0.99810400  0.31712400  1
  C  C11  1  0.71225200  0.31859600  0.68338000  1
  C  C12  1  0.00326400  0.65460600  0.99449400  1
  C  C13  1  0.00302100  0.68589100  0.60023500  1
  C  C14  1  0.59962600  0.28600100  0.40010700  1
  C  C15  1  0.68044800  0.39698900  0.00227300  1
  Ni  Ni16  1  0.63288000  0.63288000  0.17898200  1
  Ni  Ni17  1  0.82158200  0.82158200  0.81751500  1
  Ni  Ni18  1  0.17850300  0.36125200  0.00712900  1
  Ni  Ni19  1  0.00000300  0.18601700  0.63320100  1
  Ni  Ni20  1  0.63490000  0.82226800  0.35821600  1
  Ni  Ni21  1  0.81200500  0.18051900  0.18663800  1
  Ni  Ni22  1  0.99792500  0.36745900  0.81665600  1
  Ni  Ni23  1  0.36745900  0.99792500  0.81665600  1
  Ni  Ni24  1  0.18051900  0.81200500  0.18663800  1
  Ni  Ni25  1  0.82226800  0.63490000  0.35821600  1
  Ni  Ni26  1  0.18601700  0.00000300  0.63320100  1
  Ni  Ni27  1  0.36125200  0.17850300  0.00712900  1
  Cu  Cu28  1  0.60957700  0.60957700  0.70677800  1
