# generated using pymatgen
data_Cu2NiC4
_symmetry_space_group_name_H-M   'P 1'
_cell_length_a   13.79791498
_cell_length_b   13.79791498
_cell_length_c   13.79791484
_cell_angle_alpha   16.90058379
_cell_angle_beta   16.90058379
_cell_angle_gamma   16.90058588
_symmetry_Int_Tables_number   1
_chemical_formula_structural   Cu2NiC4
_chemical_formula_sum   'Cu2 Ni1 C4'
_cell_volume   193.65732167
_cell_formula_units_Z   1
loop_
 _symmetry_equiv_pos_site_id
 _symmetry_equiv_pos_as_xyz
  1  'x, y, z'
loop_
 _atom_site_type_symbol
 _atom_site_label
 _atom_site_symmetry_multiplicity
 _atom_site_fract_x
 _atom_site_fract_y
 _atom_site_fract_z
 _atom_site_occupancy
  Ni  Ni0  1  0.77000900  0.77000900  0.77000900  1
  Cu  Cu1  1  0.00297300  0.00297300  0.00297300  1
  Cu  Cu2  1  0.23277100  0.23277100  0.23277100  1
  C  C3  1  0.29677400  0.29677400  0.29677400  1
  C  C4  1  0.70406800  0.70406800  0.70406800  1
  C  C5  1  0.87479300  0.87479300  0.87479300  1
  C  C6  1  0.11461300  0.11461300  0.11461300  1
