# generated using pymatgen
data_Cu6NiC5
_symmetry_space_group_name_H-M   'P 1'
_cell_length_a   14.32390400
_cell_length_b   14.32390400
_cell_length_c   9.81094900
_cell_angle_alpha   90.00000000
_cell_angle_beta   90.00000000
_cell_angle_gamma   90.00000000
_symmetry_Int_Tables_number   1
_chemical_formula_structural   Cu6NiC5
_chemical_formula_sum   'Cu24 Ni4 C20'
_cell_volume   2012.95386545
_cell_formula_units_Z   4
loop_
 _symmetry_equiv_pos_site_id
 _symmetry_equiv_pos_as_xyz
  1  'x, y, z'
loop_
 _atom_site_type_symbol
 _atom_site_label
 _atom_site_symmetry_multiplicity
 _atom_site_fract_x
 _atom_site_fract_y
 _atom_site_fract_z
 _atom_site_occupancy
  C  C0  1  0.59009600  0.40990400  0.00000000  1
  C  C1  1  0.40990400  0.59009600  0.00000000  1
  C  C2  1  0.90990400  0.90990400  0.50000000  1
  C  C3  1  0.09009600  0.09009600  0.50000000  1
  C  C4  1  0.15230400  0.15230400  0.00000000  1
  C  C5  1  0.84769600  0.84769600  0.00000000  1
  C  C6  1  0.65230400  0.34769600  0.50000000  1
  C  C7  1  0.34769600  0.65230400  0.50000000  1
  C  C8  1  0.41139200  0.41139200  0.30513700  1
  C  C9  1  0.58860800  0.58860800  0.69486300  1
  C  C10  1  0.58860800  0.58860800  0.30513700  1
  C  C11  1  0.91139200  0.08860800  0.80513700  1
  C  C12  1  0.91139200  0.08860800  0.19486300  1
  C  C13  1  0.41139200  0.41139200  0.69486300  1
  C  C14  1  0.08860800  0.91139200  0.19486300  1
  C  C15  1  0.08860800  0.91139200  0.80513700  1
  Ni  Ni16  1  0.03514600  0.03514600  0.00000000  1
  Ni  Ni17  1  0.96485400  0.96485400  0.00000000  1
  Ni  Ni18  1  0.53514600  0.46485400  0.50000000  1
  Ni  Ni19  1  0.46485400  0.53514600  0.50000000  1
  Cu  Cu20  1  0.78049000  0.21951000  0.00000000  1
  Cu  Cu21  1  0.21951000  0.78049000  0.00000000  1
  Cu  Cu22  1  0.71951000  0.71951000  0.50000000  1
  Cu  Cu23  1  0.28049000  0.28049000  0.50000000  1
  Cu  Cu24  1  0.32712600  0.32712600  0.00000000  1
  Cu  Cu25  1  0.67287400  0.67287400  0.00000000  1
  Cu  Cu26  1  0.82712600  0.17287400  0.50000000  1
  Cu  Cu27  1  0.17287400  0.82712600  0.50000000  1
  Cu  Cu28  1  0.26297300  0.05033600  0.24963600  1
  Cu  Cu29  1  0.73702700  0.94966400  0.75036400  1
  Cu  Cu30  1  0.73702700  0.94966400  0.24963600  1
  Cu  Cu31  1  0.55033600  0.23702700  0.74963600  1
  Cu  Cu32  1  0.76297300  0.44966400  0.25036400  1
  Cu  Cu33  1  0.26297300  0.05033600  0.75036400  1
  Cu  Cu34  1  0.44966400  0.76297300  0.25036400  1
  Cu  Cu35  1  0.23702700  0.55033600  0.74963600  1
  Cu  Cu36  1  0.44966400  0.76297300  0.74963600  1
  Cu  Cu37  1  0.23702700  0.55033600  0.25036400  1
  Cu  Cu38  1  0.55033600  0.23702700  0.25036400  1
  Cu  Cu39  1  0.76297300  0.44966400  0.74963600  1
  Cu  Cu40  1  0.05033600  0.26297300  0.75036400  1
  Cu  Cu41  1  0.94966400  0.73702700  0.24963600  1
  Cu  Cu42  1  0.94966400  0.73702700  0.75036400  1
  Cu  Cu43  1  0.05033600  0.26297300  0.24963600  1
  C  C44  1  0.00000000  0.00000000  0.34958000  1
  C  C45  1  0.00000000  0.00000000  0.65042000  1
  C  C46  1  0.50000000  0.50000000  0.84958000  1
  C  C47  1  0.50000000  0.50000000  0.15042000  1
