# generated using pymatgen
data_Cu(Ni4C3)2
_symmetry_space_group_name_H-M   'P 1'
_cell_length_a   5.81621169
_cell_length_b   7.56772256
_cell_length_c   19.30218282
_cell_angle_alpha   101.33762471
_cell_angle_beta   87.78444865
_cell_angle_gamma   89.94572040
_symmetry_Int_Tables_number   1
_chemical_formula_structural   Cu(Ni4C3)2
_chemical_formula_sum   'Cu4 Ni32 C24'
_cell_volume   832.36119991
_cell_formula_units_Z   4
loop_
 _symmetry_equiv_pos_site_id
 _symmetry_equiv_pos_as_xyz
  1  'x, y, z'
loop_
 _atom_site_type_symbol
 _atom_site_label
 _atom_site_symmetry_multiplicity
 _atom_site_fract_x
 _atom_site_fract_y
 _atom_site_fract_z
 _atom_site_occupancy
  C  C0  1  0.28378700  0.71007500  0.50038700  1
  C  C1  1  0.96066600  0.99011500  0.99819500  1
  C  C2  1  0.98567700  0.48279000  0.99305400  1
  C  C3  1  0.28822900  0.19995200  0.49997800  1
  C  C4  1  0.02363300  0.65410800  0.32482900  1
  C  C5  1  0.54673600  0.31877100  0.67932800  1
  C  C6  1  0.73108900  0.82597300  0.17745800  1
  C  C7  1  0.54283800  0.83144700  0.67357300  1
  C  C8  1  0.21461300  0.64212200  0.81866200  1
  C  C9  1  0.72475700  0.32356800  0.18146000  1
  C  C10  1  0.20545400  0.14785100  0.82214500  1
  C  C11  1  0.01520200  0.14012900  0.32271300  1
  C  C12  1  0.78864400  0.93710500  0.49963900  1
  C  C13  1  0.52637700  0.22809900  0.97639200  1
  C  C14  1  0.39670200  0.75048200  0.02531300  1
  C  C15  1  0.78886400  0.36289000  0.50162600  1
  C  C16  1  0.24358700  0.08009700  0.15259800  1
  C  C17  1  0.51609300  0.42668000  0.35995600  1
  C  C18  1  0.71301800  0.89525000  0.84436700  1
  C  C19  1  0.70576000  0.43648600  0.85371700  1
  C  C20  1  0.03013900  0.56660000  0.64318800  1
  C  C21  1  0.03809600  0.04117000  0.64740600  1
  C  C22  1  0.51509600  0.89593500  0.35423800  1
  C  C23  1  0.24448500  0.54561200  0.15415000  1
  Ni  Ni24  1  0.69026700  0.77006200  0.04832200  1
  Ni  Ni25  1  0.77837900  0.57691600  0.67967000  1
  Ni  Ni26  1  0.65943400  0.41321300  0.93450600  1
  Ni  Ni27  1  0.64927800  0.25897900  0.06074800  1
  Ni  Ni28  1  0.68103500  0.02293500  0.92171100  1
  Ni  Ni29  1  0.23161900  0.21221900  0.95275400  1
  Ni  Ni30  1  0.26788100  0.90636900  0.32265500  1
  Ni  Ni31  1  0.00233400  0.59036800  0.19733400  1
  Ni  Ni32  1  0.63039900  0.24992900  0.55844600  1
  Ni  Ni33  1  0.53606100  0.98237800  0.43683400  1
  Ni  Ni34  1  0.54564900  0.42789800  0.44375800  1
  Ni  Ni35  1  0.26292500  0.38446300  0.33239700  1
  Ni  Ni36  1  0.00050000  0.07808000  0.19516100  1
  Ni  Ni37  1  0.04938100  0.03793700  0.56370100  1
  Ni  Ni38  1  0.74486900  0.37926700  0.31014700  1
  Ni  Ni39  1  0.23973400  0.96450400  0.07282800  1
  Ni  Ni40  1  0.48799900  0.88364500  0.79827800  1
  Ni  Ni41  1  0.24453400  0.58445200  0.07471500  1
  Ni  Ni42  1  0.48163900  0.08202000  0.18992000  1
  Ni  Ni43  1  0.79429000  0.07626800  0.68824900  1
  Ni  Ni44  1  0.97113600  0.89297300  0.81332000  1
  Ni  Ni45  1  0.94888200  0.76290100  0.44301500  1
  Ni  Ni46  1  0.74533600  0.88917200  0.30477200  1
  Ni  Ni47  1  0.96516900  0.39568000  0.82569000  1
  Ni  Ni48  1  0.62068300  0.82209600  0.55588200  1
  Ni  Ni49  1  0.04291400  0.48173900  0.55845200  1
  Ni  Ni50  1  0.26600800  0.09644600  0.69118400  1
  Ni  Ni51  1  0.94033600  0.18826600  0.44487900  1
  Ni  Ni52  1  0.48946900  0.38865100  0.80483200  1
  Ni  Ni53  1  0.48252200  0.57841800  0.19207300  1
  Ni  Ni54  1  0.25310700  0.54340500  0.68729800  1
  Ni  Ni55  1  0.27734600  0.70972100  0.93996200  1
  Cu  Cu56  1  0.71256900  0.67898000  0.87016300  1
  Cu  Cu57  1  0.08847900  0.79551800  0.63649500  1
  Cu  Cu58  1  0.21239900  0.30330300  0.13230500  1
  Cu  Cu59  1  0.50290000  0.66452300  0.36717200  1
