# generated using pymatgen
data_CuNiC7
_symmetry_space_group_name_H-M   'P 1'
_cell_length_a   11.14520354
_cell_length_b   11.09882857
_cell_length_c   17.91156818
_cell_angle_alpha   108.10982459
_cell_angle_beta   108.21403318
_cell_angle_gamma   89.71109436
_symmetry_Int_Tables_number   1
_chemical_formula_structural   CuNiC7
_chemical_formula_sum   'Cu16 Ni16 C112'
_cell_volume   1989.92735558
_cell_formula_units_Z   16
loop_
 _symmetry_equiv_pos_site_id
 _symmetry_equiv_pos_as_xyz
  1  'x, y, z'
loop_
 _atom_site_type_symbol
 _atom_site_label
 _atom_site_symmetry_multiplicity
 _atom_site_fract_x
 _atom_site_fract_y
 _atom_site_fract_z
 _atom_site_occupancy
  C  C0  1  0.30834244  0.05618583  0.11895859  1
  C  C1  1  0.30957595  0.55707610  0.11881536  1
  C  C2  1  0.80836529  0.05937412  0.12017096  1
  C  C3  1  0.80703724  0.55681855  0.12002021  1
  C  C4  1  0.18324643  0.93970371  0.87408431  1
  C  C5  1  0.05774392  0.81125512  0.11863970  1
  C  C6  1  0.55642531  0.31315302  0.11884227  1
  C  C7  1  0.93298856  0.68502794  0.87444933  1
  C  C8  1  0.30270352  0.05865817  0.61458200  1
  C  C9  1  0.30655664  0.55965261  0.61243536  1
  C  C10  1  0.80616815  0.05583062  0.61364302  1
  C  C11  1  0.80470145  0.55742687  0.61117538  1
  C  C12  1  0.19197951  0.44525065  0.38796420  1
  C  C13  1  0.19125513  0.43938761  0.88412222  1
  C  C14  1  0.19016288  0.94623055  0.38719942  1
  C  C15  1  0.69139124  0.44371450  0.38717423  1
  C  C16  1  0.68873912  0.44234866  0.88454792  1
  C  C17  1  0.69094023  0.94457332  0.38774872  1
  C  C18  1  0.69043189  0.94209536  0.88414047  1
  C  C19  1  0.05674532  0.30815032  0.11233633  1
  C  C20  1  0.05035722  0.30663423  0.61433803  1
  C  C21  1  0.05447685  0.80443470  0.61176036  1
  C  C22  1  0.55841774  0.30650415  0.61477534  1
  C  C23  1  0.55853322  0.80593004  0.11177480  1
  C  C24  1  0.55712983  0.80319607  0.61281105  1
  C  C25  1  0.43766703  0.19643141  0.39003112  1
  C  C26  1  0.43728288  0.19717808  0.88383656  1
  C  C27  1  0.44472033  0.69469540  0.38958036  1
  C  C28  1  0.44448573  0.69108321  0.88376209  1
  C  C29  1  0.94557029  0.19400694  0.39031027  1
  C  C30  1  0.93981016  0.19309375  0.88344568  1
  C  C31  1  0.94116206  0.69597553  0.38984382  1
  Ni  Ni32  1  0.99017087  0.99889323  0.99029677  1
  Ni  Ni33  1  0.99854980  0.00072809  0.50104054  1
  Ni  Ni34  1  0.99384963  0.49349353  0.99066613  1
  Ni  Ni35  1  0.00001341  0.49882087  0.49936589  1
  Ni  Ni36  1  0.49287146  0.99360302  0.98787412  1
  Ni  Ni37  1  0.49809600  -0.00002536  0.50000030  1
  Ni  Ni38  1  0.49167160  0.49593839  0.98839667  1
  Ni  Ni39  1  0.49903176  0.49913048  0.49958179  1
  Ni  Ni40  1  0.24334990  0.24615081  0.98942212  1
  Ni  Ni41  1  0.24960337  0.25209258  0.50259926  1
  Ni  Ni42  1  0.24631492  0.74333128  0.98822088  1
  Ni  Ni43  1  0.25113784  0.75199626  0.49999594  1
  Ni  Ni44  1  0.73989829  0.24511886  0.98688673  1
  Ni  Ni45  1  0.74727906  0.24869557  0.49832618  1
  Ni  Ni46  1  0.74069874  0.74444294  0.99031160  1
  Ni  Ni47  1  0.74949038  0.74991158  0.49954083  1
  Cu  Cu48  1  0.12050190  0.11263607  0.25620937  1
  Cu  Cu49  1  0.11452165  0.10563604  0.74496290  1
  Cu  Cu50  1  0.12205651  0.60453334  0.25537110  1
  Cu  Cu51  1  0.11939585  0.59381747  0.74594567  1
  Cu  Cu52  1  0.62176231  0.10500771  0.25601311  1
  Cu  Cu53  1  0.61324457  0.10240869  0.74811417  1
  Cu  Cu54  1  0.62171847  0.61281831  0.25751458  1
  Cu  Cu55  1  0.61151003  0.60047782  0.74747377  1
  Cu  Cu56  1  0.36791644  0.39631987  0.25563597  1
  Cu  Cu57  1  0.36523515  0.39639192  0.74697299  1
  Cu  Cu58  1  0.37626907  0.89876091  0.25713550  1
  Cu  Cu59  1  0.36952050  0.89869899  0.74621426  1
  Cu  Cu60  1  0.87640615  0.39834507  0.25809139  1
  Cu  Cu61  1  0.86345874  0.38892802  0.74557817  1
  Cu  Cu62  1  0.86737951  0.89608194  0.25585985  1
  Cu  Cu63  1  0.85965924  0.90184069  0.74798160  1
  C  C64  1  0.11259307  0.11624783  0.49614005  1
  C  C65  1  0.10880950  0.11729630  0.99443552  1
  C  C66  1  0.11458963  0.61634093  0.49570959  1
  C  C67  1  0.11258515  0.60988568  0.99357805  1
  C  C68  1  0.61139408  0.11543380  0.49553993  1
  C  C69  1  0.60846380  0.11523275  0.99095593  1
  C  C70  1  0.61528455  0.61462528  0.49611169  1
  C  C71  1  0.61308567  0.61857940  0.99290626  1
  C  C72  1  0.12651731  0.36191609  0.99789202  1
  C  C73  1  0.13476286  0.36994655  0.50729899  1
  C  C74  1  0.13300821  0.86148113  0.99814080  1
  C  C75  1  0.13508406  0.86941934  0.50524994  1
  C  C76  1  0.62624331  0.36784384  0.99681018  1
  C  C77  1  0.63280195  0.36736983  0.50370347  1
  C  C78  1  0.63142232  0.86743942  0.99936743  1
  C  C79  1  0.63517872  0.86873722  0.50682311  1
  C  C80  1  0.36229789  0.13053943  0.49641103  1
  C  C81  1  0.35970521  0.12842966  0.99187187  1
  C  C82  1  0.36598751  0.63122500  0.49624961  1
  C  C83  1  0.36620461  0.62736558  0.99351664  1
  C  C84  1  0.86164674  0.12854027  0.49574866  1
  C  C85  1  0.86061757  0.13437281  0.99470783  1
  C  C86  1  0.86455180  0.62921536  0.49633079  1
  C  C87  1  0.85933132  0.62891483  0.99194740  1
  C  C88  1  0.37509804  0.38065012  0.99657583  1
  C  C89  1  0.38439600  0.38821829  0.50670001  1
  C  C90  1  0.38532884  0.87946697  0.99791219  1
  C  C91  1  0.38478951  0.88829505  0.50652138  1
  C  C92  1  0.87885212  0.38295739  0.99672584  1
  C  C93  1  0.88501665  0.38740949  0.50682487  1
  C  C94  1  0.87982218  0.88599842  0.99971832  1
  C  C95  1  0.88461372  0.88538227  0.50598163  1
  C  C96  1  0.07205836  0.09402809  0.14498808  1
  C  C97  1  0.06617684  0.08851088  0.63285086  1
  C  C98  1  0.07134048  0.57712483  0.14229370  1
  C  C99  1  0.08177883  0.58926549  0.63709092  1
  C  C100  1  0.57230627  0.08161330  0.14416482  1
  C  C101  1  0.57637087  0.08831318  0.63747918  1
  C  C102  1  0.57339240  0.59403784  0.14693895  1
  C  C103  1  0.57847166  0.58388385  0.63633690  1
  C  C104  1  0.43700375  0.41208240  0.36748062  1
  C  C105  1  0.43743525  0.41562040  0.85938250  1
  C  C106  1  0.43960873  0.90963371  0.36794858  1
  C  C107  1  0.43765465  0.91204413  0.85851854  1
  C  C108  1  0.94205174  0.40923879  0.36879658  1
  C  C109  1  0.93812742  0.41004830  0.85865966  1
  C  C110  1  0.93540483  0.91202224  0.36761281  1
  C  C111  1  0.92468691  0.92572867  0.86237481  1
  C  C112  1  0.32016611  0.31063747  0.14337635  1
  C  C113  1  0.32726595  0.29927849  0.63589767  1
  C  C114  1  0.33758425  0.81277182  0.14569560  1
  C  C115  1  0.33175378  0.80003570  0.63567935  1
  C  C116  1  0.83422529  0.31442528  0.14633252  1
  C  C117  1  0.81629787  0.29306576  0.63422635  1
  C  C118  1  0.82067240  0.81012358  0.14357011  1
  C  C119  1  0.82791362  0.80009004  0.63809847  1
  C  C120  1  0.18806538  0.20683441  0.36806708  1
  C  C121  1  0.18721490  0.19844484  0.85866626  1
  C  C122  1  0.19626081  0.70567233  0.36547396  1
  C  C123  1  0.19026003  0.68560622  0.85937602  1
  C  C124  1  0.69696960  0.20434042  0.36644805  1
  C  C125  1  0.68756943  0.19847516  0.86060560  1
  C  C126  1  0.69013297  0.70686429  0.36930732  1
  C  C127  1  0.67527485  0.69801554  0.86052970  1
  C  C128  1  0.47467859  0.04744877  0.26662446  1
  C  C129  1  0.45430999  0.05450667  0.74903371  1
  C  C130  1  0.47694928  0.53572759  0.26292893  1
  C  C131  1  0.44999403  0.54781759  0.74617803  1
  C  C132  1  0.97757190  0.03503492  0.26361662  1
  C  C133  1  0.95705461  0.04651741  0.74923766  1
  C  C134  1  0.97603805  0.54555551  0.26631104  1
  C  C135  1  0.96049768  0.52155904  0.73438162  1
  C  C136  1  0.21097237  0.45316840  0.25334692  1
  C  C137  1  0.20492181  0.43931643  0.74759556  1
  C  C138  1  0.22692179  0.97488585  0.26034580  1
  C  C139  1  0.21074823  0.96176836  0.73508254  1
  C  C140  1  0.72748339  0.47522965  0.26164411  1
  C  C141  1  0.70801142  0.45486108  0.75053994  1
  C  C142  1  0.71025413  0.95342143  0.25298145  1
  C  C143  1  0.69631596  0.94442539  0.74655719  1
