# generated using pymatgen
data_Cu3NiC18
_symmetry_space_group_name_H-M   'P 1'
_cell_length_a   5.37125200
_cell_length_b   5.37427670
_cell_length_c   10.57146062
_cell_angle_alpha   99.68022203
_cell_angle_beta   85.37812388
_cell_angle_gamma   119.92238439
_symmetry_Int_Tables_number   1
_chemical_formula_structural   Cu3NiC18
_chemical_formula_sum   'Cu3 Ni1 C18'
_cell_volume   260.71676615
_cell_formula_units_Z   1
loop_
 _symmetry_equiv_pos_site_id
 _symmetry_equiv_pos_as_xyz
  1  'x, y, z'
loop_
 _atom_site_type_symbol
 _atom_site_label
 _atom_site_symmetry_multiplicity
 _atom_site_fract_x
 _atom_site_fract_y
 _atom_site_fract_z
 _atom_site_occupancy
  C  C0  1  0.99973600  0.00638500  0.01951500  1
  Ni  Ni1  1  0.66634700  0.40974100  0.23022700  1
  Cu  Cu2  1  0.33713300  0.16555800  0.49496500  1
  Cu  Cu3  1  0.66374800  0.82898500  0.49573200  1
  Cu  Cu4  1  0.00082800  0.50330300  0.49619300  1
  C  C5  1  0.33411000  0.74194700  0.22473400  1
  C  C6  1  0.33176300  0.58881900  0.76793600  1
  C  C7  1  0.66563800  0.25343900  0.76785200  1
  C  C8  1  0.99986600  0.11255800  0.30797300  1
  C  C9  1  0.00397500  0.89123200  0.69448400  1
  C  C10  1  0.00002100  0.13761000  0.40078700  1
  C  C11  1  0.00454700  0.87006300  0.60184100  1
  C  C12  1  0.01189800  0.50189300  0.16997800  1
  C  C13  1  0.99903100  0.46432900  0.82674800  1
  C  C14  1  0.66420000  0.46493700  0.39928700  1
  C  C15  1  0.33606000  0.79595000  0.38481400  1
  C  C16  1  0.32918200  0.53936900  0.61348600  1
  C  C17  1  0.66524700  0.19793900  0.61341400  1
  C  C18  1  0.55393900  0.62218400  0.16859700  1
  C  C19  1  0.43373200  0.04402200  0.16879100  1
  C  C20  1  0.47734500  0.41856200  0.82516200  1
  C  C21  1  0.52165300  0.94117400  0.82748400  1
