# generated using pymatgen
data_Cu(NiC4)3
_symmetry_space_group_name_H-M   'P 1'
_cell_length_a   9.47006846
_cell_length_b   9.47006846
_cell_length_c   17.94914600
_cell_angle_alpha   90.00000000
_cell_angle_beta   90.00000000
_cell_angle_gamma   120.00000325
_symmetry_Int_Tables_number   1
_chemical_formula_structural   Cu(NiC4)3
_chemical_formula_sum   'Cu6 Ni18 C72'
_cell_volume   1394.05736504
_cell_formula_units_Z   6
loop_
 _symmetry_equiv_pos_site_id
 _symmetry_equiv_pos_as_xyz
  1  'x, y, z'
loop_
 _atom_site_type_symbol
 _atom_site_label
 _atom_site_symmetry_multiplicity
 _atom_site_fract_x
 _atom_site_fract_y
 _atom_site_fract_z
 _atom_site_occupancy
  Ni  Ni0  1  0.68228600  0.68228600  0.86871200  1
  Ni  Ni1  1  0.00000000  0.68228600  0.36871200  1
  Ni  Ni2  1  0.68228600  0.00000000  0.36871200  1
  Ni  Ni3  1  0.31771400  0.00000000  0.86871200  1
  Ni  Ni4  1  0.00000000  0.31771400  0.86871200  1
  Ni  Ni5  1  0.31771400  0.31771400  0.36871200  1
  Ni  Ni6  1  0.65191200  0.65191200  0.62825700  1
  Ni  Ni7  1  0.00000000  0.65191200  0.12825700  1
  Ni  Ni8  1  0.65191200  0.00000000  0.12825700  1
  Ni  Ni9  1  0.34808800  0.00000000  0.62825700  1
  Ni  Ni10  1  0.00000000  0.34808800  0.62825700  1
  Ni  Ni11  1  0.34808800  0.34808800  0.12825700  1
  Ni  Ni12  1  0.33333300  0.66666700  0.27559100  1
  Ni  Ni13  1  0.66666700  0.33333300  0.77559100  1
  Ni  Ni14  1  0.33333300  0.66666700  0.77559100  1
  Ni  Ni15  1  0.66666700  0.33333300  0.27559100  1
  Ni  Ni16  1  0.00000000  0.00000000  0.71516800  1
  Ni  Ni17  1  0.00000000  0.00000000  0.21516800  1
  Cu  Cu18  1  0.33333300  0.66666700  0.99544300  1
  Cu  Cu19  1  0.66666700  0.33333300  0.49544300  1
  Cu  Cu20  1  0.33333300  0.66666700  0.49544300  1
  Cu  Cu21  1  0.66666700  0.33333300  0.99544300  1
  Cu  Cu22  1  0.00000000  0.00000000  0.50144100  1
  Cu  Cu23  1  0.00000000  0.00000000  0.00144100  1
  C  C24  1  0.66020000  0.66020000  0.42090400  1
  C  C25  1  0.00000000  0.66020000  0.92090400  1
  C  C26  1  0.66020000  0.00000000  0.92090400  1
  C  C27  1  0.33980000  0.00000000  0.42090400  1
  C  C28  1  0.00000000  0.33980000  0.42090400  1
  C  C29  1  0.33980000  0.33980000  0.92090400  1
  C  C30  1  0.66740600  0.66740600  0.24754700  1
  C  C31  1  0.00000000  0.66740600  0.74754700  1
  C  C32  1  0.66740600  0.00000000  0.74754700  1
  C  C33  1  0.33259400  0.00000000  0.24754700  1
  C  C34  1  0.00000000  0.33259400  0.24754700  1
  C  C35  1  0.33259400  0.33259400  0.74754700  1
  C  C36  1  0.67335700  0.67335700  0.07100500  1
  C  C37  1  0.00000000  0.67335700  0.57100500  1
  C  C38  1  0.67335700  0.00000000  0.57100500  1
  C  C39  1  0.32664300  0.00000000  0.07100500  1
  C  C40  1  0.00000000  0.32664300  0.07100500  1
  C  C41  1  0.32664300  0.32664300  0.57100500  1
  C  C42  1  0.80665200  0.80665200  0.43041400  1
  C  C43  1  0.00000000  0.80665200  0.93041400  1
  C  C44  1  0.80665200  0.00000000  0.93041400  1
  C  C45  1  0.19334800  0.00000000  0.43041400  1
  C  C46  1  0.00000000  0.19334800  0.43041400  1
  C  C47  1  0.19334800  0.19334800  0.93041400  1
  C  C48  1  0.66126800  0.14727300  0.91574400  1
  C  C49  1  0.85272700  0.51399500  0.91574400  1
  C  C50  1  0.48600500  0.33873200  0.91574400  1
  C  C51  1  0.51399500  0.66126800  0.41574400  1
  C  C52  1  0.33873200  0.85272700  0.41574400  1
  C  C53  1  0.14727300  0.48600500  0.41574400  1
  C  C54  1  0.66126800  0.51399500  0.41574400  1
  C  C55  1  0.14727300  0.66126800  0.91574400  1
  C  C56  1  0.51399500  0.85272700  0.91574400  1
  C  C57  1  0.48600500  0.14727300  0.41574400  1
  C  C58  1  0.85272700  0.33873200  0.41574400  1
  C  C59  1  0.33873200  0.48600500  0.91574400  1
  C  C60  1  0.52008400  0.52008400  0.24738200  1
  C  C61  1  0.00000000  0.52008400  0.74738200  1
  C  C62  1  0.52008400  0.00000000  0.74738200  1
  C  C63  1  0.47991600  0.00000000  0.24738200  1
  C  C64  1  0.00000000  0.47991600  0.24738200  1
  C  C65  1  0.47991600  0.47991600  0.74738200  1
  C  C66  1  0.81460700  0.14732600  0.74797800  1
  C  C67  1  0.85267400  0.66728100  0.74797800  1
  C  C68  1  0.33271900  0.18539300  0.74797800  1
  C  C69  1  0.66728100  0.81460700  0.24797800  1
  C  C70  1  0.18539300  0.85267400  0.24797800  1
  C  C71  1  0.14732600  0.33271900  0.24797800  1
  C  C72  1  0.81460700  0.66728100  0.24797800  1
  C  C73  1  0.14732600  0.81460700  0.74797800  1
  C  C74  1  0.66728100  0.85267400  0.74797800  1
  C  C75  1  0.33271900  0.14732600  0.24797800  1
  C  C76  1  0.85267400  0.18539300  0.24797800  1
  C  C77  1  0.18539300  0.33271900  0.74797800  1
  C  C78  1  0.67352900  0.14669900  0.56642400  1
  C  C79  1  0.85330100  0.52683000  0.56642400  1
  C  C80  1  0.47317000  0.32647100  0.56642400  1
  C  C81  1  0.52683000  0.67352900  0.06642400  1
  C  C82  1  0.32647100  0.85330100  0.06642400  1
  C  C83  1  0.14669900  0.47317000  0.06642400  1
  C  C84  1  0.67352900  0.52683000  0.06642400  1
  C  C85  1  0.14669900  0.67352900  0.56642400  1
  C  C86  1  0.52683000  0.85330100  0.56642400  1
  C  C87  1  0.47317000  0.14669900  0.06642400  1
  C  C88  1  0.85330100  0.32647100  0.06642400  1
  C  C89  1  0.32647100  0.47317000  0.56642400  1
  C  C90  1  0.81911300  0.81911300  0.08059400  1
  C  C91  1  0.00000000  0.81911300  0.58059400  1
  C  C92  1  0.81911300  0.00000000  0.58059400  1
  C  C93  1  0.18088700  0.00000000  0.08059400  1
  C  C94  1  0.00000000  0.18088700  0.08059400  1
  C  C95  1  0.18088700  0.18088700  0.58059400  1
