# generated using pymatgen
data_CuNiC8
_symmetry_space_group_name_H-M   'P 1'
_cell_length_a   5.67976600
_cell_length_b   5.72271900
_cell_length_c   9.83455556
_cell_angle_alpha   54.34191775
_cell_angle_beta   90.00000000
_cell_angle_gamma   90.00000000
_symmetry_Int_Tables_number   1
_chemical_formula_structural   CuNiC8
_chemical_formula_sum   'Cu2 Ni2 C16'
_cell_volume   259.72660639
_cell_formula_units_Z   2
loop_
 _symmetry_equiv_pos_site_id
 _symmetry_equiv_pos_as_xyz
  1  'x, y, z'
loop_
 _atom_site_type_symbol
 _atom_site_label
 _atom_site_symmetry_multiplicity
 _atom_site_fract_x
 _atom_site_fract_y
 _atom_site_fract_z
 _atom_site_occupancy
  C  C0  1  0.01277200  0.25323500  0.24893500  1
  C  C1  1  0.48722800  0.25323500  0.74893500  1
  C  C2  1  0.98722800  0.74676500  0.75106500  1
  C  C3  1  0.51277200  0.74676500  0.25106500  1
  Ni  Ni4  1  0.50000000  0.50000000  0.00000000  1
  Ni  Ni5  1  0.00000000  0.50000000  0.50000000  1
  Cu  Cu6  1  0.50000000  0.00000000  0.50000000  1
  Cu  Cu7  1  0.00000000  0.00000000  0.00000000  1
  C  C8  1  0.49239900  0.18805000  0.25848000  1
  C  C9  1  0.00760100  0.18805000  0.75848000  1
  C  C10  1  0.50760100  0.81195000  0.74152000  1
  C  C11  1  0.99239900  0.81195000  0.24152000  1
  C  C12  1  0.76053200  0.24846500  0.47108300  1
  C  C13  1  0.73946800  0.24846500  0.97108300  1
  C  C14  1  0.23946800  0.75153500  0.52891700  1
  C  C15  1  0.26053200  0.75153500  0.02891700  1
  C  C16  1  0.72137000  0.71437400  0.52690600  1
  C  C17  1  0.77863000  0.71437400  0.02690600  1
  C  C18  1  0.27863000  0.28562600  0.47309400  1
  C  C19  1  0.22137000  0.28562600  0.97309400  1
