# generated using pymatgen
data_CuNiC8
_symmetry_space_group_name_H-M   'P 1'
_cell_length_a   5.77534200
_cell_length_b   5.53672300
_cell_length_c   9.40742946
_cell_angle_alpha   54.36610440
_cell_angle_beta   90.00000000
_cell_angle_gamma   90.00000000
_symmetry_Int_Tables_number   1
_chemical_formula_structural   CuNiC8
_chemical_formula_sum   'Cu2 Ni2 C16'
_cell_volume   244.49038634
_cell_formula_units_Z   2
loop_
 _symmetry_equiv_pos_site_id
 _symmetry_equiv_pos_as_xyz
  1  'x, y, z'
loop_
 _atom_site_type_symbol
 _atom_site_label
 _atom_site_symmetry_multiplicity
 _atom_site_fract_x
 _atom_site_fract_y
 _atom_site_fract_z
 _atom_site_occupancy
  C  C0  1  0.56062100  0.73533800  0.75023600  1
  C  C1  1  0.06062100  0.26466200  0.74976400  1
  C  C2  1  0.43937900  0.26466200  0.24976400  1
  C  C3  1  0.93937900  0.73533800  0.25023600  1
  Ni  Ni4  1  0.50000000  0.00000000  0.00000000  1
  Ni  Ni5  1  0.00000000  0.00000000  0.50000000  1
  Cu  Cu6  1  0.50000000  0.50000000  0.50000000  1
  Cu  Cu7  1  0.00000000  0.50000000  0.00000000  1
  C  C8  1  0.80502500  0.25761300  0.95010600  1
  C  C9  1  0.30502500  0.74238700  0.54989400  1
  C  C10  1  0.20487400  0.34807300  0.45300300  1
  C  C11  1  0.70487400  0.65192700  0.04699700  1
  C  C12  1  0.19497500  0.74238700  0.04989400  1
  C  C13  1  0.69497500  0.25761300  0.45010600  1
  C  C14  1  0.79512600  0.65192700  0.54699700  1
  C  C15  1  0.29512600  0.34807300  0.95300300  1
  C  C16  1  0.97208200  0.84997900  0.74399300  1
  C  C17  1  0.47208200  0.15002100  0.75600700  1
  C  C18  1  0.02791800  0.15002100  0.25600700  1
  C  C19  1  0.52791800  0.84997900  0.24399300  1
