# generated using pymatgen
data_Cu2(NiC10)3
_symmetry_space_group_name_H-M   'P 1'
_cell_length_a   3.95014147
_cell_length_b   25.67009728
_cell_length_c   6.79527374
_cell_angle_alpha   56.14382414
_cell_angle_beta   105.62051507
_cell_angle_gamma   88.09420149
_symmetry_Int_Tables_number   1
_chemical_formula_structural   Cu2(NiC10)3
_chemical_formula_sum   'Cu2 Ni3 C30'
_cell_volume   536.41170309
_cell_formula_units_Z   1
loop_
 _symmetry_equiv_pos_site_id
 _symmetry_equiv_pos_as_xyz
  1  'x, y, z'
loop_
 _atom_site_type_symbol
 _atom_site_label
 _atom_site_symmetry_multiplicity
 _atom_site_fract_x
 _atom_site_fract_y
 _atom_site_fract_z
 _atom_site_occupancy
  C  C0  1  0.63092200  0.31756200  0.13344000  1
  C  C1  1  0.66524400  0.46656200  0.13157000  1
  C  C2  1  0.43749900  0.77517200  0.69375300  1
  C  C3  1  0.56167900  0.93106000  0.97409700  1
  C  C4  1  0.39430700  0.15298700  0.67783300  1
  C  C5  1  0.32905900  0.30497900  0.64560700  1
  C  C6  1  0.74762900  0.06902900  0.37556500  1
  C  C7  1  0.29779800  0.57076300  0.44967300  1
  C  C8  1  0.83891000  0.70143100  0.51288100  1
  C  C9  1  0.84064400  0.91102300  0.52149300  1
  Ni  Ni10  1  0.12780400  0.01408200  0.11503700  1
  Ni  Ni11  1  0.04723800  0.18819600  0.01450600  1
  Ni  Ni12  1  0.98755600  0.44975900  0.77805100  1
  Cu  Cu13  1  0.12592200  0.78708600  0.07691500  1
  Cu  Cu14  1  0.53951300  0.61485700  0.92384700  1
  C  C15  1  0.04736500  0.10261100  0.98338800  1
  C  C16  1  0.05436000  0.25537700  0.04777400  1
  C  C17  1  0.98575500  0.52281900  0.79456500  1
  C  C18  1  0.05246600  0.63499500  0.96529700  1
  C  C19  1  0.23316700  0.12226400  0.37414400  1
  C  C20  1  0.13640800  0.37580900  0.16562100  1
  C  C21  1  0.73458700  0.37847100  0.55555600  1
  C  C22  1  0.34506500  0.65412500  0.51267300  1
  C  C23  1  0.31212000  0.98567300  0.48491600  1
  C  C24  1  0.64054800  0.01334800  0.13985500  1
  C  C25  1  0.54647100  0.17968400  0.00742500  1
  C  C26  1  0.47436900  0.45711500  0.75417900  1
  C  C27  1  0.73230000  0.55342700  0.30418300  1
  C  C28  1  0.04936300  0.87870400  0.92491500  1
  C  C29  1  0.97781500  0.01888600  0.81370700  1
  C  C30  1  0.85303500  0.23895100  0.62468900  1
  C  C31  1  0.04555700  0.39618500  0.65660700  1
  C  C32  1  0.62610500  0.76943300  0.06552000  1
  C  C33  1  0.83370300  0.79548500  0.47756100  1
  C  C34  1  0.24771700  0.91208600  0.32315600  1
