# generated using pymatgen
data_Cu2Ni10C
_symmetry_space_group_name_H-M   'P 1'
_cell_length_a   6.95013918
_cell_length_b   6.95013918
_cell_length_c   26.93738200
_cell_angle_alpha   90.00000000
_cell_angle_beta   90.00000000
_cell_angle_gamma   95.95523883
_symmetry_Int_Tables_number   1
_chemical_formula_structural   Cu2Ni10C
_chemical_formula_sum   'Cu12 Ni60 C6'
_cell_volume   1294.17278727
_cell_formula_units_Z   6
loop_
 _symmetry_equiv_pos_site_id
 _symmetry_equiv_pos_as_xyz
  1  'x, y, z'
loop_
 _atom_site_type_symbol
 _atom_site_label
 _atom_site_symmetry_multiplicity
 _atom_site_fract_x
 _atom_site_fract_y
 _atom_site_fract_z
 _atom_site_occupancy
  C  C0  1  0.87600600  0.12399400  0.58474700  1
  C  C1  1  0.12399400  0.87600600  0.41525300  1
  C  C2  1  0.12399400  0.87600600  0.08474700  1
  C  C3  1  0.87600600  0.12399400  0.91525300  1
  C  C4  1  0.61700900  0.38299100  0.75000000  1
  C  C5  1  0.38299100  0.61700900  0.25000000  1
  Ni  Ni6  1  0.59764200  0.40235800  0.63394800  1
  Ni  Ni7  1  0.40235800  0.59764200  0.36605200  1
  Ni  Ni8  1  0.40235800  0.59764200  0.13394800  1
  Ni  Ni9  1  0.59764200  0.40235800  0.86605200  1
  Ni  Ni10  1  0.18198500  0.40384700  0.75000000  1
  Ni  Ni11  1  0.81801500  0.59615300  0.25000000  1
  Ni  Ni12  1  0.59615300  0.81801500  0.75000000  1
  Ni  Ni13  1  0.40384700  0.18198500  0.25000000  1
  Ni  Ni14  1  0.87549200  0.12450800  0.14588300  1
  Ni  Ni15  1  0.12450800  0.87549200  0.85411700  1
  Ni  Ni16  1  0.12450800  0.87549200  0.64588300  1
  Ni  Ni17  1  0.87549200  0.12450800  0.35411700  1
  Ni  Ni18  1  0.37009300  0.62990700  0.67750900  1
  Ni  Ni19  1  0.62990700  0.37009300  0.32249100  1
  Ni  Ni20  1  0.62990700  0.37009300  0.17750900  1
  Ni  Ni21  1  0.37009300  0.62990700  0.82249100  1
  Ni  Ni22  1  0.22717500  0.47102500  0.58067800  1
  Ni  Ni23  1  0.77282500  0.52897500  0.41932200  1
  Ni  Ni24  1  0.77282500  0.52897500  0.08067800  1
  Ni  Ni25  1  0.52897500  0.77282500  0.91932200  1
  Ni  Ni26  1  0.22717500  0.47102500  0.91932200  1
  Ni  Ni27  1  0.47102500  0.22717500  0.08067800  1
  Ni  Ni28  1  0.47102500  0.22717500  0.41932200  1
  Ni  Ni29  1  0.52897500  0.77282500  0.58067800  1
  Ni  Ni30  1  0.96159500  0.73929900  0.75000000  1
  Ni  Ni31  1  0.03840500  0.26070100  0.25000000  1
  Ni  Ni32  1  0.26070100  0.03840500  0.75000000  1
  Ni  Ni33  1  0.73929900  0.96159500  0.25000000  1
  Ni  Ni34  1  0.62284400  0.37715600  0.52204900  1
  Ni  Ni35  1  0.37715600  0.62284400  0.47795100  1
  Ni  Ni36  1  0.37715600  0.62284400  0.02204900  1
  Ni  Ni37  1  0.62284400  0.37715600  0.97795100  1
  Ni  Ni38  1  0.96825700  0.47411600  0.67147500  1
  Ni  Ni39  1  0.03174300  0.52588400  0.32852500  1
  Ni  Ni40  1  0.03174300  0.52588400  0.17147500  1
  Ni  Ni41  1  0.52588400  0.03174300  0.82852500  1
  Ni  Ni42  1  0.96825700  0.47411600  0.82852500  1
  Ni  Ni43  1  0.47411600  0.96825700  0.17147500  1
  Ni  Ni44  1  0.47411600  0.96825700  0.32852500  1
  Ni  Ni45  1  0.52588400  0.03174300  0.67147500  1
  Ni  Ni46  1  0.90624000  0.09376000  0.69964300  1
  Ni  Ni47  1  0.09376000  0.90624000  0.30035700  1
  Ni  Ni48  1  0.09376000  0.90624000  0.19964300  1
  Ni  Ni49  1  0.90624000  0.09376000  0.80035700  1
  Ni  Ni50  1  0.87597900  0.61978200  0.58302500  1
  Ni  Ni51  1  0.12402100  0.38021800  0.41697600  1
  Ni  Ni52  1  0.12402100  0.38021800  0.08302500  1
  Ni  Ni53  1  0.38021800  0.12402100  0.91697600  1
  Ni  Ni54  1  0.87597900  0.61978200  0.91697600  1
  Ni  Ni55  1  0.61978200  0.87597900  0.08302500  1
  Ni  Ni56  1  0.61978200  0.87597900  0.41697600  1
  Ni  Ni57  1  0.38021800  0.12402100  0.58302400  1
  Ni  Ni58  1  0.20584700  0.20584700  0.50000000  1
  Ni  Ni59  1  0.79415300  0.79415300  0.50000000  1
  Ni  Ni60  1  0.79415300  0.79415300  0.00000000  1
  Ni  Ni61  1  0.20584700  0.20584700  0.00000000  1
  Ni  Ni62  1  0.83542900  0.16457100  0.03401600  1
  Ni  Ni63  1  0.16457100  0.83542900  0.96598400  1
  Ni  Ni64  1  0.16457100  0.83542900  0.53401600  1
  Ni  Ni65  1  0.83542900  0.16457100  0.46598400  1
  Cu  Cu66  1  0.24863100  0.25510700  0.66310900  1
  Cu  Cu67  1  0.75136900  0.74489300  0.33689100  1
  Cu  Cu68  1  0.75136900  0.74489300  0.16310900  1
  Cu  Cu69  1  0.74489300  0.75136900  0.83689100  1
  Cu  Cu70  1  0.24863100  0.25510700  0.83689100  1
  Cu  Cu71  1  0.25510700  0.24863100  0.16310900  1
  Cu  Cu72  1  0.25510700  0.24863100  0.33689100  1
  Cu  Cu73  1  0.74489300  0.75136900  0.66310900  1
  Cu  Cu74  1  0.00000000  0.50000000  0.50000000  1
  Cu  Cu75  1  0.00000000  0.50000000  0.00000000  1
  Cu  Cu76  1  0.50000000  0.00000000  0.00000000  1
  Cu  Cu77  1  0.50000000  0.00000000  0.50000000  1
