# generated using pymatgen
data_Cu(NiC)2
_symmetry_space_group_name_H-M   'P 1'
_cell_length_a   4.05549700
_cell_length_b   4.05549700
_cell_length_c   14.17326500
_cell_angle_alpha   90.00000000
_cell_angle_beta   90.00000000
_cell_angle_gamma   90.00000000
_symmetry_Int_Tables_number   1
_chemical_formula_structural   Cu(NiC)2
_chemical_formula_sum   'Cu2 Ni4 C4'
_cell_volume   233.10848198
_cell_formula_units_Z   2
loop_
 _symmetry_equiv_pos_site_id
 _symmetry_equiv_pos_as_xyz
  1  'x, y, z'
loop_
 _atom_site_type_symbol
 _atom_site_label
 _atom_site_symmetry_multiplicity
 _atom_site_fract_x
 _atom_site_fract_y
 _atom_site_fract_z
 _atom_site_occupancy
  C  C0  1  0.50000000  0.00000000  0.58774200  1
  C  C1  1  0.00000000  0.50000000  0.41225800  1
  C  C2  1  0.00000000  0.50000000  0.86777500  1
  C  C3  1  0.50000000  0.00000000  0.13222500  1
  Ni  Ni4  1  0.50000000  0.00000000  0.89002000  1
  Ni  Ni5  1  0.00000000  0.50000000  0.10998000  1
  Ni  Ni6  1  0.00000000  0.50000000  0.69020100  1
  Ni  Ni7  1  0.50000000  0.00000000  0.30979900  1
  Cu  Cu8  1  0.00000000  0.00000000  0.50000000  1
  Cu  Cu9  1  0.50000000  0.50000000  0.50000000  1
