# generated using pymatgen
data_Cu40Ni13C6
_symmetry_space_group_name_H-M   'P 1'
_cell_length_a   13.69067060
_cell_length_b   13.69067060
_cell_length_c   13.69067036
_cell_angle_alpha   109.06834657
_cell_angle_beta   109.06834657
_cell_angle_gamma   109.06834364
_symmetry_Int_Tables_number   1
_chemical_formula_structural   Cu40Ni13C6
_chemical_formula_sum   'Cu80 Ni26 C12'
_cell_volume   2004.31077831
_cell_formula_units_Z   2
loop_
 _symmetry_equiv_pos_site_id
 _symmetry_equiv_pos_as_xyz
  1  'x, y, z'
loop_
 _atom_site_type_symbol
 _atom_site_label
 _atom_site_symmetry_multiplicity
 _atom_site_fract_x
 _atom_site_fract_y
 _atom_site_fract_z
 _atom_site_occupancy
  C  C0  1  0.60225300  0.47568100  0.24015500  1
  C  C1  1  0.24015500  0.60225300  0.47568100  1
  C  C2  1  0.47568100  0.24015500  0.60225300  1
  C  C3  1  0.74015500  0.97568100  0.10225300  1
  C  C4  1  0.10225300  0.74015500  0.97568100  1
  C  C5  1  0.97568100  0.10225300  0.74015500  1
  C  C6  1  0.81087300  0.68490300  0.61687000  1
  C  C7  1  0.61687000  0.81087300  0.68490300  1
  C  C8  1  0.68490300  0.61687000  0.81087300  1
  C  C9  1  0.11687000  0.18490300  0.31087300  1
  C  C10  1  0.31087300  0.11687000  0.18490300  1
  C  C11  1  0.18490300  0.31087300  0.11687000  1
  Ni  Ni12  1  0.58801100  0.64167500  0.04989800  1
  Ni  Ni13  1  0.04989800  0.58801100  0.64167500  1
  Ni  Ni14  1  0.64167500  0.04989800  0.58801100  1
  Ni  Ni15  1  0.54989800  0.14167500  0.08801100  1
  Ni  Ni16  1  0.08801100  0.54989800  0.14167500  1
  Ni  Ni17  1  0.14167500  0.08801100  0.54989800  1
  Ni  Ni18  1  0.94903300  0.63993100  0.34659900  1
  Ni  Ni19  1  0.34659900  0.94903300  0.63993100  1
  Ni  Ni20  1  0.63993100  0.34659900  0.94903300  1
  Ni  Ni21  1  0.84659900  0.13993100  0.44903300  1
  Ni  Ni22  1  0.44903300  0.84659900  0.13993100  1
  Ni  Ni23  1  0.13993100  0.44903300  0.84659900  1
  Ni  Ni24  1  0.91968000  0.91968000  0.91968000  1
  Ni  Ni25  1  0.41968000  0.41968000  0.41968000  1
  Ni  Ni26  1  0.80110300  0.82793500  0.42594200  1
  Ni  Ni27  1  0.42594200  0.80110300  0.82793500  1
  Ni  Ni28  1  0.82793500  0.42594200  0.80110300  1
  Ni  Ni29  1  0.92594200  0.32793500  0.30110300  1
  Ni  Ni30  1  0.30110300  0.92594200  0.32793500  1
  Ni  Ni31  1  0.32793500  0.30110300  0.92594200  1
  Ni  Ni32  1  0.70059800  0.36033600  0.46503000  1
  Ni  Ni33  1  0.46503000  0.70059800  0.36033600  1
  Ni  Ni34  1  0.36033600  0.46503000  0.70059800  1
  Ni  Ni35  1  0.96503000  0.86033600  0.20059800  1
  Ni  Ni36  1  0.20059800  0.96503000  0.86033600  1
  Ni  Ni37  1  0.86033600  0.20059800  0.96503000  1
  Cu  Cu38  1  0.63283900  0.54819900  0.96690800  1
  Cu  Cu39  1  0.96690800  0.63283900  0.54819900  1
  Cu  Cu40  1  0.54819900  0.96690800  0.63283900  1
  Cu  Cu41  1  0.46690800  0.04819900  0.13283900  1
  Cu  Cu42  1  0.13283900  0.46690800  0.04819900  1
  Cu  Cu43  1  0.04819900  0.13283900  0.46690800  1
  Cu  Cu44  1  0.92870300  0.78481200  0.85096000  1
  Cu  Cu45  1  0.85096000  0.92870300  0.78481200  1
  Cu  Cu46  1  0.78481200  0.85096000  0.92870300  1
  Cu  Cu47  1  0.35096000  0.28481200  0.42870300  1
  Cu  Cu48  1  0.42870300  0.35096000  0.28481200  1
  Cu  Cu49  1  0.28481200  0.42870300  0.35096000  1
  Cu  Cu50  1  0.68461200  0.47659400  0.43097900  1
  Cu  Cu51  1  0.43097900  0.68461200  0.47659400  1
  Cu  Cu52  1  0.47659400  0.43097900  0.68461200  1
  Cu  Cu53  1  0.93097900  0.97659400  0.18461200  1
  Cu  Cu54  1  0.18461200  0.93097900  0.97659400  1
  Cu  Cu55  1  0.97659400  0.18461200  0.93097900  1
  Cu  Cu56  1  0.64884400  0.64884400  0.64884400  1
  Cu  Cu57  1  0.14884400  0.14884400  0.14884400  1
  Cu  Cu58  1  0.79997800  0.51232900  0.24889800  1
  Cu  Cu59  1  0.24889800  0.79997800  0.51232900  1
  Cu  Cu60  1  0.51232900  0.24889800  0.79997800  1
  Cu  Cu61  1  0.74889800  0.01232900  0.29997800  1
  Cu  Cu62  1  0.29997800  0.74889800  0.01232900  1
  Cu  Cu63  1  0.01232900  0.29997800  0.74889800  1
  Cu  Cu64  1  0.58075600  0.32224600  0.50026100  1
  Cu  Cu65  1  0.50026100  0.58075600  0.32224600  1
  Cu  Cu66  1  0.32224600  0.50026100  0.58075600  1
  Cu  Cu67  1  0.00026100  0.82224600  0.08075600  1
  Cu  Cu68  1  0.08075600  0.00026100  0.82224600  1
  Cu  Cu69  1  0.82224600  0.08075600  0.00026100  1
  Cu  Cu70  1  0.76252300  0.67852600  0.41067300  1
  Cu  Cu71  1  0.41067300  0.76252300  0.67852600  1
  Cu  Cu72  1  0.67852600  0.41067300  0.76252300  1
  Cu  Cu73  1  0.91067300  0.17852600  0.26252300  1
  Cu  Cu74  1  0.26252300  0.91067300  0.17852600  1
  Cu  Cu75  1  0.17852600  0.26252300  0.91067300  1
  Cu  Cu76  1  0.92311800  0.85301400  0.39212300  1
  Cu  Cu77  1  0.39212300  0.92311800  0.85301400  1
  Cu  Cu78  1  0.85301400  0.39212300  0.92311800  1
  Cu  Cu79  1  0.89212300  0.35301400  0.42311800  1
  Cu  Cu80  1  0.42311800  0.89212300  0.35301400  1
  Cu  Cu81  1  0.35301400  0.42311800  0.89212300  1
  Cu  Cu82  1  0.02939200  0.55471500  0.35619900  1
  Cu  Cu83  1  0.35619900  0.02939200  0.55471500  1
  Cu  Cu84  1  0.55471500  0.35619900  0.02939200  1
  Cu  Cu85  1  0.85619900  0.05471500  0.52939200  1
  Cu  Cu86  1  0.52939200  0.85619900  0.05471500  1
  Cu  Cu87  1  0.05471500  0.52939200  0.85619900  1
  Cu  Cu88  1  0.88728700  0.89717100  0.58745900  1
  Cu  Cu89  1  0.58745900  0.88728700  0.89717100  1
  Cu  Cu90  1  0.89717100  0.58745900  0.88728700  1
  Cu  Cu91  1  0.08745900  0.39717100  0.38728700  1
  Cu  Cu92  1  0.38728700  0.08745900  0.39717100  1
  Cu  Cu93  1  0.39717100  0.38728700  0.08745900  1
  Cu  Cu94  1  0.71121900  0.78408800  0.09582400  1
  Cu  Cu95  1  0.09582400  0.71121900  0.78408800  1
  Cu  Cu96  1  0.78408800  0.09582400  0.71121900  1
  Cu  Cu97  1  0.59582400  0.28408800  0.21121900  1
  Cu  Cu98  1  0.21121900  0.59582400  0.28408800  1
  Cu  Cu99  1  0.28408800  0.21121900  0.59582400  1
  Cu  Cu100  1  0.98008000  0.67727000  0.23921700  1
  Cu  Cu101  1  0.23921700  0.98008000  0.67727000  1
  Cu  Cu102  1  0.67727000  0.23921700  0.98008000  1
  Cu  Cu103  1  0.73921700  0.17727000  0.48008000  1
  Cu  Cu104  1  0.48008000  0.73921700  0.17727000  1
  Cu  Cu105  1  0.17727000  0.48008000  0.73921700  1
  Cu  Cu106  1  0.82412800  0.46602700  0.61634300  1
  Cu  Cu107  1  0.61634300  0.82412800  0.46602700  1
  Cu  Cu108  1  0.46602700  0.61634300  0.82412800  1
  Cu  Cu109  1  0.11634300  0.96602700  0.32412800  1
  Cu  Cu110  1  0.32412800  0.11634300  0.96602700  1
  Cu  Cu111  1  0.96602700  0.32412800  0.11634300  1
  Cu  Cu112  1  0.64555600  0.63430900  0.18754500  1
  Cu  Cu113  1  0.18754500  0.64555600  0.63430900  1
  Cu  Cu114  1  0.63430900  0.18754500  0.64555600  1
  Cu  Cu115  1  0.68754500  0.13430900  0.14555600  1
  Cu  Cu116  1  0.14555600  0.68754500  0.13430900  1
  Cu  Cu117  1  0.13430900  0.14555600  0.68754500  1
