# generated using pymatgen
data_Cu2Ni10C
_symmetry_space_group_name_H-M   'P 1'
_cell_length_a   4.69068500
_cell_length_b   6.47580883
_cell_length_c   6.47580883
_cell_angle_alpha   96.74005258
_cell_angle_beta   111.23351659
_cell_angle_gamma   68.76648341
_symmetry_Int_Tables_number   1
_chemical_formula_structural   Cu2Ni10C
_chemical_formula_sum   'Cu2 Ni10 C1'
_cell_volume   170.88572887
_cell_formula_units_Z   1
loop_
 _symmetry_equiv_pos_site_id
 _symmetry_equiv_pos_as_xyz
  1  'x, y, z'
loop_
 _atom_site_type_symbol
 _atom_site_label
 _atom_site_symmetry_multiplicity
 _atom_site_fract_x
 _atom_site_fract_y
 _atom_site_fract_z
 _atom_site_occupancy
  C  C0  1  0.00000000  0.00000000  0.00000000  1
  Ni  Ni1  1  0.50000000  0.00000000  0.50000000  1
  Ni  Ni2  1  0.00000000  0.00000000  0.50000000  1
  Ni  Ni3  1  0.50000000  0.50000000  0.00000000  1
  Ni  Ni4  1  0.00000000  0.50000000  0.00000000  1
  Ni  Ni5  1  0.72021600  0.77978400  0.22021600  1
  Ni  Ni6  1  0.27978400  0.22021600  0.77978400  1
  Ni  Ni7  1  0.50000000  0.77187500  0.77187500  1
  Ni  Ni8  1  0.50000000  0.22812500  0.22812500  1
  Ni  Ni9  1  0.64120500  0.35879500  0.64120500  1
  Ni  Ni10  1  0.35879500  0.64120500  0.35879500  1
  Cu  Cu11  1  0.00000000  0.35747900  0.35747900  1
  Cu  Cu12  1  0.00000000  0.64252100  0.64252100  1
