# generated using pymatgen
data_Cu2Ni3
_symmetry_space_group_name_H-M   'P 1'
_cell_length_a   9.16923000
_cell_length_b   9.16923000
_cell_length_c   12.90798000
_cell_angle_alpha   90.00000000
_cell_angle_beta   90.00000000
_cell_angle_gamma   90.00000000
_symmetry_Int_Tables_number   1
_chemical_formula_structural   Cu2Ni3
_chemical_formula_sum   'Cu16 Ni24'
_cell_volume   1085.23556316
_cell_formula_units_Z   8
loop_
 _symmetry_equiv_pos_site_id
 _symmetry_equiv_pos_as_xyz
  1  'x, y, z'
loop_
 _atom_site_type_symbol
 _atom_site_label
 _atom_site_symmetry_multiplicity
 _atom_site_fract_x
 _atom_site_fract_y
 _atom_site_fract_z
 _atom_site_occupancy
  Ni  Ni0  1  0.50000000  0.74453600  0.14679400  1
  Ni  Ni1  1  0.75546400  0.00000000  0.64679400  1
  Ni  Ni2  1  0.24453600  0.00000000  0.64679400  1
  Ni  Ni3  1  0.00000000  0.75546400  0.35320600  1
  Ni  Ni4  1  0.00000000  0.24453600  0.35320600  1
  Ni  Ni5  1  0.50000000  0.25546400  0.14679400  1
  Ni  Ni6  1  0.74453600  0.50000000  0.85320600  1
  Ni  Ni7  1  0.25546400  0.50000000  0.85320600  1
  Ni  Ni8  1  0.21490700  0.50000000  0.11747500  1
  Ni  Ni9  1  0.78509300  0.50000000  0.11747500  1
  Ni  Ni10  1  0.50000000  0.21490700  0.88252500  1
  Ni  Ni11  1  0.00000000  0.28509300  0.61747500  1
  Ni  Ni12  1  0.00000000  0.71490700  0.61747500  1
  Ni  Ni13  1  0.28509300  0.00000000  0.38252500  1
  Ni  Ni14  1  0.71490700  0.00000000  0.38252500  1
  Ni  Ni15  1  0.50000000  0.78509300  0.88252500  1
  Ni  Ni16  1  0.28238600  0.50000000  0.39506100  1
  Ni  Ni17  1  0.71761400  0.50000000  0.39506100  1
  Ni  Ni18  1  0.50000000  0.28238600  0.60493900  1
  Ni  Ni19  1  0.00000000  0.21761400  0.89506100  1
  Ni  Ni20  1  0.00000000  0.78238600  0.89506100  1
  Ni  Ni21  1  0.21761400  0.00000000  0.10493900  1
  Ni  Ni22  1  0.78238600  0.00000000  0.10493900  1
  Ni  Ni23  1  0.50000000  0.71761400  0.60493900  1
  Cu  Cu24  1  0.25590800  0.25590800  0.00000000  1
  Cu  Cu25  1  0.24409200  0.75590800  0.50000000  1
  Cu  Cu26  1  0.75590800  0.24409200  0.50000000  1
  Cu  Cu27  1  0.74409200  0.74409200  0.00000000  1
  Cu  Cu28  1  0.24409200  0.24409200  0.50000000  1
  Cu  Cu29  1  0.25590800  0.74409200  0.00000000  1
  Cu  Cu30  1  0.74409200  0.25590800  0.00000000  1
  Cu  Cu31  1  0.75590800  0.75590800  0.50000000  1
  Cu  Cu32  1  0.00000000  0.50000000  0.25809200  1
  Cu  Cu33  1  0.00000000  0.50000000  0.75809200  1
  Cu  Cu34  1  0.50000000  0.00000000  0.24190800  1
  Cu  Cu35  1  0.50000000  0.00000000  0.74190800  1
  Cu  Cu36  1  0.50000000  0.50000000  0.25488500  1
  Cu  Cu37  1  0.00000000  0.00000000  0.75488500  1
  Cu  Cu38  1  0.00000000  0.00000000  0.24511500  1
  Cu  Cu39  1  0.50000000  0.50000000  0.74511500  1
