# generated using pymatgen
data_Cu5NiC11
_symmetry_space_group_name_H-M   'P 1'
_cell_length_a   9.34428700
_cell_length_b   11.13311200
_cell_length_c   11.28453100
_cell_angle_alpha   90.00000000
_cell_angle_beta   90.00000000
_cell_angle_gamma   90.00000000
_symmetry_Int_Tables_number   1
_chemical_formula_structural   Cu5NiC11
_chemical_formula_sum   'Cu40 Ni8 C88'
_cell_volume   1173.94097372
_cell_formula_units_Z   8
loop_
 _symmetry_equiv_pos_site_id
 _symmetry_equiv_pos_as_xyz
  1  'x, y, z'
loop_
 _atom_site_type_symbol
 _atom_site_label
 _atom_site_symmetry_multiplicity
 _atom_site_fract_x
 _atom_site_fract_y
 _atom_site_fract_z
 _atom_site_occupancy
  C  C0  1  0.71931600  0.11339200  0.93858300  1
  C  C1  1  0.21931600  0.38660800  0.06141700  1
  C  C2  1  0.28068400  0.61339200  0.56141700  1
  C  C3  1  0.78068400  0.88660800  0.43858300  1
  C  C4  1  0.28068400  0.88660800  0.06141700  1
  C  C5  1  0.78068400  0.61339200  0.93858300  1
  C  C6  1  0.71931600  0.38660800  0.43858300  1
  C  C7  1  0.21931600  0.11339200  0.56141700  1
  C  C8  1  0.49681400  0.23875700  0.80317300  1
  C  C9  1  0.99681400  0.26124300  0.19682700  1
  C  C10  1  0.50318600  0.73875700  0.69682700  1
  C  C11  1  0.00318600  0.76124300  0.30317300  1
  C  C12  1  0.50318600  0.76124300  0.19682700  1
  C  C13  1  0.00318600  0.73875700  0.80317300  1
  C  C14  1  0.49681400  0.26124300  0.30317300  1
  C  C15  1  0.99681400  0.23875700  0.69682700  1
  C  C16  1  0.55112700  0.31408400  0.67806200  1
  C  C17  1  0.05112700  0.18591600  0.32193800  1
  C  C18  1  0.44887300  0.81408400  0.82193800  1
  C  C19  1  0.94887300  0.68591600  0.17806200  1
  C  C20  1  0.44887300  0.68591600  0.32193800  1
  C  C21  1  0.94887300  0.81408400  0.67806200  1
  C  C22  1  0.55112700  0.18591600  0.17806200  1
  C  C23  1  0.05112700  0.31408400  0.82193800  1
  C  C24  1  0.36939900  0.29610300  0.70866900  1
  C  C25  1  0.86939900  0.20389700  0.29133100  1
  C  C26  1  0.63060100  0.79610300  0.79133100  1
  C  C27  1  0.13060100  0.70389700  0.20866900  1
  C  C28  1  0.63060100  0.70389700  0.29133100  1
  C  C29  1  0.13060100  0.79610300  0.70866900  1
  C  C30  1  0.36939900  0.20389700  0.20866900  1
  C  C31  1  0.86939900  0.29610300  0.79133100  1
  C  C32  1  0.38803900  0.47599100  0.78161100  1
  C  C33  1  0.88803900  0.02400900  0.21838900  1
  C  C34  1  0.61196100  0.97599100  0.71838900  1
  C  C35  1  0.11196100  0.52400900  0.28161100  1
  C  C36  1  0.61196100  0.52400900  0.21838900  1
  C  C37  1  0.11196100  0.97599100  0.78161100  1
  C  C38  1  0.38803900  0.02400900  0.28161100  1
  C  C39  1  0.88803900  0.47599100  0.71838900  1
  C  C40  1  0.57102600  0.46622300  0.80187200  1
  C  C41  1  0.07102600  0.03377700  0.19812800  1
  C  C42  1  0.42897400  0.96622300  0.69812800  1
  C  C43  1  0.92897400  0.53377700  0.30187200  1
  C  C44  1  0.42897400  0.53377700  0.19812800  1
  C  C45  1  0.92897400  0.96622300  0.80187200  1
  C  C46  1  0.57102600  0.03377700  0.30187200  1
  C  C47  1  0.07102600  0.46622300  0.69812800  1
  C  C48  1  0.45321900  0.40316300  0.90581700  1
  C  C49  1  0.95321900  0.09683700  0.09418300  1
  C  C50  1  0.54678100  0.90316300  0.59418300  1
  C  C51  1  0.04678100  0.59683700  0.40581700  1
  C  C52  1  0.54678100  0.59683700  0.09418300  1
  C  C53  1  0.04678100  0.90316300  0.90581700  1
  C  C54  1  0.45321900  0.09683700  0.40581700  1
  C  C55  1  0.95321900  0.40316300  0.59418300  1
  C  C56  1  0.74899100  0.88268600  0.96815000  1
  C  C57  1  0.24899100  0.61731400  0.03185000  1
  C  C58  1  0.25100900  0.38268600  0.53185000  1
  C  C59  1  0.75100900  0.11731400  0.46815000  1
  C  C60  1  0.25100900  0.11731400  0.03185000  1
  C  C61  1  0.75100900  0.38268600  0.96815000  1
  C  C62  1  0.74899100  0.61731400  0.46815000  1
  C  C63  1  0.24899100  0.88268600  0.53185000  1
  C  C64  1  0.62936000  0.92884900  0.06017100  1
  C  C65  1  0.12936000  0.57115100  0.93982900  1
  C  C66  1  0.37064000  0.42884900  0.43982900  1
  C  C67  1  0.87064000  0.07115100  0.56017100  1
  C  C68  1  0.37064000  0.07115100  0.93982900  1
  C  C69  1  0.87064000  0.42884900  0.06017100  1
  C  C70  1  0.62936000  0.57115100  0.56017100  1
  C  C71  1  0.12936000  0.92884900  0.43982900  1
  C  C72  1  0.47162400  0.31050100  0.74670800  1
  C  C73  1  0.97162400  0.18949900  0.25329200  1
  C  C74  1  0.52837600  0.81050100  0.75329200  1
  C  C75  1  0.02837600  0.68949900  0.24670800  1
  C  C76  1  0.52837600  0.68949900  0.25329200  1
  C  C77  1  0.02837600  0.81050100  0.74670800  1
  C  C78  1  0.47162400  0.18949900  0.24670800  1
  C  C79  1  0.97162400  0.31050100  0.75329200  1
  C  C80  1  0.47187100  0.42186400  0.81318800  1
  C  C81  1  0.97187100  0.07813600  0.18681200  1
  C  C82  1  0.52812900  0.92186400  0.68681200  1
  C  C83  1  0.02812900  0.57813600  0.31318800  1
  C  C84  1  0.52812900  0.57813600  0.18681200  1
  C  C85  1  0.02812900  0.92186400  0.81318800  1
  C  C86  1  0.47187100  0.07813600  0.31318800  1
  C  C87  1  0.97187100  0.42186400  0.68681200  1
  Ni  Ni88  1  0.71967500  0.95193100  0.01848900  1
  Ni  Ni89  1  0.21967500  0.54806900  0.98151100  1
  Ni  Ni90  1  0.28032500  0.45193100  0.48151100  1
  Ni  Ni91  1  0.78032500  0.04806900  0.51848900  1
  Ni  Ni92  1  0.28032500  0.04806900  0.98151100  1
  Ni  Ni93  1  0.78032500  0.45193100  0.01848900  1
  Ni  Ni94  1  0.71967500  0.54806900  0.51848900  1
  Ni  Ni95  1  0.21967500  0.95193100  0.48151100  1
  Cu  Cu96  1  0.72547300  0.27402500  0.86926700  1
  Cu  Cu97  1  0.22547300  0.22597500  0.13073300  1
  Cu  Cu98  1  0.27452700  0.77402500  0.63073300  1
  Cu  Cu99  1  0.77452700  0.72597500  0.36926700  1
  Cu  Cu100  1  0.27452700  0.72597500  0.13073300  1
  Cu  Cu101  1  0.77452700  0.77402500  0.86926700  1
  Cu  Cu102  1  0.72547300  0.22597500  0.36926700  1
  Cu  Cu103  1  0.22547300  0.27402500  0.63073300  1
  Cu  Cu104  1  0.52209900  0.10830000  0.88500600  1
  Cu  Cu105  1  0.02209900  0.39170000  0.11499400  1
  Cu  Cu106  1  0.47790100  0.60830000  0.61499400  1
  Cu  Cu107  1  0.97790100  0.89170000  0.38500600  1
  Cu  Cu108  1  0.47790100  0.89170000  0.11499400  1
  Cu  Cu109  1  0.97790100  0.60830000  0.88500600  1
  Cu  Cu110  1  0.52209900  0.39170000  0.38500600  1
  Cu  Cu111  1  0.02209900  0.10830000  0.61499400  1
  Cu  Cu112  1  0.76664800  0.03331100  0.79175400  1
  Cu  Cu113  1  0.26664800  0.46668900  0.20824600  1
  Cu  Cu114  1  0.23335200  0.53331100  0.70824600  1
  Cu  Cu115  1  0.73335200  0.96668900  0.29175400  1
  Cu  Cu116  1  0.23335200  0.96668900  0.20824600  1
  Cu  Cu117  1  0.73335200  0.53331100  0.79175400  1
  Cu  Cu118  1  0.76664800  0.46668900  0.29175400  1
  Cu  Cu119  1  0.26664800  0.03331100  0.70824600  1
  Cu  Cu120  1  0.92031400  0.12718700  0.96748900  1
  Cu  Cu121  1  0.42031400  0.37281300  0.03251100  1
  Cu  Cu122  1  0.07968600  0.62718700  0.53251100  1
  Cu  Cu123  1  0.57968600  0.87281300  0.46748900  1
  Cu  Cu124  1  0.07968600  0.87281300  0.03251100  1
  Cu  Cu125  1  0.57968600  0.62718700  0.96748900  1
  Cu  Cu126  1  0.92031400  0.37281300  0.46748900  1
  Cu  Cu127  1  0.42031400  0.12718700  0.53251100  1
  Cu  Cu128  1  0.67425500  0.17770600  0.08976600  1
  Cu  Cu129  1  0.17425500  0.32229400  0.91023400  1
  Cu  Cu130  1  0.32574500  0.67770600  0.41023400  1
  Cu  Cu131  1  0.82574500  0.82229400  0.58976600  1
  Cu  Cu132  1  0.32574500  0.82229400  0.91023400  1
  Cu  Cu133  1  0.82574500  0.67770600  0.08976600  1
  Cu  Cu134  1  0.67425500  0.32229400  0.58976600  1
  Cu  Cu135  1  0.17425500  0.17770600  0.41023400  1
