# generated using pymatgen
data_Cu31Ni4C65
_symmetry_space_group_name_H-M   'P 1'
_cell_length_a   10.07459356
_cell_length_b   10.13640296
_cell_length_c   43.73396522
_cell_angle_alpha   90.73197178
_cell_angle_beta   91.03286687
_cell_angle_gamma   107.28008673
_symmetry_Int_Tables_number   1
_chemical_formula_structural   Cu31Ni4C65
_chemical_formula_sum   'Cu31 Ni4 C65'
_cell_volume   4263.07459216
_cell_formula_units_Z   1
loop_
 _symmetry_equiv_pos_site_id
 _symmetry_equiv_pos_as_xyz
  1  'x, y, z'
loop_
 _atom_site_type_symbol
 _atom_site_label
 _atom_site_symmetry_multiplicity
 _atom_site_fract_x
 _atom_site_fract_y
 _atom_site_fract_z
 _atom_site_occupancy
  Ni  Ni0  1  0.30013302  0.30010953  0.09997650  1
  Ni  Ni1  1  0.89995286  0.90003507  0.29998611  1
  Ni  Ni2  1  0.50004714  0.49996493  0.50001389  1
  Ni  Ni3  1  0.09986698  0.09989047  0.70002350  1
  Cu  Cu4  1  0.98168626  0.90994697  0.06208510  1
  Cu  Cu5  1  0.58092723  0.51018979  0.26029038  1
  Cu  Cu6  1  0.18080805  0.10988822  0.46041005  1
  Cu  Cu7  1  0.78113332  0.71028089  0.66035533  1
  Cu  Cu8  1  0.37849040  0.30635835  0.86048225  1
  Cu  Cu9  1  0.99178795  0.26328764  0.02087707  1
  Cu  Cu10  1  0.58987144  0.87431411  0.22145317  1
  Cu  Cu11  1  0.19006092  0.47384538  0.42141647  1
  Cu  Cu12  1  0.78977447  0.07420343  0.62155762  1
  Cu  Cu13  1  0.38808931  0.65947243  0.81964437  1
  Cu  Cu14  1  0.29765203  0.09254541  0.00698939  1
  Cu  Cu15  1  0.89028344  0.68935713  0.20620752  1
  Cu  Cu16  1  0.49075097  0.28970386  0.40623018  1
  Cu  Cu17  1  0.09024305  0.88934564  0.60628987  1
  Cu  Cu18  1  0.69392640  0.48976743  0.80547183  1
  Cu  Cu19  1  0.61886668  0.68971911  0.13964467  1
  Cu  Cu20  1  0.21919195  0.29011178  0.33958995  1
  Cu  Cu21  1  0.81907277  0.88981021  0.53970962  1
  Cu  Cu22  1  0.41831374  0.49005303  0.73791490  1
  Cu  Cu23  1  0.02150960  0.09364165  0.93951775  1
  Cu  Cu24  1  0.61022553  0.32579657  0.17844238  1
  Cu  Cu25  1  0.20993908  0.92615462  0.37858353  1
  Cu  Cu26  1  0.81012856  0.52568589  0.57854683  1
  Cu  Cu27  1  0.40821205  0.13671236  0.77912293  1
  Cu  Cu28  1  0.01191069  0.74052757  0.98035563  1
  Cu  Cu29  1  0.30975695  0.51065436  0.19371013  1
  Cu  Cu30  1  0.90924903  0.11029614  0.39376982  1
  Cu  Cu31  1  0.50971656  0.71064287  0.59379248  1
  Cu  Cu32  1  0.10234797  0.30745459  0.79301061  1
  Cu  Cu33  1  0.70607360  0.91023257  0.99452817  1
  Cu  Cu34  1  0.70000000  0.70000000  0.90000000  1
  C  C35  1  0.00076079  0.00070364  0.00039234  1
  C  C36  1  0.60009229  0.60009315  0.19993733  1
  C  C37  1  0.20000000  0.20000000  0.40000000  1
  C  C38  1  0.79990771  0.79990685  0.60006267  1
  C  C39  1  0.39923921  0.39929636  0.79960766  1
  C  C40  1  0.30958769  0.99970337  0.07661524  1
  C  C41  1  0.90797485  0.59969559  0.27618798  1
  C  C42  1  0.50779032  0.19976122  0.47618476  1
  C  C43  1  0.10796186  0.79981446  0.67629562  1
  C  C44  1  0.71433896  0.40016876  0.87778348  1
  C  C45  1  0.96780879  0.19685021  0.09237252  1
  C  C46  1  0.56812469  0.79592967  0.29191409  1
  C  C47  1  0.16825474  0.39593136  0.49194747  1
  C  C48  1  0.76825319  0.99593633  0.69203207  1
  C  C49  1  0.36650667  0.60018201  0.89389886  1
  C  C50  1  0.32192476  0.40064274  0.03037505  1
  C  C51  1  0.92027520  0.99887205  0.23033763  1
  C  C52  1  0.52032469  0.59896096  0.43039411  1
  C  C53  1  0.12020955  0.19888785  0.63043036  1
  C  C54  1  0.72704328  0.80717748  0.83098628  1
  C  C55  1  0.29203814  0.60018554  0.12370438  1
  C  C56  1  0.89220968  0.20023878  0.32381524  1
  C  C57  1  0.49202515  0.80030441  0.52381202  1
  C  C58  1  0.09041231  0.40029663  0.72338476  1
  C  C59  1  0.68566104  0.99983124  0.92221652  1
  C  C60  1  0.63174681  0.40406367  0.10796793  1
  C  C61  1  0.23174526  0.00406864  0.30805253  1
  C  C62  1  0.83187531  0.60407033  0.50808591  1
  C  C63  1  0.43219121  0.20314979  0.70762748  1
  C  C64  1  0.03349333  0.79981799  0.90610114  1
  C  C65  1  0.27979045  0.20111215  0.16956964  1
  C  C66  1  0.87967531  0.80103904  0.36960589  1
  C  C67  1  0.47972480  0.40112795  0.56966237  1
  C  C68  1  0.07807524  0.99935726  0.76962495  1
  C  C69  1  0.67295672  0.59282252  0.96901372  1
  C  C70  1  0.98007982  0.59116260  0.04520951  1
  C  C71  1  0.58201122  0.19188552  0.24531333  1
  C  C72  1  0.18199184  0.79178694  0.44533781  1
  C  C73  1  0.78194159  0.39177866  0.64540901  1
  C  C74  1  0.38372175  0.99074232  0.84536900  1
  C  C75  1  0.65334249  0.19799326  0.01395072  1
  C  C76  1  0.25225722  0.79673132  0.21429621  1
  C  C77  1  0.85232385  0.39666586  0.41437611  1
  C  C78  1  0.45224811  0.99671177  0.61446070  1
  C  C79  1  0.05136377  0.59618037  0.81494189  1
  C  C80  1  0.95331837  0.79958406  0.13650368  1
  C  C81  1  0.55366733  0.39986723  0.33640721  1
  C  C82  1  0.15355190  0.99969920  0.53649319  1
  C  C83  1  0.75468959  0.60098064  0.73633753  1
  C  C84  1  0.35543058  0.19927702  0.93614569  1
  C  C85  1  0.61805841  0.00822134  0.15459099  1
  C  C86  1  0.21800816  0.60821306  0.35466219  1
  C  C87  1  0.81798878  0.20811448  0.55468667  1
  C  C88  1  0.41992018  0.80883740  0.75479049  1
  C  C89  1  0.01627825  0.40925768  0.95463100  1
  C  C90  1  0.94775189  0.40328823  0.18553930  1
  C  C91  1  0.54767615  0.00333414  0.38562389  1
  C  C92  1  0.14774278  0.60326868  0.58570379  1
  C  C93  1  0.74665751  0.20200674  0.78604928  1
  C  C94  1  0.34863623  0.80381963  0.98505811  1
  C  C95  1  0.64531041  0.79901936  0.06366247  1
  C  C96  1  0.24644810  0.40030080  0.26350681  1
  C  C97  1  0.84633267  0.00013277  0.46359279  1
  C  C98  1  0.44668163  0.60041594  0.66349632  1
  C  C99  1  0.04456942  0.20072298  0.86385431  1
