# generated using pymatgen
data_Cu6NiC3
_symmetry_space_group_name_H-M   'P 1'
_cell_length_a   7.01590005
_cell_length_b   10.64127844
_cell_length_c   50.78684799
_cell_angle_alpha   90.00000000
_cell_angle_beta   90.00000000
_cell_angle_gamma   109.24783500
_symmetry_Int_Tables_number   1
_chemical_formula_structural   Cu6NiC3
_chemical_formula_sum   'Cu6 Ni1 C3'
_cell_volume   3579.70416701
_cell_formula_units_Z   1
loop_
 _symmetry_equiv_pos_site_id
 _symmetry_equiv_pos_as_xyz
  1  'x, y, z'
loop_
 _atom_site_type_symbol
 _atom_site_label
 _atom_site_symmetry_multiplicity
 _atom_site_fract_x
 _atom_site_fract_y
 _atom_site_fract_z
 _atom_site_occupancy
  C  C0  1  0.00000000  0.00000000  0.50000000  1
  C  C1  1  0.50000000  0.50000000  0.00000000  1
  C  C2  1  0.00000000  0.50000000  0.00000000  1
  Ni  Ni3  1  0.00000000  0.00000000  0.00000000  1
  Cu  Cu4  1  0.00000000  0.00000000  0.75943859  1
  Cu  Cu5  1  0.00000000  0.00000000  0.24056141  1
  Cu  Cu6  1  0.69660828  0.74186232  0.00000000  1
  Cu  Cu7  1  0.30339172  0.25813768  0.00000000  1
  Cu  Cu8  1  -0.04525404  0.25813768  0.00000000  1
  Cu  Cu9  1  0.04525404  0.74186232  0.00000000  1
