# generated using pymatgen
data_Cu6Ni7C17
_symmetry_space_group_name_H-M   'P 1'
_cell_length_a   6.03457945
_cell_length_b   6.04644585
_cell_length_c   10.57622002
_cell_angle_alpha   106.48248650
_cell_angle_beta   72.18024229
_cell_angle_gamma   119.76438160
_symmetry_Int_Tables_number   1
_chemical_formula_structural   Cu6Ni7C17
_chemical_formula_sum   'Cu6 Ni7 C17'
_cell_volume   314.83846308
_cell_formula_units_Z   1
loop_
 _symmetry_equiv_pos_site_id
 _symmetry_equiv_pos_as_xyz
  1  'x, y, z'
loop_
 _atom_site_type_symbol
 _atom_site_label
 _atom_site_symmetry_multiplicity
 _atom_site_fract_x
 _atom_site_fract_y
 _atom_site_fract_z
 _atom_site_occupancy
  C  C0  1  0.06611072  0.46161644  0.34153583  1
  Ni  Ni1  1  0.32563133  0.71158465  0.08177547  1
  Ni  Ni2  1  0.02355427  0.93492202  0.83513390  1
  Ni  Ni3  1  0.57959836  0.96448458  0.33088773  1
  Ni  Ni4  1  0.20625283  0.15168262  0.07633631  1
  Ni  Ni5  1  0.65728862  0.41789550  0.15853682  1
  Ni  Ni6  1  0.53988703  0.94323367  0.82761144  1
  Ni  Ni7  1  0.02424071  0.43839289  0.83970627  1
  Cu  Cu8  1  0.06732645  0.96609772  0.33890290  1
  Cu  Cu9  1  0.30806205  0.69110537  0.57394772  1
  Cu  Cu10  1  0.79544286  0.69220091  0.57122597  1
  Cu  Cu11  1  0.30808452  0.20733914  0.57504076  1
  Cu  Cu12  1  0.80063240  0.20204216  0.58314476  1
  Cu  Cu13  1  0.53719599  0.43940785  0.82901383  1
  C  C14  1  0.44545922  0.59961605  0.21740605  1
  C  C15  1  0.19158251  0.83350722  0.45866760  1
  C  C16  1  0.68395993  0.85041716  0.46419898  1
  C  C17  1  0.16119198  0.32459173  0.47255846  1
  C  C18  1  0.97748734  0.60744875  0.21417532  1
  C  C19  1  0.44576731  0.08502034  0.21691825  1
  C  C20  1  0.68272833  0.31995163  0.46536981  1
  C  C21  1  0.93938681  0.10011255  0.23481925  1
  C  C22  1  0.17491814  0.82207040  0.93991469  1
  C  C23  1  0.42958894  0.57887884  0.70201271  1
  C  C24  1  0.65350657  0.80481857  0.93202479  1
  C  C25  1  0.16401664  0.30175451  0.93790212  1
  C  C26  1  0.92310864  0.57949996  0.71176114  1
  C  C27  1  0.41176394  0.06372136  0.71136620  1
  C  C28  1  0.91282709  0.05692143  0.70916726  1
  C  C29  1  0.62589848  0.29758097  0.96143770  1
