# generated using pymatgen
data_Cu2Ni4C3
_symmetry_space_group_name_H-M   'P 1'
_cell_length_a   3.10029700
_cell_length_b   4.76887294
_cell_length_c   14.24567035
_cell_angle_alpha   89.33878121
_cell_angle_beta   90.00000000
_cell_angle_gamma   90.00000000
_symmetry_Int_Tables_number   1
_chemical_formula_structural   Cu2Ni4C3
_chemical_formula_sum   'Cu4 Ni8 C6'
_cell_volume   210.60710636
_cell_formula_units_Z   2
loop_
 _symmetry_equiv_pos_site_id
 _symmetry_equiv_pos_as_xyz
  1  'x, y, z'
loop_
 _atom_site_type_symbol
 _atom_site_label
 _atom_site_symmetry_multiplicity
 _atom_site_fract_x
 _atom_site_fract_y
 _atom_site_fract_z
 _atom_site_occupancy
  C  C0  1  0.50000000  0.51155900  0.16208600  1
  C  C1  1  0.50000000  0.50817200  0.49450700  1
  C  C2  1  0.00000000  0.00780900  0.32562200  1
  C  C3  1  0.00000000  0.00922200  0.65727300  1
  C  C4  1  0.00000000  0.99675600  0.00540100  1
  C  C5  1  0.50000000  0.49758400  0.83609700  1
  Ni  Ni6  1  0.00000000  0.30933900  0.10514400  1
  Ni  Ni7  1  0.00000000  0.69313400  0.23484900  1
  Ni  Ni8  1  0.00000000  0.30309800  0.43862100  1
  Ni  Ni9  1  0.00000000  0.68471100  0.56876800  1
  Ni  Ni10  1  0.50000000  0.20001500  0.27060300  1
  Ni  Ni11  1  0.50000000  0.79770500  0.06869500  1
  Ni  Ni12  1  0.50000000  0.18949500  0.60075800  1
  Ni  Ni13  1  0.50000000  0.79988300  0.40282900  1
  Cu  Cu14  1  0.00000000  0.29304000  0.76690700  1
  Cu  Cu15  1  0.00000000  0.69822100  0.89586100  1
  Cu  Cu16  1  0.50000000  0.19751700  0.93416100  1
  Cu  Cu17  1  0.50000000  0.80273900  0.73182000  1
