# generated using pymatgen
data_CuNi4C33
_symmetry_space_group_name_H-M   'P 1'
_cell_length_a   8.61150774
_cell_length_b   15.11347216
_cell_length_c   15.11347216
_cell_angle_alpha   90.00000000
_cell_angle_beta   90.00000000
_cell_angle_gamma   90.00000000
_symmetry_Int_Tables_number   1
_chemical_formula_structural   CuNi4C33
_chemical_formula_sum   'Cu4 Ni16 C132'
_cell_volume   1967.01511420
_cell_formula_units_Z   4
loop_
 _symmetry_equiv_pos_site_id
 _symmetry_equiv_pos_as_xyz
  1  'x, y, z'
loop_
 _atom_site_type_symbol
 _atom_site_label
 _atom_site_symmetry_multiplicity
 _atom_site_fract_x
 _atom_site_fract_y
 _atom_site_fract_z
 _atom_site_occupancy
  C  C0  1  0.18447168  0.62657607  0.14818629  1
  C  C1  1  0.18447168  0.87342393  0.35181371  1
  C  C2  1  0.18447168  0.14818629  0.87342393  1
  C  C3  1  0.18447168  0.35181371  0.62657607  1
  C  C4  1  0.81552832  0.37342393  0.85181371  1
  C  C5  1  0.81552832  0.12657607  0.64818629  1
  C  C6  1  0.81552832  0.85181371  0.12657607  1
  C  C7  1  0.81552832  0.64818629  0.37342393  1
  C  C8  1  0.50000000  0.75000000  0.25000000  1
  C  C9  1  0.50000000  0.25000000  0.75000000  1
  C  C10  1  0.79502755  0.60879990  0.12740371  1
  C  C11  1  0.79502755  0.89120010  0.37259629  1
  C  C12  1  0.79502755  0.12740371  0.89120010  1
  C  C13  1  0.79502755  0.37259629  0.60879990  1
  C  C14  1  0.20497245  0.39120010  0.87259629  1
  C  C15  1  0.20497245  0.10879990  0.62740371  1
  C  C16  1  0.20497245  0.87259629  0.10879990  1
  C  C17  1  0.20497245  0.62740371  0.39120010  1
  C  C18  1  0.31273719  0.62490240  0.85420047  1
  C  C19  1  0.31273719  0.87509760  0.64579953  1
  C  C20  1  0.31273719  0.85420047  0.87509760  1
  C  C21  1  0.31273719  0.64579953  0.62490240  1
  C  C22  1  0.68726281  0.37509760  0.14579953  1
  C  C23  1  0.68726281  0.12490240  0.35420047  1
  C  C24  1  0.68726281  0.14579953  0.12490240  1
  C  C25  1  0.68726281  0.35420047  0.37509760  1
  C  C26  1  0.98047938  0.75000000  0.75000000  1
  C  C27  1  0.01952062  0.25000000  0.25000000  1
  C  C28  1  0.70109921  0.61115251  0.87054264  1
  C  C29  1  0.70109921  0.88884749  0.62945736  1
  C  C30  1  0.70109921  0.87054264  0.88884749  1
  C  C31  1  0.70109921  0.62945736  0.61115251  1
  C  C32  1  0.29890079  0.38884749  0.12945736  1
  C  C33  1  0.29890079  0.11115251  0.37054264  1
  C  C34  1  0.29890079  0.12945736  0.11115251  1
  C  C35  1  0.29890079  0.37054264  0.38884749  1
  C  C36  1  0.38170243  0.56582142  0.02564983  1
  C  C37  1  0.38170243  0.93417858  0.47435017  1
  C  C38  1  0.38170243  0.02564983  0.93417858  1
  C  C39  1  0.38170243  0.47435017  0.56582142  1
  C  C40  1  0.61829757  0.43417858  0.97435017  1
  C  C41  1  0.61829757  0.06582142  0.52564983  1
  C  C42  1  0.61829757  0.97435017  0.06582142  1
  C  C43  1  0.61829757  0.52564983  0.43417858  1
  C  C44  1  0.11224958  0.56419152  0.97690231  1
  C  C45  1  0.11224958  0.93580848  0.52309769  1
  C  C46  1  0.11224958  0.97690231  0.93580848  1
  C  C47  1  0.11224958  0.52309769  0.56419152  1
  C  C48  1  0.88775042  0.43580848  0.02309769  1
  C  C49  1  0.88775042  0.06419152  0.47690231  1
  C  C50  1  0.88775042  0.02309769  0.06419152  1
  C  C51  1  0.88775042  0.47690231  0.43580848  1
  Ni  Ni52  1  0.49672804  0.73472541  0.04030576  1
  Ni  Ni53  1  0.49672804  0.76527459  0.45969424  1
  Ni  Ni54  1  0.49672804  0.04030576  0.76527459  1
  Ni  Ni55  1  0.49672804  0.45969424  0.73472541  1
  Ni  Ni56  1  0.50327196  0.26527459  0.95969424  1
  Ni  Ni57  1  0.50327196  0.23472541  0.54030576  1
  Ni  Ni58  1  0.50327196  0.95969424  0.23472541  1
  Ni  Ni59  1  0.50327196  0.54030576  0.26527459  1
  Ni  Ni60  1  0.00013230  0.73465147  0.95984803  1
  Ni  Ni61  1  0.00013230  0.76534853  0.54015197  1
  Ni  Ni62  1  0.00013230  0.95984803  0.76534853  1
  Ni  Ni63  1  0.00013230  0.54015197  0.73465147  1
  Ni  Ni64  1  0.99986770  0.26534853  0.04015197  1
  Ni  Ni65  1  0.99986770  0.23465147  0.45984803  1
  Ni  Ni66  1  0.99986770  0.04015197  0.23465147  1
  Ni  Ni67  1  0.99986770  0.45984803  0.26534853  1
  Cu  Cu68  1  -0.00000000  0.75000000  0.25000000  1
  Cu  Cu69  1  -0.00000000  0.25000000  0.75000000  1
  Cu  Cu70  1  0.50766978  0.75000000  0.75000000  1
  Cu  Cu71  1  0.49233022  0.25000000  0.25000000  1
  C  C72  1  0.29454910  0.52419665  0.04193890  1
  C  C73  1  0.29454910  0.97580335  0.45806110  1
  C  C74  1  0.29454910  0.04193890  0.97580335  1
  C  C75  1  0.29454910  0.45806110  0.52419665  1
  C  C76  1  0.70545090  0.47580335  0.95806110  1
  C  C77  1  0.70545090  0.02419665  0.54193890  1
  C  C78  1  0.70545090  0.95806110  0.02419665  1
  C  C79  1  0.70545090  0.54193890  0.47580335  1
  C  C80  1  0.20130424  0.52397885  0.96058248  1
  C  C81  1  0.20130424  0.97602115  0.53941752  1
  C  C82  1  0.20130424  0.96058248  0.97602115  1
  C  C83  1  0.20130424  0.53941752  0.52397885  1
  C  C84  1  0.79869576  0.47602115  0.03941752  1
  C  C85  1  0.79869576  0.02397885  0.46058248  1
  C  C86  1  0.79869576  0.03941752  0.02397885  1
  C  C87  1  0.79869576  0.46058248  0.47602115  1
  C  C88  1  0.49731083  0.81464589  0.98320528  1
  C  C89  1  0.49731083  0.68535411  0.51679472  1
  C  C90  1  0.49731083  0.98320528  0.68535411  1
  C  C91  1  0.49731083  0.51679472  0.81464589  1
  C  C92  1  0.50268917  0.18535411  0.01679472  1
  C  C93  1  0.50268917  0.31464589  0.48320528  1
  C  C94  1  0.50268917  0.01679472  0.31464589  1
  C  C95  1  0.50268917  0.48320528  0.18535411  1
  C  C96  1  0.63972403  0.73317222  0.09660866  1
  C  C97  1  0.63972403  0.76682778  0.40339134  1
  C  C98  1  0.63972403  0.09660866  0.76682778  1
  C  C99  1  0.63972403  0.40339134  0.73317222  1
  C  C100  1  0.36027597  0.26682778  0.90339134  1
  C  C101  1  0.36027597  0.23317222  0.59660866  1
  C  C102  1  0.36027597  0.90339134  0.23317222  1
  C  C103  1  0.36027597  0.59660866  0.26682778  1
  C  C104  1  0.49170988  0.65237124  0.98417293  1
  C  C105  1  0.49170988  0.84762876  0.51582707  1
  C  C106  1  0.49170988  0.98417293  0.84762876  1
  C  C107  1  0.49170988  0.51582707  0.65237124  1
  C  C108  1  0.50829012  0.34762876  0.01582707  1
  C  C109  1  0.50829012  0.15237124  0.48417293  1
  C  C110  1  0.50829012  0.01582707  0.15237124  1
  C  C111  1  0.50829012  0.48417293  0.34762876  1
  C  C112  1  0.35807521  0.73682957  0.10006733  1
  C  C113  1  0.35807521  0.76317043  0.39993267  1
  C  C114  1  0.35807521  0.10006733  0.76317043  1
  C  C115  1  0.35807521  0.39993267  0.73682957  1
  C  C116  1  0.64192479  0.26317043  0.89993267  1
  C  C117  1  0.64192479  0.23682957  0.60006733  1
  C  C118  1  0.64192479  0.89993267  0.23682957  1
  C  C119  1  0.64192479  0.60006733  0.26317043  1
  C  C120  1  0.00030138  0.81442796  0.01728801  1
  C  C121  1  0.00030138  0.68557204  0.48271199  1
  C  C122  1  0.00030138  0.01728801  0.68557204  1
  C  C123  1  0.00030138  0.48271199  0.81442796  1
  C  C124  1  0.99969862  0.18557204  0.98271199  1
  C  C125  1  0.99969862  0.31442796  0.51728801  1
  C  C126  1  0.99969862  0.98271199  0.31442796  1
  C  C127  1  0.99969862  0.51728801  0.18557204  1
  C  C128  1  0.85786920  0.73518414  0.90278990  1
  C  C129  1  0.85786920  0.76481586  0.59721010  1
  C  C130  1  0.85786920  0.90278990  0.76481586  1
  C  C131  1  0.85786920  0.59721010  0.73518414  1
  C  C132  1  0.14213080  0.26481586  0.09721010  1
  C  C133  1  0.14213080  0.23518414  0.40278990  1
  C  C134  1  0.14213080  0.09721010  0.23518414  1
  C  C135  1  0.14213080  0.40278990  0.26481586  1
  C  C136  1  0.00152697  0.65213750  0.01583072  1
  C  C137  1  0.00152697  0.84786250  0.48416928  1
  C  C138  1  0.00152697  0.01583072  0.84786250  1
  C  C139  1  0.00152697  0.48416928  0.65213750  1
  C  C140  1  0.99847303  0.34786250  0.98416928  1
  C  C141  1  0.99847303  0.15213750  0.51583072  1
  C  C142  1  0.99847303  0.98416928  0.15213750  1
  C  C143  1  0.99847303  0.51583072  0.34786250  1
  C  C144  1  0.13954318  0.73520289  0.90089330  1
  C  C145  1  0.13954318  0.76479711  0.59910670  1
  C  C146  1  0.13954318  0.90089330  0.76479711  1
  C  C147  1  0.13954318  0.59910670  0.73520289  1
  C  C148  1  0.86045682  0.26479711  0.09910670  1
  C  C149  1  0.86045682  0.23520289  0.40089330  1
  C  C150  1  0.86045682  0.09910670  0.23520289  1
  C  C151  1  0.86045682  0.40089330  0.26479711  1
