# generated using pymatgen
data_CuNi3C10
_symmetry_space_group_name_H-M   'P 1'
_cell_length_a   5.74439800
_cell_length_b   7.57874500
_cell_length_c   9.64281200
_cell_angle_alpha   88.98166235
_cell_angle_beta   90.00000000
_cell_angle_gamma   90.00000000
_symmetry_Int_Tables_number   1
_chemical_formula_structural   CuNi3C10
_chemical_formula_sum   'Cu2 Ni6 C20'
_cell_volume   419.73667530
_cell_formula_units_Z   2
loop_
 _symmetry_equiv_pos_site_id
 _symmetry_equiv_pos_as_xyz
  1  'x, y, z'
loop_
 _atom_site_type_symbol
 _atom_site_label
 _atom_site_symmetry_multiplicity
 _atom_site_fract_x
 _atom_site_fract_y
 _atom_site_fract_z
 _atom_site_occupancy
  Ni  Ni0  1  0.75000000  0.64133100  0.09133600  1
  Ni  Ni1  1  0.25000000  0.50502600  0.30949800  1
  Ni  Ni2  1  0.75000000  0.20361200  0.41647700  1
  Ni  Ni3  1  0.25000000  0.35866900  0.90866400  1
  Ni  Ni4  1  0.25000000  0.79638800  0.58352300  1
  Ni  Ni5  1  0.75000000  0.49497400  0.69050200  1
  Cu  Cu6  1  0.75000000  0.99503700  0.79048400  1
  Cu  Cu7  1  0.25000000  0.00496300  0.20951600  1
  C  C8  1  0.75000000  0.76668200  0.41328100  1
  C  C9  1  0.25000000  0.23331800  0.58671900  1
  C  C10  1  0.75000000  0.19226300  0.07308500  1
  C  C11  1  0.25000000  0.80773700  0.92691500  1
  C  C12  1  0.97154600  0.24597300  0.15575600  1
  C  C13  1  0.47154600  0.75402700  0.84424400  1
  C  C14  1  0.02845400  0.75402700  0.84424400  1
  C  C15  1  0.52845400  0.24597300  0.15575600  1
  C  C16  1  0.97136400  0.84533300  0.34024200  1
  C  C17  1  0.47136400  0.15466700  0.65975800  1
  C  C18  1  0.02863600  0.15466700  0.65975800  1
  C  C19  1  0.52863600  0.84533300  0.34024200  1
  C  C20  1  0.75000000  0.99005900  0.04838800  1
  C  C21  1  0.25000000  0.00994100  0.95161200  1
  C  C22  1  0.75000000  0.28352300  0.92624600  1
  C  C23  1  0.25000000  0.71647700  0.07375400  1
  C  C24  1  0.25000000  0.17812900  0.43146100  1
  C  C25  1  0.75000000  0.82187100  0.56853900  1
  C  C26  1  0.25000000  0.43532400  0.60052900  1
  C  C27  1  0.75000000  0.56467600  0.39947100  1
