# generated using pymatgen
data_Cu4NiC5
_symmetry_space_group_name_H-M   'P 1'
_cell_length_a   9.13706000
_cell_length_b   9.13706000
_cell_length_c   9.13706000
_cell_angle_alpha   90.00000000
_cell_angle_beta   90.00000000
_cell_angle_gamma   90.00000000
_symmetry_Int_Tables_number   1
_chemical_formula_structural   Cu4NiC5
_chemical_formula_sum   'Cu16 Ni4 C20'
_cell_volume   762.81536171
_cell_formula_units_Z   4
loop_
 _symmetry_equiv_pos_site_id
 _symmetry_equiv_pos_as_xyz
  1  'x, y, z'
loop_
 _atom_site_type_symbol
 _atom_site_label
 _atom_site_symmetry_multiplicity
 _atom_site_fract_x
 _atom_site_fract_y
 _atom_site_fract_z
 _atom_site_occupancy
  C  C0  1  0.94022600  0.55977400  0.44022600  1
  C  C1  1  0.55977400  0.44022600  0.94022600  1
  C  C2  1  0.44022600  0.94022600  0.55977400  1
  C  C3  1  0.05977400  0.05977400  0.05977400  1
  C  C4  1  0.44072800  0.05927200  0.94072800  1
  C  C5  1  0.05927200  0.94072800  0.44072800  1
  C  C6  1  0.94072800  0.44072800  0.05927200  1
  C  C7  1  0.55927200  0.55927200  0.55927200  1
  C  C8  1  0.06220500  0.91187000  0.63220000  1
  C  C9  1  0.91187000  0.63220000  0.06220500  1
  C  C10  1  0.41187000  0.86780000  0.93779500  1
  C  C11  1  0.08813000  0.13220000  0.43779500  1
  C  C12  1  0.86780000  0.93779500  0.41187000  1
  C  C13  1  0.43779500  0.08813000  0.13220000  1
  C  C14  1  0.93779500  0.41187000  0.86780000  1
  C  C15  1  0.58813000  0.36780000  0.56220500  1
  C  C16  1  0.13220000  0.43779500  0.08813000  1
  C  C17  1  0.56220500  0.58813000  0.36780000  1
  C  C18  1  0.36780000  0.56220500  0.58813000  1
  C  C19  1  0.63220000  0.06220500  0.91187000  1
  Ni  Ni20  1  0.33622000  0.16378000  0.83622000  1
  Ni  Ni21  1  0.16378000  0.83622000  0.33622000  1
  Ni  Ni22  1  0.83622000  0.33622000  0.16378000  1
  Ni  Ni23  1  0.66378000  0.66378000  0.66378000  1
  Cu  Cu24  1  0.26023900  0.23976100  0.76023900  1
  Cu  Cu25  1  0.23976100  0.76023900  0.26023900  1
  Cu  Cu26  1  0.76023900  0.26023900  0.23976100  1
  Cu  Cu27  1  0.73976100  0.73976100  0.73976100  1
  Cu  Cu28  1  0.89349600  0.75885900  0.06663800  1
  Cu  Cu29  1  0.06663800  0.89349600  0.75885900  1
  Cu  Cu30  1  0.75885900  0.06663800  0.89349600  1
  Cu  Cu31  1  0.93336200  0.39349600  0.74114100  1
  Cu  Cu32  1  0.43336200  0.10650400  0.25885900  1
  Cu  Cu33  1  0.74114100  0.93336200  0.39349600  1
  Cu  Cu34  1  0.10650400  0.25885900  0.43336200  1
  Cu  Cu35  1  0.39349600  0.74114100  0.93336200  1
  Cu  Cu36  1  0.60650400  0.24114100  0.56663800  1
  Cu  Cu37  1  0.56663800  0.60650400  0.24114100  1
  Cu  Cu38  1  0.24114100  0.56663800  0.60650400  1
  Cu  Cu39  1  0.25885900  0.43336200  0.10650400  1
