# generated using pymatgen
data_CuNiC8
_symmetry_space_group_name_H-M   'P 1'
_cell_length_a   8.17493803
_cell_length_b   8.27308787
_cell_length_c   8.20142045
_cell_angle_alpha   90.00000000
_cell_angle_beta   90.00000000
_cell_angle_gamma   90.00000000
_symmetry_Int_Tables_number   1
_chemical_formula_structural   CuNiC8
_chemical_formula_sum   'Cu4 Ni4 C32'
_cell_volume   554.67830921
_cell_formula_units_Z   4
loop_
 _symmetry_equiv_pos_site_id
 _symmetry_equiv_pos_as_xyz
  1  'x, y, z'
loop_
 _atom_site_type_symbol
 _atom_site_label
 _atom_site_symmetry_multiplicity
 _atom_site_fract_x
 _atom_site_fract_y
 _atom_site_fract_z
 _atom_site_occupancy
  C  C0  1  -0.00000000  0.00000000  -0.00000000  1
  C  C1  1  0.50000000  0.50000000  0.50000000  1
  C  C2  1  -0.00000000  0.50000000  0.50000000  1
  C  C3  1  0.50000000  0.00000000  -0.00000000  1
  Ni  Ni4  1  0.50000000  0.00000000  0.50000000  1
  Ni  Ni5  1  0.50000000  0.50000000  -0.00000000  1
  Ni  Ni6  1  -0.00000000  0.50000000  -0.00000000  1
  Ni  Ni7  1  -0.00000000  0.00000000  0.50000000  1
  Cu  Cu8  1  0.25000000  0.25000000  0.25000000  1
  Cu  Cu9  1  0.75000000  0.75000000  0.25000000  1
  Cu  Cu10  1  0.75000000  0.25000000  0.75000000  1
  Cu  Cu11  1  0.25000000  0.75000000  0.75000000  1
  C  C12  1  0.75000000  0.75000000  0.75000000  1
  C  C13  1  0.25000000  0.25000000  0.75000000  1
  C  C14  1  0.25000000  0.75000000  0.25000000  1
  C  C15  1  0.75000000  0.25000000  0.25000000  1
  C  C16  1  0.98057213  0.20344837  0.28746846  1
  C  C17  1  0.01942787  0.79655163  0.28746846  1
  C  C18  1  0.01942787  0.20344837  0.71253154  1
  C  C19  1  0.98057213  0.79655163  0.71253154  1
  C  C20  1  0.28974606  0.98108612  0.20340859  1
  C  C21  1  0.28974606  0.01891388  0.79659141  1
  C  C22  1  0.71025394  0.01891388  0.20340859  1
  C  C23  1  0.71025394  0.98108612  0.79659141  1
  C  C24  1  0.20416209  0.28903693  0.98109227  1
  C  C25  1  0.79583791  0.28903693  0.01890773  1
  C  C26  1  0.20416209  0.71096307  0.01890773  1
  C  C27  1  0.79583791  0.71096307  0.98109227  1
  C  C28  1  0.51942787  0.29655163  0.21253154  1
  C  C29  1  0.48057213  0.70344837  0.21253154  1
  C  C30  1  0.48057213  0.29655163  0.78746846  1
  C  C31  1  0.51942787  0.70344837  0.78746846  1
  C  C32  1  0.21025394  0.51891388  0.29659141  1
  C  C33  1  0.21025394  0.48108612  0.70340859  1
  C  C34  1  0.78974606  0.48108612  0.29659141  1
  C  C35  1  0.78974606  0.51891388  0.70340859  1
  C  C36  1  0.29583791  0.21096307  0.51890773  1
  C  C37  1  0.70416209  0.21096307  0.48109227  1
  C  C38  1  0.29583791  0.78903693  0.48109227  1
  C  C39  1  0.70416209  0.78903693  0.51890773  1
