# generated using pymatgen
data_CuNiC6
_symmetry_space_group_name_H-M   'P 1'
_cell_length_a   7.76390631
_cell_length_b   7.76390631
_cell_length_c   7.39982454
_cell_angle_alpha   83.11583374
_cell_angle_beta   83.11583374
_cell_angle_gamma   92.35753457
_symmetry_Int_Tables_number   1
_chemical_formula_structural   CuNiC6
_chemical_formula_sum   'Cu4 Ni4 C24'
_cell_volume   438.94243232
_cell_formula_units_Z   4
loop_
 _symmetry_equiv_pos_site_id
 _symmetry_equiv_pos_as_xyz
  1  'x, y, z'
loop_
 _atom_site_type_symbol
 _atom_site_label
 _atom_site_symmetry_multiplicity
 _atom_site_fract_x
 _atom_site_fract_y
 _atom_site_fract_z
 _atom_site_occupancy
  Ni  Ni0  1  0.14501600  0.49251900  0.31411500  1
  Ni  Ni1  1  0.50748100  0.85498400  0.18588500  1
  Ni  Ni2  1  0.85498400  0.50748100  0.68588500  1
  Ni  Ni3  1  0.49251900  0.14501600  0.81411500  1
  Cu  Cu4  1  0.04733600  0.83152300  0.47254300  1
  Cu  Cu5  1  0.16847700  0.95266400  0.02745700  1
  Cu  Cu6  1  0.95266400  0.16847700  0.52745700  1
  Cu  Cu7  1  0.83152300  0.04733600  0.97254300  1
  C  C8  1  0.54139900  0.45860100  0.25000000  1
  C  C9  1  0.45860100  0.54139800  0.75000000  1
  C  C10  1  0.38319300  0.40733300  0.25021100  1
  C  C11  1  0.59266700  0.61680700  0.24978900  1
  C  C12  1  0.61680700  0.59266700  0.74978900  1
  C  C13  1  0.40733300  0.38319300  0.75021100  1
  C  C14  1  0.24011500  0.73621800  0.15577200  1
  C  C15  1  0.26378200  0.75988500  0.34422800  1
  C  C16  1  0.75988500  0.26378200  0.84422800  1
  C  C17  1  0.73621800  0.24011500  0.65577200  1
  C  C18  1  0.84851300  0.95513400  0.50781200  1
  C  C19  1  0.04486600  0.15148700  0.99218800  1
  C  C20  1  0.15148700  0.04486600  0.49218800  1
  C  C21  1  0.95513400  0.84851300  0.00781200  1
  C  C22  1  0.94075900  0.62831300  0.42724300  1
  C  C23  1  0.37168700  0.05924100  0.07275700  1
  C  C24  1  0.05924100  0.37168700  0.57275700  1
  C  C25  1  0.62831300  0.94075900  0.92724300  1
  C  C26  1  0.98264500  0.29172300  0.26466800  1
  C  C27  1  0.70827700  0.01735500  0.23533200  1
  C  C28  1  0.01735500  0.70827700  0.73533200  1
  C  C29  1  0.29172300  0.98264500  0.76466800  1
  C  C30  1  0.65590600  0.34409400  0.25000000  1
  C  C31  1  0.34409400  0.65590600  0.75000000  1
