# generated using pymatgen
data_CuNiC8
_symmetry_space_group_name_H-M   'P 1'
_cell_length_a   6.16710342
_cell_length_b   8.47660800
_cell_length_c   7.90402918
_cell_angle_alpha   90.00000000
_cell_angle_beta   95.65903238
_cell_angle_gamma   90.00000000
_symmetry_Int_Tables_number   1
_chemical_formula_structural   CuNiC8
_chemical_formula_sum   'Cu4 Ni4 C32'
_cell_volume   411.17820267
_cell_formula_units_Z   4
loop_
 _symmetry_equiv_pos_site_id
 _symmetry_equiv_pos_as_xyz
  1  'x, y, z'
loop_
 _atom_site_type_symbol
 _atom_site_label
 _atom_site_symmetry_multiplicity
 _atom_site_fract_x
 _atom_site_fract_y
 _atom_site_fract_z
 _atom_site_occupancy
  C  C0  1  0.28964400  0.36714400  0.48223600  1
  C  C1  1  0.78964400  0.13285600  0.98223600  1
  C  C2  1  0.71035600  0.63285600  0.51776400  1
  C  C3  1  0.21035600  0.86714400  0.01776400  1
  C  C4  1  0.11695800  0.41547400  0.30925700  1
  C  C5  1  0.61695800  0.08452600  0.80925700  1
  C  C6  1  0.88304200  0.58452600  0.69074300  1
  C  C7  1  0.38304200  0.91547400  0.19074300  1
  C  C8  1  0.31931000  0.28302300  0.29326300  1
  C  C9  1  0.81931000  0.21697700  0.79326300  1
  C  C10  1  0.68069000  0.71697700  0.70673700  1
  C  C11  1  0.18069000  0.78302300  0.20673700  1
  C  C12  1  0.37807500  0.47558300  0.32348600  1
  C  C13  1  0.87807500  0.02441700  0.82348600  1
  C  C14  1  0.62192500  0.52441700  0.67651400  1
  C  C15  1  0.12192500  0.97558300  0.17651400  1
  Ni  Ni16  1  0.29088900  0.36035100  0.85633900  1
  Ni  Ni17  1  0.79088900  0.13964900  0.35633900  1
  Ni  Ni18  1  0.70911100  0.63964900  0.14366100  1
  Ni  Ni19  1  0.20911100  0.86035100  0.64366100  1
  Cu  Cu20  1  0.27482200  0.38481400  0.35181400  1
  Cu  Cu21  1  0.77482200  0.11518600  0.85181400  1
  Cu  Cu22  1  0.72517800  0.61518600  0.64818600  1
  Cu  Cu23  1  0.22517800  0.88481400  0.14818600  1
  C  C24  1  0.32646600  0.22230200  0.96345400  1
  C  C25  1  0.82646600  0.27769800  0.46345400  1
  C  C26  1  0.67353400  0.77769800  0.03654600  1
  C  C27  1  0.17353400  0.72230200  0.53654600  1
  C  C28  1  0.42187000  0.36237200  0.71040000  1
  C  C29  1  0.92187000  0.13762800  0.21040000  1
  C  C30  1  0.57813000  0.63762800  0.28960000  1
  C  C31  1  0.07813000  0.86237200  0.78960000  1
  C  C32  1  0.06567200  0.40937400  0.81760600  1
  C  C33  1  0.56567200  0.09062600  0.31760600  1
  C  C34  1  0.93432800  0.59062600  0.18239400  1
  C  C35  1  0.43432800  0.90937400  0.68239400  1
  C  C36  1  0.37982900  0.51529100  0.97435200  1
  C  C37  1  0.87982900  0.98470900  0.47435200  1
  C  C38  1  0.62017100  0.48470900  0.02564800  1
  C  C39  1  0.12017100  0.01529100  0.52564800  1
