# generated using pymatgen
data_CuNi2C9
_symmetry_space_group_name_H-M   'P 1'
_cell_length_a   12.29375919
_cell_length_b   12.29375919
_cell_length_c   12.29375919
_cell_angle_alpha   160.55410562
_cell_angle_beta   160.55410562
_cell_angle_gamma   27.63596585
_symmetry_Int_Tables_number   1
_chemical_formula_structural   CuNi2C9
_chemical_formula_sum   'Cu1 Ni2 C9'
_cell_volume   205.84372545
_cell_formula_units_Z   1
loop_
 _symmetry_equiv_pos_site_id
 _symmetry_equiv_pos_as_xyz
  1  'x, y, z'
loop_
 _atom_site_type_symbol
 _atom_site_label
 _atom_site_symmetry_multiplicity
 _atom_site_fract_x
 _atom_site_fract_y
 _atom_site_fract_z
 _atom_site_occupancy
  Ni  Ni0  1  0.16604700  0.16604700  0.00000000  1
  Ni  Ni1  1  0.00097900  0.00097900  0.00000000  1
  C  C2  1  0.91612800  0.41612800  0.50000000  1
  C  C3  1  0.41612800  0.91612800  0.50000000  1
  C  C4  1  0.08422900  0.58422900  0.50000000  1
  C  C5  1  0.58422900  0.08422900  0.50000000  1
  C  C6  1  0.50027100  0.50027100  0.00000000  1
  C  C7  1  0.74957300  0.24957300  0.50000000  1
  C  C8  1  0.24957300  0.74957300  0.50000000  1
  C  C9  1  0.33104600  0.33104600  0.00000000  1
  C  C10  1  0.66762300  0.66762300  0.00000000  1
  Cu  Cu11  1  0.83417500  0.83417500  0.00000000  1
