# generated using pymatgen
data_CuNiC6
_symmetry_space_group_name_H-M   'P 1'
_cell_length_a   5.41578300
_cell_length_b   5.66063900
_cell_length_c   13.99798800
_cell_angle_alpha   90.00000000
_cell_angle_beta   90.00000000
_cell_angle_gamma   90.00000000
_symmetry_Int_Tables_number   1
_chemical_formula_structural   CuNiC6
_chemical_formula_sum   'Cu4 Ni4 C24'
_cell_volume   429.13341305
_cell_formula_units_Z   4
loop_
 _symmetry_equiv_pos_site_id
 _symmetry_equiv_pos_as_xyz
  1  'x, y, z'
loop_
 _atom_site_type_symbol
 _atom_site_label
 _atom_site_symmetry_multiplicity
 _atom_site_fract_x
 _atom_site_fract_y
 _atom_site_fract_z
 _atom_site_occupancy
  C  C0  1  0.74426200  0.96034200  0.84720100  1
  C  C1  1  0.24426200  0.53965800  0.15279900  1
  C  C2  1  0.25573800  0.46034200  0.65279900  1
  C  C3  1  0.75573800  0.03965800  0.34720100  1
  Ni  Ni4  1  0.74870100  0.47812000  0.75386800  1
  Ni  Ni5  1  0.24870100  0.02188000  0.24613200  1
  Ni  Ni6  1  0.25129900  0.97812000  0.74613200  1
  Ni  Ni7  1  0.75129900  0.52188000  0.25386800  1
  Cu  Cu8  1  0.80426200  0.58217900  0.50163900  1
  Cu  Cu9  1  0.30426200  0.91782100  0.49836100  1
  Cu  Cu10  1  0.19573800  0.08217900  0.99836100  1
  Cu  Cu11  1  0.69573800  0.41782100  0.00163900  1
  C  C12  1  0.49572100  0.24648900  0.76984200  1
  C  C13  1  0.99572100  0.25351100  0.23015800  1
  C  C14  1  0.50427900  0.74648900  0.73015800  1
  C  C15  1  0.00427900  0.75351100  0.26984200  1
  C  C16  1  0.99687200  0.74452900  0.73374100  1
  C  C17  1  0.49687200  0.75547100  0.26625900  1
  C  C18  1  0.00312800  0.24452900  0.76625900  1
  C  C19  1  0.50312800  0.25547100  0.23374100  1
  C  C20  1  0.72422500  0.44260400  0.61631500  1
  C  C21  1  0.22422500  0.05739600  0.38368500  1
  C  C22  1  0.27577500  0.94260400  0.88368500  1
  C  C23  1  0.77577500  0.55739600  0.11631500  1
  C  C24  1  0.76121800  0.56287900  0.88692700  1
  C  C25  1  0.26121800  0.93712100  0.11307300  1
  C  C26  1  0.23878200  0.06287900  0.61307300  1
  C  C27  1  0.73878200  0.43712100  0.38692700  1
  C  C28  1  0.64647100  0.87279800  0.48978800  1
  C  C29  1  0.14647100  0.62720200  0.51021200  1
  C  C30  1  0.35352900  0.37279800  0.01021200  1
  C  C31  1  0.85352900  0.12720200  0.98978800  1
