# generated using pymatgen
data_Cu3Ni2
_symmetry_space_group_name_H-M   'P 1'
_cell_length_a   4.29848900
_cell_length_b   4.83138100
_cell_length_c   7.01771373
_cell_angle_alpha   72.46957472
_cell_angle_beta   90.00000000
_cell_angle_gamma   90.00000000
_symmetry_Int_Tables_number   1
_chemical_formula_structural   Cu3Ni2
_chemical_formula_sum   'Cu6 Ni4'
_cell_volume   138.97269362
_cell_formula_units_Z   2
loop_
 _symmetry_equiv_pos_site_id
 _symmetry_equiv_pos_as_xyz
  1  'x, y, z'
loop_
 _atom_site_type_symbol
 _atom_site_label
 _atom_site_symmetry_multiplicity
 _atom_site_fract_x
 _atom_site_fract_y
 _atom_site_fract_z
 _atom_site_occupancy
  Ni  Ni0  1  0.75000000  0.12395100  0.90889300  1
  Ni  Ni1  1  0.25000000  0.87604900  0.09110700  1
  Ni  Ni2  1  0.25000000  0.67156200  0.48190900  1
  Ni  Ni3  1  0.75000000  0.32843800  0.51809100  1
  Cu  Cu4  1  0.75000000  0.72430200  0.72144500  1
  Cu  Cu5  1  0.25000000  0.27569800  0.27855500  1
  Cu  Cu6  1  0.25000000  0.06577800  0.67229800  1
  Cu  Cu7  1  0.75000000  0.93422200  0.32770200  1
  Cu  Cu8  1  0.75000000  0.57659000  0.11196000  1
  Cu  Cu9  1  0.25000000  0.42341000  0.88804000  1
