# generated using pymatgen
data_Cu2Ni4C15
_symmetry_space_group_name_H-M   'P 1'
_cell_length_a   14.65675800
_cell_length_b   6.82263700
_cell_length_c   11.25838847
_cell_angle_alpha   78.50778823
_cell_angle_beta   90.00000000
_cell_angle_gamma   90.00000000
_symmetry_Int_Tables_number   1
_chemical_formula_structural   Cu2Ni4C15
_chemical_formula_sum   'Cu8 Ni16 C60'
_cell_volume   1103.24285987
_cell_formula_units_Z   4
loop_
 _symmetry_equiv_pos_site_id
 _symmetry_equiv_pos_as_xyz
  1  'x, y, z'
loop_
 _atom_site_type_symbol
 _atom_site_label
 _atom_site_symmetry_multiplicity
 _atom_site_fract_x
 _atom_site_fract_y
 _atom_site_fract_z
 _atom_site_occupancy
  C  C0  1  0.87640800  0.67477700  0.97187400  1
  C  C1  1  0.37640800  0.32522300  0.52812600  1
  C  C2  1  0.12359200  0.32522300  0.02812600  1
  C  C3  1  0.62359200  0.67477700  0.47187400  1
  Ni  Ni4  1  0.86516900  0.15921100  0.98166300  1
  Ni  Ni5  1  0.00875900  0.58172900  0.68674500  1
  Ni  Ni6  1  0.49124100  0.58172900  0.18674500  1
  Ni  Ni7  1  0.99124100  0.41827100  0.31325500  1
  Ni  Ni8  1  0.70364100  0.49253500  0.79377900  1
  Ni  Ni9  1  0.20364100  0.50746500  0.70622100  1
  Ni  Ni10  1  0.29635900  0.50746500  0.20622100  1
  Ni  Ni11  1  0.79635900  0.49253500  0.29377900  1
  Ni  Ni12  1  0.50875900  0.41827100  0.81325500  1
  Ni  Ni13  1  0.13687100  0.12726200  0.48070200  1
  Ni  Ni14  1  0.63687100  0.87273800  0.01929800  1
  Ni  Ni15  1  0.86312900  0.87273800  0.51929800  1
  Ni  Ni16  1  0.36516900  0.84078900  0.51833700  1
  Ni  Ni17  1  0.63483100  0.15921100  0.48166300  1
  Ni  Ni18  1  0.13483100  0.84078900  0.01833700  1
  Ni  Ni19  1  0.36312900  0.12726200  0.98070200  1
  Cu  Cu20  1  0.67087200  0.36149800  0.07851300  1
  Cu  Cu21  1  0.17087200  0.63850200  0.42148700  1
  Cu  Cu22  1  0.32912800  0.63850200  0.92148700  1
  Cu  Cu23  1  0.82912800  0.36149800  0.57851300  1
  Cu  Cu24  1  0.75598400  0.00252500  0.24752100  1
  Cu  Cu25  1  0.25598400  0.99747500  0.25247900  1
  Cu  Cu26  1  0.24401600  0.99747500  0.75247900  1
  Cu  Cu27  1  0.74401600  0.00252500  0.74752100  1
  C  C28  1  0.97229200  0.24920100  0.97105900  1
  C  C29  1  0.47229200  0.75079900  0.52894100  1
  C  C30  1  0.02770800  0.75079900  0.02894100  1
  C  C31  1  0.52770800  0.24920100  0.47105900  1
  C  C32  1  0.84012000  0.00750600  0.87519800  1
  C  C33  1  0.34012000  0.99249400  0.62480200  1
  C  C34  1  0.15988000  0.99249400  0.12480200  1
  C  C35  1  0.65988000  0.00750600  0.37519800  1
  C  C36  1  0.84622100  0.00782700  0.12504800  1
  C  C37  1  0.34622100  0.99217300  0.37495200  1
  C  C38  1  0.15377900  0.99217300  0.87495200  1
  C  C39  1  0.65377900  0.00782700  0.62504800  1
  C  C40  1  0.29089600  0.33304400  0.95115900  1
  C  C41  1  0.79089600  0.66695600  0.54884100  1
  C  C42  1  0.70910400  0.66695600  0.04884100  1
  C  C43  1  0.20910400  0.33304400  0.45115900  1
  C  C44  1  0.35552500  0.02108600  0.12953100  1
  C  C45  1  0.85552500  0.97891400  0.37046900  1
  C  C46  1  0.64447500  0.97891400  0.87046900  1
  C  C47  1  0.14447500  0.02108600  0.62953100  1
  C  C48  1  0.33494300  0.94041900  0.89389300  1
  C  C49  1  0.43388400  0.60474700  0.83327100  1
  C  C50  1  0.83494300  0.05958100  0.60610700  1
  C  C51  1  0.16505700  0.94041900  0.39389300  1
  C  C52  1  0.46939600  0.30918200  0.70539400  1
  C  C53  1  0.96939600  0.69081800  0.79460600  1
  C  C54  1  0.53060400  0.69081800  0.29460600  1
  C  C55  1  0.03060400  0.30918200  0.20539400  1
  C  C56  1  0.47357200  0.22597500  0.94793400  1
  C  C57  1  0.97357200  0.77402500  0.55206600  1
  C  C58  1  0.52642800  0.77402500  0.05206600  1
  C  C59  1  0.02642800  0.22597500  0.44793400  1
  C  C60  1  0.89318900  0.56088700  0.20281300  1
  C  C61  1  0.39318900  0.43911300  0.29718700  1
  C  C62  1  0.10681100  0.43911300  0.79718700  1
  C  C63  1  0.60681100  0.56088700  0.70281300  1
  C  C64  1  0.74895800  0.30593200  0.22198700  1
  C  C65  1  0.24895800  0.69406800  0.27801300  1
  C  C66  1  0.25104200  0.69406800  0.77801300  1
  C  C67  1  0.75104200  0.30593200  0.72198700  1
  C  C68  1  0.71022600  0.36942000  0.46307400  1
  C  C69  1  0.21022600  0.63058000  0.03692600  1
  C  C70  1  0.28977400  0.63058000  0.53692600  1
  C  C71  1  0.78977400  0.36942000  0.96307400  1
  C  C72  1  0.73420900  0.70586900  0.29060000  1
  C  C73  1  0.23420900  0.29413100  0.20940000  1
  C  C74  1  0.26579100  0.29413100  0.70940000  1
  C  C75  1  0.76579100  0.70586900  0.79060000  1
  C  C76  1  0.87774400  0.40339600  0.41335200  1
  C  C77  1  0.37774400  0.59660400  0.08664800  1
  C  C78  1  0.12225600  0.59660400  0.58664800  1
  C  C79  1  0.62225600  0.40339600  0.91335200  1
  C  C80  1  0.06611600  0.60474700  0.33327100  1
  C  C81  1  0.56611600  0.39525300  0.16672900  1
  C  C82  1  0.93388400  0.39525300  0.66672900  1
  C  C83  1  0.66505700  0.05958100  0.10610700  1
