# generated using pymatgen
data_CuNiC11
_symmetry_space_group_name_H-M   'P 1'
_cell_length_a   6.43940600
_cell_length_b   8.03409700
_cell_length_c   14.00968100
_cell_angle_alpha   90.00000000
_cell_angle_beta   90.00000000
_cell_angle_gamma   90.00000000
_symmetry_Int_Tables_number   1
_chemical_formula_structural   CuNiC11
_chemical_formula_sum   'Cu4 Ni4 C44'
_cell_volume   724.78821869
_cell_formula_units_Z   4
loop_
 _symmetry_equiv_pos_site_id
 _symmetry_equiv_pos_as_xyz
  1  'x, y, z'
loop_
 _atom_site_type_symbol
 _atom_site_label
 _atom_site_symmetry_multiplicity
 _atom_site_fract_x
 _atom_site_fract_y
 _atom_site_fract_z
 _atom_site_occupancy
  Ni  Ni0  1  0.50000000  0.50000000  0.00000000  1
  Ni  Ni1  1  0.50000000  0.00000000  0.50000000  1
  Ni  Ni2  1  0.00000000  0.00000000  0.50000000  1
  Ni  Ni3  1  0.00000000  0.50000000  0.00000000  1
  Cu  Cu4  1  0.75000000  0.14521100  0.12522600  1
  Cu  Cu5  1  0.25000000  0.85478900  0.87477400  1
  Cu  Cu6  1  0.25000000  0.64521100  0.37477400  1
  Cu  Cu7  1  0.75000000  0.35478900  0.62522600  1
  C  C8  1  0.25000000  0.15940700  0.05679700  1
  C  C9  1  0.75000000  0.84059300  0.94320300  1
  C  C10  1  0.75000000  0.65940700  0.44320300  1
  C  C11  1  0.25000000  0.34059300  0.55679700  1
  C  C12  1  0.75000000  0.10538400  0.31760500  1
  C  C13  1  0.25000000  0.89461600  0.68239500  1
  C  C14  1  0.25000000  0.60538400  0.18239500  1
  C  C15  1  0.75000000  0.39461600  0.81760500  1
  C  C16  1  0.04946400  0.89810500  0.62611000  1
  C  C17  1  0.54946400  0.10189500  0.37389000  1
  C  C18  1  0.95053600  0.39810500  0.87389000  1
  C  C19  1  0.45053600  0.60189500  0.12611000  1
  C  C20  1  0.95053600  0.10189500  0.37389000  1
  C  C21  1  0.45053600  0.89810500  0.62611000  1
  C  C22  1  0.04946400  0.60189500  0.12611000  1
  C  C23  1  0.54946400  0.39810500  0.87389000  1
  C  C24  1  0.25000000  0.16374000  0.51847900  1
  C  C25  1  0.75000000  0.83626000  0.48152100  1
  C  C26  1  0.75000000  0.66374000  0.98152100  1
  C  C27  1  0.25000000  0.33626000  0.01847900  1
  C  C28  1  0.75000000  0.33620700  0.05969300  1
  C  C29  1  0.25000000  0.66379300  0.94030700  1
  C  C30  1  0.25000000  0.83620700  0.44030700  1
  C  C31  1  0.75000000  0.16379300  0.55969300  1
  C  C32  1  0.75000000  0.26624500  0.24638500  1
  C  C33  1  0.25000000  0.73375500  0.75361500  1
  C  C34  1  0.25000000  0.76624500  0.25361500  1
  C  C35  1  0.75000000  0.23375500  0.74638500  1
  C  C36  1  0.44270100  0.37246100  0.62020600  1
  C  C37  1  0.94270100  0.62753900  0.37979400  1
  C  C38  1  0.55729900  0.87246100  0.87979400  1
  C  C39  1  0.05729900  0.12753900  0.12020600  1
  C  C40  1  0.55729900  0.62753900  0.37979400  1
  C  C41  1  0.05729900  0.37246100  0.62020600  1
  C  C42  1  0.44270100  0.12753900  0.12020600  1
  C  C43  1  0.94270100  0.87246100  0.87979400  1
  C  C44  1  0.75000000  0.52464500  0.73122800  1
  C  C45  1  0.25000000  0.47535500  0.26877200  1
  C  C46  1  0.25000000  0.02464500  0.76877200  1
  C  C47  1  0.75000000  0.97535500  0.23122800  1
  C  C48  1  0.75000000  0.52611800  0.52305900  1
  C  C49  1  0.25000000  0.47388200  0.47694100  1
  C  C50  1  0.25000000  0.02611800  0.97694100  1
  C  C51  1  0.75000000  0.97388200  0.02305900  1
