# generated using pymatgen
data_Cu16NiC14
_symmetry_space_group_name_H-M   'P 1'
_cell_length_a   8.48084940
_cell_length_b   8.48084940
_cell_length_c   7.49653100
_cell_angle_alpha   90.00000000
_cell_angle_beta   90.00000000
_cell_angle_gamma   118.77029087
_symmetry_Int_Tables_number   1
_chemical_formula_structural   Cu16NiC14
_chemical_formula_sum   'Cu16 Ni1 C14'
_cell_volume   472.62739363
_cell_formula_units_Z   1
loop_
 _symmetry_equiv_pos_site_id
 _symmetry_equiv_pos_as_xyz
  1  'x, y, z'
loop_
 _atom_site_type_symbol
 _atom_site_label
 _atom_site_symmetry_multiplicity
 _atom_site_fract_x
 _atom_site_fract_y
 _atom_site_fract_z
 _atom_site_occupancy
  C  C0  1  0.41062600  0.58937400  0.00000000  1
  C  C1  1  0.11537600  0.88462400  0.00000000  1
  Ni  Ni2  1  0.58407200  0.41592800  0.50000000  1
  Cu  Cu3  1  0.46385200  0.93212400  0.55028000  1
  Cu  Cu4  1  0.06787600  0.53614800  0.44972000  1
  Cu  Cu5  1  0.06787600  0.53614800  0.55028000  1
  Cu  Cu6  1  0.46385200  0.93212400  0.44972000  1
  Cu  Cu7  1  0.73574700  0.52555800  0.14472500  1
  Cu  Cu8  1  0.47444200  0.26425300  0.85527500  1
  Cu  Cu9  1  0.47444200  0.26425300  0.14472500  1
  Cu  Cu10  1  0.73574700  0.52555800  0.85527500  1
  Cu  Cu11  1  0.98164500  0.83822500  0.36926300  1
  Cu  Cu12  1  0.16177500  0.01835500  0.63073700  1
  Cu  Cu13  1  0.16177500  0.01835500  0.36926300  1
  Cu  Cu14  1  0.98164500  0.83822500  0.63073700  1
  Cu  Cu15  1  0.15619300  0.29803900  0.39726200  1
  Cu  Cu16  1  0.70196100  0.84380700  0.60273800  1
  Cu  Cu17  1  0.70196100  0.84380700  0.39726200  1
  Cu  Cu18  1  0.15619300  0.29803900  0.60273800  1
  C  C19  1  0.76116500  0.82422300  0.50000000  1
  C  C20  1  0.17577700  0.23883500  0.50000000  1
  C  C21  1  0.65034400  0.34965600  0.30828100  1
  C  C22  1  0.65034400  0.34965600  0.69171900  1
  C  C23  1  0.16384100  0.66133900  0.00000000  1
  C  C24  1  0.33866100  0.83615900  0.00000000  1
  C  C25  1  0.76238900  0.64850500  0.90049000  1
  C  C26  1  0.35149500  0.23761100  0.09951000  1
  C  C27  1  0.35149500  0.23761100  0.90049000  1
  C  C28  1  0.76238900  0.64850500  0.09951000  1
  C  C29  1  0.09507200  0.90492800  0.30552400  1
  C  C30  1  0.09507200  0.90492800  0.69447600  1
