# generated using pymatgen
data_CuNi3C11
_symmetry_space_group_name_H-M   'P 1'
_cell_length_a   6.03296370
_cell_length_b   6.03946446
_cell_length_c   10.51895957
_cell_angle_alpha   106.35274589
_cell_angle_beta   73.37816703
_cell_angle_gamma   119.96502248
_symmetry_Int_Tables_number   1
_chemical_formula_structural   CuNi3C11
_chemical_formula_sum   'Cu2 Ni6 C22'
_cell_volume   313.69090946
_cell_formula_units_Z   2
loop_
 _symmetry_equiv_pos_site_id
 _symmetry_equiv_pos_as_xyz
  1  'x, y, z'
loop_
 _atom_site_type_symbol
 _atom_site_label
 _atom_site_symmetry_multiplicity
 _atom_site_fract_x
 _atom_site_fract_y
 _atom_site_fract_z
 _atom_site_occupancy
  C  C0  1  0.74654600  0.75073600  0.75215900  1
  C  C1  1  0.25345000  0.24926500  0.24784200  1
  C  C2  1  0.25113800  0.24443600  0.75136800  1
  C  C3  1  0.74886000  0.75556100  0.24863200  1
  C  C4  1  0.74346600  0.24201300  0.25546900  1
  C  C5  1  0.25653700  0.75798800  0.74452800  1
  Ni  Ni6  1  0.99999800  0.49999800  0.99999900  1
  Ni  Ni7  1  0.50000700  0.00000000  0.99999900  1
  Ni  Ni8  1  0.50000300  0.50000500  0.00000000  1
  Ni  Ni9  1  0.49999900  0.99999800  0.50000100  1
  Ni  Ni10  1  0.99999800  0.50000100  0.50000100  1
  Ni  Ni11  1  0.99999200  0.99999600  0.50000200  1
  Cu  Cu12  1  0.50000800  0.50001000  0.50000600  1
  Cu  Cu13  1  0.99999900  0.99999900  0.99999500  1
  C  C14  1  0.39185300  0.64177400  0.89924800  1
  C  C15  1  0.89084000  0.14645100  0.39326700  1
  C  C16  1  0.10915700  0.85354900  0.60673400  1
  C  C17  1  0.60814500  0.35822800  0.10075300  1
  C  C18  1  0.85729300  0.62160200  0.38585600  1
  C  C19  1  0.34652500  0.09401600  0.87992800  1
  C  C20  1  0.65348400  0.90598700  0.12006800  1
  C  C21  1  0.14270300  0.37839800  0.61414500  1
  C  C22  1  0.37255700  0.14576800  0.38810200  1
  C  C23  1  0.84993900  0.63543600  0.89572000  1
  C  C24  1  0.15006000  0.36456800  0.10428100  1
  C  C25  1  0.62743700  0.85422100  0.61189500  1
  C  C26  1  0.87820500  0.11750800  0.88640000  1
  C  C27  1  0.37728600  0.62068300  0.38819200  1
  C  C28  1  0.62271000  0.37931700  0.61180900  1
  C  C29  1  0.12179800  0.88249100  0.11360400  1
