# generated using pymatgen
data_Cu2NiC15
_symmetry_space_group_name_H-M   'P 1'
_cell_length_a   8.18148700
_cell_length_b   9.35030962
_cell_length_c   11.19165670
_cell_angle_alpha   100.61221648
_cell_angle_beta   111.43941543
_cell_angle_gamma   90.00000000
_symmetry_Int_Tables_number   1
_chemical_formula_structural   Cu2NiC15
_chemical_formula_sum   'Cu4 Ni2 C30'
_cell_volume   781.16004993
_cell_formula_units_Z   2
loop_
 _symmetry_equiv_pos_site_id
 _symmetry_equiv_pos_as_xyz
  1  'x, y, z'
loop_
 _atom_site_type_symbol
 _atom_site_label
 _atom_site_symmetry_multiplicity
 _atom_site_fract_x
 _atom_site_fract_y
 _atom_site_fract_z
 _atom_site_occupancy
  C  C0  1  0.80178800  0.10834600  0.34609000  1
  C  C1  1  0.54430200  0.60834600  0.34609000  1
  C  C2  1  0.19821200  0.89165400  0.65391000  1
  C  C3  1  0.45569800  0.39165400  0.65391000  1
  C  C4  1  0.91028200  0.25000000  0.00000000  1
  C  C5  1  0.08971800  0.75000000  0.00000000  1
  Ni  Ni6  1  0.41794600  0.25000000  0.00000000  1
  Ni  Ni7  1  0.58205400  0.75000000  0.00000000  1
  Cu  Cu8  1  0.97749200  0.42732300  0.67822800  1
  Cu  Cu9  1  0.70073600  0.92732300  0.67822800  1
  Cu  Cu10  1  0.02250800  0.57267700  0.32177200  1
  Cu  Cu11  1  0.29926400  0.07267700  0.32177200  1
  C  C12  1  0.07640300  0.27258700  0.65855500  1
  C  C13  1  0.58215200  0.77258700  0.65855500  1
  C  C14  1  0.92359700  0.72741300  0.34144500  1
  C  C15  1  0.41784800  0.22741300  0.34144500  1
  C  C16  1  0.90898300  0.44251800  0.80390100  1
  C  C17  1  0.89491800  0.94251800  0.80390100  1
  C  C18  1  0.09101700  0.55748200  0.19609900  1
  C  C19  1  0.10508200  0.05748200  0.19609900  1
  C  C20  1  0.11463500  0.57374200  0.70700400  1
  C  C21  1  0.59236900  0.07374200  0.70700400  1
  C  C22  1  0.88536500  0.42625800  0.29299600  1
  C  C23  1  0.40763100  0.92625800  0.29299600  1
  C  C24  1  0.79809300  0.42082900  0.54086400  1
  C  C25  1  0.74277200  0.92082900  0.54086400  1
  C  C26  1  0.20190700  0.57917100  0.45913600  1
  C  C27  1  0.25722800  0.07917100  0.45913600  1
  C  C28  1  0.55791800  0.14378200  0.05277900  1
  C  C29  1  0.49486200  0.64378200  0.05277900  1
  C  C30  1  0.44208200  0.85621800  0.94722100  1
  C  C31  1  0.50513800  0.35621800  0.94722100  1
  C  C32  1  0.35724700  0.32873900  0.10908300  1
  C  C33  1  0.75183600  0.82873900  0.10908300  1
  C  C34  1  0.64275300  0.67126100  0.89091700  1
  C  C35  1  0.24816400  0.17126100  0.89091700  1
