# generated using pymatgen
data_Cu4NiC21
_symmetry_space_group_name_H-M   'P 1'
_cell_length_a   6.17167009
_cell_length_b   8.97209083
_cell_length_c   11.74032800
_cell_angle_alpha   90.00000000
_cell_angle_beta   90.00000000
_cell_angle_gamma   98.73389474
_symmetry_Int_Tables_number   1
_chemical_formula_structural   Cu4NiC21
_chemical_formula_sum   'Cu8 Ni2 C42'
_cell_volume   642.55630706
_cell_formula_units_Z   2
loop_
 _symmetry_equiv_pos_site_id
 _symmetry_equiv_pos_as_xyz
  1  'x, y, z'
loop_
 _atom_site_type_symbol
 _atom_site_label
 _atom_site_symmetry_multiplicity
 _atom_site_fract_x
 _atom_site_fract_y
 _atom_site_fract_z
 _atom_site_occupancy
  C  C0  1  0.12315200  0.87076200  0.19367500  1
  C  C1  1  0.37684800  0.12923800  0.69367500  1
  C  C2  1  0.87666400  0.13066900  0.80513200  1
  C  C3  1  0.62333600  0.86933100  0.30513200  1
  C  C4  1  0.34006800  0.44660200  0.38756900  1
  C  C5  1  0.15993200  0.55339800  0.88756900  1
  C  C6  1  0.66322300  0.55763000  0.61503400  1
  C  C7  1  0.83677700  0.44237000  0.11503400  1
  C  C8  1  0.83030600  0.22841500  0.42907000  1
  C  C9  1  0.66969400  0.77158500  0.92907000  1
  Ni  Ni10  1  0.17258700  0.79966500  0.55090900  1
  Ni  Ni11  1  0.32741300  0.20033500  0.05090900  1
  Cu  Cu12  1  0.30437900  0.10829100  0.41427400  1
  Cu  Cu13  1  0.19562100  0.89170900  0.91427400  1
  Cu  Cu14  1  0.69180600  0.89255800  0.57968400  1
  Cu  Cu15  1  0.80819400  0.10744200  0.07968400  1
  Cu  Cu16  1  0.89194500  0.59293600  0.36182700  1
  Cu  Cu17  1  0.60805500  0.40706400  0.86182700  1
  Cu  Cu18  1  0.10985700  0.40905700  0.64156100  1
  Cu  Cu19  1  0.39014300  0.59094300  0.14156100  1
  C  C20  1  0.51007000  0.22932300  0.42136600  1
  C  C21  1  0.98993000  0.77067700  0.92136600  1
  C  C22  1  0.47836800  0.77406700  0.57445000  1
  C  C23  1  0.02163200  0.22593300  0.07445000  1
  C  C24  1  0.91076400  0.44667700  0.29341400  1
  C  C25  1  0.58923600  0.55332300  0.79341400  1
  C  C26  1  0.08607200  0.54822200  0.71453800  1
  C  C27  1  0.41392800  0.45177800  0.21453800  1
  C  C28  1  0.67659900  0.57108400  0.43275600  1
  C  C29  1  0.82340100  0.42891600  0.93275600  1
  C  C30  1  0.32516700  0.43118500  0.56975400  1
  C  C31  1  0.17483300  0.56881500  0.06975400  1
  C  C32  1  0.25424800  0.03296000  0.53435700  1
  C  C33  1  0.24575200  0.96704000  0.03435700  1
  C  C34  1  0.74194700  0.97245000  0.46288700  1
  C  C35  1  0.75805300  0.02755000  0.96288700  1
  C  C36  1  0.87563000  0.72749400  0.27936000  1
  C  C37  1  0.62437000  0.27250600  0.77936000  1
  C  C38  1  0.12653600  0.26927300  0.71931400  1
  C  C39  1  0.37346400  0.73072700  0.21931400  1
  C  C40  1  0.10417700  0.62743300  0.43544000  1
  C  C41  1  0.39582300  0.37256700  0.93544000  1
  C  C42  1  0.89853600  0.37483300  0.56759000  1
  C  C43  1  0.60146400  0.62516700  0.06759000  1
  C  C44  1  0.12688300  0.20120100  0.37580800  1
  C  C45  1  0.37311700  0.79879900  0.87580800  1
  C  C46  1  0.87465600  0.79524300  0.61042900  1
  C  C47  1  0.62534400  0.20475700  0.11042900  1
  C  C48  1  0.32892600  0.98393800  0.32583900  1
  C  C49  1  0.17107400  0.01606200  0.82583900  1
  C  C50  1  0.67278400  0.01132000  0.67440400  1
  C  C51  1  0.82721600  0.98868000  0.17440400  1
