# generated using pymatgen
data_Cu30Ni
_symmetry_space_group_name_H-M   'P 1'
_cell_length_a   20.08691934
_cell_length_b   20.08691934
_cell_length_c   16.45468286
_cell_angle_alpha   89.12019351
_cell_angle_beta   89.12019351
_cell_angle_gamma   134.24525002
_symmetry_Int_Tables_number   1
_chemical_formula_structural   Cu30Ni
_chemical_formula_sum   'Cu30 Ni1'
_cell_volume   4752.34945616
_cell_formula_units_Z   1
loop_
 _symmetry_equiv_pos_site_id
 _symmetry_equiv_pos_as_xyz
  1  'x, y, z'
loop_
 _atom_site_type_symbol
 _atom_site_label
 _atom_site_symmetry_multiplicity
 _atom_site_fract_x
 _atom_site_fract_y
 _atom_site_fract_z
 _atom_site_occupancy
  Ni  Ni0  1  0.00000000  0.00000000  0.00000000  1
  Cu  Cu1  1  0.52578500  0.47448800  0.26603800  1
  Cu  Cu2  1  0.47421500  0.52551200  0.73396200  1
  Cu  Cu3  1  0.46076200  0.26273500  0.53729900  1
  Cu  Cu4  1  0.52551200  0.47421500  0.73396200  1
  Cu  Cu5  1  0.53923800  0.73726500  0.46270100  1
  Cu  Cu6  1  0.47448800  0.52578500  0.26603800  1
  Cu  Cu7  1  0.25466600  0.52611600  0.45989300  1
  Cu  Cu8  1  0.73726500  0.53923800  0.46270100  1
  Cu  Cu9  1  0.74533400  0.47388400  0.54010700  1
  Cu  Cu10  1  0.26273500  0.46076200  0.53729900  1
  Cu  Cu11  1  0.47388400  0.74533400  0.54010700  1
  Cu  Cu12  1  0.52611600  0.25466600  0.45989300  1
  Cu  Cu13  1  0.00497900  0.31693800  0.49969200  1
  Cu  Cu14  1  0.99502100  0.68306200  0.50030800  1
  Cu  Cu15  1  0.34269000  0.53528300  0.00009100  1
  Cu  Cu16  1  0.68306200  0.99502100  0.50030800  1
  Cu  Cu17  1  0.65731000  0.46471700  0.99990900  1
  Cu  Cu18  1  0.31693800  0.00497900  0.49969200  1
  Cu  Cu19  1  0.49975300  0.00008400  0.31348000  1
  Cu  Cu20  1  0.46471700  0.65731000  0.99990900  1
  Cu  Cu21  1  0.50024700  0.99991600  0.68652000  1
  Cu  Cu22  1  0.53528300  0.34269000  0.00009100  1
  Cu  Cu23  1  0.99991600  0.50024700  0.68652000  1
  Cu  Cu24  1  0.00008400  0.49975300  0.31348000  1
  Cu  Cu25  1  0.99776800  0.99776800  0.09449100  1
  Cu  Cu26  1  0.00223200  0.00223200  0.90550900  1
  Cu  Cu27  1  0.96782200  0.15380000  0.99851400  1
  Cu  Cu28  1  0.03217800  0.84620000  0.00148600  1
  Cu  Cu29  1  0.15380000  0.96782200  0.99851400  1
  Cu  Cu30  1  0.84620000  0.03217800  0.00148600  1
