# generated using pymatgen
data_Cu18Ni12C41
_symmetry_space_group_name_H-M   'P 1'
_cell_length_a   11.68285906
_cell_length_b   11.68285906
_cell_length_c   13.22433060
_cell_angle_alpha   65.93303409
_cell_angle_beta   65.93303409
_cell_angle_gamma   63.42480810
_symmetry_Int_Tables_number   1
_chemical_formula_structural   Cu18Ni12C41
_chemical_formula_sum   'Cu36 Ni24 C82'
_cell_volume   1416.70633036
_cell_formula_units_Z   2
loop_
 _symmetry_equiv_pos_site_id
 _symmetry_equiv_pos_as_xyz
  1  'x, y, z'
loop_
 _atom_site_type_symbol
 _atom_site_label
 _atom_site_symmetry_multiplicity
 _atom_site_fract_x
 _atom_site_fract_y
 _atom_site_fract_z
 _atom_site_occupancy
  C  C0  1  0.44888100  0.55111900  0.75000000  1
  C  C1  1  0.55111900  0.44888100  0.25000000  1
  C  C2  1  0.78251500  0.53967600  0.74240400  1
  C  C3  1  0.46032400  0.21748500  0.75759600  1
  C  C4  1  0.21748500  0.46032400  0.25759600  1
  C  C5  1  0.53967600  0.78251500  0.24240400  1
  C  C6  1  0.90476700  0.55099800  0.75342500  1
  C  C7  1  0.44900200  0.09523300  0.74657500  1
  C  C8  1  0.09523300  0.44900200  0.24657500  1
  C  C9  1  0.55099800  0.90476700  0.25342500  1
  C  C10  1  0.35221600  0.96431600  0.45457100  1
  C  C11  1  0.03568400  0.64778400  0.04542900  1
  C  C12  1  0.64778400  0.03568400  0.54542900  1
  C  C13  1  0.96431600  0.35221600  0.95457100  1
  C  C14  1  0.27721200  0.84222600  0.55218400  1
  C  C15  1  0.15777400  0.72278800  0.94781600  1
  C  C16  1  0.72278800  0.15777400  0.44781600  1
  C  C17  1  0.84222600  0.27721200  0.05218400  1
  C  C18  1  0.04673400  0.91220200  0.64327800  1
  C  C19  1  0.08779800  0.95326600  0.85672200  1
  C  C20  1  0.95326600  0.08779800  0.35672200  1
  C  C21  1  0.91220200  0.04673400  0.14327800  1
  C  C22  1  0.96412800  0.08556300  0.63363200  1
  C  C23  1  0.91443700  0.03587200  0.86636800  1
  C  C24  1  0.03587200  0.91443700  0.36636800  1
  C  C25  1  0.08556300  0.96412800  0.13363200  1
  C  C26  1  0.23059100  0.18715000  0.43001400  1
  C  C27  1  0.81285000  0.76940900  0.06998600  1
  C  C28  1  0.76940900  0.81285000  0.56998600  1
  C  C29  1  0.18715000  0.23059100  0.93001400  1
  C  C30  1  0.05892300  0.23744500  0.49794500  1
  C  C31  1  0.76255500  0.94107700  0.00205500  1
  C  C32  1  0.94107700  0.76255500  0.50205500  1
  C  C33  1  0.23744500  0.05892300  0.99794500  1
  C  C34  1  0.79009300  0.53140100  0.50997200  1
  C  C35  1  0.46859900  0.20990700  0.99002800  1
  C  C36  1  0.20990700  0.46859900  0.49002800  1
  C  C37  1  0.53140100  0.79009300  0.00997200  1
  C  C38  1  0.95068000  0.51030100  0.41172500  1
  C  C39  1  0.48969900  0.04932000  0.08827500  1
  C  C40  1  0.04932000  0.48969900  0.58827500  1
  C  C41  1  0.51030100  0.95068000  0.91172500  1
  C  C42  1  0.62408600  0.74811000  0.46880100  1
  C  C43  1  0.25189000  0.37591400  0.03119900  1
  C  C44  1  0.37591400  0.25189000  0.53119900  1
  C  C45  1  0.74811000  0.62408600  0.96880100  1
  C  C46  1  0.67185000  0.87593600  0.35177500  1
  C  C47  1  0.12406400  0.32815000  0.14822500  1
  C  C48  1  0.32815000  0.12406400  0.64822500  1
  C  C49  1  0.87593600  0.67185000  0.85177500  1
  C  C50  1  0.00149500  0.67148600  0.25642400  1
  C  C51  1  0.32851400  0.99850500  0.24357600  1
  C  C52  1  0.99850500  0.32851400  0.74357600  1
  C  C53  1  0.67148600  0.00149500  0.75642400  1
  C  C54  1  0.87784700  0.83093500  0.22595800  1
  C  C55  1  0.16906500  0.12215300  0.27404200  1
  C  C56  1  0.12215300  0.16906500  0.77404200  1
  C  C57  1  0.83093500  0.87784700  0.72595800  1
  C  C58  1  0.33890300  0.86424600  0.77175900  1
  C  C59  1  0.13575400  0.66109700  0.72824100  1
  C  C60  1  0.66109700  0.13575400  0.22824100  1
  C  C61  1  0.86424600  0.33890300  0.27175900  1
  C  C62  1  0.47818600  0.85206500  0.68304800  1
  C  C63  1  0.14793500  0.52181400  0.81695200  1
  C  C64  1  0.52181400  0.14793500  0.31695200  1
  C  C65  1  0.85206500  0.47818600  0.18304800  1
  C  C66  1  0.75152700  0.32278300  0.69026600  1
  C  C67  1  0.67721700  0.24847300  0.80973400  1
  C  C68  1  0.24847300  0.67721700  0.30973400  1
  C  C69  1  0.32278300  0.75152700  0.19026600  1
  C  C70  1  0.56869500  0.50911200  0.96700200  1
  C  C71  1  0.49088800  0.43130500  0.53299800  1
  C  C72  1  0.43130500  0.49088800  0.03299800  1
  C  C73  1  0.50911200  0.56869500  0.46700200  1
  C  C74  1  0.15427100  0.03625500  0.53202800  1
  C  C75  1  0.96374500  0.84572900  0.96797200  1
  C  C76  1  0.84572900  0.96374500  0.46797200  1
  C  C77  1  0.03625500  0.15427100  0.03202800  1
  C  C78  1  0.81667100  0.69331100  0.36919800  1
  C  C79  1  0.30668900  0.18332900  0.13080200  1
  C  C80  1  0.18332900  0.30668900  0.63080200  1
  C  C81  1  0.69331100  0.81667100  0.86919800  1
  Ni  Ni82  1  0.26915500  0.93883800  0.50554700  1
  Ni  Ni83  1  0.06116200  0.73084500  0.99445300  1
  Ni  Ni84  1  0.73084500  0.06116200  0.49445300  1
  Ni  Ni85  1  0.93883800  0.26915500  0.00554700  1
  Ni  Ni86  1  0.04537300  0.00876300  0.60699100  1
  Ni  Ni87  1  0.99123700  0.95462700  0.89300900  1
  Ni  Ni88  1  0.95462700  0.99123700  0.39300900  1
  Ni  Ni89  1  0.00876300  0.04537300  0.10699100  1
  Ni  Ni90  1  0.14707100  0.16389000  0.48027100  1
  Ni  Ni91  1  0.83611000  0.85292900  0.01972900  1
  Ni  Ni92  1  0.85292900  0.83611000  0.51972900  1
  Ni  Ni93  1  0.16389000  0.14707100  0.98027100  1
  Ni  Ni94  1  0.85302200  0.56740500  0.43426500  1
  Ni  Ni95  1  0.43259500  0.14697800  0.06573500  1
  Ni  Ni96  1  0.14697800  0.43259500  0.56573500  1
  Ni  Ni97  1  0.56740500  0.85302200  0.93426500  1
  Ni  Ni98  1  0.69225400  0.77702400  0.39508800  1
  Ni  Ni99  1  0.22297600  0.30774600  0.10491200  1
  Ni  Ni100  1  0.30774600  0.22297600  0.60491200  1
  Ni  Ni101  1  0.77702400  0.69225400  0.89508800  1
  Ni  Ni102  1  0.90660200  0.73576600  0.27524700  1
  Ni  Ni103  1  0.26423400  0.09339800  0.22475300  1
  Ni  Ni104  1  0.09339800  0.26423400  0.72475300  1
  Ni  Ni105  1  0.73576600  0.90660200  0.77524700  1
  Cu  Cu106  1  0.31439600  0.75441700  0.82198500  1
  Cu  Cu107  1  0.24558300  0.68560400  0.67801500  1
  Cu  Cu108  1  0.68560400  0.24558300  0.17801500  1
  Cu  Cu109  1  0.75441700  0.31439600  0.32198500  1
  Cu  Cu110  1  0.26039700  0.97567200  0.78714100  1
  Cu  Cu111  1  0.02432800  0.73960300  0.71285900  1
  Cu  Cu112  1  0.73960300  0.02432800  0.21285900  1
  Cu  Cu113  1  0.97567200  0.26039700  0.28714100  1
  Cu  Cu114  1  0.51980400  0.94790400  0.64456100  1
  Cu  Cu115  1  0.05209600  0.48019600  0.85543900  1
  Cu  Cu116  1  0.48019600  0.05209600  0.35543900  1
  Cu  Cu117  1  0.94790400  0.51980400  0.14456100  1
  Cu  Cu118  1  0.53810800  0.74159600  0.65600800  1
  Cu  Cu119  1  0.25840400  0.46189200  0.84399200  1
  Cu  Cu120  1  0.46189200  0.25840400  0.34399200  1
  Cu  Cu121  1  0.74159600  0.53810800  0.15600800  1
  Cu  Cu122  1  0.68522000  0.44722800  0.65408000  1
  Cu  Cu123  1  0.55277200  0.31478000  0.84592000  1
  Cu  Cu124  1  0.31478000  0.55277200  0.34592000  1
  Cu  Cu125  1  0.44722800  0.68522000  0.15408000  1
  Cu  Cu126  1  0.86531500  0.26226900  0.63790900  1
  Cu  Cu127  1  0.73773100  0.13468500  0.86209100  1
  Cu  Cu128  1  0.13468500  0.73773100  0.36209100  1
  Cu  Cu129  1  0.26226900  0.86531500  0.13790900  1
  Cu  Cu130  1  0.60078400  0.53684000  0.85799100  1
  Cu  Cu131  1  0.46316000  0.39921600  0.64200900  1
  Cu  Cu132  1  0.39921600  0.46316000  0.14200900  1
  Cu  Cu133  1  0.53684000  0.60078400  0.35799100  1
  Cu  Cu134  1  0.63728500  0.49501700  0.02740500  1
  Cu  Cu135  1  0.50498300  0.36271500  0.47259500  1
  Cu  Cu136  1  0.36271500  0.50498300  0.97259500  1
  Cu  Cu137  1  0.49501700  0.63728500  0.52740500  1
  Cu  Cu138  1  0.87770400  0.52770900  0.70551100  1
  Cu  Cu139  1  0.47229100  0.12229600  0.79448900  1
  Cu  Cu140  1  0.12229600  0.47229100  0.29448900  1
  Cu  Cu141  1  0.52770900  0.87770400  0.20551100  1
