# generated using pymatgen
data_Cu(Ni3C)12
_symmetry_space_group_name_H-M   'P 1'
_cell_length_a   8.00213109
_cell_length_b   8.00213109
_cell_length_c   8.00213121
_cell_angle_alpha   78.30840476
_cell_angle_beta   78.30840476
_cell_angle_gamma   78.30840530
_symmetry_Int_Tables_number   1
_chemical_formula_structural   Cu(Ni3C)12
_chemical_formula_sum   'Cu1 Ni36 C12'
_cell_volume   484.34186494
_cell_formula_units_Z   1
loop_
 _symmetry_equiv_pos_site_id
 _symmetry_equiv_pos_as_xyz
  1  'x, y, z'
loop_
 _atom_site_type_symbol
 _atom_site_label
 _atom_site_symmetry_multiplicity
 _atom_site_fract_x
 _atom_site_fract_y
 _atom_site_fract_z
 _atom_site_occupancy
  C  C0  1  0.49904700  0.99972600  0.49904700  1
  C  C1  1  0.99972600  0.49904700  0.49904700  1
  C  C2  1  0.49904700  0.49904700  0.99972600  1
  C  C3  1  0.57267400  0.57267400  0.57267400  1
  C  C4  1  0.42901500  0.42901500  0.42901500  1
  C  C5  1  0.73859200  0.73859200  0.34316900  1
  C  C6  1  0.73859200  0.34316900  0.73859200  1
  C  C7  1  0.34316900  0.73859200  0.73859200  1
  C  C8  1  0.26167700  0.26167700  0.65533400  1
  C  C9  1  0.26167700  0.65533400  0.26167700  1
  C  C10  1  0.65533400  0.26167700  0.26167700  1
  C  C11  1  0.95583400  0.95583400  0.95583400  1
  Ni  Ni12  1  0.70404800  0.99409000  0.99409000  1
  Ni  Ni13  1  0.99409000  0.99409000  0.70404800  1
  Ni  Ni14  1  0.99409000  0.70404800  0.99409000  1
  Ni  Ni15  1  0.27603700  0.01786600  0.01786600  1
  Ni  Ni16  1  0.01786600  0.01786600  0.27603700  1
  Ni  Ni17  1  0.01786600  0.27603700  0.01786600  1
  Ni  Ni18  1  0.62454400  0.98060100  0.80026900  1
  Ni  Ni19  1  0.98060100  0.80026900  0.62454400  1
  Ni  Ni20  1  0.80026900  0.62454400  0.98060100  1
  Ni  Ni21  1  0.98060100  0.62454400  0.80026900  1
  Ni  Ni22  1  0.62454400  0.80026900  0.98060100  1
  Ni  Ni23  1  0.80026900  0.98060100  0.62454400  1
  Ni  Ni24  1  0.37282400  0.02253900  0.20290900  1
  Ni  Ni25  1  0.02253900  0.20290900  0.37282400  1
  Ni  Ni26  1  0.20290900  0.37282400  0.02253900  1
  Ni  Ni27  1  0.02253900  0.37282400  0.20290900  1
  Ni  Ni28  1  0.37282400  0.20290900  0.02253900  1
  Ni  Ni29  1  0.20290900  0.02253900  0.37282400  1
  Ni  Ni30  1  0.58064800  0.17872700  0.89195000  1
  Ni  Ni31  1  0.17872700  0.89195000  0.58064800  1
  Ni  Ni32  1  0.89195000  0.58064800  0.17872700  1
  Ni  Ni33  1  0.17872700  0.58064800  0.89195000  1
  Ni  Ni34  1  0.58064800  0.89195000  0.17872700  1
  Ni  Ni35  1  0.89195000  0.17872700  0.58064800  1
  Ni  Ni36  1  0.41098600  0.82578800  0.10930000  1
  Ni  Ni37  1  0.82578800  0.10930000  0.41098600  1
  Ni  Ni38  1  0.10930000  0.41098600  0.82578800  1
  Ni  Ni39  1  0.82578800  0.41098600  0.10930000  1
  Ni  Ni40  1  0.41098600  0.10930000  0.82578800  1
  Ni  Ni41  1  0.10930000  0.82578800  0.41098600  1
  Ni  Ni42  1  0.55636700  0.12560400  0.12560400  1
  Ni  Ni43  1  0.12560400  0.12560400  0.55636700  1
  Ni  Ni44  1  0.12560400  0.55636700  0.12560400  1
  Ni  Ni45  1  0.43474600  0.87841300  0.87841300  1
  Ni  Ni46  1  0.87841300  0.87841300  0.43474600  1
  Ni  Ni47  1  0.87841300  0.43474600  0.87841300  1
  Cu  Cu48  1  0.06775600  0.06775600  0.06775600  1
