# generated using pymatgen
data_Cu5NiC3
_symmetry_space_group_name_H-M   'P 1'
_cell_length_a   8.61575414
_cell_length_b   8.61575414
_cell_length_c   15.21123300
_cell_angle_alpha   90.00000000
_cell_angle_beta   90.00000000
_cell_angle_gamma   120.00000109
_symmetry_Int_Tables_number   1
_chemical_formula_structural   Cu5NiC3
_chemical_formula_sum   'Cu20 Ni4 C12'
_cell_volume   977.87116630
_cell_formula_units_Z   4
loop_
 _symmetry_equiv_pos_site_id
 _symmetry_equiv_pos_as_xyz
  1  'x, y, z'
loop_
 _atom_site_type_symbol
 _atom_site_label
 _atom_site_symmetry_multiplicity
 _atom_site_fract_x
 _atom_site_fract_y
 _atom_site_fract_z
 _atom_site_occupancy
  C  C0  1  0.00000000  0.00000000  0.04910100  1
  C  C1  1  0.00000000  0.00000000  0.54910100  1
  C  C2  1  0.66666700  0.33333300  0.44988200  1
  C  C3  1  0.33333300  0.66666700  0.94988200  1
  C  C4  1  0.33333300  0.66666700  0.54944100  1
  C  C5  1  0.66666700  0.33333300  0.04944100  1
  C  C6  1  0.38265300  0.96494400  0.74883800  1
  C  C7  1  0.03505600  0.41770900  0.74883800  1
  C  C8  1  0.58229100  0.61734700  0.74883800  1
  C  C9  1  0.61734700  0.03505600  0.24883800  1
  C  C10  1  0.96494400  0.58229100  0.24883800  1
  C  C11  1  0.41770900  0.38265300  0.24883800  1
  Ni  Ni12  1  0.33333300  0.66666700  0.70262600  1
  Ni  Ni13  1  0.66666700  0.33333300  0.20262600  1
  Ni  Ni14  1  0.66666700  0.33333300  0.29755700  1
  Ni  Ni15  1  0.33333300  0.66666700  0.79755700  1
  Cu  Cu16  1  0.00553500  0.65290100  0.06320400  1
  Cu  Cu17  1  0.34709900  0.35263400  0.06320400  1
  Cu  Cu18  1  0.64736600  0.99446500  0.06320400  1
  Cu  Cu19  1  0.99446500  0.34709900  0.56320400  1
  Cu  Cu20  1  0.65290100  0.64736600  0.56320400  1
  Cu  Cu21  1  0.35263400  0.00553500  0.56320400  1
  Cu  Cu22  1  0.98472800  0.34334500  0.93319800  1
  Cu  Cu23  1  0.65665500  0.64138200  0.93319800  1
  Cu  Cu24  1  0.35861800  0.01527200  0.93319800  1
  Cu  Cu25  1  0.01527200  0.65665500  0.43319800  1
  Cu  Cu26  1  0.34334500  0.35861800  0.43319800  1
  Cu  Cu27  1  0.64138200  0.98472800  0.43319800  1
  Cu  Cu28  1  0.99125300  0.74792400  0.74923300  1
  Cu  Cu29  1  0.25207600  0.24332800  0.74923300  1
  Cu  Cu30  1  0.75667200  0.00874700  0.74923300  1
  Cu  Cu31  1  0.00874700  0.25207600  0.24923300  1
  Cu  Cu32  1  0.74792400  0.75667200  0.24923300  1
  Cu  Cu33  1  0.24332800  0.99125300  0.24923300  1
  Cu  Cu34  1  0.66666700  0.33333300  0.70518300  1
  Cu  Cu35  1  0.33333300  0.66666700  0.20518300  1
