# generated using pymatgen
data_Cu4Ni4C7
_symmetry_space_group_name_H-M   'P 1'
_cell_length_a   9.58748877
_cell_length_b   9.58748877
_cell_length_c   9.58748877
_cell_angle_alpha   93.96964188
_cell_angle_beta   93.96964188
_cell_angle_gamma   149.49040896
_symmetry_Int_Tables_number   1
_chemical_formula_structural   Cu4Ni4C7
_chemical_formula_sum   'Cu8 Ni8 C14'
_cell_volume   431.64682539
_cell_formula_units_Z   2
loop_
 _symmetry_equiv_pos_site_id
 _symmetry_equiv_pos_as_xyz
  1  'x, y, z'
loop_
 _atom_site_type_symbol
 _atom_site_label
 _atom_site_symmetry_multiplicity
 _atom_site_fract_x
 _atom_site_fract_y
 _atom_site_fract_z
 _atom_site_occupancy
  Ni  Ni0  1  0.69645900  0.50000000  0.19645900  1
  Ni  Ni1  1  0.50000000  0.69645900  0.19645900  1
  Ni  Ni2  1  0.50000000  0.30354100  0.80354100  1
  Ni  Ni3  1  0.30354100  0.50000000  0.80354100  1
  Ni  Ni4  1  0.86193700  0.86193700  0.72387500  1
  Ni  Ni5  1  0.13806300  0.86193700  0.00000000  1
  Ni  Ni6  1  0.86193700  0.13806300  0.00000000  1
  Ni  Ni7  1  0.13806300  0.13806300  0.27612500  1
  Cu  Cu8  1  0.10215500  0.89784500  0.50000000  1
  Cu  Cu9  1  0.89784500  0.39784500  0.79569000  1
  Cu  Cu10  1  0.60215500  0.10215500  0.20431000  1
  Cu  Cu11  1  0.10215500  0.60215500  0.20431000  1
  Cu  Cu12  1  0.60215500  0.39784500  0.50000000  1
  Cu  Cu13  1  0.39784500  0.89784500  0.79569000  1
  Cu  Cu14  1  0.89784500  0.10215500  0.50000000  1
  Cu  Cu15  1  0.39784500  0.60215500  0.50000000  1
  C  C16  1  0.74991800  0.74991800  0.00000000  1
  C  C17  1  0.25008200  0.25008200  0.00000000  1
  C  C18  1  0.09122600  0.50000000  0.59122600  1
  C  C19  1  0.50000000  0.09122600  0.59122600  1
  C  C20  1  0.50000000  0.90877400  0.40877400  1
  C  C21  1  0.90877400  0.50000000  0.40877400  1
  C  C22  1  0.69955300  0.00000000  0.69955300  1
  C  C23  1  0.00000000  0.69955300  0.69955300  1
  C  C24  1  0.71046800  0.71046800  0.42093600  1
  C  C25  1  0.28953200  0.71046800  0.00000000  1
  C  C26  1  0.30044700  0.00000000  0.30044700  1
  C  C27  1  0.71046800  0.28953200  0.00000000  1
  C  C28  1  0.28953200  0.28953200  0.57906400  1
  C  C29  1  0.00000000  0.30044700  0.30044700  1
