# generated using pymatgen
data_Cu(NiC)2
_symmetry_space_group_name_H-M   'P 1'
_cell_length_a   8.84809400
_cell_length_b   8.85538911
_cell_length_c   8.85839277
_cell_angle_alpha   109.52458799
_cell_angle_beta   109.29541323
_cell_angle_gamma   109.48181437
_symmetry_Int_Tables_number   1
_chemical_formula_structural   Cu(NiC)2
_chemical_formula_sum   'Cu8 Ni16 C16'
_cell_volume   535.04088733
_cell_formula_units_Z   8
loop_
 _symmetry_equiv_pos_site_id
 _symmetry_equiv_pos_as_xyz
  1  'x, y, z'
loop_
 _atom_site_type_symbol
 _atom_site_label
 _atom_site_symmetry_multiplicity
 _atom_site_fract_x
 _atom_site_fract_y
 _atom_site_fract_z
 _atom_site_occupancy
  C  C0  1  0.50555000  0.00612800  0.00236900  1
  C  C1  1  0.46706400  0.70908100  0.74825100  1
  C  C2  1  0.26182100  0.04550700  0.70412300  1
  C  C3  1  0.25300800  0.53640500  0.21399200  1
  C  C4  1  0.03346800  0.78331200  0.25861400  1
  C  C5  1  0.21744300  0.75052200  0.52583500  1
  C  C6  1  0.48817300  0.49536100  0.50770500  1
  C  C7  1  0.71367500  0.74429600  0.03705200  1
  C  C8  1  0.00731100  0.99621800  0.49164500  1
  C  C9  1  0.99513300  0.49131600  0.00004700  1
  C  C10  1  0.28279300  0.25689500  0.96838600  1
  C  C11  1  0.77359800  0.24757000  0.47198100  1
  C  C12  1  0.95995500  0.21501000  0.76219700  1
  C  C13  1  0.75168600  0.97188700  0.27713600  1
  C  C14  1  0.74961900  0.46734100  0.78425700  1
  C  C15  1  0.53436400  0.28628600  0.25037400  1
  Ni  Ni16  1  0.73500000  0.99250500  0.04015000  1
  Ni  Ni17  1  0.27312200  0.76619300  0.25958700  1
  Ni  Ni18  1  0.22774900  0.46856600  0.00905200  1
  Ni  Ni19  1  0.46860300  0.74590000  0.49293700  1
  Ni  Ni20  1  0.27075000  0.03505500  0.46096600  1
  Ni  Ni21  1  0.73374700  0.22819200  0.72629700  1
  Ni  Ni22  1  0.54004800  0.27431800  0.50362300  1
  Ni  Ni23  1  0.45385700  0.50239300  0.27055700  1
  Ni  Ni24  1  0.77796300  0.54900400  0.99704100  1
  Ni  Ni25  1  0.01261100  0.46802900  0.76335400  1
  Ni  Ni26  1  0.21551700  0.25698100  0.74401900  1
  Ni  Ni27  1  0.76893200  0.22534700  0.23648300  1
  Ni  Ni28  1  0.03423500  0.03967900  0.22362400  1
  Ni  Ni29  1  0.95315700  0.72545800  0.53819100  1
  Ni  Ni30  1  0.54106700  0.50472300  0.72841600  1
  Ni  Ni31  1  0.49176600  0.22736700  0.04498700  1
  Cu  Cu32  1  0.26645900  0.98620400  0.95674200  1
  Cu  Cu33  1  0.73174900  0.95950900  0.55384700  1
  Cu  Cu34  1  0.51670600  0.78276800  0.93780000  1
  Cu  Cu35  1  0.95178500  0.95450300  0.76276000  1
  Cu  Cu36  1  0.98447300  0.53545200  0.24627600  1
  Cu  Cu37  1  0.04349700  0.26913600  0.45215300  1
  Cu  Cu38  1  0.23603900  0.78026600  0.77958400  1
  Cu  Cu39  1  0.77650900  0.71931800  0.26759100  1
