# generated using pymatgen
data_Cu6NiC13
_symmetry_space_group_name_H-M   'P 1'
_cell_length_a   8.75404502
_cell_length_b   8.75404502
_cell_length_c   8.75404556
_cell_angle_alpha   72.11975717
_cell_angle_beta   72.11975717
_cell_angle_gamma   72.11975436
_symmetry_Int_Tables_number   1
_chemical_formula_structural   Cu6NiC13
_chemical_formula_sum   'Cu12 Ni2 C26'
_cell_volume   590.61050734
_cell_formula_units_Z   2
loop_
 _symmetry_equiv_pos_site_id
 _symmetry_equiv_pos_as_xyz
  1  'x, y, z'
loop_
 _atom_site_type_symbol
 _atom_site_label
 _atom_site_symmetry_multiplicity
 _atom_site_fract_x
 _atom_site_fract_y
 _atom_site_fract_z
 _atom_site_occupancy
  Ni  Ni0  1  0.75687400  0.75687400  0.75687400  1
  Ni  Ni1  1  0.24312600  0.24312600  0.24312600  1
  Cu  Cu2  1  0.83314600  0.51156500  0.44043900  1
  Cu  Cu3  1  0.44043900  0.83314600  0.51156500  1
  Cu  Cu4  1  0.51156500  0.44043900  0.83314600  1
  Cu  Cu5  1  0.16685400  0.48843500  0.55956100  1
  Cu  Cu6  1  0.55956100  0.16685400  0.48843500  1
  Cu  Cu7  1  0.48843500  0.55956100  0.16685400  1
  Cu  Cu8  1  0.97094800  0.07828800  0.67611500  1
  Cu  Cu9  1  0.67611500  0.97094800  0.07828800  1
  Cu  Cu10  1  0.07828800  0.67611500  0.97094800  1
  Cu  Cu11  1  0.02905200  0.92171200  0.32388500  1
  Cu  Cu12  1  0.32388500  0.02905200  0.92171200  1
  Cu  Cu13  1  0.92171200  0.32388500  0.02905200  1
  C  C14  1  0.89717100  0.58275800  0.60059900  1
  C  C15  1  0.60059900  0.89717100  0.58275800  1
  C  C16  1  0.58275800  0.60059900  0.89717100  1
  C  C17  1  0.10282900  0.41724200  0.39940100  1
  C  C18  1  0.39940100  0.10282900  0.41724200  1
  C  C19  1  0.41724200  0.39940100  0.10282900  1
  C  C20  1  0.86614300  0.95101300  0.61872800  1
  C  C21  1  0.61872800  0.86614300  0.95101300  1
  C  C22  1  0.95101300  0.61872800  0.86614300  1
  C  C23  1  0.13385700  0.04898700  0.38127200  1
  C  C24  1  0.38127200  0.13385700  0.04898700  1
  C  C25  1  0.04898700  0.38127200  0.13385700  1
  C  C26  1  0.58634500  0.58634500  0.58634500  1
  C  C27  1  0.41365500  0.41365500  0.41365500  1
  C  C28  1  0.80210400  0.29838400  0.55435200  1
  C  C29  1  0.55435200  0.80210400  0.29838400  1
  C  C30  1  0.29838400  0.55435200  0.80210400  1
  C  C31  1  0.19789600  0.70161600  0.44564800  1
  C  C32  1  0.44564800  0.19789600  0.70161600  1
  C  C33  1  0.70161600  0.44564800  0.19789600  1
  C  C34  1  0.11578900  0.87615500  0.80124100  1
  C  C35  1  0.80124100  0.11578900  0.87615500  1
  C  C36  1  0.87615500  0.80124100  0.11578900  1
  C  C37  1  0.88421100  0.12384500  0.19875900  1
  C  C38  1  0.19875900  0.88421100  0.12384500  1
  C  C39  1  0.12384500  0.19875900  0.88421100  1
