# generated using pymatgen
data_CuNi14C17
_symmetry_space_group_name_H-M   'P 1'
_cell_length_a   8.63169989
_cell_length_b   8.59097301
_cell_length_c   4.39283836
_cell_angle_alpha   90.00000000
_cell_angle_beta   90.00000000
_cell_angle_gamma   90.00000000
_symmetry_Int_Tables_number   1
_chemical_formula_structural   CuNi14C17
_chemical_formula_sum   'Cu1 Ni14 C17'
_cell_volume   325.74961418
_cell_formula_units_Z   1
loop_
 _symmetry_equiv_pos_site_id
 _symmetry_equiv_pos_as_xyz
  1  'x, y, z'
loop_
 _atom_site_type_symbol
 _atom_site_label
 _atom_site_symmetry_multiplicity
 _atom_site_fract_x
 _atom_site_fract_y
 _atom_site_fract_z
 _atom_site_occupancy
  C  C0  1  0.00000000  0.50000000  0.00000000  1
  Ni  Ni1  1  0.50000000  0.00000000  0.00000000  1
  Ni  Ni2  1  0.50000000  0.50000000  0.00000000  1
  Ni  Ni3  1  0.00000000  0.25402728  0.50000000  1
  Ni  Ni4  1  0.00000000  0.74597272  0.50000000  1
  Ni  Ni5  1  0.50000000  0.25155014  0.50000000  1
  Ni  Ni6  1  0.50000000  0.74844986  0.50000000  1
  Ni  Ni7  1  0.25272068  0.00000000  0.50000000  1
  Ni  Ni8  1  0.25220556  0.50000000  0.50000000  1
  Ni  Ni9  1  0.74727932  0.00000000  0.50000000  1
  Ni  Ni10  1  0.74779444  0.50000000  0.50000000  1
  Ni  Ni11  1  0.25575461  0.25253056  0.00000000  1
  Ni  Ni12  1  0.25575461  0.74746944  0.00000000  1
  Ni  Ni13  1  0.74424539  0.25253056  0.00000000  1
  Ni  Ni14  1  0.74424539  0.74746944  0.00000000  1
  Cu  Cu15  1  0.00000000  0.00000000  0.00000000  1
  C  C16  1  0.24814742  0.00000000  0.00000000  1
  C  C17  1  0.27495587  0.50000000  0.00000000  1
  C  C18  1  0.75185258  0.00000000  0.00000000  1
  C  C19  1  0.72504413  0.50000000  0.00000000  1
  C  C20  1  0.24943629  0.24791918  0.50000000  1
  C  C21  1  0.24943629  0.75208082  0.50000000  1
  C  C22  1  0.75056371  0.24791918  0.50000000  1
  C  C23  1  0.75056371  0.75208082  0.50000000  1
  C  C24  1  0.00000000  0.00000000  0.50000000  1
  C  C25  1  0.00000000  0.50000000  0.50000000  1
  C  C26  1  0.50000000  0.00000000  0.50000000  1
  C  C27  1  0.50000000  0.50000000  0.50000000  1
  C  C28  1  0.00000000  0.22167171  0.00000000  1
  C  C29  1  0.00000000  0.77832829  0.00000000  1
  C  C30  1  0.50000000  0.24235253  0.00000000  1
  C  C31  1  0.50000000  0.75764747  0.00000000  1
