# generated using pymatgen
data_CuNiC
_symmetry_space_group_name_H-M   'P 1'
_cell_length_a   3.88639300
_cell_length_b   3.89998600
_cell_length_c   17.46621700
_cell_angle_alpha   90.00000000
_cell_angle_beta   90.00000000
_cell_angle_gamma   90.00000000
_symmetry_Int_Tables_number   1
_chemical_formula_structural   CuNiC
_chemical_formula_sum   'Cu4 Ni4 C4'
_cell_volume   264.73332526
_cell_formula_units_Z   4
loop_
 _symmetry_equiv_pos_site_id
 _symmetry_equiv_pos_as_xyz
  1  'x, y, z'
loop_
 _atom_site_type_symbol
 _atom_site_label
 _atom_site_symmetry_multiplicity
 _atom_site_fract_x
 _atom_site_fract_y
 _atom_site_fract_z
 _atom_site_occupancy
  C  C0  1  0.75000000  0.24069300  0.86096700  1
  C  C1  1  0.75000000  0.25930700  0.36096700  1
  C  C2  1  0.25000000  0.75930700  0.13903300  1
  C  C3  1  0.25000000  0.74069300  0.63903300  1
  Ni  Ni4  1  0.25000000  0.22346700  0.50082500  1
  Ni  Ni5  1  0.25000000  0.27653300  0.00082500  1
  Ni  Ni6  1  0.75000000  0.77653300  0.49917500  1
  Ni  Ni7  1  0.75000000  0.72346700  0.99917500  1
  Cu  Cu8  1  0.75000000  0.24207300  0.68782400  1
  Cu  Cu9  1  0.75000000  0.25792700  0.18782400  1
  Cu  Cu10  1  0.25000000  0.75792700  0.31217600  1
  Cu  Cu11  1  0.25000000  0.74207300  0.81217600  1
