# generated using pymatgen
data_Cu3NiC3
_symmetry_space_group_name_H-M   'P 1'
_cell_length_a   6.23299100
_cell_length_b   10.17852100
_cell_length_c   12.08229871
_cell_angle_alpha   90.00000000
_cell_angle_beta   111.76407860
_cell_angle_gamma   90.00000000
_symmetry_Int_Tables_number   1
_chemical_formula_structural   Cu3NiC3
_chemical_formula_sum   'Cu24 Ni8 C24'
_cell_volume   711.89317473
_cell_formula_units_Z   8
loop_
 _symmetry_equiv_pos_site_id
 _symmetry_equiv_pos_as_xyz
  1  'x, y, z'
loop_
 _atom_site_type_symbol
 _atom_site_label
 _atom_site_symmetry_multiplicity
 _atom_site_fract_x
 _atom_site_fract_y
 _atom_site_fract_z
 _atom_site_occupancy
  C  C0  1  0.79296300  0.31306700  0.95067400  1
  C  C1  1  0.79296300  0.18693300  0.45067400  1
  C  C2  1  0.20703700  0.68693300  0.04932600  1
  C  C3  1  0.20703700  0.81306700  0.54932600  1
  C  C4  1  0.34737600  0.15313100  0.94529000  1
  C  C5  1  0.34737600  0.34686900  0.44529000  1
  C  C6  1  0.65262400  0.84686900  0.05471000  1
  C  C7  1  0.65262400  0.65313100  0.55471000  1
  C  C8  1  0.32996800  0.37399400  0.07742400  1
  C  C9  1  0.32996800  0.12600600  0.57742400  1
  C  C10  1  0.67003200  0.62600600  0.92257600  1
  C  C11  1  0.67003200  0.87399400  0.42257600  1
  C  C12  1  0.22153800  0.40994000  0.17207100  1
  C  C13  1  0.22153800  0.09006000  0.67207100  1
  C  C14  1  0.77846200  0.59006000  0.82792900  1
  C  C15  1  0.77846200  0.90994000  0.32792900  1
  C  C16  1  0.53671100  0.13392900  0.07254900  1
  C  C17  1  0.53671100  0.36607100  0.57254900  1
  C  C18  1  0.46328900  0.86607100  0.92745100  1
  C  C19  1  0.46328900  0.63392900  0.42745100  1
  C  C20  1  0.86016900  0.96471200  0.76445700  1
  C  C21  1  0.86016900  0.53528800  0.26445700  1
  C  C22  1  0.13983100  0.03528800  0.23554300  1
  C  C23  1  0.13983100  0.46471200  0.73554300  1
  Ni  Ni24  1  0.47307000  0.19854000  0.00862400  1
  Ni  Ni25  1  0.47307000  0.30146000  0.50862400  1
  Ni  Ni26  1  0.52693000  0.80146000  0.99137600  1
  Ni  Ni27  1  0.52693000  0.69854000  0.49137600  1
  Ni  Ni28  1  0.20319300  0.42253800  0.08795800  1
  Ni  Ni29  1  0.20319300  0.07746200  0.58795800  1
  Ni  Ni30  1  0.79680700  0.57746200  0.91204200  1
  Ni  Ni31  1  0.79680700  0.92253800  0.41204200  1
  Cu  Cu32  1  0.57357400  0.85844900  0.71629700  1
  Cu  Cu33  1  0.57357400  0.64155100  0.21629700  1
  Cu  Cu34  1  0.42642600  0.14155100  0.28370300  1
  Cu  Cu35  1  0.42642600  0.35844900  0.78370300  1
  Cu  Cu36  1  0.72151000  0.09082400  0.84022800  1
  Cu  Cu37  1  0.72151000  0.40917600  0.34022800  1
  Cu  Cu38  1  0.27849000  0.90917600  0.15977200  1
  Cu  Cu39  1  0.27849000  0.59082400  0.65977200  1
  Cu  Cu40  1  0.15232100  0.06641600  0.81229200  1
  Cu  Cu41  1  0.15232100  0.43358400  0.31229200  1
  Cu  Cu42  1  0.84767900  0.93358400  0.18770800  1
  Cu  Cu43  1  0.84767900  0.56641600  0.68770800  1
  Cu  Cu44  1  0.99850100  0.83996400  0.68633600  1
  Cu  Cu45  1  0.99850100  0.66003600  0.18633600  1
  Cu  Cu46  1  0.00149900  0.16003600  0.31366400  1
  Cu  Cu47  1  0.00149900  0.33996400  0.81366400  1
  Cu  Cu48  1  0.72821000  0.06615500  0.61550100  1
  Cu  Cu49  1  0.72821000  0.43384500  0.11550100  1
  Cu  Cu50  1  0.27179000  0.93384500  0.38449900  1
  Cu  Cu51  1  0.27179000  0.56615500  0.88449900  1
  Cu  Cu52  1  0.98551300  0.85996200  0.91042000  1
  Cu  Cu53  1  0.98551300  0.64003800  0.41042000  1
  Cu  Cu54  1  0.01448700  0.14003800  0.08958000  1
  Cu  Cu55  1  0.01448700  0.35996200  0.58958000  1
