# generated using pymatgen
data_Cu8Ni4C7
_symmetry_space_group_name_H-M   'P 1'
_cell_length_a   5.18677942
_cell_length_b   8.10349065
_cell_length_c   5.85316611
_cell_angle_alpha   93.97515322
_cell_angle_beta   92.83037695
_cell_angle_gamma   89.53051021
_symmetry_Int_Tables_number   1
_chemical_formula_structural   Cu8Ni4C7
_chemical_formula_sum   'Cu8 Ni4 C7'
_cell_volume   245.12047139
_cell_formula_units_Z   1
loop_
 _symmetry_equiv_pos_site_id
 _symmetry_equiv_pos_as_xyz
  1  'x, y, z'
loop_
 _atom_site_type_symbol
 _atom_site_label
 _atom_site_symmetry_multiplicity
 _atom_site_fract_x
 _atom_site_fract_y
 _atom_site_fract_z
 _atom_site_occupancy
  C  C0  1  0.48795200  0.82808100  0.83064300  1
  C  C1  1  0.48955600  0.03977000  0.45169700  1
  C  C2  1  0.66889600  0.64101900  0.22952700  1
  C  C3  1  0.49130100  0.33864900  0.83843700  1
  C  C4  1  0.95336300  0.67720800  0.68768100  1
  C  C5  1  0.00960300  0.33530600  0.34564200  1
  C  C6  1  0.99350900  0.01067200  0.99889400  1
  Ni  Ni7  1  0.82545500  0.76768800  0.97255000  1
  Ni  Ni8  1  0.65920400  0.78127200  0.52853800  1
  Ni  Ni9  1  0.68363300  0.40546700  0.12128700  1
  Ni  Ni10  1  0.32046100  0.26022300  0.55034000  1
  Cu  Cu11  1  0.78761100  0.42879000  0.65780500  1
  Cu  Cu12  1  0.85131600  0.09054500  0.31770000  1
  Cu  Cu13  1  0.64160400  0.07548400  0.82058300  1
  Cu  Cu14  1  0.30328900  0.60742800  0.84011300  1
  Cu  Cu15  1  0.35500900  0.90716200  0.13990300  1
  Cu  Cu16  1  0.08645900  0.59659300  0.38584400  1
  Cu  Cu17  1  0.19912400  0.24114900  0.02556300  1
  Cu  Cu18  1  0.17876100  0.91749100  0.68433600  1
