# generated using pymatgen
data_CuNiC8
_symmetry_space_group_name_H-M   'P 1'
_cell_length_a   7.52897564
_cell_length_b   13.47538143
_cell_length_c   13.47538117
_cell_angle_alpha   116.61363116
_cell_angle_beta   100.73345268
_cell_angle_gamma   100.73345252
_symmetry_Int_Tables_number   1
_chemical_formula_structural   CuNiC8
_chemical_formula_sum   'Cu6 Ni6 C48'
_cell_volume   1142.92442091
_cell_formula_units_Z   6
loop_
 _symmetry_equiv_pos_site_id
 _symmetry_equiv_pos_as_xyz
  1  'x, y, z'
loop_
 _atom_site_type_symbol
 _atom_site_label
 _atom_site_symmetry_multiplicity
 _atom_site_fract_x
 _atom_site_fract_y
 _atom_site_fract_z
 _atom_site_occupancy
  C  C0  1  0.75347811  0.02202289  0.42111926  1
  C  C1  1  0.33235885  0.57888074  0.60090363  1
  C  C2  1  0.73145522  0.39909637  0.97797711  1
  C  C3  1  0.25347811  0.42111926  0.02202289  1
  C  C4  1  0.23145522  0.97797711  0.39909637  1
  C  C5  1  0.83235885  0.60090363  0.57888074  1
  C  C6  1  0.11436471  0.65652353  0.25397706  1
  C  C7  1  0.86038765  0.74602294  0.40254647  1
  C  C8  1  0.45784118  0.59745353  0.34347647  1
  C  C9  1  0.61436471  0.25397706  0.65652353  1
  C  C10  1  0.95784118  0.34347647  0.59745353  1
  C  C11  1  0.36038765  0.40254647  0.74602294  1
  Ni  Ni12  1  0.52061122  0.84153564  0.38709734  1
  Ni  Ni13  1  0.13351388  0.61290266  0.45443830  1
  Ni  Ni14  1  0.67907558  0.54556170  0.15846436  1
  Ni  Ni15  1  0.02061122  0.38709734  0.84153564  1
  Ni  Ni16  1  0.17907558  0.15846436  0.54556170  1
  Ni  Ni17  1  0.63351388  0.45443830  0.61290266  1
  Cu  Cu18  1  0.65926703  0.83237912  0.15432197  1
  Cu  Cu19  1  0.50494506  0.84567803  0.67805715  1
  Cu  Cu20  1  0.82688791  0.32194285  0.16762088  1
  Cu  Cu21  1  0.15926703  0.15432197  0.83237912  1
  Cu  Cu22  1  0.32688791  0.16762088  0.32194285  1
  Cu  Cu23  1  0.00494506  0.67805715  0.84567803  1
  C  C24  1  0.69185269  0.96736711  0.24612089  1
  C  C25  1  0.44573180  0.75387911  0.72124622  1
  C  C26  1  0.72448558  0.27875378  0.03263289  1
  C  C27  1  0.19185269  0.24612089  0.96736711  1
  C  C28  1  0.22448558  0.03263289  0.27875378  1
  C  C29  1  0.94573180  0.72124622  0.75387911  1
  C  C30  1  0.46605695  0.92648536  0.38419243  1
  C  C31  1  0.08186451  0.61580757  0.54229292  1
  C  C32  1  0.53957159  0.45770708  0.07351464  1
  C  C33  1  0.96605695  0.38419243  0.92648536  1
  C  C34  1  0.03957159  0.07351464  0.45770708  1
  C  C35  1  0.58186451  0.54229292  0.61580757  1
  C  C36  1  0.70407282  0.85978814  0.41638102  1
  C  C37  1  0.28769181  0.58361898  0.44340713  1
  C  C38  1  0.84428468  0.55659287  0.14021186  1
  C  C39  1  0.20407282  0.41638102  0.85978814  1
  C  C40  1  0.34428468  0.14021186  0.55659287  1
  C  C41  1  0.78769181  0.44340713  0.58361898  1
  C  C42  1  0.40207856  0.74591305  0.36232392  1
  C  C43  1  0.03975464  0.63767608  0.38358913  1
  C  C44  1  0.65616551  0.61641087  0.25408695  1
  C  C45  1  0.90207856  0.36232392  0.74591305  1
  C  C46  1  0.15616551  0.25408695  0.61641087  1
  C  C47  1  0.53975464  0.38358913  0.63767608  1
  C  C48  1  0.04470935  0.81132124  0.32831219  1
  C  C49  1  0.71639716  0.67168781  0.48300905  1
  C  C50  1  0.23338811  0.51699095  0.18867876  1
  C  C51  1  0.54470935  0.32831219  0.81132124  1
  C  C52  1  0.73338811  0.18867876  0.51699095  1
  C  C53  1  0.21639716  0.48300905  0.67168781  1
  C  C54  1  0.24240160  0.58623200  0.12886498  1
  C  C55  1  0.11353662  0.87113502  0.45736702  1
  C  C56  1  0.65616960  0.54263298  0.41376800  1
  C  C57  1  0.74240160  0.12886498  0.58623200  1
  C  C58  1  0.15616960  0.41376800  0.54263298  1
  C  C59  1  0.61353662  0.45736702  0.87113502  1
