# generated using pymatgen
data_Cu2Ni2C5
_symmetry_space_group_name_H-M   'P 1'
_cell_length_a   8.69061800
_cell_length_b   8.76870445
_cell_length_c   14.09305078
_cell_angle_alpha   78.81188340
_cell_angle_beta   72.04138844
_cell_angle_gamma   60.29414469
_symmetry_Int_Tables_number   1
_chemical_formula_structural   Cu2Ni2C5
_chemical_formula_sum   'Cu12 Ni12 C30'
_cell_volume   886.27381203
_cell_formula_units_Z   6
loop_
 _symmetry_equiv_pos_site_id
 _symmetry_equiv_pos_as_xyz
  1  'x, y, z'
loop_
 _atom_site_type_symbol
 _atom_site_label
 _atom_site_symmetry_multiplicity
 _atom_site_fract_x
 _atom_site_fract_y
 _atom_site_fract_z
 _atom_site_occupancy
  C  C0  1  0.65632900  0.25000000  0.75000000  1
  C  C1  1  0.34367100  0.75000000  0.25000000  1
  C  C2  1  0.51123500  0.87868700  0.87725500  1
  C  C3  1  0.26717800  0.62131300  0.62274500  1
  C  C4  1  0.48876500  0.12131300  0.12274500  1
  C  C5  1  0.73282200  0.37868700  0.37725500  1
  C  C6  1  0.50990400  0.68109800  0.87564900  1
  C  C7  1  0.06665100  0.81890200  0.62435100  1
  C  C8  1  0.49009600  0.31890200  0.12435100  1
  C  C9  1  0.93334900  0.18109800  0.37564900  1
  C  C10  1  0.24790100  0.68355800  0.85850000  1
  C  C11  1  0.78995900  0.81644200  0.64150000  1
  C  C12  1  0.75209900  0.31644200  0.14150000  1
  C  C13  1  0.21004100  0.18355800  0.35850000  1
  C  C14  1  0.05191800  0.88269400  0.85224000  1
  C  C15  1  0.78685300  0.61730600  0.64776000  1
  C  C16  1  0.94808200  0.11730600  0.14776000  1
  C  C17  1  0.21314700  0.38269400  0.35224000  1
  C  C18  1  0.05304100  0.14920800  0.85635200  1
  C  C19  1  0.05860100  0.35079200  0.64364800  1
  C  C20  1  0.94695900  0.85079200  0.14364800  1
  C  C21  1  0.94139900  0.64920800  0.35635200  1
  C  C22  1  0.25026000  0.14734800  0.86418400  1
  C  C23  1  0.26179200  0.35265200  0.63581600  1
  C  C24  1  0.74974000  0.85265200  0.13581600  1
  C  C25  1  0.73820800  0.64734800  0.36418400  1
  C  C26  1  0.27022100  0.90332900  0.86531400  1
  C  C27  1  0.03886500  0.59667100  0.63468600  1
  C  C28  1  0.72977900  0.09667100  0.13468600  1
  C  C29  1  0.96113500  0.40332900  0.36531400  1
  Ni  Ni30  1  0.44368700  0.81469900  0.87178900  1
  Ni  Ni31  1  0.13017500  0.68530100  0.62821100  1
  Ni  Ni32  1  0.55631300  0.18530100  0.12821100  1
  Ni  Ni33  1  0.86982500  0.31469900  0.37178900  1
  Ni  Ni34  1  0.18210800  0.81686200  0.86088200  1
  Ni  Ni35  1  0.85985200  0.68313800  0.63911800  1
  Ni  Ni36  1  0.81789200  0.18313800  0.13911800  1
  Ni  Ni37  1  0.14014800  0.31686200  0.36088200  1
  Ni  Ni38  1  0.18371000  0.07926200  0.86378800  1
  Ni  Ni39  1  0.12676100  0.42073800  0.63621200  1
  Ni  Ni40  1  0.81629000  0.92073800  0.13621200  1
  Ni  Ni41  1  0.87323900  0.57926200  0.36378800  1
  Cu  Cu42  1  0.74540500  0.37085500  0.85749400  1
  Cu  Cu43  1  0.97375300  0.12914500  0.64250600  1
  Cu  Cu44  1  0.25459500  0.62914500  0.14250600  1
  Cu  Cu45  1  0.02624700  0.87085500  0.35749400  1
  Cu  Cu46  1  0.74353500  0.97254100  0.85513900  1
  Cu  Cu47  1  0.57121500  0.52745900  0.64486100  1
  Cu  Cu48  1  0.25646500  0.02745900  0.14486100  1
  Cu  Cu49  1  0.42878500  0.47254100  0.35513900  1
  Cu  Cu50  1  0.34090600  0.37098500  0.85861100  1
  Cu  Cu51  1  0.57050200  0.12901500  0.64138900  1
  Cu  Cu52  1  0.65909400  0.62901500  0.14138900  1
  Cu  Cu53  1  0.42949800  0.87098500  0.35861100  1
