# generated using pymatgen
data_Cu2(NiC3)3
_symmetry_space_group_name_H-M   'P 1'
_cell_length_a   6.96733359
_cell_length_b   7.91239453
_cell_length_c   7.80891925
_cell_angle_alpha   99.51442788
_cell_angle_beta   92.02717455
_cell_angle_gamma   109.21650437
_symmetry_Int_Tables_number   1
_chemical_formula_structural   Cu2(NiC3)3
_chemical_formula_sum   'Cu4 Ni6 C18'
_cell_volume   399.04686117
_cell_formula_units_Z   2
loop_
 _symmetry_equiv_pos_site_id
 _symmetry_equiv_pos_as_xyz
  1  'x, y, z'
loop_
 _atom_site_type_symbol
 _atom_site_label
 _atom_site_symmetry_multiplicity
 _atom_site_fract_x
 _atom_site_fract_y
 _atom_site_fract_z
 _atom_site_occupancy
  C  C0  1  0.00000000  0.00000000  0.00000000  1
  C  C1  1  0.00000000  0.00000000  0.50000000  1
  Ni  Ni2  1  0.84982600  0.44947500  0.07185600  1
  Ni  Ni3  1  0.15017400  0.55052500  0.92814400  1
  Ni  Ni4  1  0.20453800  0.50242400  0.74118400  1
  Ni  Ni5  1  0.79546200  0.49757600  0.25881600  1
  Ni  Ni6  1  0.01505700  0.23380400  0.79156800  1
  Ni  Ni7  1  0.98494300  0.76619600  0.20843200  1
  Cu  Cu8  1  0.29006600  0.41963800  0.32837200  1
  Cu  Cu9  1  0.70993400  0.58036200  0.67162800  1
  Cu  Cu10  1  0.46813800  0.02764100  0.76102900  1
  Cu  Cu11  1  0.53186200  0.97235900  0.23897100  1
  C  C12  1  0.47086400  0.72885600  0.18476300  1
  C  C13  1  0.52913600  0.27114400  0.81523700  1
  C  C14  1  0.71675600  0.05452400  0.07914700  1
  C  C15  1  0.28324400  0.94547600  0.92085300  1
  C  C16  1  0.03728800  0.90237700  0.23334100  1
  C  C17  1  0.96271200  0.09762300  0.76665900  1
  C  C18  1  0.08989700  0.47604900  0.81370000  1
  C  C19  1  0.91010300  0.52395100  0.18630000  1
  C  C20  1  0.18809600  0.27867600  0.11263300  1
  C  C21  1  0.81190400  0.72132400  0.88736700  1
  C  C22  1  0.52476400  0.36575000  0.35422100  1
  C  C23  1  0.47523600  0.63425000  0.64577900  1
  C  C24  1  0.70519100  0.03159300  0.44171900  1
  C  C25  1  0.29480900  0.96840700  0.55828100  1
  C  C26  1  0.12996600  0.28358600  0.47275000  1
  C  C27  1  0.87003400  0.71641400  0.52725000  1
