# generated using pymatgen
data_CuNiC12
_symmetry_space_group_name_H-M   'P 1'
_cell_length_a   6.84064740
_cell_length_b   6.84064740
_cell_length_c   8.27801863
_cell_angle_alpha   89.77467690
_cell_angle_beta   89.77467690
_cell_angle_gamma   105.47791723
_symmetry_Int_Tables_number   1
_chemical_formula_structural   CuNiC12
_chemical_formula_sum   'Cu1 Ni1 C12'
_cell_volume   373.30907713
_cell_formula_units_Z   1
loop_
 _symmetry_equiv_pos_site_id
 _symmetry_equiv_pos_as_xyz
  1  'x, y, z'
loop_
 _atom_site_type_symbol
 _atom_site_label
 _atom_site_symmetry_multiplicity
 _atom_site_fract_x
 _atom_site_fract_y
 _atom_site_fract_z
 _atom_site_occupancy
  C  C0  1  0.98794800  0.01205200  0.50000000  1
  C  C1  1  0.51173200  0.48826800  0.00000000  1
  C  C2  1  0.99011100  0.48921600  0.75436400  1
  C  C3  1  0.51078400  0.00988900  0.24563600  1
  Ni  Ni4  1  0.50218200  0.49781800  0.50000000  1
  Cu  Cu5  1  0.99941900  0.00058100  0.00000000  1
  C  C6  1  0.40134400  0.12710200  0.99905300  1
  C  C7  1  0.90486000  0.63530700  0.49832700  1
  C  C8  1  0.87289800  0.59865600  0.00094700  1
  C  C9  1  0.36469300  0.09514000  0.50167300  1
  C  C10  1  0.86798200  0.14328600  0.26551000  1
  C  C11  1  0.36344400  0.63411000  0.76714700  1
  C  C12  1  0.85671400  0.13201800  0.73449000  1
  C  C13  1  0.36589000  0.63655600  0.23285300  1
