# generated using pymatgen
data_CuNi2C7
_symmetry_space_group_name_H-M   'P 1'
_cell_length_a   6.09971303
_cell_length_b   6.09971303
_cell_length_c   6.14650335
_cell_angle_alpha   59.98667552
_cell_angle_beta   59.98667552
_cell_angle_gamma   59.91937366
_symmetry_Int_Tables_number   1
_chemical_formula_structural   CuNi2C7
_chemical_formula_sum   'Cu1 Ni2 C7'
_cell_volume   161.57687797
_cell_formula_units_Z   1
loop_
 _symmetry_equiv_pos_site_id
 _symmetry_equiv_pos_as_xyz
  1  'x, y, z'
loop_
 _atom_site_type_symbol
 _atom_site_label
 _atom_site_symmetry_multiplicity
 _atom_site_fract_x
 _atom_site_fract_y
 _atom_site_fract_z
 _atom_site_occupancy
  Ni  Ni0  1  0.25184600  0.25184600  0.74584500  1
  Ni  Ni1  1  0.74815400  0.74815400  0.25415500  1
  Cu  Cu2  1  0.50000000  0.50000000  0.00000000  1
  C  C3  1  0.00000000  0.00000000  0.50000000  1
  C  C4  1  0.77151100  0.77151100  0.77108900  1
  C  C5  1  0.22848900  0.22848900  0.22891100  1
  C  C6  1  0.79181900  0.25293800  0.70545900  1
  C  C7  1  0.74706200  0.20818100  0.29454100  1
  C  C8  1  0.20818100  0.74706200  0.29454100  1
  C  C9  1  0.25293800  0.79181900  0.70545900  1
