# generated using pymatgen
data_Cu4Ni4C29
_symmetry_space_group_name_H-M   'P 1'
_cell_length_a   5.24456010
_cell_length_b   6.06495794
_cell_length_c   14.74726806
_cell_angle_alpha   90.33921419
_cell_angle_beta   85.20090949
_cell_angle_gamma   90.64892974
_symmetry_Int_Tables_number   1
_chemical_formula_structural   Cu4Ni4C29
_chemical_formula_sum   'Cu4 Ni4 C29'
_cell_volume   467.40132654
_cell_formula_units_Z   1
loop_
 _symmetry_equiv_pos_site_id
 _symmetry_equiv_pos_as_xyz
  1  'x, y, z'
loop_
 _atom_site_type_symbol
 _atom_site_label
 _atom_site_symmetry_multiplicity
 _atom_site_fract_x
 _atom_site_fract_y
 _atom_site_fract_z
 _atom_site_occupancy
  C  C0  1  0.90177225  0.14728981  0.95220537  1
  Ni  Ni1  1  0.32126349  0.66712703  0.17224718  1
  Ni  Ni2  1  0.79271450  0.82813329  0.34284915  1
  Ni  Ni3  1  0.69431082  0.83745366  0.65613562  1
  Ni  Ni4  1  0.17597280  0.67436069  0.82881237  1
  C  C5  1  0.36627504  0.15287868  0.04627235  1
  C  C6  1  0.74387160  0.33376105  0.49894032  1
  C  C7  1  0.75269287  0.65656031  0.00069134  1
  C  C8  1  0.24560888  0.66650981  0.49932555  1
  Cu  Cu9  1  0.64514441  0.35792763  0.81316751  1
  Cu  Cu10  1  0.18769826  0.17138350  0.65355029  1
  Cu  Cu11  1  0.29977247  0.16681248  0.34367439  1
  Cu  Cu12  1  0.83752669  0.33733913  0.18045469  1
  C  C13  1  0.86151343  0.14274019  0.73985335  1
  C  C14  1  0.32279360  0.38945892  0.74936021  1
  C  C15  1  0.16287494  0.37330130  0.24622037  1
  C  C16  1  0.63155872  0.13007653  0.25635289  1
  C  C17  1  0.13528738  0.86591673  0.25869063  1
  C  C18  1  0.64311482  0.63031627  0.24946996  1
  C  C19  1  0.84424942  0.64324451  0.74943054  1
  C  C20  1  0.35496018  0.87530944  0.73965788  1
  C  C21  1  0.54459805  0.17085359  0.91511517  1
  C  C22  1  0.07484825  0.37588619  0.57544515  1
  C  C23  1  0.41909115  0.37493871  0.42051816  1
  C  C24  1  0.97995743  0.16103020  0.07942358  1
  C  C25  1  0.49257665  0.85825823  0.08704621  1
  C  C26  1  0.91415448  0.62188998  0.41827916  1
  C  C27  1  0.57513281  0.62615037  0.58026304  1
  C  C28  1  0.01581973  0.86407317  0.91597707  1
  C  C29  1  0.95682181  0.43241451  0.89596458  1
  C  C30  1  0.54481525  0.09955032  0.59703635  1
  C  C31  1  0.94378367  0.09545146  0.40023933  1
  C  C32  1  0.54169925  0.42114291  0.10056418  1
  C  C33  1  0.03018938  0.60472622  0.10639446  1
  C  C34  1  0.45692428  0.89084596  0.40324442  1
  C  C35  1  0.03252660  0.89435760  0.59406407  1
  C  C36  1  0.46858464  0.61677962  0.89288413  1
