# generated using pymatgen
data_Cu11Ni3C5
_symmetry_space_group_name_H-M   'P 1'
_cell_length_a   7.23969426
_cell_length_b   7.23969426
_cell_length_c   13.06352216
_cell_angle_alpha   86.63191110
_cell_angle_beta   86.63191110
_cell_angle_gamma   82.16644339
_symmetry_Int_Tables_number   1
_chemical_formula_structural   Cu11Ni3C5
_chemical_formula_sum   'Cu22 Ni6 C10'
_cell_volume   676.24757315
_cell_formula_units_Z   2
loop_
 _symmetry_equiv_pos_site_id
 _symmetry_equiv_pos_as_xyz
  1  'x, y, z'
loop_
 _atom_site_type_symbol
 _atom_site_label
 _atom_site_symmetry_multiplicity
 _atom_site_fract_x
 _atom_site_fract_y
 _atom_site_fract_z
 _atom_site_occupancy
  C  C0  1  0.79876000  0.20124000  0.75000000  1
  C  C1  1  0.20124000  0.79876000  0.25000000  1
  C  C2  1  0.32961100  0.04289800  0.64940400  1
  C  C3  1  0.95710200  0.67038900  0.85059600  1
  C  C4  1  0.41419300  0.79901900  0.94622600  1
  C  C5  1  0.20098100  0.58580700  0.55377400  1
  C  C6  1  0.58580700  0.20098100  0.05377400  1
  C  C7  1  0.79901900  0.41419300  0.44622600  1
  C  C8  1  0.04289800  0.32961100  0.14940400  1
  C  C9  1  0.67038900  0.95710200  0.35059600  1
  Ni  Ni10  1  0.84097000  0.93178000  0.59032700  1
  Ni  Ni11  1  0.15903000  0.06822000  0.40967300  1
  Ni  Ni12  1  0.93178000  0.84097000  0.09032700  1
  Ni  Ni13  1  0.06822000  0.15903000  0.90967300  1
  Ni  Ni14  1  0.50494400  0.49505600  0.25000000  1
  Ni  Ni15  1  0.49505600  0.50494400  0.75000000  1
  Cu  Cu16  1  0.85018800  0.80659600  0.52587000  1
  Cu  Cu17  1  0.19340400  0.14981200  0.97413000  1
  Cu  Cu18  1  0.63855000  0.36145000  0.25000000  1
  Cu  Cu19  1  0.36145000  0.63855000  0.75000000  1
  Cu  Cu20  1  0.80659600  0.85018800  0.02587000  1
  Cu  Cu21  1  0.14981200  0.19340400  0.47413000  1
  Cu  Cu22  1  0.95305200  0.35369000  0.67925600  1
  Cu  Cu23  1  0.35369000  0.95305200  0.17925600  1
  Cu  Cu24  1  0.64631000  0.04694800  0.82074400  1
  Cu  Cu25  1  0.04694800  0.64631000  0.32074400  1
  Cu  Cu26  1  0.61710900  0.47670700  0.82201300  1
  Cu  Cu27  1  0.52329300  0.38289100  0.67798700  1
  Cu  Cu28  1  0.38289100  0.52329300  0.17798700  1
  Cu  Cu29  1  0.47670700  0.61710900  0.32201300  1
  Cu  Cu30  1  0.91631300  0.28222300  0.91246100  1
  Cu  Cu31  1  0.71777700  0.08368700  0.58753900  1
  Cu  Cu32  1  0.08368700  0.71777700  0.08753900  1
  Cu  Cu33  1  0.28222300  0.91631300  0.41246100  1
  Cu  Cu34  1  0.07886500  0.04592400  0.83348700  1
  Cu  Cu35  1  0.95407600  0.92113500  0.66651300  1
  Cu  Cu36  1  0.92113500  0.95407600  0.16651300  1
  Cu  Cu37  1  0.04592400  0.07886500  0.33348700  1
