# generated using pymatgen
data_Cu4Ni2C
_symmetry_space_group_name_H-M   'P 1'
_cell_length_a   6.74591000
_cell_length_b   8.85271400
_cell_length_c   10.84964335
_cell_angle_alpha   67.47723565
_cell_angle_beta   90.00000000
_cell_angle_gamma   90.00000000
_symmetry_Int_Tables_number   1
_chemical_formula_structural   Cu4Ni2C
_chemical_formula_sum   'Cu16 Ni8 C4'
_cell_volume   598.51669878
_cell_formula_units_Z   4
loop_
 _symmetry_equiv_pos_site_id
 _symmetry_equiv_pos_as_xyz
  1  'x, y, z'
loop_
 _atom_site_type_symbol
 _atom_site_label
 _atom_site_symmetry_multiplicity
 _atom_site_fract_x
 _atom_site_fract_y
 _atom_site_fract_z
 _atom_site_occupancy
  C  C0  1  0.33340600  0.08337900  0.31968500  1
  C  C1  1  0.83340600  0.41662100  0.68031500  1
  C  C2  1  0.66659400  0.91662100  0.68031500  1
  C  C3  1  0.16659400  0.58337900  0.31968500  1
  Ni  Ni4  1  0.75630100  0.35535700  0.43782500  1
  Ni  Ni5  1  0.25630100  0.14464300  0.56217500  1
  Ni  Ni6  1  0.24369900  0.64464300  0.56217500  1
  Ni  Ni7  1  0.74369900  0.85535700  0.43782500  1
  Ni  Ni8  1  0.87393300  0.23337100  0.10969600  1
  Ni  Ni9  1  0.37393300  0.26662900  0.89030400  1
  Ni  Ni10  1  0.12606700  0.76662900  0.89030400  1
  Ni  Ni11  1  0.62606700  0.73337100  0.10969600  1
  Cu  Cu12  1  0.37334300  0.28131300  0.25585000  1
  Cu  Cu13  1  0.87334300  0.21868700  0.74415000  1
  Cu  Cu14  1  0.62665700  0.71868700  0.74415000  1
  Cu  Cu15  1  0.12665700  0.78131300  0.25585000  1
  Cu  Cu16  1  0.67661500  0.89609900  0.32635900  1
  Cu  Cu17  1  0.17661500  0.60390100  0.67364100  1
  Cu  Cu18  1  0.32338500  0.10390100  0.67364100  1
  Cu  Cu19  1  0.82338500  0.39609900  0.32635900  1
  Cu  Cu20  1  0.28690600  0.02336100  0.51201000  1
  Cu  Cu21  1  0.78690600  0.47663900  0.48799000  1
  Cu  Cu22  1  0.71309400  0.97663900  0.48799000  1
  Cu  Cu23  1  0.21309400  0.52336100  0.51201000  1
  Cu  Cu24  1  0.27007500  0.16171000  0.95684800  1
  Cu  Cu25  1  0.77007500  0.33829000  0.04315200  1
  Cu  Cu26  1  0.72992500  0.83829000  0.04315200  1
  Cu  Cu27  1  0.22992500  0.66171000  0.95684800  1
