# generated using pymatgen
data_Cu(NiC4)2
_symmetry_space_group_name_H-M   'P 1'
_cell_length_a   5.53156200
_cell_length_b   5.57970412
_cell_length_c   8.95157994
_cell_angle_alpha   82.85753851
_cell_angle_beta   76.63805357
_cell_angle_gamma   60.37517816
_symmetry_Int_Tables_number   1
_chemical_formula_structural   Cu(NiC4)2
_chemical_formula_sum   'Cu2 Ni4 C16'
_cell_volume   233.65184273
_cell_formula_units_Z   2
loop_
 _symmetry_equiv_pos_site_id
 _symmetry_equiv_pos_as_xyz
  1  'x, y, z'
loop_
 _atom_site_type_symbol
 _atom_site_label
 _atom_site_symmetry_multiplicity
 _atom_site_fract_x
 _atom_site_fract_y
 _atom_site_fract_z
 _atom_site_occupancy
  C  C0  1  0.16198800  0.17518000  0.49792200  1
  C  C1  1  0.83801200  0.82482000  0.50207800  1
  Ni  Ni2  1  0.50000000  0.00000000  0.00000000  1
  Ni  Ni3  1  0.00000000  0.00000000  0.00000000  1
  Ni  Ni4  1  0.50000000  0.50000000  0.50000000  1
  Ni  Ni5  1  0.50000000  0.50000000  0.00000000  1
  Cu  Cu6  1  0.06804400  0.50011600  0.81183100  1
  Cu  Cu7  1  0.93195600  0.49988400  0.18816900  1
  C  C8  1  0.13313100  0.50083300  0.62141400  1
  C  C9  1  0.86686900  0.49916700  0.37858600  1
  C  C10  1  0.21013200  0.66297200  0.87179100  1
  C  C11  1  0.78986800  0.33702800  0.12820900  1
  C  C12  1  0.75906700  0.19059600  0.59666600  1
  C  C13  1  0.24093300  0.80940400  0.40333400  1
  C  C14  1  0.55196600  0.18948500  0.40976200  1
  C  C15  1  0.44803400  0.81051500  0.59023800  1
  C  C16  1  0.70144000  0.16938900  0.90331200  1
  C  C17  1  0.29856000  0.83061100  0.09668800  1
  C  C18  1  0.20661100  0.17714700  0.87452500  1
  C  C19  1  0.79338900  0.82285300  0.12547500  1
  C  C20  1  0.72132400  0.66390200  0.87362500  1
  C  C21  1  0.27867600  0.33609800  0.12637500  1
