# generated using pymatgen
data_Cu4Ni2C9
_symmetry_space_group_name_H-M   'P 1'
_cell_length_a   9.40458300
_cell_length_b   5.99565500
_cell_length_c   11.52638518
_cell_angle_alpha   68.97404099
_cell_angle_beta   90.00000000
_cell_angle_gamma   90.00000000
_symmetry_Int_Tables_number   1
_chemical_formula_structural   Cu4Ni2C9
_chemical_formula_sum   'Cu16 Ni8 C36'
_cell_volume   606.66014177
_cell_formula_units_Z   4
loop_
 _symmetry_equiv_pos_site_id
 _symmetry_equiv_pos_as_xyz
  1  'x, y, z'
loop_
 _atom_site_type_symbol
 _atom_site_label
 _atom_site_symmetry_multiplicity
 _atom_site_fract_x
 _atom_site_fract_y
 _atom_site_fract_z
 _atom_site_occupancy
  C  C0  1  0.91686000  0.74938100  0.76730100  1
  C  C1  1  0.08314000  0.74938100  0.26730100  1
  C  C2  1  0.57823900  0.24861200  0.23532400  1
  C  C3  1  0.42176100  0.24861200  0.73532400  1
  C  C4  1  0.68597900  0.80590900  0.88301400  1
  C  C5  1  0.31402100  0.80590900  0.38301400  1
  C  C6  1  0.81943000  0.20596000  0.11840000  1
  C  C7  1  0.18057000  0.20596000  0.61840000  1
  C  C8  1  0.93667600  0.17335400  0.79394600  1
  C  C9  1  0.06332400  0.17335400  0.29394600  1
  C  C10  1  0.56009500  0.82734600  0.20586200  1
  C  C11  1  0.43990500  0.82734600  0.70586200  1
  C  C12  1  0.76290400  0.46239200  0.68955800  1
  C  C13  1  0.23709600  0.46239200  0.18955800  1
  C  C14  1  0.73585700  0.53729600  0.31528300  1
  C  C15  1  0.26414300  0.53729600  0.81528300  1
  C  C16  1  0.82599300  0.12703400  0.56529400  1
  C  C17  1  0.17400700  0.12703400  0.06529400  1
  C  C18  1  0.67281100  0.87321300  0.43498200  1
  C  C19  1  0.32718900  0.87321300  0.93498200  1
  C  C20  1  0.90287900  0.51270400  0.61216700  1
  C  C21  1  0.09712100  0.51270400  0.11216700  1
  C  C22  1  0.59159500  0.48991500  0.38635100  1
  C  C23  1  0.40840500  0.48991500  0.88635100  1
  C  C24  1  0.94919500  0.96765300  0.92648000  1
  C  C25  1  0.05080500  0.96765300  0.42648000  1
  C  C26  1  0.55096900  0.03231200  0.07204700  1
  C  C27  1  0.44903100  0.03231200  0.57204700  1
  C  C28  1  0.68680500  0.00563300  0.64413800  1
  C  C29  1  0.31319500  0.00563300  0.14413800  1
  C  C30  1  0.81289600  0.99222200  0.35678300  1
  C  C31  1  0.18710400  0.99222200  0.85678300  1
  C  C32  1  0.72899100  0.53113000  0.94702600  1
  C  C33  1  0.27100900  0.53113000  0.44702600  1
  C  C34  1  0.82252900  0.46962700  0.12595900  1
  C  C35  1  0.17747100  0.46962700  0.62595900  1
  Ni  Ni36  1  0.06186700  0.47595000  0.93181900  1
  Ni  Ni37  1  0.93813300  0.47595000  0.43181900  1
  Ni  Ni38  1  0.43578600  0.52217200  0.06962600  1
  Ni  Ni39  1  0.56421400  0.52217200  0.56962600  1
  Ni  Ni40  1  0.11069400  0.85065900  0.62076300  1
  Ni  Ni41  1  0.88930600  0.85065900  0.12076300  1
  Ni  Ni42  1  0.38951300  0.13356400  0.38176800  1
  Ni  Ni43  1  0.61048700  0.13356400  0.88176800  1
  Cu  Cu44  1  0.97961200  0.01383700  0.83822600  1
  Cu  Cu45  1  0.02038800  0.01383700  0.33822600  1
  Cu  Cu46  1  0.52198700  0.98978600  0.16064600  1
  Cu  Cu47  1  0.47801300  0.98978600  0.66064600  1
  Cu  Cu48  1  0.73298300  0.66916200  0.86865100  1
  Cu  Cu49  1  0.26701700  0.66916200  0.36865100  1
  Cu  Cu50  1  0.76031400  0.34309500  0.11782700  1
  Cu  Cu51  1  0.23968600  0.34309500  0.61782700  1
  Cu  Cu52  1  0.78940100  0.98668500  0.63294500  1
  Cu  Cu53  1  0.21059900  0.98668500  0.13294500  1
  Cu  Cu54  1  0.71031600  0.01281400  0.36729800  1
  Cu  Cu55  1  0.28968400  0.01281400  0.86729800  1
  Cu  Cu56  1  0.86739600  0.47302300  0.69856500  1
  Cu  Cu57  1  0.13260400  0.47302300  0.19856500  1
  Cu  Cu58  1  0.63228800  0.52555900  0.30195200  1
  Cu  Cu59  1  0.36771200  0.52555900  0.80195200  1
