# generated using pymatgen
data_Cu7Ni2C
_symmetry_space_group_name_H-M   'P 1'
_cell_length_a   10.11294364
_cell_length_b   10.11294364
_cell_length_c   11.06670800
_cell_angle_alpha   90.00000000
_cell_angle_beta   90.00000000
_cell_angle_gamma   119.99999767
_symmetry_Int_Tables_number   1
_chemical_formula_structural   Cu7Ni2C
_chemical_formula_sum   'Cu42 Ni12 C6'
_cell_volume   980.17645736
_cell_formula_units_Z   6
loop_
 _symmetry_equiv_pos_site_id
 _symmetry_equiv_pos_as_xyz
  1  'x, y, z'
loop_
 _atom_site_type_symbol
 _atom_site_label
 _atom_site_symmetry_multiplicity
 _atom_site_fract_x
 _atom_site_fract_y
 _atom_site_fract_z
 _atom_site_occupancy
  C  C0  1  0.33333300  0.66666700  0.94003200  1
  C  C1  1  0.66666700  0.33333300  0.05996800  1
  C  C2  1  0.66666700  0.33333300  0.63527400  1
  C  C3  1  0.33333300  0.66666700  0.36472600  1
  C  C4  1  0.00000000  0.00000000  0.74024600  1
  C  C5  1  0.00000000  0.00000000  0.25975400  1
  Ni  Ni6  1  0.33505900  0.05656900  0.84226300  1
  Ni  Ni7  1  0.94343100  0.27849000  0.84226300  1
  Ni  Ni8  1  0.72151000  0.66494100  0.84226300  1
  Ni  Ni9  1  0.66494100  0.94343100  0.15773700  1
  Ni  Ni10  1  0.05656900  0.72151000  0.15773700  1
  Ni  Ni11  1  0.27849000  0.33505900  0.15773700  1
  Ni  Ni12  1  0.16438400  0.35565800  0.64760900  1
  Ni  Ni13  1  0.64434200  0.80872600  0.64760900  1
  Ni  Ni14  1  0.19127400  0.83561600  0.64760900  1
  Ni  Ni15  1  0.83561600  0.64434200  0.35239100  1
  Ni  Ni16  1  0.35565800  0.19127400  0.35239100  1
  Ni  Ni17  1  0.80872600  0.16438400  0.35239100  1
  Cu  Cu18  1  0.12362800  0.18938800  0.63062100  1
  Cu  Cu19  1  0.81061200  0.93424000  0.63062100  1
  Cu  Cu20  1  0.06576000  0.87637200  0.63062100  1
  Cu  Cu21  1  0.87637200  0.81061200  0.36937900  1
  Cu  Cu22  1  0.18938800  0.06576000  0.36937900  1
  Cu  Cu23  1  0.93424000  0.12362800  0.36937900  1
  Cu  Cu24  1  0.18281300  0.05131200  0.85366300  1
  Cu  Cu25  1  0.94868800  0.13150100  0.85366300  1
  Cu  Cu26  1  0.86849900  0.81718700  0.85366300  1
  Cu  Cu27  1  0.81718700  0.94868800  0.14633700  1
  Cu  Cu28  1  0.05131200  0.86849900  0.14633700  1
  Cu  Cu29  1  0.13150100  0.18281300  0.14633700  1
  Cu  Cu30  1  0.33417500  0.99761100  0.70167600  1
  Cu  Cu31  1  0.00238900  0.33656400  0.70167600  1
  Cu  Cu32  1  0.66343600  0.66582500  0.70167600  1
  Cu  Cu33  1  0.66582500  0.00238900  0.29832400  1
  Cu  Cu34  1  0.99761100  0.66343600  0.29832400  1
  Cu  Cu35  1  0.33656400  0.33417500  0.29832400  1
  Cu  Cu36  1  0.46064000  0.21067000  0.83629500  1
  Cu  Cu37  1  0.78933000  0.24997000  0.83629500  1
  Cu  Cu38  1  0.75003000  0.53936000  0.83629500  1
  Cu  Cu39  1  0.53936000  0.78933000  0.16370500  1
  Cu  Cu40  1  0.21067000  0.75003000  0.16370500  1
  Cu  Cu41  1  0.24997000  0.46064000  0.16370500  1
  Cu  Cu42  1  0.17661100  0.42405200  0.53194400  1
  Cu  Cu43  1  0.57594800  0.75256000  0.53194400  1
  Cu  Cu44  1  0.24744000  0.82338900  0.53194400  1
  Cu  Cu45  1  0.82338900  0.57594800  0.46805600  1
  Cu  Cu46  1  0.42405200  0.24744000  0.46805600  1
  Cu  Cu47  1  0.75256000  0.17661100  0.46805600  1
  Cu  Cu48  1  0.34390300  0.95295300  0.92551100  1
  Cu  Cu49  1  0.04704700  0.39095000  0.92551100  1
  Cu  Cu50  1  0.60905000  0.65609700  0.92551100  1
  Cu  Cu51  1  0.65609700  0.04704700  0.07448900  1
  Cu  Cu52  1  0.95295300  0.60905000  0.07448900  1
  Cu  Cu53  1  0.39095000  0.34390300  0.07448900  1
  Cu  Cu54  1  0.28139100  0.43375400  0.73671600  1
  Cu  Cu55  1  0.56624600  0.84763600  0.73671600  1
  Cu  Cu56  1  0.15236400  0.71860900  0.73671600  1
  Cu  Cu57  1  0.71860900  0.56624600  0.26328400  1
  Cu  Cu58  1  0.43375400  0.15236400  0.26328400  1
  Cu  Cu59  1  0.84763600  0.28139100  0.26328400  1
