# generated using pymatgen
data_Cu12Ni2C5
_symmetry_space_group_name_H-M   'P 1'
_cell_length_a   10.08649200
_cell_length_b   10.08649200
_cell_length_c   10.08649200
_cell_angle_alpha   90.00000000
_cell_angle_beta   90.00000000
_cell_angle_gamma   90.00000000
_symmetry_Int_Tables_number   1
_chemical_formula_structural   Cu12Ni2C5
_chemical_formula_sum   'Cu48 Ni8 C20'
_cell_volume   1026.17267302
_cell_formula_units_Z   4
loop_
 _symmetry_equiv_pos_site_id
 _symmetry_equiv_pos_as_xyz
  1  'x, y, z'
loop_
 _atom_site_type_symbol
 _atom_site_label
 _atom_site_symmetry_multiplicity
 _atom_site_fract_x
 _atom_site_fract_y
 _atom_site_fract_z
 _atom_site_occupancy
  C  C0  1  0.33523200  0.33523200  0.33523200  1
  C  C1  1  0.16476800  0.66476800  0.83523200  1
  C  C2  1  0.66476800  0.83523200  0.16476800  1
  C  C3  1  0.83523200  0.16476800  0.66476800  1
  C  C4  1  0.59990600  0.59990600  0.59990600  1
  C  C5  1  0.90009400  0.40009400  0.09990600  1
  C  C6  1  0.40009400  0.09990600  0.90009400  1
  C  C7  1  0.09990600  0.90009400  0.40009400  1
  C  C8  1  0.01844400  0.21358800  0.37602700  1
  C  C9  1  0.48155600  0.78641200  0.87602700  1
  C  C10  1  0.98155600  0.71358800  0.12397300  1
  C  C11  1  0.37602700  0.01844400  0.21358800  1
  C  C12  1  0.51844400  0.28641200  0.62397300  1
  C  C13  1  0.87602700  0.48155600  0.78641200  1
  C  C14  1  0.12397300  0.98155600  0.71358800  1
  C  C15  1  0.62397300  0.51844400  0.28641200  1
  C  C16  1  0.21358800  0.37602700  0.01844400  1
  C  C17  1  0.71358800  0.12397300  0.98155600  1
  C  C18  1  0.28641200  0.62397300  0.51844400  1
  C  C19  1  0.78641200  0.87602700  0.48155600  1
  Ni  Ni20  1  0.04501700  0.04501700  0.04501700  1
  Ni  Ni21  1  0.45498300  0.95498300  0.54501700  1
  Ni  Ni22  1  0.95498300  0.54501700  0.45498300  1
  Ni  Ni23  1  0.54501700  0.45498300  0.95498300  1
  Ni  Ni24  1  0.81715200  0.81715200  0.81715200  1
  Ni  Ni25  1  0.68284800  0.18284800  0.31715200  1
  Ni  Ni26  1  0.18284800  0.31715200  0.68284800  1
  Ni  Ni27  1  0.31715200  0.68284800  0.18284800  1
  Cu  Cu28  1  0.00964700  0.07037200  0.33585400  1
  Cu  Cu29  1  0.49035300  0.92962800  0.83585400  1
  Cu  Cu30  1  0.99035300  0.57037200  0.16414600  1
  Cu  Cu31  1  0.33585400  0.00964700  0.07037200  1
  Cu  Cu32  1  0.50964700  0.42962800  0.66414600  1
  Cu  Cu33  1  0.83585400  0.49035300  0.92962800  1
  Cu  Cu34  1  0.16414600  0.99035300  0.57037200  1
  Cu  Cu35  1  0.66414600  0.50964700  0.42962800  1
  Cu  Cu36  1  0.07037200  0.33585400  0.00964700  1
  Cu  Cu37  1  0.57037200  0.16414600  0.99035300  1
  Cu  Cu38  1  0.42962800  0.66414600  0.50964700  1
  Cu  Cu39  1  0.92962800  0.83585400  0.49035300  1
  Cu  Cu40  1  0.26456200  0.49792700  0.44593100  1
  Cu  Cu41  1  0.23543800  0.50207300  0.94593100  1
  Cu  Cu42  1  0.73543800  0.99792700  0.05406900  1
  Cu  Cu43  1  0.44593100  0.26456200  0.49792700  1
  Cu  Cu44  1  0.76456200  0.00207300  0.55406900  1
  Cu  Cu45  1  0.94593100  0.23543800  0.50207300  1
  Cu  Cu46  1  0.05406900  0.73543800  0.99792700  1
  Cu  Cu47  1  0.55406900  0.76456200  0.00207300  1
  Cu  Cu48  1  0.49792700  0.44593100  0.26456200  1
  Cu  Cu49  1  0.99792700  0.05406900  0.73543800  1
  Cu  Cu50  1  0.00207300  0.55406900  0.76456200  1
  Cu  Cu51  1  0.50207300  0.94593100  0.23543800  1
  Cu  Cu52  1  0.04195100  0.78977800  0.23216000  1
  Cu  Cu53  1  0.45804900  0.21022200  0.73216000  1
  Cu  Cu54  1  0.95804900  0.28977800  0.26784000  1
  Cu  Cu55  1  0.23216000  0.04195100  0.78977800  1
  Cu  Cu56  1  0.54195100  0.71022200  0.76784000  1
  Cu  Cu57  1  0.73216000  0.45804900  0.21022200  1
  Cu  Cu58  1  0.26784000  0.95804900  0.28977800  1
  Cu  Cu59  1  0.76784000  0.54195100  0.71022200  1
  Cu  Cu60  1  0.78977800  0.23216000  0.04195100  1
  Cu  Cu61  1  0.28977800  0.26784000  0.95804900  1
  Cu  Cu62  1  0.71022200  0.76784000  0.54195100  1
  Cu  Cu63  1  0.21022200  0.73216000  0.45804900  1
  Cu  Cu64  1  0.15817200  0.25145500  0.40021500  1
  Cu  Cu65  1  0.34182800  0.74854500  0.90021500  1
  Cu  Cu66  1  0.84182800  0.75145500  0.09978500  1
  Cu  Cu67  1  0.40021500  0.15817200  0.25145500  1
  Cu  Cu68  1  0.65817200  0.24854500  0.59978500  1
  Cu  Cu69  1  0.90021500  0.34182800  0.74854500  1
  Cu  Cu70  1  0.09978500  0.84182800  0.75145500  1
  Cu  Cu71  1  0.59978500  0.65817200  0.24854500  1
  Cu  Cu72  1  0.25145500  0.40021500  0.15817200  1
  Cu  Cu73  1  0.75145500  0.09978500  0.84182800  1
  Cu  Cu74  1  0.24854500  0.59978500  0.65817200  1
  Cu  Cu75  1  0.74854500  0.90021500  0.34182800  1
