# generated using pymatgen
data_CuNiC6
_symmetry_space_group_name_H-M   'P 1'
_cell_length_a   6.18135900
_cell_length_b   7.14786600
_cell_length_c   11.02454900
_cell_angle_alpha   90.00000000
_cell_angle_beta   90.00000000
_cell_angle_gamma   90.00000000
_symmetry_Int_Tables_number   1
_chemical_formula_structural   CuNiC6
_chemical_formula_sum   'Cu4 Ni4 C24'
_cell_volume   487.10344550
_cell_formula_units_Z   4
loop_
 _symmetry_equiv_pos_site_id
 _symmetry_equiv_pos_as_xyz
  1  'x, y, z'
loop_
 _atom_site_type_symbol
 _atom_site_label
 _atom_site_symmetry_multiplicity
 _atom_site_fract_x
 _atom_site_fract_y
 _atom_site_fract_z
 _atom_site_occupancy
  C  C0  1  0.60943000  0.25000000  0.50000000  1
  C  C1  1  0.60943000  0.25000000  0.00000000  1
  C  C2  1  0.39057000  0.75000000  0.50000000  1
  C  C3  1  0.39057000  0.75000000  0.00000000  1
  C  C4  1  0.86815800  0.53280200  0.75000000  1
  C  C5  1  0.86815800  0.96719800  0.25000000  1
  C  C6  1  0.13184200  0.03280200  0.75000000  1
  C  C7  1  0.13184200  0.46719800  0.25000000  1
  Ni  Ni8  1  0.11428000  0.25000000  0.50000000  1
  Ni  Ni9  1  0.88572000  0.75000000  0.50000000  1
  Ni  Ni10  1  0.88572000  0.75000000  0.00000000  1
  Ni  Ni11  1  0.11428000  0.25000000  0.00000000  1
  Cu  Cu12  1  0.57270200  0.87850300  0.75000000  1
  Cu  Cu13  1  0.57270200  0.62149700  0.25000000  1
  Cu  Cu14  1  0.42729800  0.37850300  0.75000000  1
  Cu  Cu15  1  0.42729800  0.12149700  0.25000000  1
  C  C16  1  0.27394700  0.42752800  0.03205400  1
  C  C17  1  0.27394700  0.07247200  0.96794600  1
  C  C18  1  0.72605300  0.92752800  0.46794600  1
  C  C19  1  0.72605300  0.57247200  0.53205400  1
  C  C20  1  0.72605300  0.57247200  0.96794600  1
  C  C21  1  0.72605300  0.92752800  0.03205400  1
  C  C22  1  0.27394700  0.07247200  0.53205400  1
  C  C23  1  0.27394700  0.42752800  0.46794600  1
  C  C24  1  0.04898600  0.73632000  0.11877300  1
  C  C25  1  0.04898600  0.73632000  0.38122700  1
  C  C26  1  0.95101400  0.23632000  0.38122700  1
  C  C27  1  0.95101400  0.26368000  0.61877300  1
  C  C28  1  0.95101400  0.26368000  0.88122700  1
  C  C29  1  0.95101400  0.23632000  0.11877300  1
  C  C30  1  0.04898600  0.76368000  0.61877300  1
  C  C31  1  0.04898600  0.76368000  0.88122700  1
