# generated using pymatgen
data_Cu(NiC4)2
_symmetry_space_group_name_H-M   'P 1'
_cell_length_a   6.88454400
_cell_length_b   7.29126200
_cell_length_c   11.40249336
_cell_angle_alpha   82.32876734
_cell_angle_beta   90.00000000
_cell_angle_gamma   90.00000000
_symmetry_Int_Tables_number   1
_chemical_formula_structural   Cu(NiC4)2
_chemical_formula_sum   'Cu4 Ni8 C32'
_cell_volume   567.24859649
_cell_formula_units_Z   4
loop_
 _symmetry_equiv_pos_site_id
 _symmetry_equiv_pos_as_xyz
  1  'x, y, z'
loop_
 _atom_site_type_symbol
 _atom_site_label
 _atom_site_symmetry_multiplicity
 _atom_site_fract_x
 _atom_site_fract_y
 _atom_site_fract_z
 _atom_site_occupancy
  C  C0  1  0.04759900  0.99986800  0.62270200  1
  C  C1  1  0.54759900  0.00013200  0.87729800  1
  C  C2  1  0.95240100  0.00013200  0.37729800  1
  C  C3  1  0.45240100  0.99986800  0.12270200  1
  C  C4  1  0.08292000  0.86847900  0.94782800  1
  C  C5  1  0.58292000  0.13152100  0.55217200  1
  C  C6  1  0.91708000  0.13152100  0.05217200  1
  C  C7  1  0.41708000  0.86847900  0.44782800  1
  C  C8  1  0.20613600  0.65039000  0.94926500  1
  C  C9  1  0.70613600  0.34961000  0.55073500  1
  C  C10  1  0.79386400  0.34961000  0.05073500  1
  C  C11  1  0.29386400  0.65039000  0.44926500  1
  C  C12  1  0.98907700  0.70094700  0.86056700  1
  C  C13  1  0.48907700  0.29905300  0.63943300  1
  C  C14  1  0.01092300  0.29905300  0.13943300  1
  C  C15  1  0.51092300  0.70094700  0.36056700  1
  C  C16  1  0.50825600  0.67082500  0.65891000  1
  C  C17  1  0.00825600  0.32917500  0.84109000  1
  C  C18  1  0.49174400  0.32917500  0.34109000  1
  C  C19  1  0.99174400  0.67082500  0.15891000  1
  C  C20  1  0.42747800  0.54638400  0.79769000  1
  C  C21  1  0.92747800  0.45361600  0.70231000  1
  C  C22  1  0.57252200  0.45361600  0.20231000  1
  C  C23  1  0.07252200  0.54638400  0.29769000  1
  C  C24  1  0.26778300  0.57087200  0.67086900  1
  C  C25  1  0.76778300  0.42912800  0.82913100  1
  C  C26  1  0.73221700  0.42912800  0.32913100  1
  C  C27  1  0.23221700  0.57087200  0.17086900  1
  Ni  Ni28  1  0.38347000  0.63529800  0.71725000  1
  Ni  Ni29  1  0.88347000  0.36470200  0.78275000  1
  Ni  Ni30  1  0.61653000  0.36470200  0.28275000  1
  Ni  Ni31  1  0.11653000  0.63529800  0.21725000  1
  Ni  Ni32  1  0.12035200  0.75721900  0.89623700  1
  Ni  Ni33  1  0.62035200  0.24278100  0.60376300  1
  Ni  Ni34  1  0.87964800  0.24278100  0.10376300  1
  Ni  Ni35  1  0.37964800  0.75721900  0.39623700  1
  C  C36  1  0.28543000  0.86853100  0.76493800  1
  C  C37  1  0.78543000  0.13146900  0.73506200  1
  C  C38  1  0.71457000  0.13146900  0.23506200  1
  C  C39  1  0.21457000  0.86853100  0.26493800  1
  Cu  Cu40  1  0.13167500  0.22452200  0.46677400  1
  Cu  Cu41  1  0.63167500  0.77547800  0.03322600  1
  Cu  Cu42  1  0.86832500  0.77547800  0.53322600  1
  Cu  Cu43  1  0.36832500  0.22452200  0.96677400  1
