# generated using pymatgen
data_Cu(NiC10)2
_symmetry_space_group_name_H-M   'P 1'
_cell_length_a   5.39396454
_cell_length_b   10.40754024
_cell_length_c   7.86287715
_cell_angle_alpha   100.72872301
_cell_angle_beta   90.11983899
_cell_angle_gamma   78.87187023
_symmetry_Int_Tables_number   1
_chemical_formula_structural   Cu(NiC10)2
_chemical_formula_sum   'Cu1 Ni2 C20'
_cell_volume   425.27306165
_cell_formula_units_Z   1
loop_
 _symmetry_equiv_pos_site_id
 _symmetry_equiv_pos_as_xyz
  1  'x, y, z'
loop_
 _atom_site_type_symbol
 _atom_site_label
 _atom_site_symmetry_multiplicity
 _atom_site_fract_x
 _atom_site_fract_y
 _atom_site_fract_z
 _atom_site_occupancy
  Ni  Ni0  1  0.08882600  0.68963500  0.91114600  1
  Ni  Ni1  1  0.92310700  0.30931800  0.07574000  1
  Cu  Cu2  1  0.50877600  0.99992900  0.99533100  1
  C  C3  1  0.17696000  0.57694700  0.35504700  1
  C  C4  1  0.84560100  0.40031700  0.59208800  1
  C  C5  1  0.62184300  0.72531200  0.23965300  1
  C  C6  1  0.38035500  0.28889500  0.76145700  1
  C  C7  1  0.60277700  0.71694500  0.60685900  1
  C  C8  1  0.39364500  0.26452000  0.38624500  1
  C  C9  1  0.64251700  0.31533100  0.38186500  1
  C  C10  1  0.36131300  0.65870800  0.59008900  1
  C  C11  1  0.60715000  0.81909200  0.77174400  1
  C  C12  1  0.36031500  0.15531600  0.23729400  1
  C  C13  1  0.15801000  0.38101600  0.40665300  1
  C  C14  1  0.84239800  0.60478900  0.59515400  1
  C  C15  1  0.62953900  0.79079800  0.44511100  1
  C  C16  1  0.38554700  0.20501800  0.56308800  1
  C  C17  1  0.13250700  0.39551800  0.78578100  1
  C  C18  1  0.83965800  0.60083800  0.20276400  1
  C  C19  1  0.61729900  0.35152800  0.78106700  1
  C  C20  1  0.35978600  0.68950500  0.20929600  1
  C  C21  1  0.37395900  0.18715700  0.87633400  1
  C  C22  1  0.67311100  0.82892500  0.13852800  1
