# generated using pymatgen
data_Cu2NiC7
_symmetry_space_group_name_H-M   'P 1'
_cell_length_a   8.32599329
_cell_length_b   8.32599329
_cell_length_c   12.12354257
_cell_angle_alpha   59.71223911
_cell_angle_beta   59.71223911
_cell_angle_gamma   58.42497209
_symmetry_Int_Tables_number   1
_chemical_formula_structural   Cu2NiC7
_chemical_formula_sum   'Cu8 Ni4 C28'
_cell_volume   584.37343348
_cell_formula_units_Z   4
loop_
 _symmetry_equiv_pos_site_id
 _symmetry_equiv_pos_as_xyz
  1  'x, y, z'
loop_
 _atom_site_type_symbol
 _atom_site_label
 _atom_site_symmetry_multiplicity
 _atom_site_fract_x
 _atom_site_fract_y
 _atom_site_fract_z
 _atom_site_occupancy
  Ni  Ni0  1  0.76165300  0.76165300  0.48041900  1
  Ni  Ni1  1  0.26875200  0.26875200  0.15484100  1
  Ni  Ni2  1  0.73124800  0.73124800  0.84515900  1
  Ni  Ni3  1  0.23834700  0.23834700  0.51958100  1
  Cu  Cu4  1  0.24055400  0.75944600  0.50000000  1
  Cu  Cu5  1  0.75944600  0.24055400  0.50000000  1
  Cu  Cu6  1  0.74166200  0.74166200  0.17986900  1
  Cu  Cu7  1  0.25833800  0.25833800  0.82013100  1
  Cu  Cu8  1  0.26537200  0.74009300  0.81868800  1
  Cu  Cu9  1  0.74009300  0.26537200  0.81868800  1
  Cu  Cu10  1  0.25990700  0.73462800  0.18131200  1
  Cu  Cu11  1  0.73462800  0.25990700  0.18131200  1
  C  C12  1  0.37907900  0.85635800  0.26360100  1
  C  C13  1  0.85635800  0.37907900  0.26360100  1
  C  C14  1  0.36990500  0.83318100  0.58452000  1
  C  C15  1  0.83318100  0.36990500  0.58452000  1
  C  C16  1  0.99381300  0.99381300  0.23226800  1
  C  C17  1  0.60609400  0.60609400  0.75113100  1
  C  C18  1  0.89427000  0.89427000  0.57665300  1
  C  C19  1  0.00463600  0.67281800  0.00134100  1
  C  C20  1  0.67281800  0.00463600  0.00134100  1
  C  C21  1  0.39390600  0.39390600  0.24886900  1
  C  C22  1  0.99536400  0.32718200  0.99865900  1
  C  C23  1  0.32718200  0.99536400  0.99865900  1
  C  C24  1  0.14364200  0.62092100  0.73639900  1
  C  C25  1  0.62092100  0.14364200  0.73639900  1
  C  C26  1  0.32107200  0.67892800  0.00000000  1
  C  C27  1  0.67892800  0.32107200  0.00000000  1
  C  C28  1  0.00618700  0.00618700  0.76773200  1
  C  C29  1  0.60374900  0.60374900  0.41361100  1
  C  C30  1  0.99893000  0.65504900  0.23996300  1
  C  C31  1  0.65504900  0.99893000  0.23996300  1
  C  C32  1  0.00107000  0.34495100  0.76003700  1
  C  C33  1  0.34495100  0.00107000  0.76003700  1
  C  C34  1  0.38772900  0.38772900  0.88348600  1
  C  C35  1  0.10573000  0.10573000  0.42334700  1
  C  C36  1  0.39625100  0.39625100  0.58638900  1
  C  C37  1  0.16681900  0.63009500  0.41548000  1
  C  C38  1  0.63009500  0.16681900  0.41548000  1
  C  C39  1  0.61227100  0.61227100  0.11651400  1
