# generated using pymatgen
data_CuNi3C7
_symmetry_space_group_name_H-M   'P 1'
_cell_length_a   6.22859600
_cell_length_b   7.60895638
_cell_length_c   11.92469824
_cell_angle_alpha   98.97641136
_cell_angle_beta   90.00000000
_cell_angle_gamma   90.00000000
_symmetry_Int_Tables_number   1
_chemical_formula_structural   CuNi3C7
_chemical_formula_sum   'Cu4 Ni12 C28'
_cell_volume   558.22703177
_cell_formula_units_Z   4
loop_
 _symmetry_equiv_pos_site_id
 _symmetry_equiv_pos_as_xyz
  1  'x, y, z'
loop_
 _atom_site_type_symbol
 _atom_site_label
 _atom_site_symmetry_multiplicity
 _atom_site_fract_x
 _atom_site_fract_y
 _atom_site_fract_z
 _atom_site_occupancy
  Ni  Ni0  1  0.63823100  0.19721400  0.16503900  1
  Ni  Ni1  1  0.13823100  0.80278600  0.33496100  1
  Ni  Ni2  1  0.36176900  0.80278600  0.83496100  1
  Ni  Ni3  1  0.86176900  0.19721400  0.66503900  1
  Ni  Ni4  1  0.88259000  0.20086700  0.37995000  1
  Ni  Ni5  1  0.38259000  0.79913300  0.12005000  1
  Ni  Ni6  1  0.11741000  0.79913300  0.62005000  1
  Ni  Ni7  1  0.61741000  0.20086700  0.87995000  1
  Ni  Ni8  1  0.86278300  0.62679000  0.09158800  1
  Ni  Ni9  1  0.36278300  0.37321000  0.40841200  1
  Ni  Ni10  1  0.13721700  0.37321000  0.90841200  1
  Ni  Ni11  1  0.63721700  0.62679000  0.59158800  1
  Cu  Cu12  1  0.65272700  0.69943000  0.32282900  1
  Cu  Cu13  1  0.15272700  0.30057000  0.17717100  1
  Cu  Cu14  1  0.34727300  0.30057000  0.67717100  1
  Cu  Cu15  1  0.84727300  0.69943000  0.82282900  1
  C  C16  1  0.58585600  0.57541500  0.42751000  1
  C  C17  1  0.08585600  0.42458500  0.07249000  1
  C  C18  1  0.41414400  0.42458500  0.57249000  1
  C  C19  1  0.91414400  0.57541500  0.92751000  1
  C  C20  1  0.84709000  0.85619000  0.36297500  1
  C  C21  1  0.34709000  0.14381000  0.13702500  1
  C  C22  1  0.15291000  0.14381000  0.63702500  1
  C  C23  1  0.65291000  0.85619000  0.86297500  1
  C  C24  1  0.43117100  0.82160500  0.28519900  1
  C  C25  1  0.93117100  0.17839500  0.21480100  1
  C  C26  1  0.56882900  0.17839500  0.71480100  1
  C  C27  1  0.06882900  0.82160500  0.78519900  1
  C  C28  1  0.72501800  0.53682500  0.21311700  1
  C  C29  1  0.22501800  0.46317500  0.28688300  1
  C  C30  1  0.27498200  0.46317500  0.78688300  1
  C  C31  1  0.77498200  0.53682500  0.71311700  1
  C  C32  1  0.71245200  0.23668100  0.02311000  1
  C  C33  1  0.21245200  0.76331900  0.47689000  1
  C  C34  1  0.28754800  0.76331900  0.97689000  1
  C  C35  1  0.78754800  0.23668100  0.52311000  1
  C  C36  1  0.10357500  0.79120700  0.17706000  1
  C  C37  1  0.60357500  0.20879300  0.32294000  1
  C  C38  1  0.89642500  0.20879300  0.82294000  1
  C  C39  1  0.39642500  0.79120700  0.67706000  1
  C  C40  1  0.66811200  0.81359700  0.09832100  1
  C  C41  1  0.16811200  0.18640300  0.40167900  1
  C  C42  1  0.33188800  0.18640300  0.90167900  1
  C  C43  1  0.83188800  0.81359700  0.59832100  1
