# generated using pymatgen
data_Cu20Ni3C2
_symmetry_space_group_name_H-M   'P 1'
_cell_length_a   7.48496384
_cell_length_b   7.48496384
_cell_length_c   18.35457318
_cell_angle_alpha   82.26794332
_cell_angle_beta   82.26794332
_cell_angle_gamma   52.75229686
_symmetry_Int_Tables_number   1
_chemical_formula_structural   Cu20Ni3C2
_chemical_formula_sum   'Cu40 Ni6 C4'
_cell_volume   809.27824604
_cell_formula_units_Z   2
loop_
 _symmetry_equiv_pos_site_id
 _symmetry_equiv_pos_as_xyz
  1  'x, y, z'
loop_
 _atom_site_type_symbol
 _atom_site_label
 _atom_site_symmetry_multiplicity
 _atom_site_fract_x
 _atom_site_fract_y
 _atom_site_fract_z
 _atom_site_occupancy
  C  C0  1  0.81239100  0.84808300  0.89320100  1
  C  C1  1  0.18760900  0.15191700  0.10679900  1
  C  C2  1  0.15191700  0.18760900  0.60679900  1
  C  C3  1  0.84808300  0.81239100  0.39320100  1
  Ni  Ni4  1  0.75686000  0.81264300  0.58985800  1
  Ni  Ni5  1  0.24314000  0.18735700  0.41014200  1
  Ni  Ni6  1  0.18735700  0.24314000  0.91014200  1
  Ni  Ni7  1  0.81264300  0.75686000  0.08985800  1
  Ni  Ni8  1  0.71009900  0.28990100  0.75000000  1
  Ni  Ni9  1  0.28990100  0.71009900  0.25000000  1
  Cu  Cu10  1  0.34851400  0.27268300  0.68270600  1
  Cu  Cu11  1  0.65148600  0.72731700  0.31729400  1
  Cu  Cu12  1  0.72731700  0.65148600  0.81729400  1
  Cu  Cu13  1  0.27268300  0.34851400  0.18270600  1
  Cu  Cu14  1  0.30446500  0.39161800  0.57174100  1
  Cu  Cu15  1  0.69553500  0.60838200  0.42825900  1
  Cu  Cu16  1  0.60838200  0.69553500  0.92825900  1
  Cu  Cu17  1  0.39161800  0.30446500  0.07174100  1
  Cu  Cu18  1  0.52421100  0.88350100  0.61235200  1
  Cu  Cu19  1  0.47578900  0.11649900  0.38764800  1
  Cu  Cu20  1  0.11649900  0.47578900  0.88764800  1
  Cu  Cu21  1  0.88350100  0.52421100  0.11235200  1
  Cu  Cu22  1  0.76810600  0.90457900  0.51437500  1
  Cu  Cu23  1  0.23189400  0.09542100  0.48562500  1
  Cu  Cu24  1  0.09542100  0.23189400  0.98562500  1
  Cu  Cu25  1  0.90457900  0.76810600  0.01437500  1
  Cu  Cu26  1  0.53893900  0.38948000  0.69361600  1
  Cu  Cu27  1  0.46106100  0.61052000  0.30638400  1
  Cu  Cu28  1  0.61052000  0.46106100  0.80638400  1
  Cu  Cu29  1  0.38948000  0.53893900  0.19361600  1
  Cu  Cu30  1  0.81419600  0.89218000  0.64638600  1
  Cu  Cu31  1  0.18580400  0.10782000  0.35361400  1
  Cu  Cu32  1  0.10782000  0.18580400  0.85361400  1
  Cu  Cu33  1  0.89218000  0.81419600  0.14638600  1
  Cu  Cu34  1  0.43750900  0.09212700  0.90924900  1
  Cu  Cu35  1  0.56249100  0.90787300  0.09075100  1
  Cu  Cu36  1  0.90787300  0.56249100  0.59075100  1
  Cu  Cu37  1  0.09212700  0.43750900  0.40924900  1
  Cu  Cu38  1  0.10970100  0.87796000  0.62586900  1
  Cu  Cu39  1  0.89029900  0.12204000  0.37413100  1
  Cu  Cu40  1  0.12204000  0.89029900  0.87413100  1
  Cu  Cu41  1  0.87796000  0.10970100  0.12586900  1
  Cu  Cu42  1  0.80161700  0.13640700  0.93288200  1
  Cu  Cu43  1  0.19838300  0.86359300  0.06711800  1
  Cu  Cu44  1  0.86359300  0.19838300  0.56711800  1
  Cu  Cu45  1  0.13640700  0.80161700  0.43288200  1
  Cu  Cu46  1  0.75605000  0.07770600  0.78664600  1
  Cu  Cu47  1  0.24395000  0.92229400  0.21335400  1
  Cu  Cu48  1  0.92229400  0.24395000  0.71335400  1
  Cu  Cu49  1  0.07770600  0.75605000  0.28664600  1
