# generated using pymatgen
data_Cu5Ni17C48
_symmetry_space_group_name_H-M   'P 1'
_cell_length_a   11.87380129
_cell_length_b   11.87380129
_cell_length_c   11.93835050
_cell_angle_alpha   61.91787356
_cell_angle_beta   61.91787356
_cell_angle_gamma   92.95047627
_symmetry_Int_Tables_number   1
_chemical_formula_structural   Cu5Ni17C48
_chemical_formula_sum   'Cu5 Ni17 C48'
_cell_volume   1226.91717104
_cell_formula_units_Z   1
loop_
 _symmetry_equiv_pos_site_id
 _symmetry_equiv_pos_as_xyz
  1  'x, y, z'
loop_
 _atom_site_type_symbol
 _atom_site_label
 _atom_site_symmetry_multiplicity
 _atom_site_fract_x
 _atom_site_fract_y
 _atom_site_fract_z
 _atom_site_occupancy
  Ni  Ni0  1  0.99788500  0.99788500  0.35073400  1
  Ni  Ni1  1  0.35407200  0.01613300  0.30118200  1
  Ni  Ni2  1  0.01613300  0.35407200  0.30118200  1
  Ni  Ni3  1  0.35684000  0.64238300  0.00519200  1
  Ni  Ni4  1  0.64238300  0.35684000  0.00519200  1
  Ni  Ni5  1  0.63037200  0.63037200  0.40373400  1
  Ni  Ni6  1  0.66843900  0.02910400  0.01289100  1
  Ni  Ni7  1  0.02910400  0.66843900  0.01289100  1
  Ni  Ni8  1  0.65817500  0.65817500  0.01054100  1
  Ni  Ni9  1  0.32284100  0.00639100  0.02095800  1
  Ni  Ni10  1  0.00639100  0.32284100  0.02095800  1
  Ni  Ni11  1  0.65442700  0.99509200  0.35691200  1
  Ni  Ni12  1  0.99509200  0.65442700  0.35691200  1
  Ni  Ni13  1  0.35574500  0.00789200  0.65438700  1
  Ni  Ni14  1  0.00789200  0.35574500  0.65438700  1
  Ni  Ni15  1  0.03210700  0.03210700  0.64820700  1
  Ni  Ni16  1  0.32988600  0.32988600  0.69638600  1
  C  C17  1  0.65823000  0.97010900  0.70591300  1
  C  C18  1  0.97010900  0.65823000  0.70591300  1
  C  C19  1  0.98135600  0.98135600  0.02902700  1
  C  C20  1  0.65043200  0.34513900  0.34365500  1
  C  C21  1  0.34513900  0.65043200  0.34365500  1
  Cu  Cu22  1  0.33413900  0.33413900  0.32699100  1
  Cu  Cu23  1  0.33935800  0.33935800  0.99461800  1
  Cu  Cu24  1  0.66757900  0.33712000  0.67641700  1
  Cu  Cu25  1  0.33712000  0.66757900  0.67641700  1
  Cu  Cu26  1  0.65750400  0.65750400  0.68464500  1
  C  C27  1  0.44399300  0.64452500  0.18365300  1
  C  C28  1  0.64452500  0.44399300  0.18365300  1
  C  C29  1  0.06401200  0.06401200  0.06995800  1
  C  C30  1  0.48567300  0.48567300  0.64353500  1
  C  C31  1  0.38772600  0.21145900  0.85335500  1
  C  C32  1  0.21145900  0.38772600  0.85335500  1
  C  C33  1  0.58916600  0.06675200  0.19491500  1
  C  C34  1  0.06675200  0.58916600  0.19491500  1
  C  C35  1  0.21378000  0.02676300  0.21031700  1
  C  C36  1  0.02676300  0.21378000  0.21031700  1
  C  C37  1  0.59333400  0.77072300  0.47370300  1
  C  C38  1  0.77072300  0.59333400  0.47370300  1
  C  C39  1  0.73931600  0.98724100  0.53122000  1
  C  C40  1  0.98724100  0.73931600  0.53122000  1
  C  C41  1  0.81361300  0.97764800  0.11277300  1
  C  C42  1  0.97764800  0.81361300  0.11277300  1
  C  C43  1  0.06696100  0.06696100  0.83308200  1
  C  C44  1  0.24238400  0.78201300  0.85245900  1
  C  C45  1  0.78201300  0.24238400  0.85245900  1
  C  C46  1  0.52218000  0.52218000  0.02692200  1
  C  C47  1  0.47832000  0.07204200  0.04388300  1
  C  C48  1  0.07204200  0.47832000  0.04388300  1
  C  C49  1  0.42153000  0.23815100  0.18173500  1
  C  C50  1  0.23815100  0.42153000  0.18173500  1
  C  C51  1  0.50767400  0.00125900  0.75722500  1
  C  C52  1  0.00125900  0.50767400  0.75722500  1
  C  C53  1  0.60625500  0.79142000  0.83867600  1
  C  C54  1  0.79142000  0.60625500  0.83867600  1
  C  C55  1  0.58306300  0.17952700  0.40441200  1
  C  C56  1  0.17952700  0.58306300  0.40441200  1
  C  C57  1  0.43991200  0.92134600  0.52776000  1
  C  C58  1  0.92134600  0.43991200  0.52776000  1
  C  C59  1  0.39828900  0.81276300  0.29281000  1
  C  C60  1  0.81276300  0.39828900  0.29281000  1
  C  C61  1  0.24937400  0.07253300  0.53613600  1
  C  C62  1  0.07253300  0.24937400  0.53613600  1
  C  C63  1  0.41728700  0.60226300  0.83279100  1
  C  C64  1  0.60226300  0.41728700  0.83279100  1
  C  C65  1  0.76100100  0.05135800  0.72825100  1
  C  C66  1  0.05135800  0.76100100  0.72825100  1
  C  C67  1  0.07679400  0.07679400  0.43320900  1
  C  C68  1  0.54940700  0.37242100  0.48212400  1
  C  C69  1  0.37242100  0.54940700  0.48212400  1
