# generated using pymatgen
data_CuNi2C21
_symmetry_space_group_name_H-M   'P 1'
_cell_length_a   5.98117956
_cell_length_b   5.98097760
_cell_length_c   15.84522531
_cell_angle_alpha   89.97139328
_cell_angle_beta   90.04790836
_cell_angle_gamma   119.99964631
_symmetry_Int_Tables_number   1
_chemical_formula_structural   CuNi2C21
_chemical_formula_sum   'Cu1 Ni2 C21'
_cell_volume   490.89596387
_cell_formula_units_Z   1
loop_
 _symmetry_equiv_pos_site_id
 _symmetry_equiv_pos_as_xyz
  1  'x, y, z'
loop_
 _atom_site_type_symbol
 _atom_site_label
 _atom_site_symmetry_multiplicity
 _atom_site_fract_x
 _atom_site_fract_y
 _atom_site_fract_z
 _atom_site_occupancy
  C  C0  1  0.33369000  0.66679200  0.36803200  1
  C  C1  1  0.33336500  0.66670600  0.78447800  1
  C  C2  1  0.66631300  0.33339300  0.63442100  1
  C  C3  1  0.66699800  0.33337900  0.87159300  1
  C  C4  1  0.33329100  0.66660200  0.04704400  1
  C  C5  1  0.66695800  0.33377200  0.24294800  1
  C  C6  1  0.66642700  0.33324000  0.05813500  1
  Ni  Ni7  1  0.00012100  0.00003000  0.81699100  1
  Ni  Ni8  1  0.99990700  0.00006000  0.19339000  1
  Cu  Cu9  1  0.00009100  0.99992900  0.00095500  1
  C  C10  1  0.66649700  0.33310800  0.43205900  1
  C  C11  1  0.33324900  0.66670600  0.57967300  1
  C  C12  1  0.15113500  0.30194000  0.91174900  1
  C  C13  1  0.32181700  0.16093100  0.75258500  1
  C  C14  1  0.15969100  0.31987500  0.25310200  1
  C  C15  1  0.83921900  0.67828700  0.75254900  1
  C  C16  1  0.83918200  0.16097300  0.75253900  1
  C  C17  1  0.84688600  0.69377900  0.09503300  1
  C  C18  1  0.15955500  0.83988000  0.25319300  1
  C  C19  1  0.30614000  0.15305300  0.09514000  1
  C  C20  1  0.84695200  0.15298300  0.09489900  1
  C  C21  1  0.69816200  0.84896400  0.91170500  1
  C  C22  1  0.67990800  0.83996200  0.25296700  1
  C  C23  1  0.15111300  0.84899100  0.91178300  1
