# generated using pymatgen
data_Cu2NiC6
_symmetry_space_group_name_H-M   'P 1'
_cell_length_a   5.81990500
_cell_length_b   7.23504300
_cell_length_c   12.58583300
_cell_angle_alpha   90.00000000
_cell_angle_beta   90.00000000
_cell_angle_gamma   90.00000000
_symmetry_Int_Tables_number   1
_chemical_formula_structural   Cu2NiC6
_chemical_formula_sum   'Cu8 Ni4 C24'
_cell_volume   529.95497934
_cell_formula_units_Z   4
loop_
 _symmetry_equiv_pos_site_id
 _symmetry_equiv_pos_as_xyz
  1  'x, y, z'
loop_
 _atom_site_type_symbol
 _atom_site_label
 _atom_site_symmetry_multiplicity
 _atom_site_fract_x
 _atom_site_fract_y
 _atom_site_fract_z
 _atom_site_occupancy
  Ni  Ni0  1  0.75000000  0.07681500  0.10098000  1
  Ni  Ni1  1  0.75000000  0.42318500  0.60098000  1
  Ni  Ni2  1  0.25000000  0.57681500  0.39902000  1
  Ni  Ni3  1  0.25000000  0.92318500  0.89902000  1
  Cu  Cu4  1  0.25000000  0.39829700  0.07446600  1
  Cu  Cu5  1  0.75000000  0.61756100  0.20784500  1
  Cu  Cu6  1  0.75000000  0.88243900  0.70784500  1
  Cu  Cu7  1  0.25000000  0.11756100  0.29215500  1
  Cu  Cu8  1  0.75000000  0.60170300  0.92553400  1
  Cu  Cu9  1  0.75000000  0.89829700  0.42553400  1
  Cu  Cu10  1  0.25000000  0.10170300  0.57446600  1
  Cu  Cu11  1  0.25000000  0.38243900  0.79215500  1
  C  C12  1  0.25000000  0.80811000  0.14964700  1
  C  C13  1  0.75000000  0.19189000  0.85035300  1
  C  C14  1  0.75000000  0.30811000  0.35035300  1
  C  C15  1  0.25000000  0.69189000  0.64964700  1
  C  C16  1  0.25000000  0.42901000  0.59916300  1
  C  C17  1  0.75000000  0.57099000  0.40083700  1
  C  C18  1  0.75000000  0.92901000  0.90083700  1
  C  C19  1  0.25000000  0.07099000  0.09916300  1
  C  C20  1  0.00233500  0.85508400  0.27530600  1
  C  C21  1  0.50233500  0.14491600  0.72469400  1
  C  C22  1  0.99766500  0.35508400  0.22469400  1
  C  C23  1  0.49766500  0.64491600  0.77530600  1
  C  C24  1  0.99766500  0.14491600  0.72469400  1
  C  C25  1  0.49766500  0.85508400  0.27530600  1
  C  C26  1  0.00233500  0.64491600  0.77530600  1
  C  C27  1  0.50233500  0.35508400  0.22469400  1
  C  C28  1  0.49640100  0.66525200  0.06582900  1
  C  C29  1  0.99640100  0.33474800  0.93417100  1
  C  C30  1  0.50359900  0.16525200  0.43417100  1
  C  C31  1  0.00359900  0.83474800  0.56582900  1
  C  C32  1  0.99640100  0.16525200  0.43417100  1
  C  C33  1  0.49640100  0.83474800  0.56582900  1
  C  C34  1  0.00359900  0.66525200  0.06582900  1
  C  C35  1  0.50359900  0.33474800  0.93417100  1
