# generated using pymatgen
data_Cu(NiC3)2
_symmetry_space_group_name_H-M   'P 1'
_cell_length_a   4.70249024
_cell_length_b   5.04234300
_cell_length_c   9.10624737
_cell_angle_alpha   90.00000000
_cell_angle_beta   97.38496790
_cell_angle_gamma   90.00000000
_symmetry_Int_Tables_number   1
_chemical_formula_structural   Cu(NiC3)2
_chemical_formula_sum   'Cu2 Ni4 C12'
_cell_volume   214.13230825
_cell_formula_units_Z   2
loop_
 _symmetry_equiv_pos_site_id
 _symmetry_equiv_pos_as_xyz
  1  'x, y, z'
loop_
 _atom_site_type_symbol
 _atom_site_label
 _atom_site_symmetry_multiplicity
 _atom_site_fract_x
 _atom_site_fract_y
 _atom_site_fract_z
 _atom_site_occupancy
  Ni  Ni0  1  0.51664000  0.98087300  0.67897200  1
  Ni  Ni1  1  0.01664000  0.51912700  0.17897200  1
  Ni  Ni2  1  0.48336000  0.01912700  0.32102800  1
  Ni  Ni3  1  0.98336000  0.48087300  0.82102800  1
  Cu  Cu4  1  0.50000000  0.50000000  0.50000000  1
  Cu  Cu5  1  0.00000000  0.00000000  0.00000000  1
  C  C6  1  0.73234700  0.19529600  0.46706100  1
  C  C7  1  0.23234700  0.30470400  0.96706100  1
  C  C8  1  0.26765300  0.80470400  0.53293900  1
  C  C9  1  0.76765300  0.69529600  0.03293900  1
  C  C10  1  0.80522800  0.20658800  0.13847900  1
  C  C11  1  0.30522800  0.29341200  0.63847900  1
  C  C12  1  0.19477200  0.79341200  0.86152100  1
  C  C13  1  0.69477200  0.70658800  0.36152100  1
  C  C14  1  0.75136500  0.16871100  0.82878200  1
  C  C15  1  0.25136500  0.33128900  0.32878200  1
  C  C16  1  0.24863500  0.83128900  0.17121800  1
  C  C17  1  0.74863500  0.66871100  0.67121800  1
