# generated using pymatgen
data_Cu4Ni8C
_symmetry_space_group_name_H-M   'P 1'
_cell_length_a   5.07888000
_cell_length_b   6.85027041
_cell_length_c   6.85027041
_cell_angle_alpha   82.10122698
_cell_angle_beta   68.24080234
_cell_angle_gamma   68.24080234
_symmetry_Int_Tables_number   1
_chemical_formula_structural   Cu4Ni8C
_chemical_formula_sum   'Cu4 Ni8 C1'
_cell_volume   205.58010689
_cell_formula_units_Z   1
loop_
 _symmetry_equiv_pos_site_id
 _symmetry_equiv_pos_as_xyz
  1  'x, y, z'
loop_
 _atom_site_type_symbol
 _atom_site_label
 _atom_site_symmetry_multiplicity
 _atom_site_fract_x
 _atom_site_fract_y
 _atom_site_fract_z
 _atom_site_occupancy
  C  C0  1  0.00000000  0.00000000  0.00000000  1
  Ni  Ni1  1  0.00000000  0.66188600  0.33811400  1
  Ni  Ni2  1  0.00000000  0.33811400  0.66188600  1
  Ni  Ni3  1  0.66188600  0.33811400  0.33811400  1
  Ni  Ni4  1  0.33811400  0.66188600  0.66188600  1
  Ni  Ni5  1  0.50000000  0.22515800  0.77484200  1
  Ni  Ni6  1  0.50000000  0.77484200  0.22515800  1
  Ni  Ni7  1  0.72515800  0.77484200  0.77484200  1
  Ni  Ni8  1  0.27484200  0.22515800  0.22515800  1
  Cu  Cu9  1  0.50000000  0.50000000  0.00000000  1
  Cu  Cu10  1  0.00000000  0.50000000  0.00000000  1
  Cu  Cu11  1  0.00000000  0.00000000  0.50000000  1
  Cu  Cu12  1  0.50000000  0.00000000  0.50000000  1
