# generated using pymatgen
data_CuNiC7
_symmetry_space_group_name_H-M   'P 1'
_cell_length_a   8.98125389
_cell_length_b   8.98125389
_cell_length_c   4.59876200
_cell_angle_alpha   90.00000000
_cell_angle_beta   90.00000000
_cell_angle_gamma   119.99999922
_symmetry_Int_Tables_number   1
_chemical_formula_structural   CuNiC7
_chemical_formula_sum   'Cu3 Ni3 C21'
_cell_volume   321.25176083
_cell_formula_units_Z   3
loop_
 _symmetry_equiv_pos_site_id
 _symmetry_equiv_pos_as_xyz
  1  'x, y, z'
loop_
 _atom_site_type_symbol
 _atom_site_label
 _atom_site_symmetry_multiplicity
 _atom_site_fract_x
 _atom_site_fract_y
 _atom_site_fract_z
 _atom_site_occupancy
  C  C0  1  0.69408700  0.00000000  0.50000000  1
  C  C1  1  0.00000000  0.69408700  0.50000000  1
  C  C2  1  0.30591300  0.30591300  0.50000000  1
  Ni  Ni3  1  0.35205300  0.00000000  0.00000000  1
  Ni  Ni4  1  0.00000000  0.35205300  0.00000000  1
  Ni  Ni5  1  0.64794700  0.64794700  0.00000000  1
  Cu  Cu6  1  0.00000000  0.00000000  0.00000000  1
  Cu  Cu7  1  0.33333300  0.66666700  0.48952300  1
  Cu  Cu8  1  0.66666700  0.33333300  0.51047700  1
  C  C9  1  0.10445400  0.56367600  0.25706700  1
  C  C10  1  0.43632400  0.54077800  0.25706700  1
  C  C11  1  0.56367600  0.10445400  0.74293300  1
  C  C12  1  0.45922200  0.89554600  0.25706700  1
  C  C13  1  0.54077800  0.43632400  0.74293300  1
  C  C14  1  0.89554600  0.45922200  0.74293300  1
  C  C15  1  0.10548100  0.23287800  0.22830000  1
  C  C16  1  0.76712200  0.87260300  0.22830000  1
  C  C17  1  0.23287800  0.10548100  0.77170000  1
  C  C18  1  0.12739700  0.89451900  0.22830000  1
  C  C19  1  0.87260300  0.76712200  0.77170000  1
  C  C20  1  0.89451900  0.12739700  0.77170000  1
  C  C21  1  0.44110900  0.20079900  0.25724600  1
  C  C22  1  0.79920100  0.24031000  0.25724600  1
  C  C23  1  0.20079900  0.44110900  0.74275400  1
  C  C24  1  0.75969000  0.55889100  0.25724600  1
  C  C25  1  0.24031000  0.79920100  0.74275400  1
  C  C26  1  0.55889100  0.75969000  0.74275400  1
