# generated using pymatgen
data_Cu4Ni9C
_symmetry_space_group_name_H-M   'P 1'
_cell_length_a   8.66119100
_cell_length_b   8.66591783
_cell_length_c   8.66591783
_cell_angle_alpha   120.07403901
_cell_angle_beta   90.00000000
_cell_angle_gamma   90.00000000
_symmetry_Int_Tables_number   1
_chemical_formula_structural   Cu4Ni9C
_chemical_formula_sum   'Cu8 Ni18 C2'
_cell_volume   562.87619900
_cell_formula_units_Z   2
loop_
 _symmetry_equiv_pos_site_id
 _symmetry_equiv_pos_as_xyz
  1  'x, y, z'
loop_
 _atom_site_type_symbol
 _atom_site_label
 _atom_site_symmetry_multiplicity
 _atom_site_fract_x
 _atom_site_fract_y
 _atom_site_fract_z
 _atom_site_occupancy
  Ni  Ni0  1  0.54859500  0.80312900  0.60619400  1
  Ni  Ni1  1  0.54866800  0.80293900  0.19706100  1
  Ni  Ni2  1  0.54859500  0.39380600  0.19687100  1
  Ni  Ni3  1  0.45140500  0.19687100  0.39380600  1
  Ni  Ni4  1  0.45133200  0.19706100  0.80293900  1
  Ni  Ni5  1  0.45140500  0.60619400  0.80312900  1
  Ni  Ni6  1  0.04859500  0.19687100  0.39380600  1
  Ni  Ni7  1  0.04866800  0.19706100  0.80293900  1
  Ni  Ni8  1  0.04859500  0.60619400  0.80312900  1
  Ni  Ni9  1  0.95140500  0.80312900  0.60619400  1
  Ni  Ni10  1  0.95133200  0.80293900  0.19706100  1
  Ni  Ni11  1  0.95140500  0.39380600  0.19687100  1
  Ni  Ni12  1  0.75000000  0.46067700  0.92150600  1
  Ni  Ni13  1  0.75000000  0.46080600  0.53919400  1
  Ni  Ni14  1  0.75000000  0.07849400  0.53932300  1
  Ni  Ni15  1  0.25000000  0.53932300  0.07849400  1
  Ni  Ni16  1  0.25000000  0.53919400  0.46080600  1
  Ni  Ni17  1  0.25000000  0.92150600  0.46067700  1
  C  C18  1  0.75000000  0.66666600  0.33333400  1
  C  C19  1  0.25000000  0.33333400  0.66666600  1
  Cu  Cu20  1  0.75000000  0.11044200  0.22109100  1
  Cu  Cu21  1  0.75000000  0.11063900  0.88936100  1
  Cu  Cu22  1  0.75000000  0.77890900  0.88955800  1
  Cu  Cu23  1  0.25000000  0.88955800  0.77890900  1
  Cu  Cu24  1  0.25000000  0.88936100  0.11063900  1
  Cu  Cu25  1  0.25000000  0.22109100  0.11044200  1
  Cu  Cu26  1  0.50000000  0.00000000  0.00000000  1
  Cu  Cu27  1  0.00000000  0.00000000  0.00000000  1
