# generated using pymatgen
data_Cu5Ni2C
_symmetry_space_group_name_H-M   'P 1'
_cell_length_a   8.46523800
_cell_length_b   10.08499300
_cell_length_c   11.63737900
_cell_angle_alpha   90.00000000
_cell_angle_beta   90.00000000
_cell_angle_gamma   90.00000000
_symmetry_Int_Tables_number   1
_chemical_formula_structural   Cu5Ni2C
_chemical_formula_sum   'Cu20 Ni8 C4'
_cell_volume   993.50476027
_cell_formula_units_Z   4
loop_
 _symmetry_equiv_pos_site_id
 _symmetry_equiv_pos_as_xyz
  1  'x, y, z'
loop_
 _atom_site_type_symbol
 _atom_site_label
 _atom_site_symmetry_multiplicity
 _atom_site_fract_x
 _atom_site_fract_y
 _atom_site_fract_z
 _atom_site_occupancy
  C  C0  1  0.25000000  0.47599300  0.01208100  1
  C  C1  1  0.75000000  0.52400700  0.98791900  1
  C  C2  1  0.75000000  0.97599300  0.48791900  1
  C  C3  1  0.25000000  0.02400700  0.51208100  1
  Ni  Ni4  1  0.58562600  0.51648700  0.40520900  1
  Ni  Ni5  1  0.41437400  0.48351300  0.59479100  1
  Ni  Ni6  1  0.41437400  0.01648700  0.09479100  1
  Ni  Ni7  1  0.08562600  0.48351300  0.59479100  1
  Ni  Ni8  1  0.58562600  0.98351300  0.90520900  1
  Ni  Ni9  1  0.91437400  0.51648700  0.40520900  1
  Ni  Ni10  1  0.91437400  0.98351300  0.90520900  1
  Ni  Ni11  1  0.08562600  0.01648700  0.09479100  1
  Cu  Cu12  1  0.25000000  0.60100300  0.19820700  1
  Cu  Cu13  1  0.75000000  0.39899700  0.80179300  1
  Cu  Cu14  1  0.75000000  0.10100300  0.30179300  1
  Cu  Cu15  1  0.25000000  0.89899700  0.69820700  1
  Cu  Cu16  1  0.52946500  0.36042300  0.08254000  1
  Cu  Cu17  1  0.47053500  0.63957700  0.91746000  1
  Cu  Cu18  1  0.47053500  0.86042300  0.41746000  1
  Cu  Cu19  1  0.02946500  0.63957700  0.91746000  1
  Cu  Cu20  1  0.52946500  0.13957700  0.58254000  1
  Cu  Cu21  1  0.97053500  0.36042300  0.08254000  1
  Cu  Cu22  1  0.97053500  0.13957700  0.58254000  1
  Cu  Cu23  1  0.02946500  0.86042300  0.41746000  1
  Cu  Cu24  1  0.25000000  0.01340700  0.04009700  1
  Cu  Cu25  1  0.75000000  0.98659300  0.95990300  1
  Cu  Cu26  1  0.75000000  0.51340700  0.45990300  1
  Cu  Cu27  1  0.25000000  0.48659300  0.54009700  1
  Cu  Cu28  1  0.25000000  0.19228200  0.35057800  1
  Cu  Cu29  1  0.75000000  0.80771800  0.64942200  1
  Cu  Cu30  1  0.75000000  0.69228200  0.14942200  1
  Cu  Cu31  1  0.25000000  0.30771800  0.85057800  1
