# generated using pymatgen
data_Cu12Ni4C5
_symmetry_space_group_name_H-M   'P 1'
_cell_length_a   7.39448946
_cell_length_b   7.39448946
_cell_length_c   23.62218373
_cell_angle_alpha   81.38863294
_cell_angle_beta   81.38863294
_cell_angle_gamma   65.79184684
_symmetry_Int_Tables_number   1
_chemical_formula_structural   Cu12Ni4C5
_chemical_formula_sum   'Cu24 Ni8 C10'
_cell_volume   1159.15984126
_cell_formula_units_Z   2
loop_
 _symmetry_equiv_pos_site_id
 _symmetry_equiv_pos_as_xyz
  1  'x, y, z'
loop_
 _atom_site_type_symbol
 _atom_site_label
 _atom_site_symmetry_multiplicity
 _atom_site_fract_x
 _atom_site_fract_y
 _atom_site_fract_z
 _atom_site_occupancy
  C  C0  1  0.83506300  0.79244700  0.54572200  1
  C  C1  1  0.20755300  0.16493700  0.95427800  1
  C  C2  1  0.16493700  0.20755300  0.45427800  1
  C  C3  1  0.79244700  0.83506300  0.04572200  1
  C  C4  1  0.67995400  0.51551300  0.81624600  1
  C  C5  1  0.48448700  0.32004600  0.68375400  1
  C  C6  1  0.32004600  0.48448700  0.18375400  1
  C  C7  1  0.51551300  0.67995400  0.31624600  1
  C  C8  1  0.03641500  0.96358500  0.75000000  1
  C  C9  1  0.96358500  0.03641500  0.25000000  1
  Ni  Ni10  1  0.11344700  0.69510600  0.87391000  1
  Ni  Ni11  1  0.30489400  0.88655300  0.62609000  1
  Ni  Ni12  1  0.88655300  0.30489400  0.12609000  1
  Ni  Ni13  1  0.69510600  0.11344700  0.37391000  1
  Ni  Ni14  1  0.08301200  0.21085100  0.61654700  1
  Ni  Ni15  1  0.78914900  0.91698800  0.88345300  1
  Ni  Ni16  1  0.91698800  0.78914900  0.38345300  1
  Ni  Ni17  1  0.21085100  0.08301200  0.11654700  1
  Cu  Cu18  1  0.21259000  0.63432500  0.95012100  1
  Cu  Cu19  1  0.36567500  0.78741000  0.54987900  1
  Cu  Cu20  1  0.78741000  0.36567500  0.04987900  1
  Cu  Cu21  1  0.63432500  0.21259000  0.45012100  1
  Cu  Cu22  1  0.15017300  0.47153300  0.82912800  1
  Cu  Cu23  1  0.52846700  0.84982700  0.67087200  1
  Cu  Cu24  1  0.84982700  0.52846700  0.17087200  1
  Cu  Cu25  1  0.47153300  0.15017300  0.32912800  1
  Cu  Cu26  1  0.10849400  0.76400700  0.67961900  1
  Cu  Cu27  1  0.23599300  0.89150600  0.82038100  1
  Cu  Cu28  1  0.89150600  0.23599300  0.32038100  1
  Cu  Cu29  1  0.76400700  0.10849400  0.17961900  1
  Cu  Cu30  1  0.23131500  0.37494900  0.57881800  1
  Cu  Cu31  1  0.62505100  0.76868500  0.92118200  1
  Cu  Cu32  1  0.76868500  0.62505100  0.42118200  1
  Cu  Cu33  1  0.37494900  0.23131500  0.07881800  1
  Cu  Cu34  1  0.84552800  0.23821000  0.58116400  1
  Cu  Cu35  1  0.76179000  0.15447200  0.91883600  1
  Cu  Cu36  1  0.15447200  0.76179000  0.41883600  1
  Cu  Cu37  1  0.23821000  0.84552800  0.08116400  1
  Cu  Cu38  1  0.01441500  0.26655700  0.70757500  1
  Cu  Cu39  1  0.73344300  0.98558500  0.79242500  1
  Cu  Cu40  1  0.98558500  0.73344300  0.29242500  1
  Cu  Cu41  1  0.26655700  0.01441500  0.20757500  1
