# generated using pymatgen
data_Cu4NiC7
_symmetry_space_group_name_H-M   'P 1'
_cell_length_a   4.24180200
_cell_length_b   4.44825600
_cell_length_c   10.83168600
_cell_angle_alpha   90.00000000
_cell_angle_beta   90.00000000
_cell_angle_gamma   90.00000000
_symmetry_Int_Tables_number   1
_chemical_formula_structural   Cu4NiC7
_chemical_formula_sum   'Cu8 Ni2 C14'
_cell_volume   204.37898006
_cell_formula_units_Z   2
loop_
 _symmetry_equiv_pos_site_id
 _symmetry_equiv_pos_as_xyz
  1  'x, y, z'
loop_
 _atom_site_type_symbol
 _atom_site_label
 _atom_site_symmetry_multiplicity
 _atom_site_fract_x
 _atom_site_fract_y
 _atom_site_fract_z
 _atom_site_occupancy
  Ni  Ni0  1  0.39269500  0.17684500  0.50000000  1
  Ni  Ni1  1  0.89269500  0.82315500  0.00000000  1
  Cu  Cu2  1  0.40852300  0.32631100  0.87938300  1
  Cu  Cu3  1  0.93112000  0.17298700  0.24877700  1
  Cu  Cu4  1  0.43112000  0.82701300  0.25122300  1
  Cu  Cu5  1  0.90852300  0.67368900  0.62061700  1
  Cu  Cu6  1  0.90852300  0.67368900  0.37938300  1
  Cu  Cu7  1  0.40852300  0.32631100  0.12061700  1
  Cu  Cu8  1  0.93112000  0.17298700  0.75122300  1
  Cu  Cu9  1  0.43112000  0.82701300  0.74877700  1
  C  C10  1  0.07219500  0.26697100  0.13483800  1
  C  C11  1  0.57219500  0.73302900  0.36516200  1
  C  C12  1  0.48014800  0.64439500  0.85829600  1
  C  C13  1  0.98014800  0.35560500  0.64170400  1
  C  C14  1  0.98014800  0.35560500  0.35829600  1
  C  C15  1  0.48014800  0.64439500  0.14170400  1
  C  C16  1  0.57597600  0.13293300  0.77910300  1
  C  C17  1  0.07597600  0.86706700  0.72089700  1
  C  C18  1  0.07597600  0.86706700  0.27910300  1
  C  C19  1  0.57597600  0.13293300  0.22089700  1
  C  C20  1  0.51655200  0.23300300  0.00000000  1
  C  C21  1  0.01655200  0.76699700  0.50000000  1
  C  C22  1  0.07219500  0.26697100  0.86516200  1
  C  C23  1  0.57219500  0.73302900  0.63483800  1
