# generated using pymatgen
data_CuNi14C17
_symmetry_space_group_name_H-M   'P 1'
_cell_length_a   8.75074872
_cell_length_b   9.01373301
_cell_length_c   4.52947792
_cell_angle_alpha   90.00000000
_cell_angle_beta   90.00000000
_cell_angle_gamma   90.00000000
_symmetry_Int_Tables_number   1
_chemical_formula_structural   CuNi14C17
_chemical_formula_sum   'Cu1 Ni14 C17'
_cell_volume   357.27123402
_cell_formula_units_Z   1
loop_
 _symmetry_equiv_pos_site_id
 _symmetry_equiv_pos_as_xyz
  1  'x, y, z'
loop_
 _atom_site_type_symbol
 _atom_site_label
 _atom_site_symmetry_multiplicity
 _atom_site_fract_x
 _atom_site_fract_y
 _atom_site_fract_z
 _atom_site_occupancy
  C  C0  1  0.00000000  -0.00000000  0.00000000  1
  Ni  Ni1  1  0.50000000  -0.00000000  0.00000000  1
  Ni  Ni2  1  0.50000000  0.50000000  0.00000000  1
  Ni  Ni3  1  0.00000000  0.23488301  0.50000000  1
  Ni  Ni4  1  0.00000000  0.76511699  0.50000000  1
  Ni  Ni5  1  0.50000000  0.24696824  0.50000000  1
  Ni  Ni6  1  0.50000000  0.75303176  0.50000000  1
  Ni  Ni7  1  0.25643998  -0.00000000  0.50000000  1
  Ni  Ni8  1  0.26383749  0.50000000  0.50000000  1
  Ni  Ni9  1  0.74356002  -0.00000000  0.50000000  1
  Ni  Ni10  1  0.73616251  0.50000000  0.50000000  1
  Ni  Ni11  1  0.26086838  0.24156064  0.00000000  1
  Ni  Ni12  1  0.26086838  0.75843936  -0.00000000  1
  Ni  Ni13  1  0.73913162  0.24156064  -0.00000000  1
  Ni  Ni14  1  0.73913162  0.75843936  -0.00000000  1
  Cu  Cu15  1  0.00000000  0.50000000  0.00000000  1
  C  C16  1  0.28186548  -0.00000000  0.00000000  1
  C  C17  1  0.26960239  0.50000000  -0.00000000  1
  C  C18  1  0.71813452  -0.00000000  -0.00000000  1
  C  C19  1  0.73039761  0.50000000  0.00000000  1
  C  C20  1  0.25059342  0.25105115  0.50000000  1
  C  C21  1  0.25059342  0.74894885  0.50000000  1
  C  C22  1  0.74940658  0.25105115  0.50000000  1
  C  C23  1  0.74940658  0.74894885  0.50000000  1
  C  C24  1  0.00000000  -0.00000000  0.50000000  1
  C  C25  1  0.00000000  0.50000000  0.50000000  1
  C  C26  1  0.50000000  -0.00000000  0.50000000  1
  C  C27  1  0.50000000  0.50000000  0.50000000  1
  C  C28  1  0.00000000  0.25866237  0.00000000  1
  C  C29  1  0.00000000  0.74133763  0.00000000  1
  C  C30  1  0.50000000  0.25506780  0.00000000  1
  C  C31  1  0.50000000  0.74493220  0.00000000  1
