# generated using pymatgen
data_CuNiC3
_symmetry_space_group_name_H-M   'P 1'
_cell_length_a   6.58438998
_cell_length_b   6.58438998
_cell_length_c   9.47240900
_cell_angle_alpha   90.00000000
_cell_angle_beta   90.00000000
_cell_angle_gamma   145.72379288
_symmetry_Int_Tables_number   1
_chemical_formula_structural   CuNiC3
_chemical_formula_sum   'Cu2 Ni2 C6'
_cell_volume   231.28157238
_cell_formula_units_Z   2
loop_
 _symmetry_equiv_pos_site_id
 _symmetry_equiv_pos_as_xyz
  1  'x, y, z'
loop_
 _atom_site_type_symbol
 _atom_site_label
 _atom_site_symmetry_multiplicity
 _atom_site_fract_x
 _atom_site_fract_y
 _atom_site_fract_z
 _atom_site_occupancy
  Ni  Ni0  1  0.74702800  0.25297200  0.25000000  1
  Ni  Ni1  1  0.25297200  0.74702800  0.75000000  1
  Cu  Cu2  1  0.00000000  0.00000000  0.50000000  1
  Cu  Cu3  1  0.00000000  0.00000000  0.00000000  1
  C  C4  1  0.64197600  0.35802400  0.56345400  1
  C  C5  1  0.64197600  0.35802400  0.93654600  1
  C  C6  1  0.35802400  0.64197600  0.06345400  1
  C  C7  1  0.35802400  0.64197600  0.43654600  1
  C  C8  1  0.08708900  0.91291100  0.25000000  1
  C  C9  1  0.91291100  0.08708900  0.75000000  1
