# generated using pymatgen
data_Cu9Ni6C
_symmetry_space_group_name_H-M   'P 1'
_cell_length_a   7.72568931
_cell_length_b   13.70366302
_cell_length_c   11.54861200
_cell_angle_alpha   90.00000000
_cell_angle_beta   90.00000000
_cell_angle_gamma   27.51507473
_symmetry_Int_Tables_number   1
_chemical_formula_structural   Cu9Ni6C
_chemical_formula_sum   'Cu18 Ni12 C2'
_cell_volume   564.84427244
_cell_formula_units_Z   2
loop_
 _symmetry_equiv_pos_site_id
 _symmetry_equiv_pos_as_xyz
  1  'x, y, z'
loop_
 _atom_site_type_symbol
 _atom_site_label
 _atom_site_symmetry_multiplicity
 _atom_site_fract_x
 _atom_site_fract_y
 _atom_site_fract_z
 _atom_site_occupancy
  C  C0  1  0.00000000  0.28094700  0.25000000  1
  C  C1  1  0.00000000  0.71905300  0.75000000  1
  Ni  Ni2  1  0.68325900  0.79216700  0.25000000  1
  Ni  Ni3  1  0.68325900  0.52457600  0.75000000  1
  Ni  Ni4  1  0.31674100  0.20783300  0.75000000  1
  Ni  Ni5  1  0.31674100  0.47542400  0.25000000  1
  Ni  Ni6  1  0.68306600  0.30242300  0.89946000  1
  Ni  Ni7  1  0.68306600  0.01451100  0.10054000  1
  Ni  Ni8  1  0.68306600  0.30242300  0.60054000  1
  Ni  Ni9  1  0.68306600  0.01451100  0.39946000  1
  Ni  Ni10  1  0.31693400  0.69757700  0.10054000  1
  Ni  Ni11  1  0.31693400  0.98548900  0.89946000  1
  Ni  Ni12  1  0.31693400  0.69757700  0.39946000  1
  Ni  Ni13  1  0.31693400  0.98548900  0.60054000  1
  Cu  Cu14  1  0.00000000  0.58839300  0.25000000  1
  Cu  Cu15  1  0.00000000  0.41160700  0.75000000  1
  Cu  Cu16  1  0.38305300  0.97786500  0.25000000  1
  Cu  Cu17  1  0.38305300  0.63908200  0.75000000  1
  Cu  Cu18  1  0.61694700  0.02213500  0.75000000  1
  Cu  Cu19  1  0.61694700  0.36091800  0.25000000  1
  Cu  Cu20  1  0.00000000  0.11879700  0.94383500  1
  Cu  Cu21  1  0.00000000  0.88120300  0.05616500  1
  Cu  Cu22  1  0.00000000  0.11879700  0.55616500  1
  Cu  Cu23  1  0.00000000  0.88120300  0.44383500  1
  Cu  Cu24  1  0.38219600  0.47250200  0.86468300  1
  Cu  Cu25  1  0.38219600  0.14530200  0.13531700  1
  Cu  Cu26  1  0.38219600  0.47250200  0.63531700  1
  Cu  Cu27  1  0.38219600  0.14530200  0.36468300  1
  Cu  Cu28  1  0.61780400  0.52749800  0.13531700  1
  Cu  Cu29  1  0.61780400  0.85469800  0.86468300  1
  Cu  Cu30  1  0.61780400  0.52749800  0.36468300  1
  Cu  Cu31  1  0.61780400  0.85469800  0.63531700  1
