# generated using pymatgen
data_Cu5Ni2C25
_symmetry_space_group_name_H-M   'P 1'
_cell_length_a   5.16684500
_cell_length_b   5.91198998
_cell_length_c   10.03461003
_cell_angle_alpha   87.51833411
_cell_angle_beta   100.70593828
_cell_angle_gamma   109.41283087
_symmetry_Int_Tables_number   1
_chemical_formula_structural   Cu5Ni2C25
_chemical_formula_sum   'Cu5 Ni2 C25'
_cell_volume   284.00596320
_cell_formula_units_Z   1
loop_
 _symmetry_equiv_pos_site_id
 _symmetry_equiv_pos_as_xyz
  1  'x, y, z'
loop_
 _atom_site_type_symbol
 _atom_site_label
 _atom_site_symmetry_multiplicity
 _atom_site_fract_x
 _atom_site_fract_y
 _atom_site_fract_z
 _atom_site_occupancy
  C  C0  1  0.99343300  0.50504200  0.99962500  1
  C  C1  1  0.99911600  0.25266500  0.25314500  1
  C  C2  1  0.49948900  0.61960400  0.87077700  1
  C  C3  1  0.50715600  0.37723800  0.12837000  1
  C  C4  1  0.99389000  0.73305000  0.74298500  1
  C  C5  1  0.48600700  0.87574800  0.62499600  1
  C  C6  1  0.01286200  0.00625200  0.50453300  1
  C  C7  1  0.50373900  0.12736100  0.37639900  1
  C  C8  1  0.50008000  0.37587200  0.62553900  1
  Ni  Ni9  1  0.99966500  0.99832200  0.00020000  1
  Ni  Ni10  1  0.50071100  0.12891100  0.87094600  1
  Cu  Cu11  1  0.99844400  0.74723600  0.25390800  1
  Cu  Cu12  1  0.99946500  0.50230600  0.49964600  1
  Cu  Cu13  1  0.00644100  0.25346800  0.74290300  1
  Cu  Cu14  1  0.49975500  0.87380600  0.12531700  1
  Cu  Cu15  1  0.50016700  0.62470700  0.37693700  1
  C  C16  1  0.24964100  0.28399700  0.92579200  1
  C  C17  1  0.22850000  0.05342400  0.18481700  1
  C  C18  1  0.73834400  0.41770900  0.81734100  1
  C  C19  1  0.72087600  0.17162100  0.05827400  1
  C  C20  1  0.21510000  0.54449000  0.67878900  1
  C  C21  1  0.75855800  0.66394200  0.54421300  1
  C  C22  1  0.23192700  0.79843700  0.44060400  1
  C  C23  1  0.72908300  0.91193700  0.30447400  1
  C  C24  1  0.76796100  0.70253400  0.06362400  1
  C  C25  1  0.77342400  0.44612400  0.31965200  1
  C  C26  1  0.27972000  0.82478600  0.94520300  1
  C  C27  1  0.26800900  0.58546700  0.19559100  1
  C  C28  1  0.74649700  0.96739200  0.81827800  1
  C  C29  1  0.25673300  0.06141500  0.70173500  1
  C  C30  1  0.79044400  0.21287500  0.56451300  1
  C  C31  1  0.24476400  0.35226000  0.44087500  1
