# generated using pymatgen
data_Cu2Ni3C4
_symmetry_space_group_name_H-M   'P 1'
_cell_length_a   10.61113383
_cell_length_b   10.61113383
_cell_length_c   10.61113404
_cell_angle_alpha   105.66232076
_cell_angle_beta   105.66232076
_cell_angle_gamma   105.66231396
_symmetry_Int_Tables_number   1
_chemical_formula_structural   Cu2Ni3C4
_chemical_formula_sum   'Cu8 Ni12 C16'
_cell_volume   1029.17146276
_cell_formula_units_Z   4
loop_
 _symmetry_equiv_pos_site_id
 _symmetry_equiv_pos_as_xyz
  1  'x, y, z'
loop_
 _atom_site_type_symbol
 _atom_site_label
 _atom_site_symmetry_multiplicity
 _atom_site_fract_x
 _atom_site_fract_y
 _atom_site_fract_z
 _atom_site_occupancy
  C  C0  1  0.97610900  0.76113100  0.73506000  1
  C  C1  1  0.76113100  0.73506000  0.97610900  1
  C  C2  1  0.73506000  0.97610900  0.76113100  1
  C  C3  1  0.02389100  0.26494000  0.23886900  1
  C  C4  1  0.23886900  0.02389100  0.26493900  1
  C  C5  1  0.26494000  0.23886900  0.02389100  1
  C  C6  1  0.50000000  0.22024300  0.77975700  1
  C  C7  1  0.22024300  0.77975700  0.50000000  1
  C  C8  1  0.77975700  0.50000000  0.22024300  1
  C  C9  1  0.50000000  0.01572200  0.98427800  1
  C  C10  1  0.01572200  0.98427800  0.50000000  1
  C  C11  1  0.98427800  0.50000000  0.01572200  1
  C  C12  1  0.00000000  0.76481800  0.23518200  1
  C  C13  1  0.76481800  0.23518200  0.00000000  1
  C  C14  1  0.23518200  0.00000000  0.76481800  1
  C  C15  1  0.00000000  0.00000000  0.00000000  1
  Ni  Ni16  1  0.74527700  0.47037700  0.73471500  1
  Ni  Ni17  1  0.47037700  0.73471500  0.74527700  1
  Ni  Ni18  1  0.73471500  0.74527700  0.47037700  1
  Ni  Ni19  1  0.25472300  0.26528500  0.52962300  1
  Ni  Ni20  1  0.52962300  0.25472300  0.26528500  1
  Ni  Ni21  1  0.26528500  0.52962300  0.25472300  1
  Ni  Ni22  1  0.00000000  0.50168900  0.49831100  1
  Ni  Ni23  1  0.50168900  0.49831100  0.00000000  1
  Ni  Ni24  1  0.49831100  0.00000000  0.50168900  1
  Ni  Ni25  1  0.00000000  0.22810900  0.77189100  1
  Ni  Ni26  1  0.22810900  0.77189100  0.00000000  1
  Ni  Ni27  1  0.77189100  0.00000000  0.22810900  1
  Cu  Cu28  1  0.89410200  0.65475600  0.12769800  1
  Cu  Cu29  1  0.65475600  0.12769800  0.89410200  1
  Cu  Cu30  1  0.12769800  0.89410200  0.65475600  1
  Cu  Cu31  1  0.10589800  0.87230200  0.34524400  1
  Cu  Cu32  1  0.34524400  0.10589800  0.87230200  1
  Cu  Cu33  1  0.87230200  0.34524400  0.10589800  1
  Cu  Cu34  1  0.89146000  0.89146000  0.89146000  1
  Cu  Cu35  1  0.10854000  0.10854000  0.10854000  1
