# generated using pymatgen
data_Cu(NiC5)2
_symmetry_space_group_name_H-M   'P 1'
_cell_length_a   9.99472808
_cell_length_b   9.99472808
_cell_length_c   9.99472808
_cell_angle_alpha   60.00000000
_cell_angle_beta   60.00000000
_cell_angle_gamma   60.00000000
_symmetry_Int_Tables_number   1
_chemical_formula_structural   Cu(NiC5)2
_chemical_formula_sum   'Cu4 Ni8 C40'
_cell_volume   705.98902711
_cell_formula_units_Z   4
loop_
 _symmetry_equiv_pos_site_id
 _symmetry_equiv_pos_as_xyz
  1  'x, y, z'
loop_
 _atom_site_type_symbol
 _atom_site_label
 _atom_site_symmetry_multiplicity
 _atom_site_fract_x
 _atom_site_fract_y
 _atom_site_fract_z
 _atom_site_occupancy
  C  C0  1  0.72255100  0.72255100  0.27744900  1
  C  C1  1  0.27744900  0.27744900  0.72255100  1
  C  C2  1  0.27744900  0.72255100  0.72255100  1
  C  C3  1  0.72255100  0.27744900  0.27744900  1
  C  C4  1  0.72255100  0.27744900  0.72255100  1
  C  C5  1  0.27744900  0.72255100  0.27744900  1
  C  C6  1  0.52744900  0.52744900  0.97255100  1
  C  C7  1  0.97255100  0.97255100  0.52744900  1
  C  C8  1  0.97255100  0.52744900  0.52744900  1
  C  C9  1  0.52744900  0.97255100  0.97255100  1
  C  C10  1  0.52744900  0.97255100  0.52744900  1
  C  C11  1  0.97255100  0.52744900  0.97255100  1
  C  C12  1  0.62500000  0.12500000  0.12500000  1
  C  C13  1  0.12500000  0.12500000  0.62500000  1
  C  C14  1  0.12500000  0.62500000  0.12500000  1
  C  C15  1  0.12500000  0.12500000  0.12500000  1
  Ni  Ni16  1  0.90750700  0.27747900  0.90750700  1
  Ni  Ni17  1  0.90750700  0.90750700  0.90750700  1
  Ni  Ni18  1  0.27747900  0.90750700  0.90750700  1
  Ni  Ni19  1  0.90750700  0.90750700  0.27747900  1
  Ni  Ni20  1  0.34249300  0.97252100  0.34249300  1
  Ni  Ni21  1  0.34249300  0.34249300  0.34249300  1
  Ni  Ni22  1  0.97252100  0.34249300  0.34249300  1
  Ni  Ni23  1  0.34249300  0.34249300  0.97252100  1
  Cu  Cu24  1  0.62500000  0.62500000  0.62500000  1
  Cu  Cu25  1  0.62500000  0.12500000  0.62500000  1
  Cu  Cu26  1  0.62500000  0.62500000  0.12500000  1
  Cu  Cu27  1  0.12500000  0.62500000  0.62500000  1
  C  C28  1  0.76427600  0.28023100  0.93672400  1
  C  C29  1  0.93672400  0.01876900  0.76427600  1
  C  C30  1  0.28023100  0.76427600  0.01876900  1
  C  C31  1  0.01876900  0.93672400  0.28023100  1
  C  C32  1  0.93672400  0.76427600  0.28023100  1
  C  C33  1  0.76427600  0.93672400  0.01876900  1
  C  C34  1  0.01876900  0.28023100  0.76427600  1
  C  C35  1  0.28023100  0.01876900  0.93672400  1
  C  C36  1  0.28023100  0.93672400  0.76427600  1
  C  C37  1  0.01876900  0.76427600  0.93672400  1
  C  C38  1  0.76427600  0.01876900  0.28023100  1
  C  C39  1  0.93672400  0.28023100  0.01876900  1
  C  C40  1  0.48572400  0.96976900  0.31327600  1
  C  C41  1  0.31327600  0.23123100  0.48572400  1
  C  C42  1  0.96976900  0.48572400  0.23123100  1
  C  C43  1  0.23123100  0.31327600  0.96976900  1
  C  C44  1  0.31327600  0.48572400  0.96976900  1
  C  C45  1  0.48572400  0.31327600  0.23123100  1
  C  C46  1  0.23123100  0.96976900  0.48572400  1
  C  C47  1  0.96976900  0.23123100  0.31327600  1
  C  C48  1  0.96976900  0.31327600  0.48572400  1
  C  C49  1  0.23123100  0.48572400  0.31327600  1
  C  C50  1  0.48572400  0.23123100  0.96976900  1
  C  C51  1  0.31327600  0.96976900  0.23123100  1
