# generated using pymatgen
data_Cu8Ni3C13
_symmetry_space_group_name_H-M   'P 1'
_cell_length_a   15.87662100
_cell_length_b   6.91920000
_cell_length_c   9.94973071
_cell_angle_alpha   89.77355115
_cell_angle_beta   90.00000000
_cell_angle_gamma   90.00000000
_symmetry_Int_Tables_number   1
_chemical_formula_structural   Cu8Ni3C13
_chemical_formula_sum   'Cu32 Ni12 C52'
_cell_volume   1093.00436526
_cell_formula_units_Z   4
loop_
 _symmetry_equiv_pos_site_id
 _symmetry_equiv_pos_as_xyz
  1  'x, y, z'
loop_
 _atom_site_type_symbol
 _atom_site_label
 _atom_site_symmetry_multiplicity
 _atom_site_fract_x
 _atom_site_fract_y
 _atom_site_fract_z
 _atom_site_occupancy
  C  C0  1  0.33989800  0.78324600  0.20599100  1
  C  C1  1  0.83989800  0.21675400  0.29400900  1
  C  C2  1  0.66010200  0.21675400  0.79400900  1
  C  C3  1  0.16010200  0.78324600  0.70599100  1
  C  C4  1  0.18572400  0.03767600  0.24448700  1
  C  C5  1  0.68572400  0.96232400  0.25551300  1
  C  C6  1  0.81427600  0.96232400  0.75551300  1
  C  C7  1  0.31427600  0.03767600  0.74448700  1
  C  C8  1  0.17080600  0.60944500  0.21691900  1
  C  C9  1  0.67080600  0.39055500  0.28308100  1
  C  C10  1  0.82919400  0.39055500  0.78308100  1
  C  C11  1  0.32919400  0.60944500  0.71691900  1
  C  C12  1  0.50300100  0.41532900  0.36404000  1
  C  C13  1  0.00300100  0.58467100  0.13596000  1
  C  C14  1  0.49699900  0.58467100  0.63596000  1
  C  C15  1  0.99699900  0.41532900  0.86404000  1
  C  C16  1  0.07603600  0.83785500  0.29928900  1
  C  C17  1  0.57603600  0.16214500  0.20071100  1
  C  C18  1  0.92396400  0.16214500  0.70071100  1
  C  C19  1  0.42396400  0.83785500  0.79928900  1
  C  C20  1  0.14179800  0.27098800  0.10918100  1
  C  C21  1  0.64179800  0.72901200  0.39081900  1
  C  C22  1  0.85820200  0.72901200  0.89081900  1
  C  C23  1  0.35820200  0.27098800  0.60918100  1
  C  C24  1  0.17703200  0.36148000  0.36085000  1
  C  C25  1  0.67703200  0.63852000  0.13915000  1
  C  C26  1  0.82296800  0.63852000  0.63915000  1
  C  C27  1  0.32296800  0.36148000  0.86085000  1
  C  C28  1  0.44993800  0.05375900  0.10497800  1
  C  C29  1  0.94993800  0.94624100  0.39502200  1
  C  C30  1  0.55006200  0.94624100  0.89502200  1
  C  C31  1  0.05006200  0.05375900  0.60497800  1
  C  C32  1  0.26541000  0.62118400  0.03837600  1
  C  C33  1  0.76541000  0.37881600  0.46162400  1
  C  C34  1  0.73459000  0.37881600  0.96162400  1
  C  C35  1  0.23459000  0.62118400  0.53837600  1
  C  C36  1  0.31662800  0.06091100  0.33005600  1
  C  C37  1  0.81662800  0.93908900  0.16994400  1
  C  C38  1  0.68337200  0.93908900  0.66994400  1
  C  C39  1  0.18337200  0.06091100  0.83005600  1
  C  C40  1  0.45221500  0.32029400  0.24495900  1
  C  C41  1  0.95221500  0.67970600  0.25504100  1
  C  C42  1  0.54778500  0.67970600  0.75504100  1
  C  C43  1  0.04778500  0.32029400  0.74495900  1
  C  C44  1  0.50499900  0.20698500  0.02391400  1
  C  C45  1  0.00499900  0.79301500  0.47608600  1
  C  C46  1  0.49500100  0.79301500  0.97608600  1
  C  C47  1  0.99500100  0.20698500  0.52391400  1
  C  C48  1  0.40082700  0.55454000  0.33563100  1
  C  C49  1  0.90082700  0.44546000  0.16436900  1
  C  C50  1  0.59917300  0.44546000  0.66436900  1
  C  C51  1  0.09917300  0.55454000  0.83563100  1
  Ni  Ni52  1  0.26244800  0.65027400  0.13938800  1
  Ni  Ni53  1  0.76244800  0.34972600  0.36061200  1
  Ni  Ni54  1  0.73755200  0.34972600  0.86061200  1
  Ni  Ni55  1  0.23755200  0.65027400  0.63938800  1
  Ni  Ni56  1  0.13440000  0.82942300  0.24879800  1
  Ni  Ni57  1  0.63440000  0.17057700  0.25120200  1
  Ni  Ni58  1  0.86560000  0.17057700  0.75120200  1
  Ni  Ni59  1  0.36560000  0.82942300  0.74879800  1
  Ni  Ni60  1  0.28826900  0.98386000  0.25479100  1
  Ni  Ni61  1  0.78826900  0.01614000  0.24520900  1
  Ni  Ni62  1  0.71173100  0.01614000  0.74520900  1
  Ni  Ni63  1  0.21173100  0.98386000  0.75479100  1
  Cu  Cu64  1  0.36699500  0.69054700  0.34132000  1
  Cu  Cu65  1  0.86699500  0.30945300  0.15868000  1
  Cu  Cu66  1  0.63300500  0.30945300  0.65868000  1
  Cu  Cu67  1  0.13300500  0.69054700  0.84132000  1
  Cu  Cu68  1  0.16723500  0.13440800  0.10407500  1
  Cu  Cu69  1  0.66723500  0.86559200  0.39592500  1
  Cu  Cu70  1  0.83276500  0.86559200  0.89592500  1
  Cu  Cu71  1  0.33276500  0.13440800  0.60407500  1
  Cu  Cu72  1  0.11325700  0.49088000  0.12972400  1
  Cu  Cu73  1  0.61325700  0.50912000  0.37027600  1
  Cu  Cu74  1  0.88674300  0.50912000  0.87027600  1
  Cu  Cu75  1  0.38674300  0.49088000  0.62972400  1
  Cu  Cu76  1  0.16171100  0.16311600  0.36125000  1
  Cu  Cu77  1  0.66171100  0.83688400  0.13875000  1
  Cu  Cu78  1  0.83828900  0.83688400  0.63875000  1
  Cu  Cu79  1  0.33828900  0.16311600  0.86125000  1
  Cu  Cu80  1  0.18761200  0.51524600  0.35763100  1
  Cu  Cu81  1  0.68761200  0.48475400  0.14236900  1
  Cu  Cu82  1  0.81238800  0.48475400  0.64236900  1
  Cu  Cu83  1  0.31238800  0.51524600  0.85763100  1
  Cu  Cu84  1  0.44518300  0.38035000  0.33550600  1
  Cu  Cu85  1  0.94518300  0.61965000  0.16449400  1
  Cu  Cu86  1  0.55481700  0.61965000  0.66449400  1
  Cu  Cu87  1  0.05481700  0.38035000  0.83550600  1
  Cu  Cu88  1  0.40822300  0.82070600  0.10604600  1
  Cu  Cu89  1  0.90822300  0.17929400  0.39395400  1
  Cu  Cu90  1  0.59177700  0.17929400  0.89395400  1
  Cu  Cu91  1  0.09177700  0.82070600  0.60604600  1
  Cu  Cu92  1  0.48142200  0.17787600  0.11319700  1
  Cu  Cu93  1  0.98142200  0.82212400  0.38680300  1
  Cu  Cu94  1  0.51857800  0.82212400  0.88680300  1
  Cu  Cu95  1  0.01857800  0.17787600  0.61319700  1
