# generated using pymatgen
data_Cu6Ni9C19
_symmetry_space_group_name_H-M   'P 1'
_cell_length_a   7.81384000
_cell_length_b   16.80620200
_cell_length_c   12.60380869
_cell_angle_alpha   90.00000000
_cell_angle_beta   128.23407318
_cell_angle_gamma   90.00000000
_symmetry_Int_Tables_number   1
_chemical_formula_structural   Cu6Ni9C19
_chemical_formula_sum   'Cu24 Ni36 C76'
_cell_volume   1300.09772912
_cell_formula_units_Z   4
loop_
 _symmetry_equiv_pos_site_id
 _symmetry_equiv_pos_as_xyz
  1  'x, y, z'
loop_
 _atom_site_type_symbol
 _atom_site_label
 _atom_site_symmetry_multiplicity
 _atom_site_fract_x
 _atom_site_fract_y
 _atom_site_fract_z
 _atom_site_occupancy
  C  C0  1  0.88021300  0.28940100  0.63816800  1
  C  C1  1  0.88021300  0.21059900  0.13816800  1
  C  C2  1  0.11978700  0.71059900  0.36183200  1
  C  C3  1  0.11978700  0.78940100  0.86183200  1
  Ni  Ni4  1  0.16883200  0.39778800  0.54258800  1
  Ni  Ni5  1  0.16883200  0.10221200  0.04258800  1
  Ni  Ni6  1  0.83116800  0.60221200  0.45741200  1
  Ni  Ni7  1  0.83116800  0.89778800  0.95741200  1
  Ni  Ni8  1  0.47444600  0.29390000  0.63898400  1
  Ni  Ni9  1  0.47444600  0.20610000  0.13898400  1
  Ni  Ni10  1  0.52555400  0.70610000  0.36101600  1
  Ni  Ni11  1  0.52555400  0.79390000  0.86101600  1
  Ni  Ni12  1  0.93946900  0.46252000  0.60796100  1
  Ni  Ni13  1  0.93946900  0.03748000  0.10796100  1
  Ni  Ni14  1  0.06053100  0.53748000  0.39203900  1
  Ni  Ni15  1  0.06053100  0.96252000  0.89203900  1
  Ni  Ni16  1  0.15753500  0.18271300  0.51739700  1
  Ni  Ni17  1  0.15753500  0.31728700  0.01739700  1
  Ni  Ni18  1  0.84246500  0.81728700  0.48260300  1
  Ni  Ni19  1  0.84246500  0.68271300  0.98260300  1
  Ni  Ni20  1  0.41339700  0.19462900  0.77543200  1
  Ni  Ni21  1  0.41339700  0.30537100  0.27543200  1
  Ni  Ni22  1  0.58660300  0.80537100  0.22456800  1
  Ni  Ni23  1  0.58660300  0.69462900  0.72456800  1
  Ni  Ni24  1  0.24916700  0.06674800  0.66344600  1
  Ni  Ni25  1  0.24916700  0.43325200  0.16344600  1
  Ni  Ni26  1  0.75083300  0.93325200  0.33655400  1
  Ni  Ni27  1  0.75083300  0.56674800  0.83655400  1
  Ni  Ni28  1  0.77484200  0.23784100  0.37660300  1
  Ni  Ni29  1  0.77484200  0.26215900  0.87660300  1
  Ni  Ni30  1  0.22515800  0.76215900  0.62339700  1
  Ni  Ni31  1  0.22515800  0.73784100  0.12339700  1
  Ni  Ni32  1  0.30265900  0.25296900  0.90822300  1
  Ni  Ni33  1  0.30265900  0.24703100  0.40822300  1
  Ni  Ni34  1  0.69734100  0.74703100  0.09177700  1
  Ni  Ni35  1  0.69734100  0.75296900  0.59177700  1
  Ni  Ni36  1  0.06783500  0.59701000  0.71031300  1
  Ni  Ni37  1  0.06783500  0.90299000  0.21031300  1
  Ni  Ni38  1  0.93216500  0.40299000  0.28968700  1
  Ni  Ni39  1  0.93216500  0.09701000  0.78968700  1
  Cu  Cu40  1  0.10058900  0.95949400  0.59909600  1
  Cu  Cu41  1  0.10058900  0.54050600  0.09909600  1
  Cu  Cu42  1  0.89941100  0.04050600  0.40090400  1
  Cu  Cu43  1  0.89941100  0.45949400  0.90090400  1
  Cu  Cu44  1  0.76822700  0.45138500  0.68680800  1
  Cu  Cu45  1  0.76822700  0.04861500  0.18680800  1
  Cu  Cu46  1  0.23177300  0.54861500  0.31319200  1
  Cu  Cu47  1  0.23177300  0.95138500  0.81319200  1
  Cu  Cu48  1  0.34989700  0.50834500  0.59051500  1
  Cu  Cu49  1  0.34989700  0.99165500  0.09051500  1
  Cu  Cu50  1  0.65010300  0.49165500  0.40948500  1
  Cu  Cu51  1  0.65010300  0.00834500  0.90948500  1
  Cu  Cu52  1  0.72995700  0.11291100  0.58431700  1
  Cu  Cu53  1  0.72995700  0.38708900  0.08431700  1
  Cu  Cu54  1  0.27004300  0.88708900  0.41568300  1
  Cu  Cu55  1  0.27004300  0.61291100  0.91568300  1
  Cu  Cu56  1  0.39046200  0.44263600  0.88887400  1
  Cu  Cu57  1  0.39046200  0.05736400  0.38887400  1
  Cu  Cu58  1  0.60953800  0.55736400  0.11112600  1
  Cu  Cu59  1  0.60953800  0.94263600  0.61112600  1
  Cu  Cu60  1  0.49695500  0.40153800  0.83285300  1
  Cu  Cu61  1  0.49695500  0.09846200  0.33285300  1
  Cu  Cu62  1  0.50304500  0.59846200  0.16714700  1
  Cu  Cu63  1  0.50304500  0.90153800  0.66714700  1
  C  C64  1  0.09298700  0.51609000  0.71808800  1
  C  C65  1  0.09298700  0.98391000  0.21808800  1
  C  C66  1  0.90701300  0.48391000  0.28191200  1
  C  C67  1  0.90701300  0.01609000  0.78191200  1
  C  C68  1  0.21636000  0.98887800  0.68140900  1
  C  C69  1  0.21636000  0.51112200  0.18140900  1
  C  C70  1  0.78364000  0.01112200  0.31859100  1
  C  C71  1  0.78364000  0.48887800  0.81859100  1
  C  C72  1  0.38106900  0.36490000  0.64147000  1
  C  C73  1  0.38106900  0.13510000  0.14147000  1
  C  C74  1  0.61893100  0.63510000  0.35853000  1
  C  C75  1  0.61893100  0.86490000  0.85853000  1
  C  C76  1  0.71016200  0.29110700  0.75597900  1
  C  C77  1  0.71016200  0.20889300  0.25597900  1
  C  C78  1  0.28983800  0.70889300  0.24402100  1
  C  C79  1  0.28983800  0.79110700  0.74402100  1
  C  C80  1  0.63731100  0.28140600  0.38793500  1
  C  C81  1  0.63731100  0.21859400  0.88793500  1
  C  C82  1  0.36268900  0.71859400  0.61206500  1
  C  C83  1  0.36268900  0.78140600  0.11206500  1
  C  C84  1  0.79218300  0.42340400  0.62746200  1
  C  C85  1  0.79218300  0.07659600  0.12746200  1
  C  C86  1  0.20781700  0.57659600  0.37253800  1
  C  C87  1  0.20781700  0.92340400  0.87253800  1
  C  C88  1  0.47699500  0.28120600  0.52447400  1
  C  C89  1  0.47699500  0.21879400  0.02447400  1
  C  C90  1  0.52300500  0.71879400  0.47552600  1
  C  C91  1  0.52300500  0.78120600  0.97552600  1
  C  C92  1  0.20307700  0.48744900  0.52419700  1
  C  C93  1  0.20307700  0.01255100  0.02419700  1
  C  C94  1  0.79692300  0.51255100  0.47580300  1
  C  C95  1  0.79692300  0.98744900  0.97580300  1
  C  C96  1  0.15540100  0.30268000  0.90154100  1
  C  C97  1  0.15540100  0.19732000  0.40154100  1
  C  C98  1  0.84459900  0.69732000  0.09845900  1
  C  C99  1  0.84459900  0.80268000  0.59845900  1
  C  C100  1  0.25950000  0.24015400  0.78598300  1
  C  C101  1  0.25950000  0.25984600  0.28598300  1
  C  C102  1  0.74050000  0.75984600  0.21401700  1
  C  C103  1  0.74050000  0.74015400  0.71401700  1
  C  C104  1  0.39028000  0.10988100  0.77896100  1
  C  C105  1  0.39028000  0.39011900  0.27896100  1
  C  C106  1  0.60972000  0.89011900  0.22103900  1
  C  C107  1  0.60972000  0.60988100  0.72103900  1
  C  C108  1  0.97110100  0.22259900  0.49914000  1
  C  C109  1  0.97110100  0.27740100  0.99914000  1
  C  C110  1  0.02889900  0.77740100  0.50086000  1
  C  C111  1  0.02889900  0.72259900  0.00086000  1
  C  C112  1  0.05106200  0.36169100  0.40806500  1
  C  C113  1  0.05106200  0.13830900  0.90806500  1
  C  C114  1  0.94893800  0.63830900  0.59193500  1
  C  C115  1  0.94893800  0.86169100  0.09193500  1
  C  C116  1  0.14484700  0.09786100  0.53588300  1
  C  C117  1  0.14484700  0.40213900  0.03588300  1
  C  C118  1  0.85515300  0.90213900  0.46411700  1
  C  C119  1  0.85515300  0.59786100  0.96411700  1
  C  C120  1  0.36414200  0.21778000  0.64375800  1
  C  C121  1  0.36414200  0.28222000  0.14375800  1
  C  C122  1  0.63585800  0.78222000  0.35624200  1
  C  C123  1  0.63585800  0.71778000  0.85624200  1
  C  C124  1  0.03800200  0.39544100  0.59083800  1
  C  C125  1  0.03800200  0.10455900  0.09083800  1
  C  C126  1  0.96199800  0.60455900  0.40916200  1
  C  C127  1  0.96199800  0.89544100  0.90916200  1
  C  C128  1  0.83240400  0.14236900  0.67102200  1
  C  C129  1  0.83240400  0.35763100  0.17102200  1
  C  C130  1  0.16759600  0.85763100  0.32897800  1
  C  C131  1  0.16759600  0.64236900  0.82897800  1
  C  C132  1  0.52161400  0.41387200  0.91811000  1
  C  C133  1  0.52161400  0.08612800  0.41811000  1
  C  C134  1  0.47838600  0.58612800  0.08189000  1
  C  C135  1  0.47838600  0.91387200  0.58189000  1
