# generated using pymatgen
data_Cu17(Ni3C2)2
_symmetry_space_group_name_H-M   'P 1'
_cell_length_a   10.73770260
_cell_length_b   10.73770260
_cell_length_c   14.18375321
_cell_angle_alpha   80.26654731
_cell_angle_beta   80.26654731
_cell_angle_gamma   75.07630097
_symmetry_Int_Tables_number   1
_chemical_formula_structural   Cu17(Ni3C2)2
_chemical_formula_sum   'Cu68 Ni24 C16'
_cell_volume   1543.86596471
_cell_formula_units_Z   4
loop_
 _symmetry_equiv_pos_site_id
 _symmetry_equiv_pos_as_xyz
  1  'x, y, z'
loop_
 _atom_site_type_symbol
 _atom_site_label
 _atom_site_symmetry_multiplicity
 _atom_site_fract_x
 _atom_site_fract_y
 _atom_site_fract_z
 _atom_site_occupancy
  C  C0  1  0.24434492  0.97701546  0.03813001  1
  C  C1  1  0.97701546  0.24434492  0.53813001  1
  C  C2  1  0.64771196  0.65260576  0.28427245  1
  C  C3  1  0.65260576  0.64771196  0.78427245  1
  C  C4  1  0.06633005  0.33600263  0.03375845  1
  C  C5  1  0.33600263  0.06633005  0.53375845  1
  C  C6  1  0.41242838  0.61898441  0.06101300  1
  C  C7  1  0.61898441  0.41242838  0.56101300  1
  C  C8  1  0.92161233  0.37881736  0.28361630  1
  C  C9  1  0.37881736  0.92161233  0.78361630  1
  C  C10  1  0.88424400  0.71003088  0.00543184  1
  C  C11  1  0.71003088  0.88424400  0.50543184  1
  C  C12  1  0.09220461  0.82477466  0.27669222  1
  C  C13  1  0.82477466  0.09220461  0.77669222  1
  C  C14  1  0.47562774  0.20727721  0.29345175  1
  C  C15  1  0.20727721  0.47562774  0.79345175  1
  Ni  Ni16  1  0.61006659  0.94447814  0.31888097  1
  Ni  Ni17  1  0.94447814  0.61006659  0.81888097  1
  Ni  Ni18  1  0.03888129  0.09541128  0.21858849  1
  Ni  Ni19  1  0.09541128  0.03888129  0.71858849  1
  Ni  Ni20  1  0.92382607  0.69845087  0.22282873  1
  Ni  Ni21  1  0.69845087  0.92382607  0.72282873  1
  Ni  Ni22  1  0.66278113  0.35192347  0.24179300  1
  Ni  Ni23  1  0.35192347  0.66278113  0.74179300  1
  Ni  Ni24  1  0.33743305  0.76063228  0.34218167  1
  Ni  Ni25  1  0.76063228  0.33743305  0.84218167  1
  Ni  Ni26  1  0.60054365  0.37658161  0.34770267  1
  Ni  Ni27  1  0.37658161  0.60054365  0.84770267  1
  Ni  Ni28  1  0.35565097  0.68972419  0.25083130  1
  Ni  Ni29  1  0.68972419  0.35565097  0.75083130  1
  Ni  Ni30  1  0.53953779  0.96387098  0.22712190  1
  Ni  Ni31  1  0.96387098  0.53953779  0.72712190  1
  Ni  Ni32  1  0.94759461  0.63678364  0.32891912  1
  Ni  Ni33  1  0.63678364  0.94759461  0.82891912  1
  Ni  Ni34  1  0.20461707  0.25729889  0.34853928  1
  Ni  Ni35  1  0.25729889  0.20461707  0.84853928  1
  Ni  Ni36  1  0.22865566  0.35481200  0.25565553  1
  Ni  Ni37  1  0.35481200  0.22865566  0.75565553  1
  Ni  Ni38  1  0.94481793  0.07222292  0.31361744  1
  Ni  Ni39  1  0.07222292  0.94481793  0.81361744  1
  Cu  Cu40  1  0.45230057  0.84436965  0.04631510  1
  Cu  Cu41  1  0.84436965  0.45230057  0.54631510  1
  Cu  Cu42  1  0.58469249  0.04709211  0.36213727  1
  Cu  Cu43  1  0.04709211  0.58469249  0.86213727  1
  Cu  Cu44  1  0.97724176  0.79420153  0.18973765  1
  Cu  Cu45  1  0.79420153  0.97724176  0.68973765  1
  Cu  Cu46  1  0.34817042  0.35342735  0.22565119  1
  Cu  Cu47  1  0.35342735  0.34817042  0.72565119  1
  Cu  Cu48  1  0.81403324  0.05990743  0.06078497  1
  Cu  Cu49  1  0.05990743  0.81403324  0.56078497  1
  Cu  Cu50  1  0.43225961  0.74510225  0.38598500  1
  Cu  Cu51  1  0.74510225  0.43225961  0.88598500  1
  Cu  Cu52  1  0.25230806  0.71413766  0.20850187  1
  Cu  Cu53  1  0.71413766  0.25230806  0.70850187  1
  Cu  Cu54  1  0.68081728  0.83828715  0.34711413  1
  Cu  Cu55  1  0.83828715  0.68081728  0.84711413  1
  Cu  Cu56  1  0.94794889  0.95278386  0.34552363  1
  Cu  Cu57  1  0.95278386  0.94794889  0.84552363  1
  Cu  Cu58  1  0.15410466  0.77708870  0.00954964  1
  Cu  Cu59  1  0.77708870  0.15410466  0.50954964  1
  Cu  Cu60  1  0.84985275  0.46097220  0.02396352  1
  Cu  Cu61  1  0.46097220  0.84985275  0.52396352  1
  Cu  Cu62  1  0.03587214  0.20690439  0.17684703  1
  Cu  Cu63  1  0.20690439  0.03587214  0.67684703  1
  Cu  Cu64  1  0.88413477  0.55701441  0.37161207  1
  Cu  Cu65  1  0.55701441  0.88413477  0.87161207  1
  Cu  Cu66  1  0.50636295  0.32098141  0.38108319  1
  Cu  Cu67  1  0.32098141  0.50636295  0.88108319  1
  Cu  Cu68  1  0.92493148  0.08478540  0.02565813  1
  Cu  Cu69  1  0.08478540  0.92493148  0.52565813  1
  Cu  Cu70  1  0.85862083  0.65356834  0.17801101  1
  Cu  Cu71  1  0.65356834  0.85862083  0.67801101  1
  Cu  Cu72  1  0.30954068  0.18160418  0.37777452  1
  Cu  Cu73  1  0.18160418  0.30954068  0.87777452  1
  Cu  Cu74  1  0.13137195  0.42501957  0.21981956  1
  Cu  Cu75  1  0.42501957  0.13137195  0.71981956  1
  Cu  Cu76  1  0.15392488  0.52253312  0.06080048  1
  Cu  Cu77  1  0.52253312  0.15392488  0.56080048  1
  Cu  Cu78  1  0.64381813  0.44398064  0.39156142  1
  Cu  Cu79  1  0.44398064  0.64381813  0.89156142  1
  Cu  Cu80  1  0.23957476  0.44569581  0.51595732  1
  Cu  Cu81  1  0.44569581  0.23957476  0.01595732  1
  Cu  Cu82  1  0.11528444  0.99012617  0.19002552  1
  Cu  Cu83  1  0.99012617  0.11528444  0.69002552  1
  Cu  Cu84  1  0.74248412  0.41543205  0.19942868  1
  Cu  Cu85  1  0.41543205  0.74248412  0.69942868  1
  Cu  Cu86  1  0.09244495  0.25822510  0.38817313  1
  Cu  Cu87  1  0.25822510  0.09244495  0.88817313  1
  Cu  Cu88  1  0.46213127  0.62035197  0.22159432  1
  Cu  Cu89  1  0.62035197  0.46213127  0.72159432  1
  Cu  Cu90  1  0.62421471  0.26555644  0.20923132  1
  Cu  Cu91  1  0.26555644  0.62421471  0.70923132  1
  Cu  Cu92  1  0.87522527  0.16971614  0.34943330  1
  Cu  Cu93  1  0.16971614  0.87522527  0.84943330  1
  Cu  Cu94  1  0.55413978  0.86865658  0.18362764  1
  Cu  Cu95  1  0.86865658  0.55413978  0.68362764  1
  Cu  Cu96  1  0.03356762  0.67596098  0.36159330  1
  Cu  Cu97  1  0.67596098  0.03356762  0.86159330  1
  Cu  Cu98  1  0.33149760  0.21561878  0.04477999  1
  Cu  Cu99  1  0.21561878  0.33149760  0.54477999  1
  Cu  Cu100  1  0.46919476  0.07926549  0.20748435  1
  Cu  Cu101  1  0.07926549  0.46919476  0.70748435  1
  Cu  Cu102  1  0.22240413  0.83288494  0.36056829  1
  Cu  Cu103  1  0.83288494  0.22240413  0.86056829  1
  Cu  Cu104  1  0.78633220  0.96055445  0.03667751  1
  Cu  Cu105  1  0.96055445  0.78633220  0.53667751  1
  Cu  Cu106  1  0.45879482  0.35278733  0.02246782  1
  Cu  Cu107  1  0.35278733  0.45879482  0.52246782  1
