# generated using pymatgen
data_CuNiC32
_symmetry_space_group_name_H-M   'P 1'
_cell_length_a   9.00791763
_cell_length_b   9.00791763
_cell_length_c   7.18277408
_cell_angle_alpha   66.78658556
_cell_angle_beta   66.78658556
_cell_angle_gamma   111.20863718
_symmetry_Int_Tables_number   1
_chemical_formula_structural   CuNiC32
_chemical_formula_sum   'Cu1 Ni1 C32'
_cell_volume   389.23142154
_cell_formula_units_Z   1
loop_
 _symmetry_equiv_pos_site_id
 _symmetry_equiv_pos_as_xyz
  1  'x, y, z'
loop_
 _atom_site_type_symbol
 _atom_site_label
 _atom_site_symmetry_multiplicity
 _atom_site_fract_x
 _atom_site_fract_y
 _atom_site_fract_z
 _atom_site_occupancy
  Ni  Ni0  1  0.50000000  0.50000000  0.50000000  1
  C  C1  1  0.80418700  0.99513400  0.31235800  1
  C  C2  1  0.99513400  0.80418700  0.31235800  1
  C  C3  1  0.19581300  0.00486600  0.68764200  1
  C  C4  1  0.00486600  0.19581300  0.68764200  1
  C  C5  1  0.86928400  0.18704400  0.32551100  1
  C  C6  1  0.18704400  0.86928400  0.32551100  1
  C  C7  1  0.13071600  0.81295600  0.67448900  1
  C  C8  1  0.81295600  0.13071600  0.67448900  1
  C  C9  1  0.04223000  0.21362000  0.08499000  1
  C  C10  1  0.21362000  0.04223000  0.08499000  1
  C  C11  1  0.95777000  0.78638000  0.91501000  1
  C  C12  1  0.78638000  0.95777000  0.91501000  1
  Cu  Cu13  1  0.00000000  0.00000000  0.50000000  1
  C  C14  1  0.42942200  0.78076500  0.40494000  1
  C  C15  1  0.78076500  0.42942200  0.40494000  1
  C  C16  1  0.57057800  0.21923500  0.59506000  1
  C  C17  1  0.21923500  0.57057800  0.59506000  1
  C  C18  1  0.91944800  0.11165100  0.27940900  1
  C  C19  1  0.11165100  0.91944800  0.27940900  1
  C  C20  1  0.08055200  0.88834900  0.72059100  1
  C  C21  1  0.88834900  0.08055200  0.72059100  1
  C  C22  1  0.58421100  0.77648700  0.34624000  1
  C  C23  1  0.77648700  0.58421100  0.34624000  1
  C  C24  1  0.41578900  0.22351300  0.65376000  1
  C  C25  1  0.22351300  0.41578900  0.65376000  1
  C  C26  1  0.44164600  0.93734000  0.31948100  1
  C  C27  1  0.93734000  0.44164600  0.31948100  1
  C  C28  1  0.55835400  0.06266000  0.68051900  1
  C  C29  1  0.06266000  0.55835400  0.68051900  1
  C  C30  1  0.45914400  0.45914400  0.78022100  1
  C  C31  1  0.54085600  0.54085600  0.21977900  1
  C  C32  1  0.64322900  0.35677100  0.00000000  1
  C  C33  1  0.35677100  0.64322900  0.00000000  1
