# generated using pymatgen
data_Cu2NiC
_symmetry_space_group_name_H-M   'P 1'
_cell_length_a   4.47917177
_cell_length_b   4.47917177
_cell_length_c   6.41489698
_cell_angle_alpha   72.91045295
_cell_angle_beta   72.91045295
_cell_angle_gamma   71.99003579
_symmetry_Int_Tables_number   1
_chemical_formula_structural   Cu2NiC
_chemical_formula_sum   'Cu4 Ni2 C2'
_cell_volume   114.03690637
_cell_formula_units_Z   2
loop_
 _symmetry_equiv_pos_site_id
 _symmetry_equiv_pos_as_xyz
  1  'x, y, z'
loop_
 _atom_site_type_symbol
 _atom_site_label
 _atom_site_symmetry_multiplicity
 _atom_site_fract_x
 _atom_site_fract_y
 _atom_site_fract_z
 _atom_site_occupancy
  C  C0  1  0.00000000  0.00000000  0.50000000  1
  C  C1  1  0.50000000  0.50000000  0.00000000  1
  Ni  Ni2  1  0.26682500  0.26682500  0.82003100  1
  Ni  Ni3  1  0.73317500  0.73317500  0.17996900  1
  Cu  Cu4  1  0.02411700  0.60480400  0.21957300  1
  Cu  Cu5  1  0.39519600  0.97588300  0.78042700  1
  Cu  Cu6  1  0.97588300  0.39519600  0.78042700  1
  Cu  Cu7  1  0.60480400  0.02411700  0.21957300  1
