# generated using pymatgen
data_Cu2Ni2C11
_symmetry_space_group_name_H-M   'P 1'
_cell_length_a   9.56875715
_cell_length_b   9.56875715
_cell_length_c   9.56875748
_cell_angle_alpha   95.54030686
_cell_angle_beta   95.54030686
_cell_angle_gamma   95.54030540
_symmetry_Int_Tables_number   1
_chemical_formula_structural   Cu2Ni2C11
_chemical_formula_sum   'Cu6 Ni6 C33'
_cell_volume   862.98944291
_cell_formula_units_Z   3
loop_
 _symmetry_equiv_pos_site_id
 _symmetry_equiv_pos_as_xyz
  1  'x, y, z'
loop_
 _atom_site_type_symbol
 _atom_site_label
 _atom_site_symmetry_multiplicity
 _atom_site_fract_x
 _atom_site_fract_y
 _atom_site_fract_z
 _atom_site_occupancy
  C  C0  1  0.77022000  0.77022000  0.77022000  1
  C  C1  1  0.23498700  0.23498700  0.23498700  1
  C  C2  1  0.98491200  0.98491200  0.98491200  1
  Ni  Ni3  1  0.66756700  0.10596600  0.88669500  1
  Ni  Ni4  1  0.88669500  0.10596600  0.66756700  1
  Ni  Ni5  1  0.10596600  0.88669500  0.66756700  1
  Ni  Ni6  1  0.10596600  0.66756700  0.88669500  1
  Ni  Ni7  1  0.88669500  0.66756700  0.10596600  1
  Ni  Ni8  1  0.66756700  0.88669500  0.10596600  1
  Cu  Cu9  1  0.32433600  0.89869100  0.11091400  1
  Cu  Cu10  1  0.11091400  0.89869100  0.32433600  1
  Cu  Cu11  1  0.89869100  0.11091400  0.32433600  1
  Cu  Cu12  1  0.89869100  0.32433600  0.11091400  1
  Cu  Cu13  1  0.11091400  0.32433600  0.89869100  1
  Cu  Cu14  1  0.32433600  0.11091400  0.89869100  1
  C  C15  1  0.54622000  0.73904100  0.54622000  1
  C  C16  1  0.73904100  0.54622000  0.54622000  1
  C  C17  1  0.54622000  0.54622000  0.73904100  1
  C  C18  1  0.45543000  0.25714500  0.45543000  1
  C  C19  1  0.25714500  0.45543000  0.45543000  1
  C  C20  1  0.45543000  0.45543000  0.25714500  1
  C  C21  1  0.71485200  0.09201200  0.71485200  1
  C  C22  1  0.09201200  0.71485200  0.71485200  1
  C  C23  1  0.71485200  0.71485200  0.09201200  1
  C  C24  1  0.26940800  0.91016100  0.26940800  1
  C  C25  1  0.91016100  0.26940800  0.26940800  1
  C  C26  1  0.26940800  0.26940800  0.91016100  1
  C  C27  1  0.94316000  0.72607100  0.94316000  1
  C  C28  1  0.72607100  0.94316000  0.94316000  1
  C  C29  1  0.94316000  0.94316000  0.72607100  1
  C  C30  1  0.05705900  0.28067700  0.05705900  1
  C  C31  1  0.28067700  0.05705900  0.05705900  1
  C  C32  1  0.05705900  0.05705900  0.28067700  1
  C  C33  1  0.12227700  0.49066400  0.89612600  1
  C  C34  1  0.89612600  0.49066400  0.12227700  1
  C  C35  1  0.49066400  0.89612600  0.12227700  1
  C  C36  1  0.49066400  0.12227700  0.89612600  1
  C  C37  1  0.89612600  0.12227700  0.49066400  1
  C  C38  1  0.12227700  0.89612600  0.49066400  1
  C  C39  1  0.23128300  0.00173100  0.78001000  1
  C  C40  1  0.78001000  0.00173100  0.23128300  1
  C  C41  1  0.00173100  0.78001000  0.23128300  1
  C  C42  1  0.00173100  0.23128300  0.78001000  1
  C  C43  1  0.78001000  0.23128300  0.00173100  1
  C  C44  1  0.23128300  0.78001000  0.00173100  1
