# generated using pymatgen
data_Cu6NiC30
_symmetry_space_group_name_H-M   'P 1'
_cell_length_a   8.69023833
_cell_length_b   8.69024197
_cell_length_c   8.69023871
_cell_angle_alpha   60.56148765
_cell_angle_beta   60.56150352
_cell_angle_gamma   60.56149357
_symmetry_Int_Tables_number   1
_chemical_formula_structural   Cu6NiC30
_chemical_formula_sum   'Cu6 Ni1 C30'
_cell_volume   469.95305522
_cell_formula_units_Z   1
loop_
 _symmetry_equiv_pos_site_id
 _symmetry_equiv_pos_as_xyz
  1  'x, y, z'
loop_
 _atom_site_type_symbol
 _atom_site_label
 _atom_site_symmetry_multiplicity
 _atom_site_fract_x
 _atom_site_fract_y
 _atom_site_fract_z
 _atom_site_occupancy
  C  C0  1  0.12423800  0.12423800  0.12423800  1
  C  C1  1  0.24570800  0.24570800  0.24570700  1
  C  C2  1  0.36327300  0.36327300  0.36327300  1
  C  C3  1  0.64322400  0.64322500  0.64322400  1
  C  C4  1  0.99395700  0.99396100  0.99396100  1
  C  C5  1  0.50004800  0.50004600  0.50004700  1
  Ni  Ni6  1  0.84603500  0.84603500  0.84603500  1
  Cu  Cu7  1  0.04463300  0.74372600  0.44098900  1
  Cu  Cu8  1  0.44099000  0.04463300  0.74372600  1
  Cu  Cu9  1  0.74372600  0.44099000  0.04463300  1
  Cu  Cu10  1  0.25051700  0.54461000  0.94046900  1
  Cu  Cu11  1  0.54461000  0.94046900  0.25051700  1
  Cu  Cu12  1  0.94047000  0.25051700  0.54461000  1
  C  C13  1  0.10704700  0.30931700  0.49468300  1
  C  C14  1  0.30931700  0.49468200  0.10704700  1
  C  C15  1  0.04812100  0.89269400  0.24607100  1
  C  C16  1  0.49468300  0.10704700  0.30931700  1
  C  C17  1  0.01413100  0.82926400  0.57894800  1
  C  C18  1  0.24438800  0.59193000  0.43050400  1
  C  C19  1  0.24607100  0.04812100  0.89269400  1
  C  C20  1  0.43050400  0.24438800  0.59193100  1
  C  C21  1  0.19082500  0.37977700  0.99300100  1
  C  C22  1  0.59193100  0.43050300  0.24438900  1
  C  C23  1  0.08779800  0.73876900  0.93275500  1
  C  C24  1  0.37977700  0.99300000  0.19082500  1
  C  C25  1  0.57894900  0.01413100  0.82926400  1
  C  C26  1  0.89269400  0.24607200  0.04812100  1
  C  C27  1  0.40590900  0.56497900  0.74747400  1
  C  C28  1  0.82926300  0.57894900  0.01413100  1
  C  C29  1  0.56497900  0.74747400  0.40590900  1
  C  C30  1  0.73876900  0.93275500  0.08779800  1
  C  C31  1  0.74747400  0.40590900  0.56497800  1
  C  C32  1  0.99300100  0.19082500  0.37977700  1
  C  C33  1  0.51466200  0.89326600  0.66038400  1
  C  C34  1  0.93275500  0.08779800  0.73876900  1
  C  C35  1  0.66038400  0.51466300  0.89326600  1
  C  C36  1  0.89326600  0.66038500  0.51466300  1
