# generated using pymatgen
data_Cu10Ni4C
_symmetry_space_group_name_H-M   'P 1'
_cell_length_a   8.52170676
_cell_length_b   8.52170676
_cell_length_c   13.39508585
_cell_angle_alpha   59.71956694
_cell_angle_beta   59.71956694
_cell_angle_gamma   47.71556229
_symmetry_Int_Tables_number   1
_chemical_formula_structural   Cu10Ni4C
_chemical_formula_sum   'Cu20 Ni8 C2'
_cell_volume   600.38798516
_cell_formula_units_Z   2
loop_
 _symmetry_equiv_pos_site_id
 _symmetry_equiv_pos_as_xyz
  1  'x, y, z'
loop_
 _atom_site_type_symbol
 _atom_site_label
 _atom_site_symmetry_multiplicity
 _atom_site_fract_x
 _atom_site_fract_y
 _atom_site_fract_z
 _atom_site_occupancy
  C  C0  1  0.89990200  0.10009800  0.25000000  1
  C  C1  1  0.10009800  0.89990200  0.75000000  1
  Ni  Ni2  1  0.36383000  0.73902200  0.02383900  1
  Ni  Ni3  1  0.63617000  0.26097800  0.97616100  1
  Ni  Ni4  1  0.26097800  0.63617000  0.47616100  1
  Ni  Ni5  1  0.73902200  0.36383000  0.52383900  1
  Ni  Ni6  1  0.67143600  0.86526800  0.59806500  1
  Ni  Ni7  1  0.32856400  0.13473200  0.40193500  1
  Ni  Ni8  1  0.13473200  0.32856400  0.90193500  1
  Ni  Ni9  1  0.86526800  0.67143600  0.09806500  1
  Cu  Cu10  1  0.36905200  0.71083100  0.11786900  1
  Cu  Cu11  1  0.63094800  0.28916900  0.88213100  1
  Cu  Cu12  1  0.28916900  0.63094800  0.38213100  1
  Cu  Cu13  1  0.71083100  0.36905200  0.61786900  1
  Cu  Cu14  1  0.64140700  0.23266700  0.07010900  1
  Cu  Cu15  1  0.35859300  0.76733300  0.92989100  1
  Cu  Cu16  1  0.76733300  0.35859300  0.42989100  1
  Cu  Cu17  1  0.23266700  0.64140700  0.57010900  1
  Cu  Cu18  1  0.18909900  0.12856100  0.21065900  1
  Cu  Cu19  1  0.81090100  0.87143900  0.78934100  1
  Cu  Cu20  1  0.87143900  0.81090100  0.28934100  1
  Cu  Cu21  1  0.12856100  0.18909900  0.71065900  1
  Cu  Cu22  1  0.72583000  0.98530400  0.52494300  1
  Cu  Cu23  1  0.27417000  0.01469600  0.47505700  1
  Cu  Cu24  1  0.01469600  0.27417000  0.97505700  1
  Cu  Cu25  1  0.98530400  0.72583000  0.02494300  1
  Cu  Cu26  1  0.38339500  0.25457000  0.33268200  1
  Cu  Cu27  1  0.61660500  0.74543000  0.66731800  1
  Cu  Cu28  1  0.74543000  0.61660500  0.16731800  1
  Cu  Cu29  1  0.25457000  0.38339500  0.83268200  1
