# generated using pymatgen
data_CuNiC8
_symmetry_space_group_name_H-M   'P 1'
_cell_length_a   5.68218900
_cell_length_b   5.25089600
_cell_length_c   9.19555886
_cell_angle_alpha   55.28486667
_cell_angle_beta   90.00000000
_cell_angle_gamma   90.00000000
_symmetry_Int_Tables_number   1
_chemical_formula_structural   CuNiC8
_chemical_formula_sum   'Cu2 Ni2 C16'
_cell_volume   225.52551511
_cell_formula_units_Z   2
loop_
 _symmetry_equiv_pos_site_id
 _symmetry_equiv_pos_as_xyz
  1  'x, y, z'
loop_
 _atom_site_type_symbol
 _atom_site_label
 _atom_site_symmetry_multiplicity
 _atom_site_fract_x
 _atom_site_fract_y
 _atom_site_fract_z
 _atom_site_occupancy
  C  C0  1  0.57318800  0.72713400  0.75076800  1
  C  C1  1  0.07318800  0.27286600  0.74923200  1
  C  C2  1  0.42681200  0.27286600  0.24923200  1
  C  C3  1  0.92681200  0.72713400  0.25076800  1
  Ni  Ni4  1  0.00000000  0.00000000  0.50000000  1
  Ni  Ni5  1  0.50000000  0.00000000  0.00000000  1
  Cu  Cu6  1  0.00000000  0.50000000  0.00000000  1
  Cu  Cu7  1  0.50000000  0.50000000  0.50000000  1
  C  C8  1  0.96054300  0.85827200  0.75199200  1
  C  C9  1  0.46054300  0.14172800  0.74800800  1
  C  C10  1  0.03945700  0.14172800  0.24800800  1
  C  C11  1  0.53945700  0.85827200  0.25199200  1
  C  C12  1  0.81104200  0.24922300  0.94466400  1
  C  C13  1  0.31104200  0.75077700  0.55533600  1
  C  C14  1  0.19514700  0.36598200  0.44441200  1
  C  C15  1  0.69514700  0.63401800  0.05558800  1
  C  C16  1  0.18895800  0.75077700  0.05533600  1
  C  C17  1  0.68895800  0.24922300  0.44466400  1
  C  C18  1  0.80485300  0.63401800  0.55558800  1
  C  C19  1  0.30485300  0.36598200  0.94441200  1
