# generated using pymatgen
data_Cu12NiC9
_symmetry_space_group_name_H-M   'P 1'
_cell_length_a   5.37556641
_cell_length_b   15.56297286
_cell_length_c   17.69707318
_cell_angle_alpha   90.00000000
_cell_angle_beta   90.00000000
_cell_angle_gamma   90.00000000
_symmetry_Int_Tables_number   1
_chemical_formula_structural   Cu12NiC9
_chemical_formula_sum   'Cu48 Ni4 C36'
_cell_volume   1480.53349922
_cell_formula_units_Z   4
loop_
 _symmetry_equiv_pos_site_id
 _symmetry_equiv_pos_as_xyz
  1  'x, y, z'
loop_
 _atom_site_type_symbol
 _atom_site_label
 _atom_site_symmetry_multiplicity
 _atom_site_fract_x
 _atom_site_fract_y
 _atom_site_fract_z
 _atom_site_occupancy
  C  C0  1  0.69174151  0.72464339  0.59528987  1
  C  C1  1  0.19174151  0.27535661  0.40471013  1
  C  C2  1  0.69174151  0.77535661  0.09528987  1
  C  C3  1  0.19174151  0.22464339  0.90471013  1
  C  C4  1  0.19571586  0.76990829  0.91023170  1
  C  C5  1  0.69571586  0.23009171  0.08976830  1
  C  C6  1  0.19571586  0.73009171  0.41023170  1
  C  C7  1  0.69571586  0.26990829  0.58976830  1
  C  C8  1  0.72212911  0.75661840  0.80866477  1
  C  C9  1  0.22212911  0.24338160  0.19133523  1
  C  C10  1  0.72212911  0.74338160  0.30866477  1
  C  C11  1  0.22212911  0.25661840  0.69133523  1
  C  C12  1  0.75942028  0.39503003  0.96036502  1
  C  C13  1  0.25942028  0.60496997  0.03963498  1
  C  C14  1  0.75942028  0.10496997  0.46036502  1
  C  C15  1  0.25942028  0.89503003  0.53963498  1
  C  C16  1  0.74590623  0.39854876  0.45554227  1
  C  C17  1  0.24590623  0.60145124  0.54445773  1
  C  C18  1  0.74590623  0.10145124  0.95554227  1
  C  C19  1  0.24590623  0.89854876  0.04445773  1
  C  C20  1  0.78896255  0.45362805  0.82494129  1
  C  C21  1  0.28896255  0.54637195  0.17505871  1
  C  C22  1  0.78896255  0.04637195  0.32494129  1
  C  C23  1  0.28896255  0.95362805  0.67505871  1
  C  C24  1  0.74879897  0.89164680  0.94655186  1
  C  C25  1  0.24879897  0.10835320  0.05344814  1
  C  C26  1  0.74879897  0.60835320  0.44655186  1
  C  C27  1  0.24879897  0.39164680  0.55344814  1
  C  C28  1  0.75832729  0.61259575  0.93750810  1
  C  C29  1  0.25832729  0.38740425  0.06249190  1
  C  C30  1  0.75832729  0.88740425  0.43750810  1
  C  C31  1  0.25832729  0.11259575  0.56249190  1
  C  C32  1  0.56305488  0.47387114  0.77985255  1
  C  C33  1  0.06305488  0.52612886  0.22014745  1
  C  C34  1  0.56305488  0.02612886  0.27985255  1
  C  C35  1  0.06305488  0.97387114  0.72014745  1
  Ni  Ni36  1  0.56411559  0.99484563  0.71937815  1
  Ni  Ni37  1  0.06411559  0.00515437  0.28062185  1
  Ni  Ni38  1  0.56411559  0.50515437  0.21937815  1
  Ni  Ni39  1  0.06411559  0.49484563  0.78062185  1
  Cu  Cu40  1  0.81231968  0.84090547  0.86801242  1
  Cu  Cu41  1  0.31231968  0.15909453  0.13198758  1
  Cu  Cu42  1  0.81231968  0.65909453  0.36801242  1
  Cu  Cu43  1  0.31231968  0.34090547  0.63198758  1
  Cu  Cu44  1  0.39963900  0.77811094  0.79649900  1
  Cu  Cu45  1  0.89963900  0.22188906  0.20350100  1
  Cu  Cu46  1  0.39963900  0.72188906  0.29649900  1
  Cu  Cu47  1  0.89963900  0.27811094  0.70350100  1
  Cu  Cu48  1  0.76589446  0.50571305  0.91468535  1
  Cu  Cu49  1  0.26589446  0.49428695  0.08531465  1
  Cu  Cu50  1  0.76589446  0.99428695  0.41468535  1
  Cu  Cu51  1  0.26589446  0.00571305  0.58531465  1
  Cu  Cu52  1  0.76185813  0.99406803  0.93494532  1
  Cu  Cu53  1  0.26185813  0.00593197  0.06505468  1
  Cu  Cu54  1  0.76185813  0.50593197  0.43494532  1
  Cu  Cu55  1  0.26185813  0.49406803  0.56505468  1
  Cu  Cu56  1  0.47710467  0.86036917  0.97996260  1
  Cu  Cu57  1  0.97710467  0.13963083  0.02003740  1
  Cu  Cu58  1  0.47710467  0.63963083  0.47996260  1
  Cu  Cu59  1  0.97710467  0.36036917  0.52003740  1
  Cu  Cu60  1  0.80789735  0.66327454  0.85969749  1
  Cu  Cu61  1  0.30789735  0.33672546  0.14030251  1
  Cu  Cu62  1  0.80789735  0.83672546  0.35969749  1
  Cu  Cu63  1  0.30789735  0.16327454  0.64030251  1
  Cu  Cu64  1  0.97462512  0.62775717  0.99994238  1
  Cu  Cu65  1  0.47462512  0.37224283  0.00005762  1
  Cu  Cu66  1  0.97462512  0.87224283  0.49994238  1
  Cu  Cu67  1  0.47462512  0.12775717  0.50005762  1
  Cu  Cu68  1  0.96312787  0.85833572  0.00756897  1
  Cu  Cu69  1  0.46312787  0.14166428  0.99243103  1
  Cu  Cu70  1  0.96312787  0.64166428  0.50756897  1
  Cu  Cu71  1  0.46312787  0.35833572  0.49243103  1
  Cu  Cu72  1  0.48959743  0.63155551  0.97536927  1
  Cu  Cu73  1  0.98959743  0.36844449  0.02463073  1
  Cu  Cu74  1  0.48959743  0.86844449  0.47536927  1
  Cu  Cu75  1  0.98959743  0.13155551  0.52463073  1
  Cu  Cu76  1  0.81059485  0.36063300  0.86687732  1
  Cu  Cu77  1  0.31059485  0.63936700  0.13312268  1
  Cu  Cu78  1  0.81059485  0.13936700  0.36687732  1
  Cu  Cu79  1  0.31059485  0.86063300  0.63312268  1
  Cu  Cu80  1  0.80793003  0.15870762  0.86963659  1
  Cu  Cu81  1  0.30793003  0.84129238  0.13036341  1
  Cu  Cu82  1  0.80793003  0.34129238  0.36963659  1
  Cu  Cu83  1  0.30793003  0.65870762  0.63036341  1
  Cu  Cu84  1  0.80093915  0.76006826  0.71276818  1
  Cu  Cu85  1  0.30093915  0.23993174  0.28723182  1
  Cu  Cu86  1  0.80093915  0.73993174  0.21276818  1
  Cu  Cu87  1  0.30093915  0.26006826  0.78723182  1
