# generated using pymatgen
data_CuNiC24
_symmetry_space_group_name_H-M   'P 1'
_cell_length_a   5.92801424
_cell_length_b   12.32530507
_cell_length_c   12.32530507
_cell_angle_alpha   90.00000000
_cell_angle_beta   90.00000000
_cell_angle_gamma   90.00000000
_symmetry_Int_Tables_number   1
_chemical_formula_structural   CuNiC24
_chemical_formula_sum   'Cu2 Ni2 C48'
_cell_volume   900.54328721
_cell_formula_units_Z   2
loop_
 _symmetry_equiv_pos_site_id
 _symmetry_equiv_pos_as_xyz
  1  'x, y, z'
loop_
 _atom_site_type_symbol
 _atom_site_label
 _atom_site_symmetry_multiplicity
 _atom_site_fract_x
 _atom_site_fract_y
 _atom_site_fract_z
 _atom_site_occupancy
  Ni  Ni0  1  0.00000000  0.00000000  0.00000000  1
  Ni  Ni1  1  0.50000000  0.50000000  0.50000000  1
  Cu  Cu2  1  0.25000000  0.00000000  0.50000000  1
  Cu  Cu3  1  0.75000000  0.50000000  0.00000000  1
  C  C4  1  0.02953332  0.41586207  0.27618510  1
  C  C5  1  0.02953332  0.58413793  0.72381490  1
  C  C6  1  0.97046668  0.27618510  0.58413793  1
  C  C7  1  0.52953332  0.91586207  0.22381490  1
  C  C8  1  0.97046668  0.72381490  0.41586207  1
  C  C9  1  0.52953332  0.08413793  0.77618510  1
  C  C10  1  0.47046668  0.77618510  0.91586207  1
  C  C11  1  0.47046668  0.22381490  0.08413793  1
  C  C12  1  0.20114788  0.18779991  0.04148023  1
  C  C13  1  0.20114788  0.81220009  0.95851977  1
  C  C14  1  0.79885212  0.04148023  0.81220009  1
  C  C15  1  0.70114788  0.68779991  0.45851977  1
  C  C16  1  0.79885212  0.95851977  0.18779991  1
  C  C17  1  0.70114788  0.31220009  0.54148023  1
  C  C18  1  0.29885212  0.54148023  0.68779991  1
  C  C19  1  0.29885212  0.45851977  0.31220009  1
  C  C20  1  0.16939599  0.35943070  0.52254792  1
  C  C21  1  0.16939599  0.64056930  0.47745208  1
  C  C22  1  0.83060401  0.52254792  0.64056930  1
  C  C23  1  0.66939599  0.85943070  0.97745208  1
  C  C24  1  0.83060401  0.47745208  0.35943070  1
  C  C25  1  0.66939599  0.14056930  0.02254792  1
  C  C26  1  0.33060401  0.02254792  0.85943070  1
  C  C27  1  0.33060401  0.97745208  0.14056930  1
  C  C28  1  0.02575667  0.13502342  0.55112994  1
  C  C29  1  0.02575667  0.86497658  0.44887006  1
  C  C30  1  0.97424333  0.55112994  0.86497658  1
  C  C31  1  0.52575667  0.63502342  0.94887006  1
  C  C32  1  0.97424333  0.44887006  0.13502342  1
  C  C33  1  0.52575667  0.36497658  0.05112994  1
  C  C34  1  0.47424333  0.05112994  0.63502342  1
  C  C35  1  0.47424333  0.94887006  0.36497658  1
  C  C36  1  0.49038856  0.20841352  0.22345696  1
  C  C37  1  0.49038856  0.79158648  0.77654304  1
  C  C38  1  0.50961144  0.22345696  0.79158648  1
  C  C39  1  0.99038856  0.70841352  0.27654304  1
  C  C40  1  0.50961144  0.77654304  0.20841352  1
  C  C41  1  0.99038856  0.29158648  0.72345696  1
  C  C42  1  0.00961144  0.72345696  0.70841352  1
  C  C43  1  0.00961144  0.27654304  0.29158648  1
  C  C44  1  0.00482234  0.07305000  0.36917698  1
  C  C45  1  0.00482234  0.92695000  0.63082302  1
  C  C46  1  0.99517766  0.36917698  0.92695000  1
  C  C47  1  0.50482234  0.57305000  0.13082302  1
  C  C48  1  0.99517766  0.63082302  0.07305000  1
  C  C49  1  0.50482234  0.42695000  0.86917698  1
  C  C50  1  0.49517766  0.86917698  0.57305000  1
  C  C51  1  0.49517766  0.13082302  0.42695000  1
