# generated using pymatgen
data_Cu11NiC5
_symmetry_space_group_name_H-M   'P 1'
_cell_length_a   9.73403259
_cell_length_b   9.73403259
_cell_length_c   9.66299525
_cell_angle_alpha   82.84427111
_cell_angle_beta   82.84427111
_cell_angle_gamma   82.55610423
_symmetry_Int_Tables_number   1
_chemical_formula_structural   Cu11NiC5
_chemical_formula_sum   'Cu22 Ni2 C10'
_cell_volume   895.30756527
_cell_formula_units_Z   2
loop_
 _symmetry_equiv_pos_site_id
 _symmetry_equiv_pos_as_xyz
  1  'x, y, z'
loop_
 _atom_site_type_symbol
 _atom_site_label
 _atom_site_symmetry_multiplicity
 _atom_site_fract_x
 _atom_site_fract_y
 _atom_site_fract_z
 _atom_site_occupancy
  C  C0  1  0.90819100  0.07452200  0.07639000  1
  C  C1  1  0.07452200  0.90819100  0.57639000  1
  C  C2  1  0.53959300  0.68976500  0.66706300  1
  C  C3  1  0.68976500  0.53959300  0.16706300  1
  C  C4  1  0.30102500  0.43481500  0.33234100  1
  C  C5  1  0.43481500  0.30102500  0.83234100  1
  C  C6  1  0.34015200  0.79879700  0.05437100  1
  C  C7  1  0.79879700  0.34015200  0.55437100  1
  C  C8  1  0.46747100  0.04644300  0.23855700  1
  C  C9  1  0.04644300  0.46747100  0.73855700  1
  Ni  Ni10  1  0.68340800  0.98481700  0.50111900  1
  Ni  Ni11  1  0.98481700  0.68340800  0.00111900  1
  Cu  Cu12  1  0.36799600  0.77866400  0.30749300  1
  Cu  Cu13  1  0.77866400  0.36799600  0.80749300  1
  Cu  Cu14  1  0.67418100  0.87306400  0.30624100  1
  Cu  Cu15  1  0.87306400  0.67418100  0.80624100  1
  Cu  Cu16  1  0.56949500  0.89937500  0.02830600  1
  Cu  Cu17  1  0.89937500  0.56949500  0.52830600  1
  Cu  Cu18  1  0.94889700  0.45375800  0.35747400  1
  Cu  Cu19  1  0.45375800  0.94889700  0.85747400  1
  Cu  Cu20  1  0.21843600  0.12648300  0.29538400  1
  Cu  Cu21  1  0.12648300  0.21843600  0.79538400  1
  Cu  Cu22  1  0.45933100  0.07796100  0.49129400  1
  Cu  Cu23  1  0.07796100  0.45933100  0.99129400  1
  Cu  Cu24  1  0.16523800  0.77085100  0.25989300  1
  Cu  Cu25  1  0.77085100  0.16523800  0.75989300  1
  Cu  Cu26  1  0.42060600  0.58284700  0.00150100  1
  Cu  Cu27  1  0.58284700  0.42060600  0.50150100  1
  Cu  Cu28  1  0.57277000  0.23430900  0.15042000  1
  Cu  Cu29  1  0.23430900  0.57277000  0.65042000  1
  Cu  Cu30  1  0.27374900  0.08110800  0.09056700  1
  Cu  Cu31  1  0.08110800  0.27374900  0.59056700  1
  Cu  Cu32  1  0.83524900  0.14141500  0.40688600  1
  Cu  Cu33  1  0.14141500  0.83524900  0.90688600  1
