# generated using pymatgen
data_Cu2Ni6C31
_symmetry_space_group_name_H-M   'P 1'
_cell_length_a   5.81300730
_cell_length_b   5.81300730
_cell_length_c   19.89826000
_cell_angle_alpha   90.00000000
_cell_angle_beta   90.00000000
_cell_angle_gamma   119.97347188
_symmetry_Int_Tables_number   1
_chemical_formula_structural   Cu2Ni6C31
_chemical_formula_sum   'Cu2 Ni6 C31'
_cell_volume   582.45650655
_cell_formula_units_Z   1
loop_
 _symmetry_equiv_pos_site_id
 _symmetry_equiv_pos_as_xyz
  1  'x, y, z'
loop_
 _atom_site_type_symbol
 _atom_site_label
 _atom_site_symmetry_multiplicity
 _atom_site_fract_x
 _atom_site_fract_y
 _atom_site_fract_z
 _atom_site_occupancy
  C  C0  1  0.00007600  0.99992400  0.38248000  1
  C  C1  1  0.00007600  0.99992400  0.61752000  1
  C  C2  1  0.00064800  0.99935200  0.84721300  1
  C  C3  1  0.00064800  0.99935200  0.15278700  1
  C  C4  1  0.33305900  0.66694100  0.26549600  1
  C  C5  1  0.33305900  0.66694100  0.73450400  1
  C  C6  1  0.33334200  0.66665800  0.50000000  1
  C  C7  1  0.66997200  0.33002800  0.00000000  1
  Ni  Ni8  1  0.66734900  0.33265100  0.18059700  1
  Ni  Ni9  1  0.66734900  0.33265100  0.81940300  1
  Ni  Ni10  1  0.66630700  0.33369300  0.31034200  1
  Ni  Ni11  1  0.66630700  0.33369300  0.68965800  1
  Ni  Ni12  1  0.66671600  0.33328400  0.43706500  1
  Ni  Ni13  1  0.66671600  0.33328400  0.56293500  1
  Cu  Cu14  1  0.33485700  0.66514300  0.09021900  1
  Cu  Cu15  1  0.33485700  0.66514300  0.90978100  1
  C  C16  1  0.99479200  0.00520800  0.00000000  1
  C  C17  1  0.37198600  0.18656400  0.25112000  1
  C  C18  1  0.81347000  0.18653000  0.25080800  1
  C  C19  1  0.81343600  0.62801400  0.25112000  1
  C  C20  1  0.37198600  0.18656400  0.74888000  1
  C  C21  1  0.81347000  0.18653000  0.74919200  1
  C  C22  1  0.81343600  0.62801400  0.74888000  1
  C  C23  1  0.50622500  0.49377500  0.12749100  1
  C  C24  1  0.50849200  0.01612600  0.12830400  1
  C  C25  1  0.98387400  0.49150800  0.12830400  1
  C  C26  1  0.50622500  0.49377500  0.87250900  1
  C  C27  1  0.50849200  0.01612600  0.87169600  1
  C  C28  1  0.98387400  0.49150800  0.87169600  1
  C  C29  1  0.96321300  0.48150900  0.37582000  1
  C  C30  1  0.51829400  0.48170600  0.37586900  1
  C  C31  1  0.51849100  0.03678700  0.37582000  1
  C  C32  1  0.96321300  0.48150900  0.62418000  1
  C  C33  1  0.51829400  0.48170600  0.62413100  1
  C  C34  1  0.51849100  0.03678700  0.62418000  1
  C  C35  1  0.36974500  0.18490100  0.50000000  1
  C  C36  1  0.81523400  0.18476600  0.50000000  1
  C  C37  1  0.81509900  0.63025500  0.50000000  1
  C  C38  1  0.31016000  0.68984000  0.00000000  1
