# generated using pymatgen
data_Cu2NiC4
_symmetry_space_group_name_H-M   'P 1'
_cell_length_a   3.80434000
_cell_length_b   11.72611900
_cell_length_c   13.74470300
_cell_angle_alpha   90.00000000
_cell_angle_beta   90.00000000
_cell_angle_gamma   90.00000000
_symmetry_Int_Tables_number   1
_chemical_formula_structural   Cu2NiC4
_chemical_formula_sum   'Cu8 Ni4 C16'
_cell_volume   613.15317397
_cell_formula_units_Z   4
loop_
 _symmetry_equiv_pos_site_id
 _symmetry_equiv_pos_as_xyz
  1  'x, y, z'
loop_
 _atom_site_type_symbol
 _atom_site_label
 _atom_site_symmetry_multiplicity
 _atom_site_fract_x
 _atom_site_fract_y
 _atom_site_fract_z
 _atom_site_occupancy
  Ni  Ni0  1  0.25000000  0.23909000  0.33353900  1
  Ni  Ni1  1  0.75000000  0.76091000  0.66646100  1
  Ni  Ni2  1  0.25000000  0.73909000  0.16646100  1
  Ni  Ni3  1  0.75000000  0.26091000  0.83353900  1
  Cu  Cu4  1  0.25000000  0.55999500  0.39052200  1
  Cu  Cu5  1  0.75000000  0.44000500  0.60947800  1
  Cu  Cu6  1  0.25000000  0.05999500  0.10947800  1
  Cu  Cu7  1  0.75000000  0.94000500  0.89052200  1
  Cu  Cu8  1  0.25000000  0.58076600  0.90148500  1
  Cu  Cu9  1  0.75000000  0.41923400  0.09851500  1
  Cu  Cu10  1  0.25000000  0.08076600  0.59851500  1
  Cu  Cu11  1  0.75000000  0.91923400  0.40148500  1
  C  C12  1  0.25000000  0.58612800  0.57500200  1
  C  C13  1  0.75000000  0.41387200  0.42499800  1
  C  C14  1  0.25000000  0.08612800  0.92499800  1
  C  C15  1  0.75000000  0.91387200  0.07500200  1
  C  C16  1  0.25000000  0.47214200  0.21566800  1
  C  C17  1  0.75000000  0.52785800  0.78433200  1
  C  C18  1  0.25000000  0.97214200  0.28433200  1
  C  C19  1  0.75000000  0.02785800  0.71566800  1
  C  C20  1  0.25000000  0.87739300  0.52688000  1
  C  C21  1  0.75000000  0.12260700  0.47312000  1
  C  C22  1  0.25000000  0.37739300  0.97312000  1
  C  C23  1  0.75000000  0.62260700  0.02688000  1
  C  C24  1  0.75000000  0.70364600  0.33987100  1
  C  C25  1  0.25000000  0.29635400  0.66012900  1
  C  C26  1  0.75000000  0.20364600  0.16012900  1
  C  C27  1  0.25000000  0.79635400  0.83987100  1
