# generated using pymatgen
data_CuNiC18
_symmetry_space_group_name_H-M   'P 1'
_cell_length_a   6.95860248
_cell_length_b   6.95860248
_cell_length_c   6.95860248
_cell_angle_alpha   60.00000000
_cell_angle_beta   60.00000000
_cell_angle_gamma   60.00000000
_symmetry_Int_Tables_number   1
_chemical_formula_structural   CuNiC18
_chemical_formula_sum   'Cu1 Ni1 C18'
_cell_volume   238.25997090
_cell_formula_units_Z   1
loop_
 _symmetry_equiv_pos_site_id
 _symmetry_equiv_pos_as_xyz
  1  'x, y, z'
loop_
 _atom_site_type_symbol
 _atom_site_label
 _atom_site_symmetry_multiplicity
 _atom_site_fract_x
 _atom_site_fract_y
 _atom_site_fract_z
 _atom_site_occupancy
  C  C0  1  0.99603500  0.99603500  0.50396500  1
  C  C1  1  0.50396500  0.99603500  0.50396500  1
  C  C2  1  0.99603500  0.50396500  0.50396500  1
  C  C3  1  0.50396500  0.50396500  0.99603500  1
  C  C4  1  0.99603500  0.50396500  0.99603500  1
  C  C5  1  0.50396500  0.99603500  0.99603500  1
  Ni  Ni6  1  0.00000000  0.00000000  0.00000000  1
  Cu  Cu7  1  0.50000000  0.50000000  0.50000000  1
  C  C8  1  0.85755400  0.85755400  0.42733900  1
  C  C9  1  0.85755400  0.42733900  0.85755400  1
  C  C10  1  0.42733900  0.85755400  0.85755400  1
  C  C11  1  0.85755400  0.85755400  0.85755400  1
  C  C12  1  0.14560100  0.14560100  0.56319800  1
  C  C13  1  0.14560100  0.56319800  0.14560100  1
  C  C14  1  0.56319800  0.14560100  0.14560100  1
  C  C15  1  0.14560100  0.14560100  0.14560100  1
  C  C16  1  0.59079700  0.59079700  0.22760900  1
  C  C17  1  0.59079700  0.22760900  0.59079700  1
  C  C18  1  0.22760900  0.59079700  0.59079700  1
  C  C19  1  0.59079700  0.59079700  0.59079700  1
