# generated using pymatgen
data_Cu2Ni2C11
_symmetry_space_group_name_H-M   'P 1'
_cell_length_a   5.56153100
_cell_length_b   9.09950600
_cell_length_c   15.08608500
_cell_angle_alpha   90.00000000
_cell_angle_beta   90.00000000
_cell_angle_gamma   90.00000000
_symmetry_Int_Tables_number   1
_chemical_formula_structural   Cu2Ni2C11
_chemical_formula_sum   'Cu8 Ni8 C44'
_cell_volume   763.46429005
_cell_formula_units_Z   4
loop_
 _symmetry_equiv_pos_site_id
 _symmetry_equiv_pos_as_xyz
  1  'x, y, z'
loop_
 _atom_site_type_symbol
 _atom_site_label
 _atom_site_symmetry_multiplicity
 _atom_site_fract_x
 _atom_site_fract_y
 _atom_site_fract_z
 _atom_site_occupancy
  C  C0  1  0.13769900  0.56730500  0.14576100  1
  C  C1  1  0.36230100  0.93269500  0.64576100  1
  C  C2  1  0.36230100  0.06730500  0.85423900  1
  C  C3  1  0.13769900  0.43269500  0.35423900  1
  C  C4  1  0.86230100  0.43269500  0.85423900  1
  C  C5  1  0.63769900  0.06730500  0.35423900  1
  C  C6  1  0.63769900  0.93269500  0.14576100  1
  C  C7  1  0.86230100  0.56730500  0.64576100  1
  Ni  Ni8  1  0.18995800  0.84331100  0.02838900  1
  Ni  Ni9  1  0.31004200  0.65668900  0.52838900  1
  Ni  Ni10  1  0.31004200  0.34331100  0.97161100  1
  Ni  Ni11  1  0.18995800  0.15668900  0.47161100  1
  Ni  Ni12  1  0.81004200  0.15668900  0.97161100  1
  Ni  Ni13  1  0.68995800  0.34331100  0.47161100  1
  Ni  Ni14  1  0.68995800  0.65668900  0.02838900  1
  Ni  Ni15  1  0.81004200  0.84331100  0.52838900  1
  Cu  Cu16  1  0.13394400  0.84485500  0.33406500  1
  Cu  Cu17  1  0.36605600  0.65514500  0.83406500  1
  Cu  Cu18  1  0.36605600  0.34485500  0.66593500  1
  Cu  Cu19  1  0.13394400  0.15514500  0.16593500  1
  Cu  Cu20  1  0.86605600  0.15514500  0.66593500  1
  Cu  Cu21  1  0.63394400  0.34485500  0.16593500  1
  Cu  Cu22  1  0.63394400  0.65514500  0.33406500  1
  Cu  Cu23  1  0.86605600  0.84485500  0.83406500  1
  C  C24  1  0.30758800  0.66090900  0.40956400  1
  C  C25  1  0.19241200  0.83909100  0.90956400  1
  C  C26  1  0.19241200  0.16090900  0.59043600  1
  C  C27  1  0.30758800  0.33909100  0.09043600  1
  C  C28  1  0.69241200  0.33909100  0.59043600  1
  C  C29  1  0.80758800  0.16090900  0.09043600  1
  C  C30  1  0.80758800  0.83909100  0.40956400  1
  C  C31  1  0.69241200  0.66090900  0.90956400  1
  C  C32  1  0.41959900  0.72790300  0.07157500  1
  C  C33  1  0.08040100  0.77209700  0.57157500  1
  C  C34  1  0.08040100  0.22790300  0.92842500  1
  C  C35  1  0.41959900  0.27209700  0.42842500  1
  C  C36  1  0.58040100  0.27209700  0.92842500  1
  C  C37  1  0.91959900  0.22790300  0.42842500  1
  C  C38  1  0.91959900  0.77209700  0.07157500  1
  C  C39  1  0.58040100  0.72790300  0.57157500  1
  C  C40  1  0.46470600  0.83279000  0.27180500  1
  C  C41  1  0.03529400  0.66721000  0.77180500  1
  C  C42  1  0.03529400  0.33279000  0.72819500  1
  C  C43  1  0.46470600  0.16721000  0.22819500  1
  C  C44  1  0.53529400  0.16721000  0.72819500  1
  C  C45  1  0.96470600  0.33279000  0.22819500  1
  C  C46  1  0.96470600  0.66721000  0.27180500  1
  C  C47  1  0.53529400  0.83279000  0.77180500  1
  C  C48  1  0.27152000  0.01442300  0.07355700  1
  C  C49  1  0.22848000  0.48557700  0.57355700  1
  C  C50  1  0.22848000  0.51442300  0.92644300  1
  C  C51  1  0.27152000  0.98557700  0.42644300  1
  C  C52  1  0.72848000  0.98557700  0.92644300  1
  C  C53  1  0.77152000  0.51442300  0.42644300  1
  C  C54  1  0.77152000  0.48557700  0.07355700  1
  C  C55  1  0.72848000  0.01442300  0.57355700  1
  C  C56  1  0.47149100  0.50000000  0.25000000  1
  C  C57  1  0.02850900  0.00000000  0.75000000  1
  C  C58  1  0.52850900  0.50000000  0.75000000  1
  C  C59  1  0.97149100  0.00000000  0.25000000  1
