# generated using pymatgen
data_Cu8Ni4C9
_symmetry_space_group_name_H-M   'P 1'
_cell_length_a   9.39611043
_cell_length_b   9.39611043
_cell_length_c   9.39611066
_cell_angle_alpha   41.33561769
_cell_angle_beta   41.33561769
_cell_angle_gamma   41.33562008
_symmetry_Int_Tables_number   1
_chemical_formula_structural   Cu8Ni4C9
_chemical_formula_sum   'Cu8 Ni4 C9'
_cell_volume   326.90160994
_cell_formula_units_Z   1
loop_
 _symmetry_equiv_pos_site_id
 _symmetry_equiv_pos_as_xyz
  1  'x, y, z'
loop_
 _atom_site_type_symbol
 _atom_site_label
 _atom_site_symmetry_multiplicity
 _atom_site_fract_x
 _atom_site_fract_y
 _atom_site_fract_z
 _atom_site_occupancy
  C  C0  1  0.87755600  0.87755600  0.87755600  1
  C  C1  1  0.87963700  0.37774300  0.37774300  1
  C  C2  1  0.37774300  0.87963700  0.37774300  1
  C  C3  1  0.37774300  0.37774300  0.87963700  1
  C  C4  1  0.12244400  0.12244400  0.12244400  1
  C  C5  1  0.12036300  0.62225700  0.62225700  1
  C  C6  1  0.62225700  0.12036300  0.62225700  1
  C  C7  1  0.62225700  0.62225700  0.12036300  1
  C  C8  1  0.00000000  0.00000000  0.00000000  1
  Ni  Ni9  1  0.00000000  0.50000000  0.00000000  1
  Ni  Ni10  1  0.00000000  0.00000000  0.50000000  1
  Ni  Ni11  1  0.50000000  0.50000000  0.50000000  1
  Ni  Ni12  1  0.50000000  0.00000000  0.00000000  1
  Cu  Cu13  1  0.72543100  0.72543100  0.72543100  1
  Cu  Cu14  1  0.72186800  0.22510900  0.22510900  1
  Cu  Cu15  1  0.22510900  0.72186800  0.22510900  1
  Cu  Cu16  1  0.22510900  0.22510900  0.72186800  1
  Cu  Cu17  1  0.27456900  0.27456900  0.27456900  1
  Cu  Cu18  1  0.27813200  0.77489100  0.77489100  1
  Cu  Cu19  1  0.77489100  0.27813200  0.77489100  1
  Cu  Cu20  1  0.77489100  0.77489100  0.27813200  1
