# generated using pymatgen
data_Cu5Ni4C21
_symmetry_space_group_name_H-M   'P 1'
_cell_length_a   8.75749130
_cell_length_b   8.75749130
_cell_length_c   11.08158727
_cell_angle_alpha   87.51437706
_cell_angle_beta   87.51437706
_cell_angle_gamma   65.43606416
_symmetry_Int_Tables_number   1
_chemical_formula_structural   Cu5Ni4C21
_chemical_formula_sum   'Cu10 Ni8 C42'
_cell_volume   771.94324983
_cell_formula_units_Z   2
loop_
 _symmetry_equiv_pos_site_id
 _symmetry_equiv_pos_as_xyz
  1  'x, y, z'
loop_
 _atom_site_type_symbol
 _atom_site_label
 _atom_site_symmetry_multiplicity
 _atom_site_fract_x
 _atom_site_fract_y
 _atom_site_fract_z
 _atom_site_occupancy
  Ni  Ni0  1  0.93325200  0.65966400  0.42202300  1
  Ni  Ni1  1  0.31037000  0.63213300  0.54262600  1
  Ni  Ni2  1  0.34033600  0.06674800  0.07797700  1
  Ni  Ni3  1  0.36786700  0.68963000  0.95737400  1
  Ni  Ni4  1  0.63213300  0.31037000  0.04262600  1
  Ni  Ni5  1  0.65966400  0.93325200  0.92202300  1
  Ni  Ni6  1  0.06674800  0.34033600  0.57797700  1
  Ni  Ni7  1  0.68963000  0.36786700  0.45737400  1
  Cu  Cu8  1  0.01864600  0.68509900  0.79284200  1
  Cu  Cu9  1  0.68509900  0.01864600  0.29284200  1
  Cu  Cu10  1  0.47252800  0.86007900  0.44191100  1
  Cu  Cu11  1  0.86007900  0.47252800  0.94191100  1
  Cu  Cu12  1  0.13992100  0.52747200  0.05808900  1
  Cu  Cu13  1  0.85424600  0.14575400  0.75000000  1
  Cu  Cu14  1  0.14575400  0.85424600  0.25000000  1
  Cu  Cu15  1  0.52747200  0.13992100  0.55808900  1
  Cu  Cu16  1  0.98135400  0.31490100  0.20715800  1
  Cu  Cu17  1  0.31490100  0.98135400  0.70715800  1
  C  C18  1  0.37033300  0.32121600  0.81888800  1
  C  C19  1  0.00000000  0.00000000  0.50000000  1
  C  C20  1  0.00000000  0.00000000  0.00000000  1
  C  C21  1  0.32121600  0.37033300  0.31888800  1
  C  C22  1  0.62966700  0.67878400  0.18111200  1
  C  C23  1  0.67878400  0.62966700  0.68111200  1
  C  C24  1  0.41119900  0.09554000  0.89482800  1
  C  C25  1  0.10371800  0.73072300  0.94096100  1
  C  C26  1  0.18879500  0.64112500  0.17561600  1
  C  C27  1  0.09185700  0.09733200  0.24150800  1
  C  C28  1  0.26927700  0.89628200  0.55903900  1
  C  C29  1  0.90266800  0.90814300  0.25849200  1
  C  C30  1  0.43759400  0.38323700  0.47282700  1
  C  C31  1  0.74089200  0.11480800  0.92442800  1
  C  C32  1  0.25910800  0.88519200  0.07557200  1
  C  C33  1  0.69271700  0.78665800  0.36242900  1
  C  C34  1  0.20806500  0.59139700  0.69937200  1
  C  C35  1  0.30728300  0.21334200  0.63757100  1
  C  C36  1  0.89628200  0.26927700  0.05903900  1
  C  C37  1  0.08175000  0.45075700  0.89752900  1
  C  C38  1  0.40860300  0.79193500  0.80062800  1
  C  C39  1  0.56240600  0.61676300  0.52717300  1
  C  C40  1  0.79193500  0.40860300  0.30062800  1
  C  C41  1  0.54924300  0.91825000  0.60247100  1
  C  C42  1  0.35887500  0.81120500  0.32438400  1
  C  C43  1  0.59139700  0.20806500  0.19937200  1
  C  C44  1  0.09554000  0.41119900  0.39482800  1
  C  C45  1  0.91825000  0.54924300  0.10247100  1
  C  C46  1  0.88519200  0.25910800  0.57557200  1
  C  C47  1  0.38323700  0.43759400  0.97282700  1
  C  C48  1  0.81120500  0.35887500  0.82438400  1
  C  C49  1  0.09733200  0.09185700  0.74150800  1
  C  C50  1  0.78665800  0.69271700  0.86242900  1
  C  C51  1  0.61676300  0.56240600  0.02717300  1
  C  C52  1  0.73072300  0.10371800  0.44096100  1
  C  C53  1  0.45075700  0.08175000  0.39752900  1
  C  C54  1  0.58880100  0.90446000  0.10517200  1
  C  C55  1  0.90814300  0.90266800  0.75849200  1
  C  C56  1  0.11480800  0.74089200  0.42442800  1
  C  C57  1  0.21334200  0.30728300  0.13757100  1
  C  C58  1  0.64112500  0.18879500  0.67561600  1
  C  C59  1  0.90446000  0.58880100  0.60517200  1
