# generated using pymatgen
data_Cu2Ni4C
_symmetry_space_group_name_H-M   'P 1'
_cell_length_a   7.45619700
_cell_length_b   7.45619700
_cell_length_c   4.15268000
_cell_angle_alpha   90.00000000
_cell_angle_beta   90.00000000
_cell_angle_gamma   90.00000000
_symmetry_Int_Tables_number   1
_chemical_formula_structural   Cu2Ni4C
_chemical_formula_sum   'Cu4 Ni8 C2'
_cell_volume   230.86772013
_cell_formula_units_Z   2
loop_
 _symmetry_equiv_pos_site_id
 _symmetry_equiv_pos_as_xyz
  1  'x, y, z'
loop_
 _atom_site_type_symbol
 _atom_site_label
 _atom_site_symmetry_multiplicity
 _atom_site_fract_x
 _atom_site_fract_y
 _atom_site_fract_z
 _atom_site_occupancy
  C  C0  1  0.50000000  0.50000000  0.00000000  1
  C  C1  1  0.00000000  0.00000000  0.50000000  1
  Ni  Ni2  1  0.59319900  0.15728500  0.50000000  1
  Ni  Ni3  1  0.40680100  0.84271500  0.50000000  1
  Ni  Ni4  1  0.09319900  0.34271500  0.00000000  1
  Ni  Ni5  1  0.90680100  0.65728500  0.00000000  1
  Ni  Ni6  1  0.15728500  0.59319900  0.50000000  1
  Ni  Ni7  1  0.84271500  0.40680100  0.50000000  1
  Ni  Ni8  1  0.34271500  0.09319900  0.00000000  1
  Ni  Ni9  1  0.65728500  0.90680100  0.00000000  1
  Cu  Cu10  1  0.70923100  0.70923100  0.50000000  1
  Cu  Cu11  1  0.29076900  0.29076900  0.50000000  1
  Cu  Cu12  1  0.20923100  0.79076900  0.00000000  1
  Cu  Cu13  1  0.79076900  0.20923100  0.00000000  1
