# generated using pymatgen
data_Cu3Ni2C5
_symmetry_space_group_name_H-M   'P 1'
_cell_length_a   9.04268600
_cell_length_b   9.66029673
_cell_length_c   11.40763329
_cell_angle_alpha   95.62545559
_cell_angle_beta   90.00000000
_cell_angle_gamma   90.00000000
_symmetry_Int_Tables_number   1
_chemical_formula_structural   Cu3Ni2C5
_chemical_formula_sum   'Cu24 Ni16 C40'
_cell_volume   991.71488362
_cell_formula_units_Z   8
loop_
 _symmetry_equiv_pos_site_id
 _symmetry_equiv_pos_as_xyz
  1  'x, y, z'
loop_
 _atom_site_type_symbol
 _atom_site_label
 _atom_site_symmetry_multiplicity
 _atom_site_fract_x
 _atom_site_fract_y
 _atom_site_fract_z
 _atom_site_occupancy
  C  C0  1  0.11455500  0.37712400  0.32176500  1
  C  C1  1  0.38544500  0.87712400  0.82176600  1
  C  C2  1  0.88544500  0.62287600  0.67823400  1
  C  C3  1  0.61455500  0.12287600  0.17823400  1
  C  C4  1  0.10132700  0.32471000  0.67265000  1
  C  C5  1  0.39867300  0.82471000  0.17265000  1
  C  C6  1  0.89867300  0.67529000  0.32735000  1
  C  C7  1  0.60132700  0.17529000  0.82735000  1
  C  C8  1  0.91263100  0.14505800  0.56763900  1
  C  C9  1  0.58736900  0.64505800  0.06763900  1
  C  C10  1  0.08736900  0.85494200  0.43236100  1
  C  C11  1  0.41263100  0.35494200  0.93236100  1
  C  C12  1  0.92229600  0.16794400  0.34099200  1
  C  C13  1  0.57770400  0.66794400  0.84099200  1
  C  C14  1  0.07770400  0.83205600  0.65900800  1
  C  C15  1  0.42229600  0.33205600  0.15900800  1
  C  C16  1  0.86832200  0.39000800  0.08384000  1
  C  C17  1  0.63167800  0.89000800  0.58384000  1
  C  C18  1  0.13167800  0.60999200  0.91616000  1
  C  C19  1  0.36832200  0.10999200  0.41616000  1
  C  C20  1  0.17148200  0.07014000  0.09683600  1
  C  C21  1  0.32851800  0.57014000  0.59683600  1
  C  C22  1  0.82851800  0.92986000  0.90316400  1
  C  C23  1  0.67148200  0.42986000  0.40316400  1
  C  C24  1  0.14690800  0.11816500  0.87584400  1
  C  C25  1  0.35309200  0.61816500  0.37584400  1
  C  C26  1  0.85309200  0.88183500  0.12415600  1
  C  C27  1  0.64690800  0.38183500  0.62415600  1
  C  C28  1  0.94955000  0.31927300  0.86583500  1
  C  C29  1  0.55045000  0.81927300  0.36583500  1
  C  C30  1  0.05045000  0.68072700  0.13416500  1
  C  C31  1  0.44955000  0.18072700  0.63416500  1
  Ni  Ni32  1  0.07677000  0.31002600  0.57908100  1
  Ni  Ni33  1  0.42323000  0.81002600  0.07908100  1
  Ni  Ni34  1  0.92323000  0.68997400  0.42091900  1
  Ni  Ni35  1  0.57677000  0.18997400  0.92091900  1
  Ni  Ni36  1  0.98447600  0.22922700  0.40967100  1
  Ni  Ni37  1  0.51552400  0.72922700  0.90967100  1
  Ni  Ni38  1  0.01552400  0.77077300  0.59032900  1
  Ni  Ni39  1  0.48447600  0.27077300  0.09032900  1
  Ni  Ni40  1  0.09936800  0.14802300  0.06452600  1
  Ni  Ni41  1  0.40063200  0.64802300  0.56452600  1
  Ni  Ni42  1  0.90063200  0.85197700  0.93547400  1
  Ni  Ni43  1  0.59936800  0.35197700  0.43547400  1
  Ni  Ni44  1  0.98893200  0.27391400  0.94357200  1
  Ni  Ni45  1  0.51106800  0.77391400  0.44357200  1
  Ni  Ni46  1  0.01106800  0.72608600  0.05642800  1
  Ni  Ni47  1  0.48893200  0.22608600  0.55642800  1
  Cu  Cu48  1  0.07944300  0.33126800  0.39679100  1
  Cu  Cu49  1  0.42055700  0.83126800  0.89679100  1
  Cu  Cu50  1  0.92055700  0.66873200  0.60320900  1
  Cu  Cu51  1  0.57944300  0.16873200  0.10320900  1
  Cu  Cu52  1  0.13921900  0.38318600  0.50133200  1
  Cu  Cu53  1  0.36078100  0.88318600  0.00133200  1
  Cu  Cu54  1  0.86078100  0.61681400  0.49866800  1
  Cu  Cu55  1  0.63921900  0.11681400  0.99866800  1
  Cu  Cu56  1  0.98043200  0.21469300  0.52584100  1
  Cu  Cu57  1  0.51956800  0.71469300  0.02584100  1
  Cu  Cu58  1  0.01956800  0.78530700  0.47415900  1
  Cu  Cu59  1  0.48043200  0.28530700  0.97415900  1
  Cu  Cu60  1  0.94621300  0.31124700  0.05331600  1
  Cu  Cu61  1  0.55378700  0.81124700  0.55331500  1
  Cu  Cu62  1  0.05378700  0.68875300  0.94668500  1
  Cu  Cu63  1  0.44621300  0.18875300  0.44668400  1
  Cu  Cu64  1  0.01403200  0.23374700  0.13101900  1
  Cu  Cu65  1  0.48596800  0.73374700  0.63101900  1
  Cu  Cu66  1  0.98596800  0.76625300  0.86898100  1
  Cu  Cu67  1  0.51403200  0.26625300  0.36898100  1
  Cu  Cu68  1  0.08640100  0.16956700  0.94828900  1
  Cu  Cu69  1  0.41359900  0.66956700  0.44828900  1
  Cu  Cu70  1  0.91359900  0.83043300  0.05171100  1
  Cu  Cu71  1  0.58640100  0.33043300  0.55171100  1
  C  C72  1  0.26326500  0.02836100  0.74601400  1
  C  C73  1  0.23673500  0.52836100  0.24601400  1
  C  C74  1  0.73673500  0.97163900  0.25398600  1
  C  C75  1  0.76326500  0.47163900  0.75398600  1
  C  C76  1  0.27179000  0.47164400  0.84189800  1
  C  C77  1  0.22821000  0.97164400  0.34189800  1
  C  C78  1  0.72821000  0.52835600  0.15810200  1
  C  C79  1  0.77179000  0.02835600  0.65810200  1
