# generated using pymatgen
data_CuNi5C11
_symmetry_space_group_name_H-M   'P 1'
_cell_length_a   9.90654375
_cell_length_b   9.90654375
_cell_length_c   26.19077458
_cell_angle_alpha   81.96212566
_cell_angle_beta   81.96212566
_cell_angle_gamma   26.26140334
_symmetry_Int_Tables_number   1
_chemical_formula_structural   CuNi5C11
_chemical_formula_sum   'Cu4 Ni20 C44'
_cell_volume   1125.51243899
_cell_formula_units_Z   4
loop_
 _symmetry_equiv_pos_site_id
 _symmetry_equiv_pos_as_xyz
  1  'x, y, z'
loop_
 _atom_site_type_symbol
 _atom_site_label
 _atom_site_symmetry_multiplicity
 _atom_site_fract_x
 _atom_site_fract_y
 _atom_site_fract_z
 _atom_site_occupancy
  Ni  Ni0  1  0.90730800  0.57915800  0.93996100  1
  Ni  Ni1  1  0.42084200  0.09269200  0.56003900  1
  Ni  Ni2  1  0.09269200  0.42084200  0.06003900  1
  Ni  Ni3  1  0.57915800  0.90730800  0.43996100  1
  Ni  Ni4  1  0.50448900  0.34673100  0.95568900  1
  Ni  Ni5  1  0.65326900  0.49551100  0.54431100  1
  Ni  Ni6  1  0.49551100  0.65326900  0.04431100  1
  Ni  Ni7  1  0.34673100  0.50448900  0.45568900  1
  Ni  Ni8  1  0.01664100  0.16571600  0.92229900  1
  Ni  Ni9  1  0.83428400  0.98335900  0.57770100  1
  Ni  Ni10  1  0.98335900  0.83428400  0.07770100  1
  Ni  Ni11  1  0.16571600  0.01664100  0.42229900  1
  Ni  Ni12  1  0.65633100  0.16023100  0.71457000  1
  Ni  Ni13  1  0.83976900  0.34366900  0.78543000  1
  Ni  Ni14  1  0.34366900  0.83976900  0.28543000  1
  Ni  Ni15  1  0.16023100  0.65633100  0.21457000  1
  Ni  Ni16  1  0.14755100  0.67123900  0.82336900  1
  Ni  Ni17  1  0.32876100  0.85244900  0.67663100  1
  Ni  Ni18  1  0.85244900  0.32876100  0.17663100  1
  Ni  Ni19  1  0.67123900  0.14755100  0.32336900  1
  Cu  Cu20  1  0.91001200  0.59532900  0.68317000  1
  Cu  Cu21  1  0.40467100  0.08998800  0.81683000  1
  Cu  Cu22  1  0.08998800  0.40467100  0.31683000  1
  Cu  Cu23  1  0.59532900  0.91001200  0.18317000  1
  C  C24  1  0.69630800  0.32434100  0.90580800  1
  C  C25  1  0.67565900  0.30369200  0.59419200  1
  C  C26  1  0.30369200  0.67565900  0.09419200  1
  C  C27  1  0.32434100  0.69630800  0.40580800  1
  C  C28  1  0.05640300  0.77833700  0.74293700  1
  C  C29  1  0.22166300  0.94359700  0.75706300  1
  C  C30  1  0.94359700  0.22166300  0.25706300  1
  C  C31  1  0.77833700  0.05640300  0.24293700  1
  C  C32  1  0.50838900  0.11157800  0.72624600  1
  C  C33  1  0.88842200  0.49161100  0.77375400  1
  C  C34  1  0.49161100  0.88842200  0.27375400  1
  C  C35  1  0.11157800  0.50838900  0.22624600  1
  C  C36  1  0.12481000  0.09452900  0.84894700  1
  C  C37  1  0.90547100  0.87519000  0.65105300  1
  C  C38  1  0.87519000  0.90547100  0.15105300  1
  C  C39  1  0.09452900  0.12481000  0.34894700  1
  C  C40  1  0.70312100  0.58692100  0.91833800  1
  C  C41  1  0.41307900  0.29687900  0.58166200  1
  C  C42  1  0.29687900  0.41307900  0.08166200  1
  C  C43  1  0.58692100  0.70312100  0.41833800  1
  C  C44  1  0.99325400  0.63050500  0.82950300  1
  C  C45  1  0.36949500  0.00674600  0.67049700  1
  C  C46  1  0.00674600  0.36949500  0.17049700  1
  C  C47  1  0.63050500  0.99325400  0.32950300  1
  C  C48  1  0.19688100  0.72703000  0.98152700  1
  C  C49  1  0.27297000  0.80311900  0.51847300  1
  C  C50  1  0.80311900  0.27297000  0.01847300  1
  C  C51  1  0.72703000  0.19688100  0.48152700  1
  C  C52  1  0.82031000  0.56244700  0.01001200  1
  C  C53  1  0.43755300  0.17969000  0.48998800  1
  C  C54  1  0.17969000  0.43755300  0.98998800  1
  C  C55  1  0.56244700  0.82031000  0.51001200  1
  C  C56  1  0.26321000  0.16456300  0.92170000  1
  C  C57  1  0.83543700  0.73679000  0.57830000  1
  C  C58  1  0.73679000  0.83543700  0.07830000  1
  C  C59  1  0.16456300  0.26321000  0.42170000  1
  C  C60  1  0.31521000  0.45346500  0.89772400  1
  C  C61  1  0.54653500  0.68479000  0.60227600  1
  C  C62  1  0.68479000  0.54653500  0.10227600  1
  C  C63  1  0.45346500  0.31521000  0.39772400  1
  C  C64  1  0.54996500  0.27319500  0.79567700  1
  C  C65  1  0.72680500  0.45003500  0.70432300  1
  C  C66  1  0.45003500  0.72680500  0.20432300  1
  C  C67  1  0.27319500  0.54996500  0.29567700  1
