# generated using pymatgen
data_CuNi3C14
_symmetry_space_group_name_H-M   'P 1'
_cell_length_a   11.15750103
_cell_length_b   11.32787654
_cell_length_c   17.73652345
_cell_angle_alpha   108.55431675
_cell_angle_beta   108.53323025
_cell_angle_gamma   89.89965055
_symmetry_Int_Tables_number   1
_chemical_formula_structural   CuNi3C14
_chemical_formula_sum   'Cu8 Ni24 C112'
_cell_volume   2002.64233954
_cell_formula_units_Z   8
loop_
 _symmetry_equiv_pos_site_id
 _symmetry_equiv_pos_as_xyz
  1  'x, y, z'
loop_
 _atom_site_type_symbol
 _atom_site_label
 _atom_site_symmetry_multiplicity
 _atom_site_fract_x
 _atom_site_fract_y
 _atom_site_fract_z
 _atom_site_occupancy
  Ni  Ni0  1  0.30740500  0.05955500  0.60941700  1
  Ni  Ni1  1  0.30757100  0.55990700  0.60907300  1
  Ni  Ni2  1  0.80917600  0.06139900  0.60928000  1
  Ni  Ni3  1  0.80989800  0.56000700  0.61030400  1
  Ni  Ni4  1  0.19784500  0.43866200  0.39049900  1
  Ni  Ni5  1  0.19354000  0.43670800  0.88898800  1
  Ni  Ni6  1  0.19452800  0.93892100  0.38821400  1
  Ni  Ni7  1  0.69911100  0.43992900  0.38963600  1
  Ni  Ni8  1  0.69729400  0.43990800  0.88981400  1
  Ni  Ni9  1  0.70190600  0.93867500  0.38996500  1
  Ni  Ni10  1  0.69526900  0.93686000  0.88821000  1
  Ni  Ni11  1  0.05893100  0.29530000  0.11166300  1
  Ni  Ni12  1  0.05835000  0.29941100  0.60909200  1
  Ni  Ni13  1  0.05869300  0.79785500  0.60990000  1
  Ni  Ni14  1  0.55776100  0.30054000  0.60871700  1
  Ni  Ni15  1  0.55759500  0.80102600  0.11317800  1
  Ni  Ni16  1  0.55997300  0.79761200  0.60983200  1
  Ni  Ni17  1  0.44760700  0.20126800  0.38774300  1
  Ni  Ni18  1  0.44106200  0.20054300  0.88854200  1
  Ni  Ni19  1  0.44749600  0.69812400  0.38770800  1
  Ni  Ni20  1  0.44516600  0.69949900  0.88895600  1
  Ni  Ni21  1  0.94744900  0.19942800  0.38857200  1
  Ni  Ni22  1  0.94918700  0.20367900  0.88999000  1
  Ni  Ni23  1  0.94785700  0.69977500  0.38846000  1
  Cu  Cu24  1  0.30197400  0.06841600  0.10923700  1
  Cu  Cu25  1  0.30284800  0.56317100  0.10953800  1
  Cu  Cu26  1  0.80422800  0.06533000  0.10787300  1
  Cu  Cu27  1  0.80350700  0.56595700  0.11022200  1
  Cu  Cu28  1  0.19602900  0.93664300  0.89248200  1
  Cu  Cu29  1  0.05362100  0.79809600  0.10957500  1
  Cu  Cu30  1  0.55050700  0.29257700  0.11040700  1
  Cu  Cu31  1  0.94493400  0.70218500  0.89166300  1
  C  C32  1  0.00337100  0.99814000  0.99809900  1
  C  C33  1  0.00564000  0.50429000  0.00652300  1
  C  C34  1  0.50022800  0.00024300  0.00150700  1
  C  C35  1  0.50463000  0.99913200  0.49906000  1
  C  C36  1  0.50332200  0.50347700  0.00567500  1
  C  C37  1  0.24924300  0.75155300  0.00266700  1
  C  C38  1  0.74936600  0.25115800  0.00146300  1
  C  C39  1  0.75714900  0.75100800  0.00277500  1
  C  C40  1  0.00501900  0.99848900  0.49937100  1
  C  C41  1  0.00472400  0.50049600  0.50002100  1
  C  C42  1  0.50523000  0.50162100  0.50038200  1
  C  C43  1  0.25498900  0.25114100  0.00185300  1
  C  C44  1  0.25376400  0.24888700  0.49927600  1
  C  C45  1  0.25434600  0.74979500  0.49912100  1
  C  C46  1  0.75401000  0.25016100  0.49906500  1
  C  C47  1  0.75596200  0.74893700  0.49971500  1
  C  C48  1  0.10443300  0.09034300  0.24356700  1
  C  C49  1  0.11063700  0.09234400  0.75059100  1
  C  C50  1  0.11037100  0.59586600  0.24825500  1
  C  C51  1  0.11256600  0.60195400  0.75339600  1
  C  C52  1  0.60654900  0.09732900  0.24574600  1
  C  C53  1  0.61236900  0.09716800  0.74994000  1
  C  C54  1  0.61013600  0.58995900  0.24725100  1
  C  C55  1  0.61725100  0.59749500  0.75150500  1
  C  C56  1  0.36059400  0.40294000  0.24854900  1
  C  C57  1  0.36304500  0.40510200  0.75284900  1
  C  C58  1  0.35838100  0.90429200  0.24693000  1
  C  C59  1  0.36135100  0.90402300  0.75262200  1
  C  C60  1  0.85457000  0.40050400  0.24493600  1
  C  C61  1  0.86253500  0.40877700  0.75449800  1
  C  C62  1  0.86402500  0.90655400  0.24716900  1
  C  C63  1  0.86475000  0.90196200  0.75051600  1
  C  C64  1  0.12637900  0.12297900  0.49399200  1
  C  C65  1  0.12321800  0.10834600  0.99087700  1
  C  C66  1  0.12768300  0.62543000  0.49239000  1
  C  C67  1  0.12212400  0.62547600  0.98715100  1
  C  C68  1  0.62474700  0.12131600  0.49269000  1
  C  C69  1  0.62722400  0.12432600  0.99335900  1
  C  C70  1  0.62374700  0.62129400  0.49243300  1
  C  C71  1  0.63029200  0.62343900  0.99202700  1
  C  C72  1  0.13161300  0.39138500  0.01185300  1
  C  C73  1  0.13192700  0.37485000  0.50474600  1
  C  C74  1  0.13953000  0.87872100  0.01648800  1
  C  C75  1  0.13203500  0.88013100  0.50758300  1
  C  C76  1  0.63867300  0.37924300  0.01389800  1
  C  C77  1  0.63102800  0.37552900  0.50479500  1
  C  C78  1  0.64123200  0.88042300  0.01287400  1
  C  C79  1  0.63214000  0.87891200  0.50721700  1
  C  C80  1  0.37592300  0.11812500  0.49165700  1
  C  C81  1  0.38017500  0.11219300  0.99173800  1
  C  C82  1  0.37618000  0.62064600  0.49323200  1
  C  C83  1  0.37684900  0.61799200  0.99130400  1
  C  C84  1  0.87570700  0.12146200  0.49456900  1
  C  C85  1  0.87649100  0.11593600  0.99224300  1
  C  C86  1  0.87334300  0.62206900  0.49158200  1
  C  C87  1  0.87913900  0.62316700  0.99017800  1
  C  C88  1  0.39516600  0.38993800  0.01645200  1
  C  C89  1  0.37964000  0.37565000  0.50344500  1
  C  C90  1  0.38711800  0.88561600  0.01402700  1
  C  C91  1  0.38504600  0.88155200  0.50777400  1
  C  C92  1  0.88503200  0.38939300  0.01448400  1
  C  C93  1  0.87895500  0.37587300  0.50479500  1
  C  C94  1  0.88954300  0.88050800  0.01448500  1
  C  C95  1  0.88372500  0.88063600  0.50663900  1
  C  C96  1  0.07805300  0.08250200  0.12869100  1
  C  C97  1  0.07579400  0.08039700  0.63499300  1
  C  C98  1  0.07917500  0.59794600  0.12626400  1
  C  C99  1  0.07508900  0.58546500  0.63301500  1
  C  C100  1  0.58161500  0.08902800  0.12794900  1
  C  C101  1  0.57385900  0.08423000  0.62738300  1
  C  C102  1  0.58569200  0.58983800  0.12633700  1
  C  C103  1  0.57451800  0.58160600  0.63178200  1
  C  C104  1  0.44072800  0.41993400  0.36430000  1
  C  C105  1  0.44821800  0.41745400  0.87332700  1
  C  C106  1  0.44489400  0.91807000  0.37077500  1
  C  C107  1  0.45094800  0.91554000  0.87535000  1
  C  C108  1  0.93650700  0.41940200  0.36239200  1
  C  C109  1  0.94130000  0.41667200  0.87146000  1
  C  C110  1  0.94437100  0.91805300  0.36838800  1
  C  C111  1  0.95188800  0.90395500  0.87615300  1
  C  C112  1  0.33174600  0.28799500  0.13815700  1
  C  C113  1  0.32750900  0.30172600  0.63909100  1
  C  C114  1  0.32540800  0.77839600  0.12525300  1
  C  C115  1  0.32396900  0.80161300  0.63468100  1
  C  C116  1  0.82673600  0.28390700  0.12695200  1
  C  C117  1  0.82997800  0.30731200  0.64133100  1
  C  C118  1  0.83150700  0.78154700  0.12684200  1
  C  C119  1  0.82429600  0.79508200  0.62885800  1
  C  C120  1  0.18399100  0.18998800  0.35716300  1
  C  C121  1  0.18943400  0.20341800  0.86309100  1
  C  C122  1  0.19384500  0.70544800  0.36840400  1
  C  C123  1  0.20156300  0.71986400  0.87751000  1
  C  C124  1  0.68303700  0.19501800  0.36038500  1
  C  C125  1  0.70045000  0.20965700  0.87783600  1
  C  C126  1  0.69166900  0.70202100  0.36836300  1
  C  C127  1  0.70440000  0.70848500  0.87528800  1
  C  C128  1  0.42475100  0.07086400  0.23895700  1
  C  C129  1  0.43243200  0.06584900  0.75238000  1
  C  C130  1  0.42268700  0.56139600  0.23886900  1
  C  C131  1  0.43876600  0.56397100  0.75231100  1
  C  C132  1  0.92500400  0.07486500  0.23932100  1
  C  C133  1  0.93771200  0.07148800  0.75245100  1
  C  C134  1  0.92291800  0.55999100  0.23895300  1
  C  C135  1  0.93383800  0.57406100  0.76074300  1
  C  C136  1  0.18513800  0.42786900  0.24796100  1
  C  C137  1  0.18798800  0.43479000  0.75265800  1
  C  C138  1  0.17123100  0.92729100  0.24037200  1
  C  C139  1  0.18410800  0.93337500  0.76056800  1
  C  C140  1  0.67222500  0.41500900  0.24008000  1
  C  C141  1  0.68664500  0.42939300  0.75154300  1
  C  C142  1  0.68377700  0.94086800  0.24813400  1
  C  C143  1  0.68609300  0.93268800  0.75231900  1
