# generated using pymatgen
data_Cu2Ni14C9
_symmetry_space_group_name_H-M   'P 1'
_cell_length_a   4.61825701
_cell_length_b   4.62686831
_cell_length_c   13.71683148
_cell_angle_alpha   88.09507895
_cell_angle_beta   83.53041317
_cell_angle_gamma   89.10081138
_symmetry_Int_Tables_number   1
_chemical_formula_structural   Cu2Ni14C9
_chemical_formula_sum   'Cu2 Ni14 C9'
_cell_volume   291.05362940
_cell_formula_units_Z   1
loop_
 _symmetry_equiv_pos_site_id
 _symmetry_equiv_pos_as_xyz
  1  'x, y, z'
loop_
 _atom_site_type_symbol
 _atom_site_label
 _atom_site_symmetry_multiplicity
 _atom_site_fract_x
 _atom_site_fract_y
 _atom_site_fract_z
 _atom_site_occupancy
  C  C0  1  0.19294300  0.82322800  0.75826400  1
  C  C1  1  0.10120500  0.98364900  0.03920500  1
  C  C2  1  0.02703800  0.96604500  0.25696500  1
  C  C3  1  0.97928600  0.96526600  0.48294400  1
  C  C4  1  0.71737700  0.31474100  0.72869400  1
  C  C5  1  0.55908700  0.47287200  0.13999000  1
  C  C6  1  0.38334000  0.42429500  0.57639300  1
  C  C7  1  0.58267700  0.57199600  0.92655400  1
  C  C8  1  0.49740300  0.45465200  0.35400200  1
  Ni  Ni9  1  0.25378900  0.77825800  0.14782800  1
  Ni  Ni10  1  0.15003100  0.76083600  0.58969700  1
  Ni  Ni11  1  0.26281300  0.83102800  0.92017800  1
  Ni  Ni12  1  0.19094500  0.76190600  0.36468700  1
  Ni  Ni13  1  0.38535000  0.30338500  0.02640400  1
  Ni  Ni14  1  0.33634200  0.26424700  0.24813400  1
  Ni  Ni15  1  0.28156400  0.25806600  0.46410600  1
  Ni  Ni16  1  0.28516500  0.31866500  0.71825600  1
  Ni  Ni17  1  0.78370100  0.69667200  0.03038000  1
  Ni  Ni18  1  0.72399100  0.65908600  0.25162900  1
  Ni  Ni19  1  0.69774700  0.69185300  0.77994900  1
  Ni  Ni20  1  0.86771700  0.16953300  0.14311200  1
  Ni  Ni21  1  0.80628600  0.15486900  0.36552100  1
  Ni  Ni22  1  0.75487200  0.20479700  0.59646900  1
  Cu  Cu23  1  0.66306700  0.66450900  0.47780800  1
  Cu  Cu24  1  0.79403900  0.19999800  0.86283200  1
