# generated using pymatgen
data_Cu3Ni3C16
_symmetry_space_group_name_H-M   'P 1'
_cell_length_a   7.41392968
_cell_length_b   7.41400396
_cell_length_c   7.41394181
_cell_angle_alpha   61.27557405
_cell_angle_beta   61.27513922
_cell_angle_gamma   61.27551524
_symmetry_Int_Tables_number   1
_chemical_formula_structural   Cu3Ni3C16
_chemical_formula_sum   'Cu3 Ni3 C16'
_cell_volume   296.42401914
_cell_formula_units_Z   1
loop_
 _symmetry_equiv_pos_site_id
 _symmetry_equiv_pos_as_xyz
  1  'x, y, z'
loop_
 _atom_site_type_symbol
 _atom_site_label
 _atom_site_symmetry_multiplicity
 _atom_site_fract_x
 _atom_site_fract_y
 _atom_site_fract_z
 _atom_site_occupancy
  C  C0  1  0.00000800  0.50001800  0.99995900  1
  C  C1  1  0.50000900  0.99996600  0.50007000  1
  Ni  Ni2  1  0.99999800  0.99999500  0.50000200  1
  Ni  Ni3  1  0.50000100  0.00000100  0.99999500  1
  Ni  Ni4  1  0.49999500  0.50000000  0.50000200  1
  Cu  Cu5  1  0.50000000  0.50000300  0.99999600  1
  Cu  Cu6  1  0.00000000  0.50000400  0.50000400  1
  Cu  Cu7  1  0.00000000  0.00000000  0.99999700  1
  C  C8  1  0.61415200  0.11415800  0.61415100  1
  C  C9  1  0.38584400  0.88584700  0.38584000  1
  C  C10  1  0.08226100  0.18109900  0.68109300  1
  C  C11  1  0.68109500  0.18109900  0.08226100  1
  C  C12  1  0.68109600  0.58226100  0.68109500  1
  C  C13  1  0.91773700  0.81890300  0.31890200  1
  C  C14  1  0.31890400  0.81890100  0.91773700  1
  C  C15  1  0.31890200  0.41774000  0.31890100  1
  C  C16  1  0.64728600  0.59019300  0.09019400  1
  C  C17  1  0.09019600  0.59019500  0.64728100  1
  C  C18  1  0.09019200  0.14728300  0.09019500  1
  C  C19  1  0.35271100  0.40981000  0.90980500  1
  C  C20  1  0.90980700  0.40980600  0.35271500  1
  C  C21  1  0.90980600  0.85271600  0.90980500  1
