# generated using pymatgen
data_Cu5NiC13
_symmetry_space_group_name_H-M   'P 1'
_cell_length_a   5.10394476
_cell_length_b   7.43077344
_cell_length_c   17.35443401
_cell_angle_alpha   89.83632179
_cell_angle_beta   89.52341201
_cell_angle_gamma   69.91383398
_symmetry_Int_Tables_number   1
_chemical_formula_structural   Cu5NiC13
_chemical_formula_sum   'Cu10 Ni2 C26'
_cell_volume   618.13446151
_cell_formula_units_Z   2
loop_
 _symmetry_equiv_pos_site_id
 _symmetry_equiv_pos_as_xyz
  1  'x, y, z'
loop_
 _atom_site_type_symbol
 _atom_site_label
 _atom_site_symmetry_multiplicity
 _atom_site_fract_x
 _atom_site_fract_y
 _atom_site_fract_z
 _atom_site_occupancy
  C  C0  1  0.81007500  0.41080300  0.26784900  1
  C  C1  1  0.22087800  0.58919700  0.76784900  1
  Ni  Ni2  1  0.98625600  0.85333300  0.34169600  1
  Ni  Ni3  1  0.83958800  0.14666700  0.84169600  1
  Cu  Cu4  1  0.36671900  0.05006200  0.41154600  1
  Cu  Cu5  1  0.42886700  0.95004400  0.58681600  1
  Cu  Cu6  1  0.37891100  0.04995600  0.08681600  1
  Cu  Cu7  1  0.41678000  0.94993800  0.91154600  1
  Cu  Cu8  1  0.30024500  0.48366200  0.44607400  1
  Cu  Cu9  1  0.77974800  0.52039900  0.55141900  1
  Cu  Cu10  1  0.30014700  0.47960100  0.05141900  1
  Cu  Cu11  1  0.78390700  0.51633800  0.94607400  1
  Cu  Cu12  1  0.84429400  0.15007800  0.65460100  1
  Cu  Cu13  1  0.99437300  0.84992200  0.15460100  1
  C  C14  1  0.12124600  0.03724700  0.35582900  1
  C  C15  1  0.16304400  0.99192100  0.64651100  1
  C  C16  1  0.15496500  0.00807900  0.14651100  1
  C  C17  1  0.15849300  0.96275300  0.85582900  1
  C  C18  1  0.21182400  0.63368000  0.37644200  1
  C  C19  1  0.84159800  0.35396800  0.61720000  1
  C  C20  1  0.19556500  0.64603200  0.11720000  1
  C  C21  1  0.84550400  0.36632000  0.87644200  1
  C  C22  1  0.59884700  0.48090800  0.48144000  1
  C  C23  1  0.07575300  0.52758200  0.51825700  1
  C  C24  1  0.60333500  0.47241800  0.01825700  1
  C  C25  1  0.07975500  0.51909200  0.98144000  1
  C  C26  1  0.93753200  0.81843300  0.24344300  1
  C  C27  1  0.75596500  0.18156700  0.74344300  1
  C  C28  1  0.66787800  0.90624900  0.38770000  1
  C  C29  1  0.62189200  0.07753000  0.60771700  1
  C  C30  1  0.69942200  0.92247000  0.10771700  1
  C  C31  1  0.57412600  0.09375100  0.88770000  1
  C  C32  1  0.30204200  0.00331100  0.50144400  1
  C  C33  1  0.30535300  0.99668900  0.00144400  1
  C  C34  1  0.35004500  0.27540400  0.40729800  1
  C  C35  1  0.61386700  0.72184400  0.59671700  1
  C  C36  1  0.33571100  0.27815600  0.09671700  1
  C  C37  1  0.62544900  0.72459600  0.90729800  1
