# generated using pymatgen
data_Cu2Ni2C
_symmetry_space_group_name_H-M   'P 1'
_cell_length_a   9.26932041
_cell_length_b   9.26932041
_cell_length_c   7.20641800
_cell_angle_alpha   90.00000000
_cell_angle_beta   90.00000000
_cell_angle_gamma   133.33135767
_symmetry_Int_Tables_number   1
_chemical_formula_structural   Cu2Ni2C
_chemical_formula_sum   'Cu8 Ni8 C4'
_cell_volume   450.38811882
_cell_formula_units_Z   4
loop_
 _symmetry_equiv_pos_site_id
 _symmetry_equiv_pos_as_xyz
  1  'x, y, z'
loop_
 _atom_site_type_symbol
 _atom_site_label
 _atom_site_symmetry_multiplicity
 _atom_site_fract_x
 _atom_site_fract_y
 _atom_site_fract_z
 _atom_site_occupancy
  C  C0  1  0.75000000  0.25000000  0.75000000  1
  C  C1  1  0.25000000  0.75000000  0.75000000  1
  C  C2  1  0.75000000  0.25000000  0.25000000  1
  C  C3  1  0.25000000  0.75000000  0.25000000  1
  Ni  Ni4  1  0.12804600  0.28363400  0.14317200  1
  Ni  Ni5  1  0.87195400  0.71636600  0.14317200  1
  Ni  Ni6  1  0.71636600  0.87195400  0.85682800  1
  Ni  Ni7  1  0.37195400  0.21636600  0.35682800  1
  Ni  Ni8  1  0.28363400  0.12804600  0.85682800  1
  Ni  Ni9  1  0.62804600  0.78363400  0.35682800  1
  Ni  Ni10  1  0.78363400  0.62804600  0.64317200  1
  Ni  Ni11  1  0.21636600  0.37195400  0.64317200  1
  Cu  Cu12  1  0.07343300  0.42115100  0.09310500  1
  Cu  Cu13  1  0.92656700  0.57884900  0.09310500  1
  Cu  Cu14  1  0.57884900  0.92656700  0.90689500  1
  Cu  Cu15  1  0.42656700  0.07884900  0.40689500  1
  Cu  Cu16  1  0.42115100  0.07343300  0.90689500  1
  Cu  Cu17  1  0.57343300  0.92115100  0.40689500  1
  Cu  Cu18  1  0.92115100  0.57343300  0.59310500  1
  Cu  Cu19  1  0.07884900  0.42656700  0.59310500  1
