# generated using pymatgen
data_CuNiC8
_symmetry_space_group_name_H-M   'P 1'
_cell_length_a   5.45520451
_cell_length_b   5.52810852
_cell_length_c   7.81994610
_cell_angle_alpha   90.03894040
_cell_angle_beta   90.35038841
_cell_angle_gamma   90.03047964
_symmetry_Int_Tables_number   1
_chemical_formula_structural   CuNiC8
_chemical_formula_sum   'Cu2 Ni2 C16'
_cell_volume   235.82132345
_cell_formula_units_Z   2
loop_
 _symmetry_equiv_pos_site_id
 _symmetry_equiv_pos_as_xyz
  1  'x, y, z'
loop_
 _atom_site_type_symbol
 _atom_site_label
 _atom_site_symmetry_multiplicity
 _atom_site_fract_x
 _atom_site_fract_y
 _atom_site_fract_z
 _atom_site_occupancy
  Ni  Ni0  1  0.49085500  0.45791000  0.75045100  1
  Ni  Ni1  1  0.99114500  0.04202100  0.25040200  1
  Cu  Cu2  1  0.00538300  0.96677300  0.74901500  1
  Cu  Cu3  1  0.50567500  0.53345700  0.24888500  1
  C  C4  1  0.00018300  0.49916200  0.50080600  1
  C  C5  1  0.50034100  0.00101900  0.00069500  1
  C  C6  1  0.50052100  0.99955400  0.49917000  1
  C  C7  1  0.00018700  0.50051500  0.99923000  1
  C  C8  1  0.07379000  0.47786800  0.25179600  1
  C  C9  1  0.57429900  0.02306100  0.75198500  1
  C  C10  1  0.22569900  0.21132300  0.96333000  1
  C  C11  1  0.72588700  0.28940500  0.46392400  1
  C  C12  1  0.21505500  0.21581700  0.54221800  1
  C  C13  1  0.71444400  0.28428000  0.04316500  1
  C  C14  1  0.29121000  0.71394000  0.95437700  1
  C  C15  1  0.79056500  0.78613400  0.45531300  1
  C  C16  1  0.27905600  0.70463700  0.53911200  1
  C  C17  1  0.77914500  0.79451200  0.03967600  1
  C  C18  1  0.41795600  0.97957600  0.24803200  1
  C  C19  1  0.91859600  0.51903600  0.74841900  1
