# generated using pymatgen
data_CuNi3C10
_symmetry_space_group_name_H-M   'P 1'
_cell_length_a   5.64756650
_cell_length_b   14.47504154
_cell_length_c   19.69883532
_cell_angle_alpha   90.00000000
_cell_angle_beta   90.00000000
_cell_angle_gamma   90.00000000
_symmetry_Int_Tables_number   1
_chemical_formula_structural   CuNi3C10
_chemical_formula_sum   'Cu8 Ni24 C80'
_cell_volume   1610.35535470
_cell_formula_units_Z   8
loop_
 _symmetry_equiv_pos_site_id
 _symmetry_equiv_pos_as_xyz
  1  'x, y, z'
loop_
 _atom_site_type_symbol
 _atom_site_label
 _atom_site_symmetry_multiplicity
 _atom_site_fract_x
 _atom_site_fract_y
 _atom_site_fract_z
 _atom_site_occupancy
  Ni  Ni0  1  0.97715653  0.21653612  0.99416675  1
  Ni  Ni1  1  0.02284347  0.78346388  0.49416675  1
  Ni  Ni2  1  0.02284347  0.71653612  0.99416675  1
  Ni  Ni3  1  0.97715653  0.28346388  0.49416675  1
  Ni  Ni4  1  0.98370134  0.95283886  0.64742887  1
  Ni  Ni5  1  0.01629866  0.04716114  0.14742887  1
  Ni  Ni6  1  0.01629866  0.45283886  0.64742887  1
  Ni  Ni7  1  0.98370134  0.54716114  0.14742887  1
  Ni  Ni8  1  0.98643987  0.86202498  0.82723773  1
  Ni  Ni9  1  0.01356013  0.13797502  0.32723773  1
  Ni  Ni10  1  0.01356013  0.36202498  0.82723773  1
  Ni  Ni11  1  0.98643987  0.63797502  0.32723773  1
  Ni  Ni12  1  0.47002349  0.79721472  0.73273823  1
  Ni  Ni13  1  0.52997651  0.20278528  0.23273823  1
  Ni  Ni14  1  0.52997651  0.29721472  0.73273823  1
  Ni  Ni15  1  0.47002349  0.70278528  0.23273823  1
  Ni  Ni16  1  0.54230259  0.96692122  0.88790829  1
  Ni  Ni17  1  0.45769741  0.03307878  0.38790829  1
  Ni  Ni18  1  0.45769741  0.46692122  0.88790829  1
  Ni  Ni19  1  0.54230259  0.53307878  0.38790829  1
  Ni  Ni20  1  0.49361297  0.88356578  0.55223261  1
  Ni  Ni21  1  0.50638703  0.11643422  0.05223261  1
  Ni  Ni22  1  0.50638703  0.38356578  0.55223261  1
  Ni  Ni23  1  0.49361297  0.61643422  0.05223261  1
  Cu  Cu24  1  0.93061594  0.61203830  0.80374739  1
  Cu  Cu25  1  0.06938406  0.38796170  0.30374739  1
  Cu  Cu26  1  0.06938406  0.11203830  0.80374739  1
  Cu  Cu27  1  0.93061594  0.88796170  0.30374739  1
  Cu  Cu28  1  0.55960018  0.63654131  0.57380223  1
  Cu  Cu29  1  0.44039982  0.36345869  0.07380223  1
  Cu  Cu30  1  0.44039982  0.13654131  0.57380223  1
  Cu  Cu31  1  0.55960018  0.86345869  0.07380223  1
  C  C32  1  0.96625534  0.47554263  0.98098784  1
  C  C33  1  0.03374466  0.52445737  0.48098784  1
  C  C34  1  0.03374466  0.97554263  0.98098784  1
  C  C35  1  0.96625534  0.02445737  0.48098784  1
  C  C36  1  0.98420796  0.22786570  0.65285221  1
  C  C37  1  0.01579204  0.77213430  0.15285221  1
  C  C38  1  0.01579204  0.72786570  0.65285221  1
  C  C39  1  0.98420796  0.27213430  0.15285221  1
  C  C40  1  0.47331812  0.52167568  0.72368785  1
  C  C41  1  0.52668188  0.47832432  0.22368785  1
  C  C42  1  0.52668188  0.02167568  0.72368785  1
  C  C43  1  0.47331812  0.97832432  0.22368785  1
  C  C44  1  0.45908522  0.72652619  0.89619852  1
  C  C45  1  0.54091478  0.27347381  0.39619852  1
  C  C46  1  0.54091478  0.22652619  0.89619852  1
  C  C47  1  0.45908522  0.77347381  0.39619852  1
  C  C48  1  0.58864806  0.81033862  0.84776158  1
  C  C49  1  0.41135194  0.18966138  0.34776158  1
  C  C50  1  0.41135194  0.31033862  0.84776158  1
  C  C51  1  0.58864806  0.68966138  0.34776158  1
  C  C52  1  0.70338755  0.46769718  0.76527150  1
  C  C53  1  0.29661245  0.53230282  0.26527150  1
  C  C54  1  0.29661245  0.96769718  0.76527150  1
  C  C55  1  0.70338755  0.03230282  0.26527150  1
  C  C56  1  0.89385660  0.87166320  0.99750071  1
  C  C57  1  0.10614340  0.12833680  0.49750071  1
  C  C58  1  0.10614340  0.37166320  0.99750071  1
  C  C59  1  0.89385660  0.62833680  0.49750071  1
  C  C60  1  0.79594531  0.78373588  0.60807193  1
  C  C61  1  0.20405469  0.21626412  0.10807193  1
  C  C62  1  0.20405469  0.28373588  0.60807193  1
  C  C63  1  0.79594531  0.71626412  0.10807193  1
  C  C64  1  0.66488526  0.46580840  0.99694598  1
  C  C65  1  0.33511474  0.53419160  0.49694598  1
  C  C66  1  0.33511474  0.96580840  0.99694598  1
  C  C67  1  0.66488526  0.03419160  0.49694598  1
  C  C68  1  0.90683754  0.44047337  0.53026629  1
  C  C69  1  0.09316246  0.55952663  0.03026629  1
  C  C70  1  0.09316246  0.94047337  0.53026629  1
  C  C71  1  0.90683754  0.05952663  0.03026629  1
  C  C72  1  0.79000858  0.99137693  0.76131655  1
  C  C73  1  0.20999142  0.00862307  0.26131655  1
  C  C74  1  0.20999142  0.49137693  0.76131655  1
  C  C75  1  0.79000858  0.50862307  0.26131655  1
  C  C76  1  0.60156145  0.62267275  0.88222095  1
  C  C77  1  0.39843855  0.37732725  0.38222095  1
  C  C78  1  0.39843855  0.12267275  0.88222095  1
  C  C79  1  0.60156145  0.87732725  0.38222095  1
  C  C80  1  0.52412820  0.63852041  0.72614445  1
  C  C81  1  0.47587180  0.36147959  0.22614445  1
  C  C82  1  0.47587180  0.13852041  0.72614445  1
  C  C83  1  0.52412820  0.86147959  0.22614445  1
  C  C84  1  0.95380390  0.61169406  0.64936923  1
  C  C85  1  0.04619610  0.38830594  0.14936923  1
  C  C86  1  0.04619610  0.11169406  0.64936923  1
  C  C87  1  0.95380390  0.88830594  0.14936923  1
  C  C88  1  0.84002259  0.21668634  0.87641425  1
  C  C89  1  0.15997741  0.78331366  0.37641425  1
  C  C90  1  0.15997741  0.71668634  0.87641425  1
  C  C91  1  0.84002259  0.28331366  0.37641425  1
  C  C92  1  0.98540941  0.25981873  0.73689880  1
  C  C93  1  0.01459059  0.74018127  0.23689880  1
  C  C94  1  0.01459059  0.75981873  0.73689880  1
  C  C95  1  0.98540941  0.24018127  0.23689880  1
  C  C96  1  0.53302522  0.98876393  0.63958335  1
  C  C97  1  0.46697478  0.01123607  0.13958335  1
  C  C98  1  0.46697478  0.48876393  0.63958335  1
  C  C99  1  0.53302522  0.51123607  0.13958335  1
  C  C100  1  0.98552832  0.99607074  0.89570425  1
  C  C101  1  0.01447168  0.00392926  0.39570425  1
  C  C102  1  0.01447168  0.49607074  0.89570425  1
  C  C103  1  0.98552832  0.50392926  0.39570425  1
  C  C104  1  0.28476656  0.75689674  0.61790474  1
  C  C105  1  0.71523344  0.24310326  0.11790474  1
  C  C106  1  0.71523344  0.25689674  0.61790474  1
  C  C107  1  0.28476656  0.74310326  0.11790474  1
  C  C108  1  0.46820831  0.74867454  0.98223689  1
  C  C109  1  0.53179169  0.25132546  0.48223689  1
  C  C110  1  0.53179169  0.24867454  0.98223689  1
  C  C111  1  0.46820831  0.75132546  0.48223689  1
