# generated using pymatgen
data_CuNiC5
_symmetry_space_group_name_H-M   'P 1'
_cell_length_a   8.86543341
_cell_length_b   8.86543341
_cell_length_c   8.86543301
_cell_angle_alpha   107.85188036
_cell_angle_beta   107.85188036
_cell_angle_gamma   107.85188779
_symmetry_Int_Tables_number   1
_chemical_formula_structural   CuNiC5
_chemical_formula_sum   'Cu6 Ni6 C30'
_cell_volume   566.26469051
_cell_formula_units_Z   6
loop_
 _symmetry_equiv_pos_site_id
 _symmetry_equiv_pos_as_xyz
  1  'x, y, z'
loop_
 _atom_site_type_symbol
 _atom_site_label
 _atom_site_symmetry_multiplicity
 _atom_site_fract_x
 _atom_site_fract_y
 _atom_site_fract_z
 _atom_site_occupancy
  C  C0  1  0.06651200  0.66550100  0.84140600  1
  C  C1  1  0.38052200  0.14650800  0.55136300  1
  C  C2  1  0.14650800  0.55136300  0.38052200  1
  C  C3  1  0.55136300  0.38052200  0.14650800  1
  C  C4  1  0.66550100  0.84140600  0.06651200  1
  C  C5  1  0.84140600  0.06651200  0.66550100  1
  Ni  Ni6  1  0.73973500  0.33485300  0.50516300  1
  Ni  Ni7  1  0.33485300  0.50516300  0.73973500  1
  Ni  Ni8  1  0.50516300  0.73973500  0.33485300  1
  Ni  Ni9  1  0.04320700  0.81792100  0.21948400  1
  Ni  Ni10  1  0.81792100  0.21948400  0.04320700  1
  Ni  Ni11  1  0.21948400  0.04320700  0.81792100  1
  Cu  Cu12  1  0.88818900  0.70867000  0.47998300  1
  Cu  Cu13  1  0.70867000  0.47998300  0.88818900  1
  Cu  Cu14  1  0.47998300  0.88818900  0.70867000  1
  Cu  Cu15  1  0.40305800  0.99441800  0.17789500  1
  Cu  Cu16  1  0.99441800  0.17789500  0.40305800  1
  Cu  Cu17  1  0.17789500  0.40305800  0.99441800  1
  C  C18  1  0.90684000  0.58184800  0.59186600  1
  C  C19  1  0.58184800  0.59186600  0.90684000  1
  C  C20  1  0.59186600  0.90684000  0.58184800  1
  C  C21  1  0.91380000  0.96433400  0.24844400  1
  C  C22  1  0.96433400  0.24844400  0.91380000  1
  C  C23  1  0.24844400  0.91380000  0.96433400  1
  C  C24  1  0.30745700  0.29399900  0.97505000  1
  C  C25  1  0.97505000  0.30745700  0.29399900  1
  C  C26  1  0.01246200  0.69193800  0.36543900  1
  C  C27  1  0.29399900  0.97505000  0.30745700  1
  C  C28  1  0.36543900  0.01246200  0.69193800  1
  C  C29  1  0.69193800  0.36543900  0.01246200  1
  C  C30  1  0.33567100  0.66969800  0.62813700  1
  C  C31  1  0.62813700  0.33567100  0.66969800  1
  C  C32  1  0.66969800  0.62813700  0.33567100  1
  C  C33  1  0.63489400  0.97076200  0.92356900  1
  C  C34  1  0.92356900  0.63489400  0.97076200  1
  C  C35  1  0.97076200  0.92356900  0.63489400  1
  C  C36  1  0.51946200  0.87133700  0.19013900  1
  C  C37  1  0.19013900  0.51946200  0.87133700  1
  C  C38  1  0.87133700  0.19013900  0.51946200  1
  C  C39  1  0.25918100  0.54651200  0.21407300  1
  C  C40  1  0.21407300  0.25918100  0.54651200  1
  C  C41  1  0.54651200  0.21407300  0.25918100  1
