# generated using pymatgen
data_Cu20Ni2C61
_symmetry_space_group_name_H-M   'P 1'
_cell_length_a   7.27138971
_cell_length_b   9.85624320
_cell_length_c   23.91169982
_cell_angle_alpha   96.49271983
_cell_angle_beta   90.00000000
_cell_angle_gamma   90.00000000
_symmetry_Int_Tables_number   1
_chemical_formula_structural   Cu20Ni2C61
_chemical_formula_sum   'Cu40 Ni4 C122'
_cell_volume   1702.72631199
_cell_formula_units_Z   2
loop_
 _symmetry_equiv_pos_site_id
 _symmetry_equiv_pos_as_xyz
  1  'x, y, z'
loop_
 _atom_site_type_symbol
 _atom_site_label
 _atom_site_symmetry_multiplicity
 _atom_site_fract_x
 _atom_site_fract_y
 _atom_site_fract_z
 _atom_site_occupancy
  C  C0  1  0.00000000  0.00000000  0.00000000  1
  C  C1  1  0.50000000  0.00000000  0.50000000  1
  C  C2  1  0.62611010  0.31535932  0.94854893  1
  C  C3  1  0.37388990  0.68464068  0.05145107  1
  C  C4  1  0.12611010  0.68464068  0.55145107  1
  C  C5  1  0.87388990  0.31535932  0.44854893  1
  C  C6  1  0.63565312  0.56234996  0.92746694  1
  C  C7  1  0.36434688  0.43765004  0.07253306  1
  C  C8  1  0.13565312  0.43765004  0.57253306  1
  C  C9  1  0.86434688  0.56234996  0.42746694  1
  C  C10  1  0.69210199  0.26728250  0.85297689  1
  C  C11  1  0.30789801  0.73271750  0.14702311  1
  C  C12  1  0.19210199  0.73271750  0.64702311  1
  C  C13  1  0.80789801  0.26728250  0.35297689  1
  C  C14  1  0.43603842  0.86084355  0.83373811  1
  C  C15  1  0.56396158  0.13915645  0.16626189  1
  C  C16  1  0.93603842  0.13915645  0.66626189  1
  C  C17  1  0.06396158  0.86084355  0.33373811  1
  C  C18  1  0.54798960  0.86910784  0.74399063  1
  C  C19  1  0.45201040  0.13089216  0.25600937  1
  C  C20  1  0.04798960  0.13089216  0.75600937  1
  C  C21  1  0.95201040  0.86910784  0.24399063  1
  C  C22  1  0.84415464  0.60948830  0.50031472  1
  C  C23  1  0.15584536  0.39051170  0.49968528  1
  C  C24  1  0.34415464  0.39051170  0.99968528  1
  C  C25  1  0.65584536  0.60948830  0.00031472  1
  C  C26  1  0.98607549  0.71314145  0.75859504  1
  C  C27  1  0.01392451  0.28685855  0.24140496  1
  C  C28  1  0.48607549  0.28685855  0.74140496  1
  C  C29  1  0.51392451  0.71314145  0.25859504  1
  C  C30  1  0.48418674  0.56763247  0.61778795  1
  C  C31  1  0.51581326  0.43236753  0.38221205  1
  C  C32  1  0.98418674  0.43236753  0.88221205  1
  C  C33  1  0.01581326  0.56763247  0.11778795  1
  C  C34  1  0.10620397  0.86881008  0.76072048  1
  C  C35  1  0.89379603  0.13118992  0.23927952  1
  C  C36  1  0.60620397  0.13118992  0.73927952  1
  C  C37  1  0.39379603  0.86881008  0.26072048  1
  C  C38  1  0.56871499  0.63556760  0.55851001  1
  C  C39  1  0.43128501  0.36443240  0.44148999  1
  C  C40  1  0.06871499  0.36443240  0.94148999  1
  C  C41  1  0.93128501  0.63556760  0.05851001  1
  C  C42  1  0.91468545  0.90711956  0.62678487  1
  C  C43  1  0.08531455  0.09288044  0.37321513  1
  C  C44  1  0.41468545  0.09288044  0.87321513  1
  C  C45  1  0.58531455  0.90711956  0.12678487  1
  C  C46  1  0.89853336  0.84744027  0.89362821  1
  C  C47  1  0.10146664  0.15255973  0.10637179  1
  C  C48  1  0.39853336  0.15255973  0.60637179  1
  C  C49  1  0.60146664  0.84744027  0.39362821  1
  C  C50  1  0.74117174  0.22697208  0.99821751  1
  C  C51  1  0.25882826  0.77302792  0.00178249  1
  C  C52  1  0.24117174  0.77302792  0.50178249  1
  C  C53  1  0.75882826  0.22697208  0.49821751  1
  C  C54  1  0.66339104  0.71387441  0.75126706  1
  C  C55  1  0.33660896  0.28612559  0.24873294  1
  C  C56  1  0.16339104  0.28612559  0.74873294  1
  C  C57  1  0.83660896  0.71387441  0.25126706  1
  C  C58  1  0.29759017  0.88811806  0.66924569  1
  C  C59  1  0.70240983  0.11188194  0.33075431  1
  C  C60  1  0.79759017  0.11188194  0.83075431  1
  C  C61  1  0.20240983  0.88811806  0.16924569  1
  C  C62  1  0.78167745  0.86654158  0.56583240  1
  C  C63  1  0.21832255  0.13345842  0.43416760  1
  C  C64  1  0.28167745  0.13345842  0.93416760  1
  C  C65  1  0.71832255  0.86654158  0.06583240  1
  C  C66  1  0.79667624  0.69169586  0.86555742  1
  C  C67  1  0.20332376  0.30830414  0.13444258  1
  C  C68  1  0.29667624  0.30830414  0.63444258  1
  C  C69  1  0.70332376  0.69169586  0.36555742  1
  C  C70  1  0.68150771  0.49490335  0.68213684  1
  C  C71  1  0.31849229  0.50509665  0.31786316  1
  C  C72  1  0.18150771  0.50509665  0.81786316  1
  C  C73  1  0.81849229  0.49490335  0.18213684  1
  C  C74  1  0.91779003  0.50153341  0.67250323  1
  C  C75  1  0.08220997  0.49846659  0.32749677  1
  C  C76  1  0.41779003  0.49846659  0.82749677  1
  C  C77  1  0.58220997  0.50153341  0.17250323  1
  C  C78  1  0.32605990  0.73574842  0.86778500  1
  C  C79  1  0.67394010  0.26425158  0.13221500  1
  C  C80  1  0.82605990  0.26425158  0.63221500  1
  C  C81  1  0.17394010  0.73574842  0.36778500  1
  C  C82  1  0.29115449  0.93068245  0.90620152  1
  C  C83  1  0.70884551  0.06931755  0.09379848  1
  C  C84  1  0.79115449  0.06931755  0.59379848  1
  C  C85  1  0.20884551  0.93068245  0.40620152  1
  C  C86  1  0.76729549  0.55935493  0.60737816  1
  C  C87  1  0.23270451  0.44064507  0.39262184  1
  C  C88  1  0.26729549  0.44064507  0.89262184  1
  C  C89  1  0.73270451  0.55935493  0.10737816  1
  C  C90  1  0.78970423  0.73689383  0.95219910  1
  C  C91  1  0.21029577  0.26310617  0.04780090  1
  C  C92  1  0.28970423  0.26310617  0.54780090  1
  C  C93  1  0.71029577  0.73689383  0.45219910  1
  C  C94  1  0.28907550  0.84181008  0.58353565  1
  C  C95  1  0.71092450  0.15818992  0.41646435  1
  C  C96  1  0.78907550  0.15818992  0.91646435  1
  C  C97  1  0.21092450  0.84181008  0.08353565  1
  C  C98  1  0.82710757  0.88714221  0.75455914  1
  C  C99  1  0.17289243  0.11285779  0.24544086  1
  C  C100  1  0.32710757  0.11285779  0.74544086  1
  C  C101  1  0.67289243  0.88714221  0.25455914  1
  Ni  Ni102  1  0.77079621  0.48553613  0.79962857  1
  Ni  Ni103  1  0.22920379  0.51446387  0.20037143  1
  Ni  Ni104  1  0.27079621  0.51446387  0.70037143  1
  Ni  Ni105  1  0.72920379  0.48553613  0.29962857  1
  Cu  Cu106  1  0.82436662  0.93633651  0.59821873  1
  Cu  Cu107  1  0.17563338  0.06366349  0.40178127  1
  Cu  Cu108  1  0.32436662  0.06366349  0.90178127  1
  Cu  Cu109  1  0.67563338  0.93633651  0.09821873  1
  Cu  Cu110  1  0.24319946  0.82331521  0.63713463  1
  Cu  Cu111  1  0.75680054  0.17668479  0.36286537  1
  Cu  Cu112  1  0.74319946  0.17668479  0.86286537  1
  Cu  Cu113  1  0.25680054  0.82331521  0.13713463  1
  Cu  Cu114  1  0.82867025  0.76076562  0.89928851  1
  Cu  Cu115  1  0.17132975  0.23923438  0.10071149  1
  Cu  Cu116  1  0.32867025  0.23923438  0.60071149  1
  Cu  Cu117  1  0.67132975  0.76076562  0.39928851  1
  Cu  Cu118  1  0.35984650  0.83558464  0.86646381  1
  Cu  Cu119  1  0.64015350  0.16441536  0.13353619  1
  Cu  Cu120  1  0.85984650  0.16441536  0.63353619  1
  Cu  Cu121  1  0.14015350  0.83558464  0.36646381  1
  Cu  Cu122  1  0.69049208  0.62465369  0.95996193  1
  Cu  Cu123  1  0.30950792  0.37534631  0.04003807  1
  Cu  Cu124  1  0.19049208  0.37534631  0.54003807  1
  Cu  Cu125  1  0.80950792  0.62465369  0.45996193  1
  Cu  Cu126  1  0.66622486  0.81717030  0.75106750  1
  Cu  Cu127  1  0.33377514  0.18282970  0.24893250  1
  Cu  Cu128  1  0.16622486  0.18282970  0.74893250  1
  Cu  Cu129  1  0.83377514  0.81717030  0.25106750  1
  Cu  Cu130  1  0.98446970  0.81671908  0.76011858  1
  Cu  Cu131  1  0.01553030  0.18328092  0.23988142  1
  Cu  Cu132  1  0.48446970  0.18328092  0.73988142  1
  Cu  Cu133  1  0.51553030  0.81671908  0.26011858  1
  Cu  Cu134  1  0.73088212  0.25322834  0.95803130  1
  Cu  Cu135  1  0.26911788  0.74677166  0.04196870  1
  Cu  Cu136  1  0.23088212  0.74677166  0.54196870  1
  Cu  Cu137  1  0.76911788  0.25322834  0.45803130  1
  Cu  Cu138  1  0.78920839  0.49487854  0.65486229  1
  Cu  Cu139  1  0.21079161  0.50512146  0.34513771  1
  Cu  Cu140  1  0.28920839  0.50512146  0.84513771  1
  Cu  Cu141  1  0.71079161  0.49487854  0.15486229  1
  Cu  Cu142  1  0.59265579  0.58495367  0.59254694  1
  Cu  Cu143  1  0.40734421  0.41504633  0.40745306  1
  Cu  Cu144  1  0.09265579  0.41504633  0.90745306  1
  Cu  Cu145  1  0.90734421  0.58495367  0.09254694  1
  C  C146  1  0.32992425  0.98379135  0.74643995  1
  C  C147  1  0.67007575  0.01620865  0.25356005  1
  C  C148  1  0.82992425  0.01620865  0.75356005  1
  C  C149  1  0.17007575  0.98379135  0.24643995  1
  C  C150  1  0.19607300  0.89223418  0.94632997  1
  C  C151  1  0.80392700  0.10776582  0.05367003  1
  C  C152  1  0.69607300  0.10776582  0.55367003  1
  C  C153  1  0.30392700  0.89223418  0.44632997  1
  C  C154  1  0.90487285  0.58750995  0.57845146  1
  C  C155  1  0.09512715  0.41249005  0.42154854  1
  C  C156  1  0.40487285  0.41249005  0.92154854  1
  C  C157  1  0.59512715  0.58750995  0.07845146  1
  C  C158  1  0.84398872  0.81562812  0.99537302  1
  C  C159  1  0.15601128  0.18437188  0.00462698  1
  C  C160  1  0.34398872  0.18437188  0.50462698  1
  C  C161  1  0.65601128  0.81562812  0.49537302  1
  C  C162  1  0.38385921  0.94493298  0.57430146  1
  C  C163  1  0.61614079  0.05506702  0.42569854  1
  C  C164  1  0.88385921  0.05506702  0.92569854  1
  C  C165  1  0.11614079  0.94493298  0.07430146  1
