# generated using pymatgen
data_CuNi11C24
_symmetry_space_group_name_H-M   'P 1'
_cell_length_a   3.17737600
_cell_length_b   6.19743376
_cell_length_c   21.46420492
_cell_angle_alpha   89.99999728
_cell_angle_beta   90.00000000
_cell_angle_gamma   90.00000000
_symmetry_Int_Tables_number   1
_chemical_formula_structural   CuNi11C24
_chemical_formula_sum   'Cu1 Ni11 C24'
_cell_volume   422.66404989
_cell_formula_units_Z   1
loop_
 _symmetry_equiv_pos_site_id
 _symmetry_equiv_pos_as_xyz
  1  'x, y, z'
loop_
 _atom_site_type_symbol
 _atom_site_label
 _atom_site_symmetry_multiplicity
 _atom_site_fract_x
 _atom_site_fract_y
 _atom_site_fract_z
 _atom_site_occupancy
  C  C0  1  0.50000000  0.09967500  0.25000000  1
  C  C1  1  0.50000000  0.59831500  0.50010500  1
  C  C2  1  0.50000000  0.11347800  0.75000000  1
  C  C3  1  0.50000000  0.59831500  0.99989500  1
  C  C4  1  0.50000000  0.20027000  0.09976400  1
  C  C5  1  0.50000000  0.70040600  0.35013100  1
  C  C6  1  0.50000000  0.20790400  0.60344800  1
  C  C7  1  0.50000000  0.68361100  0.84304100  1
  C  C8  1  0.50000000  0.70040600  0.14986900  1
  C  C9  1  0.50000000  0.20027000  0.40023600  1
  C  C10  1  0.50000000  0.68361100  0.65695900  1
  C  C11  1  0.50000000  0.20790400  0.89655200  1
  C  C12  1  0.00000000  0.25876900  0.99864800  1
  C  C13  1  0.00000000  0.75835600  0.25000000  1
  C  C14  1  0.00000000  0.25876900  0.50135200  1
  C  C15  1  0.00000000  0.73669000  0.75000000  1
  C  C16  1  0.00000000  0.37064600  0.18530900  1
  C  C17  1  0.00000000  0.87118800  0.43596700  1
  C  C18  1  0.00000000  0.38302600  0.69267700  1
  C  C19  1  0.00000000  0.86992600  0.93267300  1
  C  C20  1  0.00000000  0.87118800  0.06403300  1
  C  C21  1  0.00000000  0.37064600  0.31469100  1
  C  C22  1  0.00000000  0.86992600  0.56732700  1
  C  C23  1  0.00000000  0.38302600  0.80732300  1
  Ni  Ni24  1  0.00000000  0.99970700  0.16663500  1
  Ni  Ni25  1  0.00000000  0.49948600  0.41686300  1
  Ni  Ni26  1  0.00000000  0.99962800  0.66874400  1
  Ni  Ni27  1  0.00000000  0.50202800  0.91451500  1
  Ni  Ni28  1  0.00000000  0.49948600  0.08313700  1
  Ni  Ni29  1  0.00000000  0.99970700  0.33336500  1
  Ni  Ni30  1  0.00000000  0.50202800  0.58548500  1
  Ni  Ni31  1  0.00000000  0.99962800  0.83125600  1
  Ni  Ni32  1  0.50000000  0.99868700  0.99823600  1
  Ni  Ni33  1  0.50000000  0.50006200  0.25000000  1
  Ni  Ni34  1  0.50000000  0.99868700  0.50176400  1
  Cu  Cu35  1  0.50000000  0.50414500  0.75000000  1
