# generated using pymatgen
data_Cu5(NiC3)2
_symmetry_space_group_name_H-M   'P 1'
_cell_length_a   8.76223100
_cell_length_b   8.76223100
_cell_length_c   11.49247100
_cell_angle_alpha   90.00000000
_cell_angle_beta   90.00000000
_cell_angle_gamma   90.00000000
_symmetry_Int_Tables_number   1
_chemical_formula_structural   Cu5(NiC3)2
_chemical_formula_sum   'Cu10 Ni4 C12'
_cell_volume   882.35390740
_cell_formula_units_Z   2
loop_
 _symmetry_equiv_pos_site_id
 _symmetry_equiv_pos_as_xyz
  1  'x, y, z'
loop_
 _atom_site_type_symbol
 _atom_site_label
 _atom_site_symmetry_multiplicity
 _atom_site_fract_x
 _atom_site_fract_y
 _atom_site_fract_z
 _atom_site_occupancy
  C  C0  1  0.65744200  0.15744200  0.00000000  1
  C  C1  1  0.34255800  0.84255800  0.00000000  1
  C  C2  1  0.84255800  0.65744200  0.00000000  1
  C  C3  1  0.15744200  0.34255800  0.00000000  1
  C  C4  1  0.50000000  0.50000000  0.71520900  1
  C  C5  1  0.00000000  0.00000000  0.71520900  1
  C  C6  1  0.50000000  0.50000000  0.28479100  1
  C  C7  1  0.00000000  0.00000000  0.28479100  1
  C  C8  1  0.50000000  0.00000000  0.65472700  1
  C  C9  1  0.00000000  0.50000000  0.65472700  1
  C  C10  1  0.50000000  0.00000000  0.34527300  1
  C  C11  1  0.00000000  0.50000000  0.34527300  1
  Ni  Ni12  1  0.68003400  0.18003400  0.50000000  1
  Ni  Ni13  1  0.31996600  0.81996600  0.50000000  1
  Ni  Ni14  1  0.81996600  0.68003400  0.50000000  1
  Ni  Ni15  1  0.18003400  0.31996600  0.50000000  1
  Cu  Cu16  1  0.65852500  0.84147500  0.80179900  1
  Cu  Cu17  1  0.34147500  0.15852500  0.80179900  1
  Cu  Cu18  1  0.84147500  0.34147500  0.80179900  1
  Cu  Cu19  1  0.15852500  0.65852500  0.80179900  1
  Cu  Cu20  1  0.34147500  0.15852500  0.19820100  1
  Cu  Cu21  1  0.65852500  0.84147500  0.19820100  1
  Cu  Cu22  1  0.15852500  0.65852500  0.19820100  1
  Cu  Cu23  1  0.84147500  0.34147500  0.19820100  1
  Cu  Cu24  1  0.50000000  0.50000000  0.00000000  1
  Cu  Cu25  1  0.00000000  0.00000000  0.00000000  1
