# generated using pymatgen
data_Cu7Ni46
_symmetry_space_group_name_H-M   'P 1'
_cell_length_a   4.17684759
_cell_length_b   4.17684759
_cell_length_c   33.02418000
_cell_angle_alpha   90.00000000
_cell_angle_beta   90.00000000
_cell_angle_gamma   119.99999347
_symmetry_Int_Tables_number   1
_chemical_formula_structural   Cu7Ni46
_chemical_formula_sum   'Cu7 Ni46'
_cell_volume   498.95336919
_cell_formula_units_Z   1
loop_
 _symmetry_equiv_pos_site_id
 _symmetry_equiv_pos_as_xyz
  1  'x, y, z'
loop_
 _atom_site_type_symbol
 _atom_site_label
 _atom_site_symmetry_multiplicity
 _atom_site_fract_x
 _atom_site_fract_y
 _atom_site_fract_z
 _atom_site_occupancy
  Ni  Ni0  1  0.33333300  0.66666700  0.12504900  1
  Ni  Ni1  1  0.33333300  0.66666700  0.45832700  1
  Ni  Ni2  1  0.33333300  0.66666700  0.79163600  1
  Ni  Ni3  1  0.33333300  0.66666700  0.20798000  1
  Ni  Ni4  1  0.33333300  0.66666700  0.54134700  1
  Ni  Ni5  1  0.33333300  0.66666700  0.87558800  1
  Ni  Ni6  1  0.66666700  0.33333300  0.11407600  1
  Ni  Ni7  1  0.66666700  0.33333300  0.44749400  1
  Ni  Ni8  1  0.66666700  0.33333300  0.78139300  1
  Ni  Ni9  1  0.66666700  0.33333300  0.21902500  1
  Ni  Ni10  1  0.66666700  0.33333300  0.55214400  1
  Ni  Ni11  1  0.66666700  0.33333300  0.88595500  1
  Ni  Ni12  1  0.00274500  0.50137200  0.06111800  1
  Ni  Ni13  1  0.00096400  0.50048200  0.39388800  1
  Ni  Ni14  1  0.00582000  0.50291000  0.72971100  1
  Ni  Ni15  1  0.49862800  0.99725500  0.06111800  1
  Ni  Ni16  1  0.49951800  0.99903600  0.39388800  1
  Ni  Ni17  1  0.49709000  0.99418000  0.72971100  1
  Ni  Ni18  1  0.49862800  0.50137200  0.06111800  1
  Ni  Ni19  1  0.49951800  0.50048200  0.39388800  1
  Ni  Ni20  1  0.49709000  0.50291000  0.72971100  1
  Ni  Ni21  1  0.00113300  0.50056700  0.27277400  1
  Ni  Ni22  1  0.00533900  0.50266900  0.60372100  1
  Ni  Ni23  1  0.00292400  0.50146200  0.93895800  1
  Ni  Ni24  1  0.49943300  0.99886700  0.27277400  1
  Ni  Ni25  1  0.49733100  0.99466100  0.60372100  1
  Ni  Ni26  1  0.49853800  0.99707600  0.93895800  1
  Ni  Ni27  1  0.49943300  0.50056700  0.27277400  1
  Ni  Ni28  1  0.49733100  0.50266900  0.60372100  1
  Ni  Ni29  1  0.49853800  0.50146200  0.93895800  1
  Ni  Ni30  1  0.00000000  0.00000000  0.03285500  1
  Ni  Ni31  1  0.00000000  0.00000000  0.36528100  1
  Ni  Ni32  1  0.00000000  0.00000000  0.69852900  1
  Ni  Ni33  1  0.00000000  0.00000000  0.30134300  1
  Ni  Ni34  1  0.00000000  0.00000000  0.63486800  1
  Ni  Ni35  1  0.00000000  0.00000000  0.96688100  1
  Ni  Ni36  1  0.32675500  0.16337700  0.16661200  1
  Ni  Ni37  1  0.32670200  0.16335100  0.49997600  1
  Ni  Ni38  1  0.32681200  0.16340600  0.83336300  1
  Ni  Ni39  1  0.83662300  0.67324500  0.16661200  1
  Ni  Ni40  1  0.83664900  0.67329800  0.49997600  1
  Ni  Ni41  1  0.83659400  0.67318800  0.83336300  1
  Ni  Ni42  1  0.83662300  0.16337700  0.16661200  1
  Ni  Ni43  1  0.83664900  0.16335100  0.49997600  1
  Ni  Ni44  1  0.83659400  0.16340600  0.83336300  1
  Ni  Ni45  1  0.66666700  0.33333300  0.33330400  1
  Cu  Cu46  1  0.00000000  0.00000000  0.10341100  1
  Cu  Cu47  1  0.00000000  0.00000000  0.43624000  1
  Cu  Cu48  1  0.00000000  0.00000000  0.77021600  1
  Cu  Cu49  1  0.00000000  0.00000000  0.23051500  1
  Cu  Cu50  1  0.00000000  0.00000000  0.56306800  1
  Cu  Cu51  1  0.00000000  0.00000000  0.89641300  1
  Cu  Cu52  1  0.33333300  0.66666700  0.66669800  1
