# generated using pymatgen
data_CuNiC8
_symmetry_space_group_name_H-M   'P 1'
_cell_length_a   8.79302043
_cell_length_b   8.75528061
_cell_length_c   8.80387955
_cell_angle_alpha   90.00000000
_cell_angle_beta   90.00000000
_cell_angle_gamma   90.00000000
_symmetry_Int_Tables_number   1
_chemical_formula_structural   CuNiC8
_chemical_formula_sum   'Cu4 Ni4 C32'
_cell_volume   677.76984777
_cell_formula_units_Z   4
loop_
 _symmetry_equiv_pos_site_id
 _symmetry_equiv_pos_as_xyz
  1  'x, y, z'
loop_
 _atom_site_type_symbol
 _atom_site_label
 _atom_site_symmetry_multiplicity
 _atom_site_fract_x
 _atom_site_fract_y
 _atom_site_fract_z
 _atom_site_occupancy
  Ni  Ni0  1  -0.00000000  0.50000000  0.50000000  1
  Ni  Ni1  1  0.50000000  0.50000000  0.00000000  1
  Ni  Ni2  1  0.50000000  -0.00000000  0.00000000  1
  Ni  Ni3  1  -0.00000000  0.50000000  0.00000000  1
  Cu  Cu4  1  0.50000000  -0.00000000  0.50000000  1
  Cu  Cu5  1  -0.00000000  -0.00000000  0.50000000  1
  Cu  Cu6  1  -0.00000000  -0.00000000  0.00000000  1
  Cu  Cu7  1  0.50000000  0.50000000  0.50000000  1
  C  C8  1  0.25083295  0.25115546  0.24771893  1
  C  C9  1  0.74916705  0.74884454  0.24771893  1
  C  C10  1  0.74916705  0.25115546  0.75228107  1
  C  C11  1  0.25083295  0.74884454  0.75228107  1
  C  C12  1  0.74951055  0.75031901  0.75015905  1
  C  C13  1  0.25048945  0.24968099  0.75015905  1
  C  C14  1  0.25048945  0.75031901  0.24984095  1
  C  C15  1  0.74951055  0.24968099  0.24984095  1
  C  C16  1  0.02063039  0.19948370  0.29044772  1
  C  C17  1  0.97936961  0.80051630  0.29044772  1
  C  C18  1  0.97936961  0.19948370  0.70955228  1
  C  C19  1  0.02063039  0.80051630  0.70955228  1
  C  C20  1  0.28901215  0.02080925  0.20290285  1
  C  C21  1  0.28901215  0.97919075  0.79709715  1
  C  C22  1  0.71098785  0.97919075  0.20290285  1
  C  C23  1  0.71098785  0.02080925  0.79709715  1
  C  C24  1  0.20175023  0.28781738  0.02248677  1
  C  C25  1  0.79824977  0.28781738  0.97751323  1
  C  C26  1  0.20175023  0.71218262  0.97751323  1
  C  C27  1  0.79824977  0.71218262  0.02248677  1
  C  C28  1  0.47827988  0.29792025  0.21213006  1
  C  C29  1  0.52172012  0.70207975  0.21213006  1
  C  C30  1  0.52172012  0.29792025  0.78786994  1
  C  C31  1  0.47827988  0.70207975  0.78786994  1
  C  C32  1  0.21203349  0.47734748  0.29806649  1
  C  C33  1  0.21203349  0.52265252  0.70193351  1
  C  C34  1  0.78796651  0.52265252  0.29806649  1
  C  C35  1  0.78796651  0.47734748  0.70193351  1
  C  C36  1  0.30160948  0.20760300  0.48045247  1
  C  C37  1  0.69839052  0.20760300  0.51954753  1
  C  C38  1  0.30160948  0.79239700  0.51954753  1
  C  C39  1  0.69839052  0.79239700  0.48045247  1
