# generated using pymatgen
data_CuNi6C
_symmetry_space_group_name_H-M   'P 1'
_cell_length_a   4.80201700
_cell_length_b   6.01078800
_cell_length_c   10.46500000
_cell_angle_alpha   90.00000000
_cell_angle_beta   90.00000000
_cell_angle_gamma   90.00000000
_symmetry_Int_Tables_number   1
_chemical_formula_structural   CuNi6C
_chemical_formula_sum   'Cu2 Ni12 C2'
_cell_volume   302.06077796
_cell_formula_units_Z   2
loop_
 _symmetry_equiv_pos_site_id
 _symmetry_equiv_pos_as_xyz
  1  'x, y, z'
loop_
 _atom_site_type_symbol
 _atom_site_label
 _atom_site_symmetry_multiplicity
 _atom_site_fract_x
 _atom_site_fract_y
 _atom_site_fract_z
 _atom_site_occupancy
  Ni  Ni0  1  0.50000000  0.24929900  0.41717500  1
  Ni  Ni1  1  0.50000000  0.75070100  0.41717500  1
  Ni  Ni2  1  0.00000000  0.74430800  0.08956700  1
  Ni  Ni3  1  0.00000000  0.25569200  0.08956700  1
  Ni  Ni4  1  0.00000000  0.00000000  0.32761800  1
  Ni  Ni5  1  0.00000000  0.50000000  0.32398300  1
  Ni  Ni6  1  0.50000000  0.74929900  0.91717500  1
  Ni  Ni7  1  0.50000000  0.25070100  0.91717500  1
  Ni  Ni8  1  0.00000000  0.24430800  0.58956700  1
  Ni  Ni9  1  0.00000000  0.75569200  0.58956700  1
  Ni  Ni10  1  0.00000000  0.50000000  0.82761800  1
  Ni  Ni11  1  0.00000000  0.00000000  0.82398300  1
  Cu  Cu12  1  0.50000000  0.00000000  0.16672300  1
  Cu  Cu13  1  0.50000000  0.50000000  0.66672300  1
  C  C14  1  0.50000000  0.50000000  0.16818800  1
  C  C15  1  0.50000000  0.00000000  0.66818800  1
