# generated using pymatgen
data_Cu15Ni3C
_symmetry_space_group_name_H-M   'P 1'
_cell_length_a   6.90936100
_cell_length_b   9.10443053
_cell_length_c   11.63444475
_cell_angle_alpha   112.33152950
_cell_angle_beta   90.08197113
_cell_angle_gamma   109.46575279
_symmetry_Int_Tables_number   1
_chemical_formula_structural   Cu15Ni3C
_chemical_formula_sum   'Cu30 Ni6 C2'
_cell_volume   631.37059925
_cell_formula_units_Z   2
loop_
 _symmetry_equiv_pos_site_id
 _symmetry_equiv_pos_as_xyz
  1  'x, y, z'
loop_
 _atom_site_type_symbol
 _atom_site_label
 _atom_site_symmetry_multiplicity
 _atom_site_fract_x
 _atom_site_fract_y
 _atom_site_fract_z
 _atom_site_occupancy
  C  C0  1  0.48966000  0.84874800  0.78419300  1
  C  C1  1  0.51034000  0.15125200  0.21580700  1
  Ni  Ni2  1  0.77673100  0.82084700  0.01907000  1
  Ni  Ni3  1  0.22326900  0.17915300  0.98093000  1
  Ni  Ni4  1  0.57952300  0.41975400  0.31226500  1
  Ni  Ni5  1  0.42047700  0.58024600  0.68773500  1
  Ni  Ni6  1  0.74724100  0.18255300  0.65858200  1
  Ni  Ni7  1  0.25275900  0.81744700  0.34141800  1
  Cu  Cu8  1  0.58402600  0.52946000  0.34815700  1
  Cu  Cu9  1  0.41597400  0.47054000  0.65184300  1
  Cu  Cu10  1  0.12099100  0.31499800  0.42762500  1
  Cu  Cu11  1  0.87900900  0.68500200  0.57237500  1
  Cu  Cu12  1  0.54501300  0.26477000  0.38407200  1
  Cu  Cu13  1  0.45498700  0.73523000  0.61592800  1
  Cu  Cu14  1  0.16083300  0.60731300  0.11796900  1
  Cu  Cu15  1  0.83916700  0.39268700  0.88203100  1
  Cu  Cu16  1  0.00340900  0.30012900  0.33234800  1
  Cu  Cu17  1  0.99659100  0.69987100  0.66765200  1
  Cu  Cu18  1  0.87584600  0.31303600  0.61745500  1
  Cu  Cu19  1  0.12415400  0.68696400  0.38254500  1
  Cu  Cu20  1  0.91807900  0.82273400  0.10689300  1
  Cu  Cu21  1  0.08192100  0.17726600  0.89310700  1
  Cu  Cu22  1  0.63039000  0.89069100  0.99611100  1
  Cu  Cu23  1  0.36961000  0.10930900  0.00388900  1
  Cu  Cu24  1  0.79102200  0.10758700  0.17949300  1
  Cu  Cu25  1  0.20897800  0.89241300  0.82050700  1
  Cu  Cu26  1  0.06530400  0.02169200  0.54066300  1
  Cu  Cu27  1  0.93469600  0.97830800  0.45933700  1
  Cu  Cu28  1  0.23312900  0.25186200  0.05856900  1
  Cu  Cu29  1  0.76687100  0.74813800  0.94143100  1
  Cu  Cu30  1  0.78540600  0.37793200  0.97755000  1
  Cu  Cu31  1  0.21459400  0.62206800  0.02245000  1
  Cu  Cu32  1  0.60553400  0.44861900  0.19876900  1
  Cu  Cu33  1  0.39446600  0.55138100  0.80123100  1
  Cu  Cu34  1  0.61023900  0.16814800  0.72046100  1
  Cu  Cu35  1  0.38976100  0.83185200  0.27953900  1
  Cu  Cu36  1  0.25781800  0.95153900  0.35762300  1
  Cu  Cu37  1  0.74218200  0.04846100  0.64237700  1
