# generated using pymatgen
data_CuNiC30
_symmetry_space_group_name_H-M   'P 1'
_cell_length_a   8.70375084
_cell_length_b   8.83209706
_cell_length_c   4.40016688
_cell_angle_alpha   90.00000000
_cell_angle_beta   90.00000000
_cell_angle_gamma   90.00000000
_symmetry_Int_Tables_number   1
_chemical_formula_structural   CuNiC30
_chemical_formula_sum   'Cu1 Ni1 C30'
_cell_volume   338.25126616
_cell_formula_units_Z   1
loop_
 _symmetry_equiv_pos_site_id
 _symmetry_equiv_pos_as_xyz
  1  'x, y, z'
loop_
 _atom_site_type_symbol
 _atom_site_label
 _atom_site_symmetry_multiplicity
 _atom_site_fract_x
 _atom_site_fract_y
 _atom_site_fract_z
 _atom_site_occupancy
  Ni  Ni0  1  0.00000000  0.50000000  -0.00000000  1
  Cu  Cu1  1  0.00000000  0.00000000  -0.00000000  1
  C  C2  1  0.50000000  0.00000000  -0.00000000  1
  C  C3  1  0.50000000  0.50000000  -0.00000000  1
  C  C4  1  0.00000000  0.27267378  0.50000000  1
  C  C5  1  0.00000000  0.72732622  0.50000000  1
  C  C6  1  0.50000000  0.25449185  0.50000000  1
  C  C7  1  0.50000000  0.74550815  0.50000000  1
  C  C8  1  0.26673576  0.00000000  0.50000000  1
  C  C9  1  0.24913140  0.50000000  0.50000000  1
  C  C10  1  0.73326424  0.00000000  0.50000000  1
  C  C11  1  0.75086860  0.50000000  0.50000000  1
  C  C12  1  0.25680569  0.26328304  0.00000000  1
  C  C13  1  0.25680569  0.73671696  0.00000000  1
  C  C14  1  0.74319431  0.26328304  -0.00000000  1
  C  C15  1  0.74319431  0.73671696  -0.00000000  1
  C  C16  1  0.27102173  0.00000000  -0.00000000  1
  C  C17  1  0.26765008  0.50000000  -0.00000000  1
  C  C18  1  0.72897827  0.00000000  0.00000000  1
  C  C19  1  0.73234992  0.50000000  0.00000000  1
  C  C20  1  0.24955951  0.24846891  0.50000000  1
  C  C21  1  0.24955951  0.75153109  0.50000000  1
  C  C22  1  0.75044049  0.24846891  0.50000000  1
  C  C23  1  0.75044049  0.75153109  0.50000000  1
  C  C24  1  0.00000000  0.00000000  0.50000000  1
  C  C25  1  0.00000000  0.50000000  0.50000000  1
  C  C26  1  0.50000000  0.00000000  0.50000000  1
  C  C27  1  0.50000000  0.50000000  0.50000000  1
  C  C28  1  0.00000000  0.25836205  -0.00000000  1
  C  C29  1  0.00000000  0.74163795  -0.00000000  1
  C  C30  1  0.50000000  0.25031505  -0.00000000  1
  C  C31  1  0.50000000  0.74968495  -0.00000000  1
