# generated using pymatgen
data_Cu6NiC8
_symmetry_space_group_name_H-M   'P 1'
_cell_length_a   6.81396171
_cell_length_b   6.81396171
_cell_length_c   6.81396169
_cell_angle_alpha   92.01114156
_cell_angle_beta   92.01114156
_cell_angle_gamma   92.01114029
_symmetry_Int_Tables_number   1
_chemical_formula_structural   Cu6NiC8
_chemical_formula_sum   'Cu6 Ni1 C8'
_cell_volume   315.77405071
_cell_formula_units_Z   1
loop_
 _symmetry_equiv_pos_site_id
 _symmetry_equiv_pos_as_xyz
  1  'x, y, z'
loop_
 _atom_site_type_symbol
 _atom_site_label
 _atom_site_symmetry_multiplicity
 _atom_site_fract_x
 _atom_site_fract_y
 _atom_site_fract_z
 _atom_site_occupancy
  Ni  Ni0  1  0.00000000  0.00000000  0.00000000  1
  Cu  Cu1  1  0.76946300  0.58614400  0.44975700  1
  Cu  Cu2  1  0.44975700  0.76946300  0.58614400  1
  Cu  Cu3  1  0.58614400  0.44975700  0.76946300  1
  Cu  Cu4  1  0.23053700  0.41385600  0.55024300  1
  Cu  Cu5  1  0.55024300  0.23053700  0.41385600  1
  Cu  Cu6  1  0.41385600  0.55024300  0.23053700  1
  C  C7  1  0.77783000  0.77783000  0.77783000  1
  C  C8  1  0.22217000  0.22217000  0.22217000  1
  C  C9  1  0.26341900  0.61752400  0.87255200  1
  C  C10  1  0.87255200  0.26341900  0.61752400  1
  C  C11  1  0.61752400  0.87255200  0.26341900  1
  C  C12  1  0.73658100  0.38247600  0.12744800  1
  C  C13  1  0.12744800  0.73658100  0.38247600  1
  C  C14  1  0.38247600  0.12744800  0.73658100  1
