# generated using pymatgen
data_Cu2(NiC6)3
_symmetry_space_group_name_H-M   'P 1'
_cell_length_a   22.23174469
_cell_length_b   22.23174469
_cell_length_c   22.23174469
_cell_angle_alpha   169.72481331
_cell_angle_beta   169.72481331
_cell_angle_gamma   14.55091531
_symmetry_Int_Tables_number   1
_chemical_formula_structural   Cu2(NiC6)3
_chemical_formula_sum   'Cu2 Ni3 C18'
_cell_volume   349.60673797
_cell_formula_units_Z   1
loop_
 _symmetry_equiv_pos_site_id
 _symmetry_equiv_pos_as_xyz
  1  'x, y, z'
loop_
 _atom_site_type_symbol
 _atom_site_label
 _atom_site_symmetry_multiplicity
 _atom_site_fract_x
 _atom_site_fract_y
 _atom_site_fract_z
 _atom_site_occupancy
  C  C0  1  0.16494800  0.16494800  0.00000000  1
  C  C1  1  0.83505200  0.83505200  0.00000000  1
  Ni  Ni2  1  0.08096500  0.08096500  0.00000000  1
  Ni  Ni3  1  0.91903500  0.91903500  0.00000000  1
  Ni  Ni4  1  0.00000000  0.00000000  0.00000000  1
  Cu  Cu5  1  0.72503800  0.72503800  0.00000000  1
  Cu  Cu6  1  0.27496200  0.27496200  0.00000000  1
  C  C7  1  0.54438300  0.54438300  0.00000000  1
  C  C8  1  0.39717800  0.39717800  0.00000000  1
  C  C9  1  0.60282200  0.60282200  0.00000000  1
  C  C10  1  0.45561700  0.45561700  0.00000000  1
  C  C11  1  0.89323000  0.39323000  0.50000000  1
  C  C12  1  0.03165600  0.53165600  0.50000000  1
  C  C13  1  0.22104800  0.22104800  0.00000000  1
  C  C14  1  0.46834400  0.96834400  0.50000000  1
  C  C15  1  0.77895200  0.77895200  0.00000000  1
  C  C16  1  0.60677000  0.10677000  0.50000000  1
  C  C17  1  0.10677000  0.60677000  0.50000000  1
  C  C18  1  0.35069100  0.35069100  0.00000000  1
  C  C19  1  0.39323000  0.89323000  0.50000000  1
  C  C20  1  0.53165600  0.03165600  0.50000000  1
  C  C21  1  0.96834400  0.46834400  0.50000000  1
  C  C22  1  0.64930900  0.64930900  0.00000000  1
