# generated using pymatgen
data_Cu2Ni2C5
_symmetry_space_group_name_H-M   'P 1'
_cell_length_a   9.19153900
_cell_length_b   9.19153900
_cell_length_c   6.16004500
_cell_angle_alpha   90.00000000
_cell_angle_beta   90.00000000
_cell_angle_gamma   90.00000000
_symmetry_Int_Tables_number   1
_chemical_formula_structural   Cu2Ni2C5
_chemical_formula_sum   'Cu4 Ni4 C10'
_cell_volume   520.42763920
_cell_formula_units_Z   2
loop_
 _symmetry_equiv_pos_site_id
 _symmetry_equiv_pos_as_xyz
  1  'x, y, z'
loop_
 _atom_site_type_symbol
 _atom_site_label
 _atom_site_symmetry_multiplicity
 _atom_site_fract_x
 _atom_site_fract_y
 _atom_site_fract_z
 _atom_site_occupancy
  C  C0  1  0.00000000  0.00000000  0.00000000  1
  C  C1  1  0.50000000  0.50000000  0.50000000  1
  C  C2  1  0.18088800  0.18088800  0.00000000  1
  C  C3  1  0.81911200  0.81911200  0.00000000  1
  C  C4  1  0.68088800  0.31911200  0.50000000  1
  C  C5  1  0.31911200  0.68088800  0.50000000  1
  C  C6  1  0.63049800  0.36950200  0.00000000  1
  C  C7  1  0.36950200  0.63049800  0.00000000  1
  C  C8  1  0.86950200  0.86950200  0.50000000  1
  C  C9  1  0.13049800  0.13049800  0.50000000  1
  Ni  Ni10  1  0.50000000  0.00000000  0.25000000  1
  Ni  Ni11  1  0.50000000  0.00000000  0.75000000  1
  Ni  Ni12  1  0.00000000  0.50000000  0.25000000  1
  Ni  Ni13  1  0.00000000  0.50000000  0.75000000  1
  Cu  Cu14  1  0.00000000  0.00000000  0.30139700  1
  Cu  Cu15  1  0.00000000  0.00000000  0.69860300  1
  Cu  Cu16  1  0.50000000  0.50000000  0.80139700  1
  Cu  Cu17  1  0.50000000  0.50000000  0.19860300  1
