# generated using pymatgen
data_Cu4NiC3
_symmetry_space_group_name_H-M   'P 1'
_cell_length_a   9.14396700
_cell_length_b   9.32127300
_cell_length_c   10.66343900
_cell_angle_alpha   90.00000000
_cell_angle_beta   90.00000000
_cell_angle_gamma   90.00000000
_symmetry_Int_Tables_number   1
_chemical_formula_structural   Cu4NiC3
_chemical_formula_sum   'Cu16 Ni4 C12'
_cell_volume   908.88129719
_cell_formula_units_Z   4
loop_
 _symmetry_equiv_pos_site_id
 _symmetry_equiv_pos_as_xyz
  1  'x, y, z'
loop_
 _atom_site_type_symbol
 _atom_site_label
 _atom_site_symmetry_multiplicity
 _atom_site_fract_x
 _atom_site_fract_y
 _atom_site_fract_z
 _atom_site_occupancy
  C  C0  1  0.63992200  0.42092900  0.25000000  1
  C  C1  1  0.86007800  0.92092900  0.75000000  1
  C  C2  1  0.13992200  0.07907100  0.25000000  1
  C  C3  1  0.36007800  0.57907100  0.75000000  1
  C  C4  1  0.44492900  0.79772500  0.04450600  1
  C  C5  1  0.05507100  0.29772500  0.95549400  1
  C  C6  1  0.94492900  0.70227500  0.45549400  1
  C  C7  1  0.55507100  0.20227500  0.54450600  1
  C  C8  1  0.55507100  0.20227500  0.95549400  1
  C  C9  1  0.94492900  0.70227500  0.04450600  1
  C  C10  1  0.05507100  0.29772500  0.54450600  1
  C  C11  1  0.44492900  0.79772500  0.45549400  1
  Ni  Ni12  1  0.72204700  0.98063400  0.25000000  1
  Ni  Ni13  1  0.77795300  0.48063400  0.75000000  1
  Ni  Ni14  1  0.22204700  0.51936600  0.25000000  1
  Ni  Ni15  1  0.27795300  0.01936600  0.75000000  1
  Cu  Cu16  1  0.69357400  0.76106600  0.25000000  1
  Cu  Cu17  1  0.80642600  0.26106600  0.75000000  1
  Cu  Cu18  1  0.19357400  0.73893400  0.25000000  1
  Cu  Cu19  1  0.30642600  0.23893400  0.75000000  1
  Cu  Cu20  1  0.51992600  0.08114600  0.25000000  1
  Cu  Cu21  1  0.98007400  0.58114600  0.75000000  1
  Cu  Cu22  1  0.01992600  0.41885400  0.25000000  1
  Cu  Cu23  1  0.48007400  0.91885400  0.75000000  1
  Cu  Cu24  1  0.83446900  0.03755000  0.09036000  1
  Cu  Cu25  1  0.66553100  0.53755000  0.90964000  1
  Cu  Cu26  1  0.33446900  0.46245000  0.40964000  1
  Cu  Cu27  1  0.16553100  0.96245000  0.59036000  1
  Cu  Cu28  1  0.16553100  0.96245000  0.90964000  1
  Cu  Cu29  1  0.33446900  0.46245000  0.09036000  1
  Cu  Cu30  1  0.66553100  0.53755000  0.59036000  1
  Cu  Cu31  1  0.83446900  0.03755000  0.40964000  1
