# generated using pymatgen
data_Cu20Ni3C2
_symmetry_space_group_name_H-M   'P 1'
_cell_length_a   7.53222086
_cell_length_b   7.53222086
_cell_length_c   19.51513422
_cell_angle_alpha   80.18152272
_cell_angle_beta   80.18152272
_cell_angle_gamma   52.59030912
_symmetry_Int_Tables_number   1
_chemical_formula_structural   Cu20Ni3C2
_chemical_formula_sum   'Cu40 Ni6 C4'
_cell_volume   863.38946528
_cell_formula_units_Z   2
loop_
 _symmetry_equiv_pos_site_id
 _symmetry_equiv_pos_as_xyz
  1  'x, y, z'
loop_
 _atom_site_type_symbol
 _atom_site_label
 _atom_site_symmetry_multiplicity
 _atom_site_fract_x
 _atom_site_fract_y
 _atom_site_fract_z
 _atom_site_occupancy
  C  C0  1  0.80983300  0.78443800  0.88197600  1
  C  C1  1  0.78443800  0.80983300  0.38197600  1
  C  C2  1  0.07570200  0.11088500  0.10402200  1
  C  C3  1  0.11088500  0.07570200  0.60402200  1
  Ni  Ni4  1  0.27411500  0.65403900  0.75468900  1
  Ni  Ni5  1  0.65403900  0.27411500  0.25468900  1
  Ni  Ni6  1  0.16311400  0.15337900  0.91449500  1
  Ni  Ni7  1  0.15337900  0.16311400  0.41449500  1
  Ni  Ni8  1  0.70404000  0.76469000  0.08111400  1
  Ni  Ni9  1  0.76469000  0.70404000  0.58111400  1
  Cu  Cu10  1  0.13720300  0.04872500  0.98437500  1
  Cu  Cu11  1  0.04872500  0.13720300  0.48437500  1
  Cu  Cu12  1  0.07554900  0.11820500  0.85977400  1
  Cu  Cu13  1  0.11820500  0.07554900  0.35977400  1
  Cu  Cu14  1  0.04455200  0.39559700  0.92232900  1
  Cu  Cu15  1  0.39559700  0.04455200  0.42232900  1
  Cu  Cu16  1  0.40534000  0.04784200  0.89443400  1
  Cu  Cu17  1  0.04784200  0.40534000  0.39443400  1
  Cu  Cu18  1  0.74052400  0.81373900  0.00497600  1
  Cu  Cu19  1  0.81373900  0.74052400  0.50497600  1
  Cu  Cu20  1  0.75111700  0.87580700  0.12232000  1
  Cu  Cu21  1  0.87580700  0.75111700  0.62232000  1
  Cu  Cu22  1  0.46008100  0.85978700  0.09847800  1
  Cu  Cu23  1  0.85978700  0.46008100  0.59847800  1
  Cu  Cu24  1  0.83911400  0.51700400  0.09654100  1
  Cu  Cu25  1  0.51700400  0.83911400  0.59654100  1
  Cu  Cu26  1  0.47280400  0.46417200  0.72324700  1
  Cu  Cu27  1  0.46417200  0.47280400  0.22324700  1
  Cu  Cu28  1  0.20405500  0.87641900  0.72289400  1
  Cu  Cu29  1  0.87641900  0.20405500  0.22289400  1
  Cu  Cu30  1  0.08437300  0.64530700  0.77866300  1
  Cu  Cu31  1  0.64530700  0.08437300  0.27866300  1
  Cu  Cu32  1  0.36748100  0.63184500  0.83987800  1
  Cu  Cu33  1  0.63184500  0.36748100  0.33987800  1
  Cu  Cu34  1  0.24915400  0.29500600  0.15810600  1
  Cu  Cu35  1  0.29500600  0.24915400  0.65810600  1
  Cu  Cu36  1  0.30569400  0.38473500  0.10974000  1
  Cu  Cu37  1  0.38473500  0.30569400  0.60974000  1
  Cu  Cu38  1  0.06932700  0.80615400  0.14785500  1
  Cu  Cu39  1  0.80615400  0.06932700  0.64785500  1
  Cu  Cu40  1  0.21876400  0.66832800  0.89236800  1
  Cu  Cu41  1  0.66832800  0.21876400  0.39236800  1
  Cu  Cu42  1  0.65955200  0.34488900  0.01997400  1
  Cu  Cu43  1  0.34488900  0.65955200  0.51997400  1
  Cu  Cu44  1  0.75390600  0.65339800  0.29172100  1
  Cu  Cu45  1  0.65339800  0.75390600  0.79172100  1
  Cu  Cu46  1  0.77468100  0.12637400  0.88768500  1
  Cu  Cu47  1  0.12637400  0.77468100  0.38768500  1
  Cu  Cu48  1  0.57561200  0.51905100  0.98092800  1
  Cu  Cu49  1  0.51905100  0.57561200  0.48092800  1
