# generated using pymatgen
data_CuNiC3
_symmetry_space_group_name_H-M   'P 1'
_cell_length_a   4.76980900
_cell_length_b   4.92083200
_cell_length_c   7.30050200
_cell_angle_alpha   90.00000000
_cell_angle_beta   90.00000000
_cell_angle_gamma   90.00000000
_symmetry_Int_Tables_number   1
_chemical_formula_structural   CuNiC3
_chemical_formula_sum   'Cu4 Ni4 C12'
_cell_volume   171.35321261
_cell_formula_units_Z   4
loop_
 _symmetry_equiv_pos_site_id
 _symmetry_equiv_pos_as_xyz
  1  'x, y, z'
loop_
 _atom_site_type_symbol
 _atom_site_label
 _atom_site_symmetry_multiplicity
 _atom_site_fract_x
 _atom_site_fract_y
 _atom_site_fract_z
 _atom_site_occupancy
  Ni  Ni0  1  0.52303300  0.93329000  0.75000000  1
  Ni  Ni1  1  0.02303300  0.56671000  0.25000000  1
  Ni  Ni2  1  0.97696700  0.43329000  0.75000000  1
  Ni  Ni3  1  0.47696700  0.06671000  0.25000000  1
  Cu  Cu4  1  0.50000000  0.50000000  0.50000000  1
  Cu  Cu5  1  0.00000000  0.00000000  0.50000000  1
  Cu  Cu6  1  0.00000000  0.00000000  0.00000000  1
  Cu  Cu7  1  0.50000000  0.50000000  0.00000000  1
  C  C8  1  0.17877900  0.31870000  0.41685200  1
  C  C9  1  0.67877900  0.18130000  0.58314800  1
  C  C10  1  0.32122100  0.81870000  0.08314800  1
  C  C11  1  0.82122100  0.68130000  0.91685200  1
  C  C12  1  0.82122100  0.68130000  0.58314800  1
  C  C13  1  0.32122100  0.81870000  0.41685200  1
  C  C14  1  0.67877900  0.18130000  0.91685200  1
  C  C15  1  0.17877900  0.31870000  0.08314800  1
  C  C16  1  0.65135000  0.41497000  0.25000000  1
  C  C17  1  0.15135000  0.08503000  0.75000000  1
  C  C18  1  0.84865000  0.91497000  0.25000000  1
  C  C19  1  0.34865000  0.58503000  0.75000000  1
