# generated using pymatgen
data_Cu6NiC5
_symmetry_space_group_name_H-M   'P 1'
_cell_length_a   5.64774700
_cell_length_b   10.08673200
_cell_length_c   18.73586900
_cell_angle_alpha   90.00000000
_cell_angle_beta   90.00000000
_cell_angle_gamma   90.00000000
_symmetry_Int_Tables_number   1
_chemical_formula_structural   Cu6NiC5
_chemical_formula_sum   'Cu48 Ni8 C40'
_cell_volume   1067.33206480
_cell_formula_units_Z   8
loop_
 _symmetry_equiv_pos_site_id
 _symmetry_equiv_pos_as_xyz
  1  'x, y, z'
loop_
 _atom_site_type_symbol
 _atom_site_label
 _atom_site_symmetry_multiplicity
 _atom_site_fract_x
 _atom_site_fract_y
 _atom_site_fract_z
 _atom_site_occupancy
  C  C0  1  0.00000000  0.00000000  0.00000000  1
  C  C1  1  0.50000000  0.50000000  0.00000000  1
  C  C2  1  0.00000000  0.00000000  0.50000000  1
  C  C3  1  0.50000000  0.50000000  0.50000000  1
  C  C4  1  0.55123200  0.49829800  0.25000000  1
  C  C5  1  0.44876800  0.50170200  0.75000000  1
  C  C6  1  0.05123200  0.00170200  0.75000000  1
  C  C7  1  0.94876800  0.99829800  0.25000000  1
  C  C8  1  0.65456600  0.09215600  0.10000000  1
  C  C9  1  0.34543400  0.90784400  0.90000000  1
  C  C10  1  0.15456600  0.40784400  0.90000000  1
  C  C11  1  0.34543400  0.90784400  0.60000000  1
  C  C12  1  0.84543400  0.59215600  0.10000000  1
  C  C13  1  0.65456600  0.09215600  0.40000000  1
  C  C14  1  0.84543400  0.59215600  0.40000000  1
  C  C15  1  0.15456600  0.40784400  0.60000000  1
  C  C16  1  0.35373800  0.06521200  0.59731200  1
  C  C17  1  0.64626200  0.93478800  0.40268800  1
  C  C18  1  0.85373800  0.43478800  0.40268800  1
  C  C19  1  0.64626200  0.93478800  0.09731200  1
  C  C20  1  0.14626200  0.56521200  0.59731200  1
  C  C21  1  0.35373800  0.06521200  0.90268800  1
  C  C22  1  0.14626200  0.56521200  0.90268800  1
  C  C23  1  0.85373800  0.43478800  0.09731200  1
  C  C24  1  0.52590100  0.65993000  0.20554300  1
  C  C25  1  0.47409900  0.34007000  0.79445700  1
  C  C26  1  0.02590100  0.84007000  0.79445700  1
  C  C27  1  0.47409900  0.34007000  0.70554300  1
  C  C28  1  0.97409900  0.15993000  0.20554300  1
  C  C29  1  0.52590100  0.65993000  0.29445700  1
  C  C30  1  0.97409900  0.15993000  0.29445700  1
  C  C31  1  0.02590100  0.84007000  0.70554300  1
  C  C32  1  0.50440300  0.31924200  0.20674900  1
  C  C33  1  0.49559700  0.68075800  0.79325100  1
  C  C34  1  0.00440300  0.18075800  0.79325100  1
  C  C35  1  0.49559700  0.68075800  0.70674900  1
  C  C36  1  0.99559700  0.81924200  0.20674900  1
  C  C37  1  0.50440300  0.31924200  0.29325100  1
  C  C38  1  0.99559700  0.81924200  0.29325100  1
  C  C39  1  0.00440300  0.18075800  0.70674900  1
  Ni  Ni40  1  0.22222200  0.25966600  0.09152100  1
  Ni  Ni41  1  0.77777800  0.74033400  0.90847900  1
  Ni  Ni42  1  0.72222200  0.24033400  0.90847900  1
  Ni  Ni43  1  0.77777800  0.74033400  0.59152100  1
  Ni  Ni44  1  0.27777800  0.75966600  0.09152100  1
  Ni  Ni45  1  0.22222200  0.25966600  0.40847900  1
  Ni  Ni46  1  0.27777800  0.75966600  0.40847900  1
  Ni  Ni47  1  0.72222200  0.24033400  0.59152100  1
  Cu  Cu48  1  0.24760900  0.40145500  0.06681600  1
  Cu  Cu49  1  0.75239100  0.59854500  0.93318400  1
  Cu  Cu50  1  0.74760900  0.09854500  0.93318400  1
  Cu  Cu51  1  0.75239100  0.59854500  0.56681600  1
  Cu  Cu52  1  0.25239100  0.90145500  0.06681600  1
  Cu  Cu53  1  0.24760900  0.40145500  0.43318400  1
  Cu  Cu54  1  0.25239100  0.90145500  0.43318400  1
  Cu  Cu55  1  0.74760900  0.09854500  0.56681600  1
  Cu  Cu56  1  0.19403700  0.17687400  0.02527100  1
  Cu  Cu57  1  0.80596300  0.82312600  0.97472900  1
  Cu  Cu58  1  0.69403700  0.32312600  0.97472900  1
  Cu  Cu59  1  0.80596300  0.82312600  0.52527100  1
  Cu  Cu60  1  0.30596300  0.67687400  0.02527100  1
  Cu  Cu61  1  0.19403700  0.17687400  0.47472900  1
  Cu  Cu62  1  0.30596300  0.67687400  0.47472900  1
  Cu  Cu63  1  0.69403700  0.32312600  0.52527100  1
  Cu  Cu64  1  0.43546100  0.21684600  0.13121200  1
  Cu  Cu65  1  0.56453900  0.78315400  0.86878800  1
  Cu  Cu66  1  0.93546100  0.28315400  0.86878800  1
  Cu  Cu67  1  0.56453900  0.78315400  0.63121200  1
  Cu  Cu68  1  0.06453900  0.71684600  0.13121200  1
  Cu  Cu69  1  0.43546100  0.21684600  0.36878800  1
  Cu  Cu70  1  0.06453900  0.71684600  0.36878800  1
  Cu  Cu71  1  0.93546100  0.28315400  0.63121200  1
  Cu  Cu72  1  0.75313000  0.01160800  0.09271600  1
  Cu  Cu73  1  0.24687000  0.98839200  0.90728400  1
  Cu  Cu74  1  0.25313000  0.48839200  0.90728400  1
  Cu  Cu75  1  0.24687000  0.98839200  0.59271600  1
  Cu  Cu76  1  0.74687000  0.51160800  0.09271600  1
  Cu  Cu77  1  0.75313000  0.01160800  0.40728400  1
  Cu  Cu78  1  0.74687000  0.51160800  0.40728400  1
  Cu  Cu79  1  0.25313000  0.48839200  0.59271600  1
  Cu  Cu80  1  0.55284600  0.36945000  0.25000000  1
  Cu  Cu81  1  0.44715400  0.63055000  0.75000000  1
  Cu  Cu82  1  0.05284600  0.13055000  0.75000000  1
  Cu  Cu83  1  0.94715400  0.86945000  0.25000000  1
  Cu  Cu84  1  0.56757600  0.60914400  0.25000000  1
  Cu  Cu85  1  0.43242400  0.39085600  0.75000000  1
  Cu  Cu86  1  0.06757600  0.89085600  0.75000000  1
  Cu  Cu87  1  0.93242400  0.10914400  0.25000000  1
  Cu  Cu88  1  0.00562600  0.25706800  0.13574600  1
  Cu  Cu89  1  0.99437400  0.74293200  0.86425400  1
  Cu  Cu90  1  0.50562600  0.24293200  0.86425400  1
  Cu  Cu91  1  0.99437400  0.74293200  0.63574600  1
  Cu  Cu92  1  0.49437400  0.75706800  0.13574600  1
  Cu  Cu93  1  0.00562600  0.25706800  0.36425400  1
  Cu  Cu94  1  0.49437400  0.75706800  0.36425400  1
  Cu  Cu95  1  0.50562600  0.24293200  0.63574600  1
