# generated using pymatgen
data_Cu2NiC7
_symmetry_space_group_name_H-M   'P 1'
_cell_length_a   5.40233100
_cell_length_b   9.39960300
_cell_length_c   18.97337100
_cell_angle_alpha   90.00000000
_cell_angle_beta   90.00000000
_cell_angle_gamma   90.00000000
_symmetry_Int_Tables_number   1
_chemical_formula_structural   Cu2NiC7
_chemical_formula_sum   'Cu16 Ni8 C56'
_cell_volume   963.46335241
_cell_formula_units_Z   8
loop_
 _symmetry_equiv_pos_site_id
 _symmetry_equiv_pos_as_xyz
  1  'x, y, z'
loop_
 _atom_site_type_symbol
 _atom_site_label
 _atom_site_symmetry_multiplicity
 _atom_site_fract_x
 _atom_site_fract_y
 _atom_site_fract_z
 _atom_site_occupancy
  Ni  Ni0  1  0.61113200  0.14868700  0.37179800  1
  Ni  Ni1  1  0.38886800  0.85131300  0.62820200  1
  Ni  Ni2  1  0.61113200  0.64868700  0.12820200  1
  Ni  Ni3  1  0.11113200  0.85131300  0.12820200  1
  Ni  Ni4  1  0.88886800  0.14868700  0.87179800  1
  Ni  Ni5  1  0.38886800  0.35131300  0.87179800  1
  Ni  Ni6  1  0.11113200  0.35131300  0.37179800  1
  Ni  Ni7  1  0.88886800  0.64868700  0.62820200  1
  Cu  Cu8  1  0.56751200  0.67033200  0.77168900  1
  Cu  Cu9  1  0.73398100  0.83756400  0.48120500  1
  Cu  Cu10  1  0.76601900  0.83756400  0.98120500  1
  Cu  Cu11  1  0.93248800  0.17033200  0.22831100  1
  Cu  Cu12  1  0.06751200  0.32966800  0.72831100  1
  Cu  Cu13  1  0.43248800  0.82966800  0.27168900  1
  Cu  Cu14  1  0.23398100  0.66243600  0.48120500  1
  Cu  Cu15  1  0.73398100  0.33756400  0.01879500  1
  Cu  Cu16  1  0.76601900  0.33756400  0.51879500  1
  Cu  Cu17  1  0.93248800  0.67033200  0.27168900  1
  Cu  Cu18  1  0.43248800  0.32966800  0.22831100  1
  Cu  Cu19  1  0.56751200  0.17033200  0.72831100  1
  Cu  Cu20  1  0.26601900  0.16243600  0.51879500  1
  Cu  Cu21  1  0.06751200  0.82966800  0.77168900  1
  Cu  Cu22  1  0.26601900  0.66243600  0.98120500  1
  Cu  Cu23  1  0.23398100  0.16243600  0.01879500  1
  C  C24  1  0.37127300  0.97166200  0.87667100  1
  C  C25  1  0.62872700  0.02833800  0.12332900  1
  C  C26  1  0.87127300  0.02833800  0.62332900  1
  C  C27  1  0.12872700  0.97166200  0.37667100  1
  C  C28  1  0.37127300  0.47166200  0.62332900  1
  C  C29  1  0.62872700  0.52833800  0.37667100  1
  C  C30  1  0.87127300  0.52833800  0.87667100  1
  C  C31  1  0.12872700  0.47166200  0.12332900  1
  C  C32  1  0.95707400  0.51545900  0.30837400  1
  C  C33  1  0.27975400  0.01531800  0.06224600  1
  C  C34  1  0.04292600  0.48454100  0.69162600  1
  C  C35  1  0.73006400  0.33962500  0.93164100  1
  C  C36  1  0.23006400  0.16037500  0.93164100  1
  C  C37  1  0.96259400  0.22903100  0.04217500  1
  C  C38  1  0.92006400  0.69212600  0.18763100  1
  C  C39  1  0.07993600  0.80787400  0.68763100  1
  C  C40  1  0.73006400  0.83962500  0.56835900  1
  C  C41  1  0.92006400  0.19212600  0.31236900  1
  C  C42  1  0.45707400  0.48454100  0.19162600  1
  C  C43  1  0.76993600  0.33962500  0.43164100  1
  C  C44  1  0.72024600  0.98468200  0.93775400  1
  C  C45  1  0.42006400  0.80787400  0.18763100  1
  C  C46  1  0.54292600  0.01545900  0.69162600  1
  C  C47  1  0.27975400  0.51531800  0.43775400  1
  C  C48  1  0.45707400  0.98454100  0.30837400  1
  C  C49  1  0.15402400  0.77631300  0.30550300  1
  C  C50  1  0.34597600  0.77631300  0.80550300  1
  C  C51  1  0.53740600  0.72903100  0.95782500  1
  C  C52  1  0.76993600  0.83962500  0.06835900  1
  C  C53  1  0.57993600  0.69212600  0.68763100  1
  C  C54  1  0.77975400  0.48468200  0.06224600  1
  C  C55  1  0.15402400  0.27631300  0.19449700  1
  C  C56  1  0.26993600  0.16037500  0.43164100  1
  C  C57  1  0.57993600  0.19212600  0.81236900  1
  C  C58  1  0.72024600  0.48468200  0.56224600  1
  C  C59  1  0.23006400  0.66037500  0.56835900  1
  C  C60  1  0.22024600  0.51531800  0.93775400  1
  C  C61  1  0.65402400  0.72368700  0.30550300  1
  C  C62  1  0.04292600  0.98454100  0.80837400  1
  C  C63  1  0.84597600  0.72368700  0.80550300  1
  C  C64  1  0.84597600  0.22368700  0.69449700  1
  C  C65  1  0.77975400  0.98468200  0.43775400  1
  C  C66  1  0.26993600  0.66037500  0.06835900  1
  C  C67  1  0.22024600  0.01531800  0.56224600  1
  C  C68  1  0.34597600  0.27631300  0.69449700  1
  C  C69  1  0.03740600  0.77096900  0.95782500  1
  C  C70  1  0.46259400  0.77096900  0.45782500  1
  C  C71  1  0.65402400  0.22368700  0.19449700  1
  C  C72  1  0.46259400  0.27096900  0.04217500  1
  C  C73  1  0.53740600  0.22903100  0.54217500  1
  C  C74  1  0.03740600  0.27096900  0.54217500  1
  C  C75  1  0.42006400  0.30787400  0.31236900  1
  C  C76  1  0.54292600  0.51545900  0.80837400  1
  C  C77  1  0.96259400  0.72903100  0.45782500  1
  C  C78  1  0.07993600  0.30787400  0.81236900  1
  C  C79  1  0.95707400  0.01545900  0.19162600  1
