# generated using pymatgen
data_Cu8NiC2
_symmetry_space_group_name_H-M   'P 1'
_cell_length_a   10.97103554
_cell_length_b   10.97103554
_cell_length_c   7.05533326
_cell_angle_alpha   85.53459955
_cell_angle_beta   85.53459955
_cell_angle_gamma   33.93508030
_symmetry_Int_Tables_number   1
_chemical_formula_structural   Cu8NiC2
_chemical_formula_sum   'Cu16 Ni2 C4'
_cell_volume   472.49844251
_cell_formula_units_Z   2
loop_
 _symmetry_equiv_pos_site_id
 _symmetry_equiv_pos_as_xyz
  1  'x, y, z'
loop_
 _atom_site_type_symbol
 _atom_site_label
 _atom_site_symmetry_multiplicity
 _atom_site_fract_x
 _atom_site_fract_y
 _atom_site_fract_z
 _atom_site_occupancy
  C  C0  1  0.34789800  0.65210200  0.25000000  1
  C  C1  1  0.65210200  0.34789800  0.75000000  1
  C  C2  1  0.83469600  0.16530400  0.25000000  1
  C  C3  1  0.16530400  0.83469600  0.75000000  1
  Ni  Ni4  1  0.50000000  0.00000000  0.50000000  1
  Ni  Ni5  1  0.00000000  0.50000000  0.00000000  1
  Cu  Cu6  1  0.94798800  0.94416000  0.25394600  1
  Cu  Cu7  1  0.05584000  0.05201200  0.24605400  1
  Cu  Cu8  1  0.05201200  0.05584000  0.74605400  1
  Cu  Cu9  1  0.94416000  0.94798800  0.75394600  1
  Cu  Cu10  1  0.68504300  0.30945300  0.42255700  1
  Cu  Cu11  1  0.69054700  0.31495700  0.07744300  1
  Cu  Cu12  1  0.31495700  0.69054700  0.57744300  1
  Cu  Cu13  1  0.30945300  0.68504300  0.92255700  1
  Cu  Cu14  1  0.20294900  0.50860800  0.34118400  1
  Cu  Cu15  1  0.49139200  0.79705100  0.15881600  1
  Cu  Cu16  1  0.79705100  0.49139200  0.65881600  1
  Cu  Cu17  1  0.50860800  0.20294900  0.84118400  1
  Cu  Cu18  1  0.93636600  0.38861000  0.53109800  1
  Cu  Cu19  1  0.61139000  0.06363400  0.96890200  1
  Cu  Cu20  1  0.06363400  0.61139000  0.46890200  1
  Cu  Cu21  1  0.38861000  0.93636600  0.03109800  1
