# generated using pymatgen
data_CuNi2C9
_symmetry_space_group_name_H-M   'P 1'
_cell_length_a   13.11173578
_cell_length_b   13.11173578
_cell_length_c   13.11173578
_cell_angle_alpha   156.59118586
_cell_angle_beta   156.23006099
_cell_angle_gamma   33.60584457
_symmetry_Int_Tables_number   1
_chemical_formula_structural   CuNi2C9
_chemical_formula_sum   'Cu2 Ni4 C18'
_cell_volume   360.61956393
_cell_formula_units_Z   2
loop_
 _symmetry_equiv_pos_site_id
 _symmetry_equiv_pos_as_xyz
  1  'x, y, z'
loop_
 _atom_site_type_symbol
 _atom_site_label
 _atom_site_symmetry_multiplicity
 _atom_site_fract_x
 _atom_site_fract_y
 _atom_site_fract_z
 _atom_site_occupancy
  Ni  Ni0  1  0.82210000  0.77371000  0.95161000  1
  Ni  Ni1  1  0.17790000  0.22629000  0.04839000  1
  Ni  Ni2  1  0.67790000  0.62951100  0.95161000  1
  Ni  Ni3  1  0.32210000  0.37048900  0.04839000  1
  Cu  Cu4  1  0.50000000  0.50000000  0.00000000  1
  Cu  Cu5  1  0.00000000  0.00000000  0.00000000  1
  C  C6  1  0.42018800  0.92819000  0.50800100  1
  C  C7  1  0.57981200  0.07181000  0.49199900  1
  C  C8  1  0.07981200  0.58781300  0.50800100  1
  C  C9  1  0.92018800  0.41218700  0.49199900  1
  C  C10  1  0.00000000  0.50000000  0.00000000  1
  C  C11  1  0.50000000  0.50000000  0.50000000  1
  C  C12  1  0.19674700  0.19674700  0.50000000  1
  C  C13  1  0.30325300  0.80325300  0.00000000  1
  C  C14  1  0.80325300  0.80325300  0.50000000  1
  C  C15  1  0.69674700  0.19674700  0.00000000  1
  C  C16  1  0.68894700  0.68894700  0.50000000  1
  C  C17  1  0.81105300  0.31105300  0.00000000  1
  C  C18  1  0.31105300  0.31105300  0.50000000  1
  C  C19  1  0.18894700  0.68894700  0.00000000  1
  C  C20  1  0.84744100  0.31775500  0.47031400  1
  C  C21  1  0.15255900  0.68224500  0.52968600  1
  C  C22  1  0.65255900  0.12287300  0.47031400  1
  C  C23  1  0.34744100  0.87712700  0.52968600  1
