# generated using pymatgen
data_CuNi2C11
_symmetry_space_group_name_H-M   'P 1'
_cell_length_a   7.33693400
_cell_length_b   7.33693400
_cell_length_c   15.73744000
_cell_angle_alpha   90.00000000
_cell_angle_beta   90.00000000
_cell_angle_gamma   90.00000000
_symmetry_Int_Tables_number   1
_chemical_formula_structural   CuNi2C11
_chemical_formula_sum   'Cu4 Ni8 C44'
_cell_volume   847.15584585
_cell_formula_units_Z   4
loop_
 _symmetry_equiv_pos_site_id
 _symmetry_equiv_pos_as_xyz
  1  'x, y, z'
loop_
 _atom_site_type_symbol
 _atom_site_label
 _atom_site_symmetry_multiplicity
 _atom_site_fract_x
 _atom_site_fract_y
 _atom_site_fract_z
 _atom_site_occupancy
  C  C0  1  0.11662600  0.54203100  0.67626900  1
  C  C1  1  0.88337400  0.45796900  0.17626900  1
  C  C2  1  0.04203100  0.38337400  0.42626900  1
  C  C3  1  0.95796900  0.61662600  0.92626900  1
  C  C4  1  0.46415800  0.88046600  0.82493500  1
  C  C5  1  0.53584200  0.11953500  0.32493500  1
  C  C6  1  0.38046600  0.03584200  0.57493500  1
  C  C7  1  0.61953400  0.96415800  0.07493500  1
  C  C8  1  0.70922600  0.28816600  0.75057800  1
  C  C9  1  0.29077400  0.71183400  0.25057800  1
  C  C10  1  0.78816600  0.79077400  0.50057800  1
  C  C11  1  0.21183400  0.20922600  0.00057800  1
  Ni  Ni12  1  0.61133500  0.56512500  0.62703800  1
  Ni  Ni13  1  0.38866500  0.43487500  0.12703800  1
  Ni  Ni14  1  0.06512500  0.88866500  0.37703800  1
  Ni  Ni15  1  0.93487500  0.11133500  0.87703800  1
  Ni  Ni16  1  0.43548900  0.39448400  0.87521100  1
  Ni  Ni17  1  0.56451100  0.60551600  0.37521100  1
  Ni  Ni18  1  0.89448400  0.06451100  0.62521100  1
  Ni  Ni19  1  0.10551600  0.93548900  0.12521100  1
  Cu  Cu20  1  0.46198500  0.43704800  0.51018600  1
  Cu  Cu21  1  0.53801500  0.56295200  0.01018600  1
  Cu  Cu22  1  0.93704800  0.03801500  0.26018600  1
  Cu  Cu23  1  0.06295200  0.96198500  0.76018600  1
  C  C24  1  0.73560200  0.47150400  0.71047200  1
  C  C25  1  0.26439800  0.52849600  0.21047200  1
  C  C26  1  0.97150400  0.76439800  0.46047200  1
  C  C27  1  0.02849600  0.23560200  0.96047200  1
  C  C28  1  0.52963800  0.26540600  0.79178100  1
  C  C29  1  0.47036200  0.73459400  0.29178100  1
  C  C30  1  0.76540600  0.97036200  0.54178100  1
  C  C31  1  0.23459400  0.02963800  0.04178100  1
  C  C32  1  0.46897800  0.72761900  0.66012800  1
  C  C33  1  0.53102200  0.27238100  0.16012800  1
  C  C34  1  0.22761900  0.03102200  0.41012800  1
  C  C35  1  0.77238100  0.96897800  0.91012800  1
  C  C36  1  0.26689000  0.52720400  0.83816500  1
  C  C37  1  0.73311000  0.47279600  0.33816500  1
  C  C38  1  0.02720400  0.23311000  0.58816500  1
  C  C39  1  0.97279600  0.76689000  0.08816500  1
  C  C40  1  0.78940900  0.63358000  0.56048900  1
  C  C41  1  0.21059100  0.36642000  0.06048900  1
  C  C42  1  0.13358000  0.71059100  0.31048900  1
  C  C43  1  0.86642000  0.28940900  0.81048900  1
  C  C44  1  0.36473800  0.21008900  0.93960000  1
  C  C45  1  0.63526200  0.78991100  0.43960000  1
  C  C46  1  0.71008900  0.13526200  0.68960000  1
  C  C47  1  0.28991100  0.86473800  0.18960000  1
  C  C48  1  0.50243100  0.38811300  0.57306500  1
  C  C49  1  0.49756900  0.61188700  0.07306500  1
  C  C50  1  0.88811300  0.99756900  0.32306500  1
  C  C51  1  0.11188700  0.00243100  0.82306500  1
  C  C52  1  0.59879900  0.51166200  0.93018300  1
  C  C53  1  0.40120100  0.48833800  0.43018300  1
  C  C54  1  0.01166200  0.90120100  0.68018300  1
  C  C55  1  0.98833800  0.09879900  0.18018300  1
