# generated using pymatgen
data_Cu(NiC5)4
_symmetry_space_group_name_H-M   'P 1'
_cell_length_a   4.23833400
_cell_length_b   4.23833400
_cell_length_c   21.19796100
_cell_angle_alpha   90.00000000
_cell_angle_beta   90.00000000
_cell_angle_gamma   90.00000000
_symmetry_Int_Tables_number   1
_chemical_formula_structural   Cu(NiC5)4
_chemical_formula_sum   'Cu1 Ni4 C20'
_cell_volume   380.78904450
_cell_formula_units_Z   1
loop_
 _symmetry_equiv_pos_site_id
 _symmetry_equiv_pos_as_xyz
  1  'x, y, z'
loop_
 _atom_site_type_symbol
 _atom_site_label
 _atom_site_symmetry_multiplicity
 _atom_site_fract_x
 _atom_site_fract_y
 _atom_site_fract_z
 _atom_site_occupancy
  Ni  Ni0  1  0.50000000  0.50000000  0.80122000  1
  Ni  Ni1  1  0.50000000  0.50000000  0.60003900  1
  Ni  Ni2  1  0.50000000  0.50000000  0.39996100  1
  Ni  Ni3  1  0.50000000  0.50000000  0.19878000  1
  Cu  Cu4  1  0.50000000  0.50000000  0.00000000  1
  C  C5  1  0.00000000  0.00000000  0.09736300  1
  C  C6  1  0.00000000  0.00000000  0.90263700  1
  C  C7  1  0.00000000  0.00000000  0.70056800  1
  C  C8  1  0.00000000  0.00000000  0.50000000  1
  C  C9  1  0.00000000  0.00000000  0.29943200  1
  C  C10  1  0.00000000  0.00000000  0.00000000  1
  C  C11  1  0.00000000  0.00000000  0.80112200  1
  C  C12  1  0.00000000  0.00000000  0.60027100  1
  C  C13  1  0.00000000  0.00000000  0.39972900  1
  C  C14  1  0.00000000  0.00000000  0.19887800  1
  C  C15  1  0.50000000  0.00000000  0.90445500  1
  C  C16  1  0.50000000  0.00000000  0.70029000  1
  C  C17  1  0.50000000  0.00000000  0.50000000  1
  C  C18  1  0.50000000  0.00000000  0.29971000  1
  C  C19  1  0.50000000  0.00000000  0.09554500  1
  C  C20  1  0.00000000  0.50000000  0.09554500  1
  C  C21  1  0.00000000  0.50000000  0.90445500  1
  C  C22  1  0.00000000  0.50000000  0.70029000  1
  C  C23  1  0.00000000  0.50000000  0.50000000  1
  C  C24  1  0.00000000  0.50000000  0.29971000  1
