# generated using pymatgen
data_Cu6NiC30
_symmetry_space_group_name_H-M   'P 1'
_cell_length_a   13.81370258
_cell_length_b   13.81370258
_cell_length_c   13.91156991
_cell_angle_alpha   77.97002108
_cell_angle_beta   77.97002108
_cell_angle_gamma   31.47475851
_symmetry_Int_Tables_number   1
_chemical_formula_structural   Cu6NiC30
_chemical_formula_sum   'Cu12 Ni2 C60'
_cell_volume   1353.13347475
_cell_formula_units_Z   2
loop_
 _symmetry_equiv_pos_site_id
 _symmetry_equiv_pos_as_xyz
  1  'x, y, z'
loop_
 _atom_site_type_symbol
 _atom_site_label
 _atom_site_symmetry_multiplicity
 _atom_site_fract_x
 _atom_site_fract_y
 _atom_site_fract_z
 _atom_site_occupancy
  C  C0  1  0.10390100  0.46736700  0.28038300  1
  C  C1  1  0.53263300  0.89609900  0.21961700  1
  C  C2  1  0.89609900  0.53263300  0.71961700  1
  C  C3  1  0.46736700  0.10390100  0.78038300  1
  Ni  Ni4  1  0.17621900  0.82378100  0.25000000  1
  Ni  Ni5  1  0.82378100  0.17621900  0.75000000  1
  Cu  Cu6  1  0.99473400  0.36429200  0.16026700  1
  Cu  Cu7  1  0.63570800  0.00526600  0.33973300  1
  Cu  Cu8  1  0.00526600  0.63570800  0.83973300  1
  Cu  Cu9  1  0.36429200  0.99473400  0.66026700  1
  Cu  Cu10  1  0.95907400  0.82945400  0.37918900  1
  Cu  Cu11  1  0.17054600  0.04092600  0.12081100  1
  Cu  Cu12  1  0.04092600  0.17054600  0.62081100  1
  Cu  Cu13  1  0.82945400  0.95907400  0.87918900  1
  Cu  Cu14  1  0.02892500  0.30517200  0.95458800  1
  Cu  Cu15  1  0.69482800  0.97107500  0.54541200  1
  Cu  Cu16  1  0.97107500  0.69482800  0.04541200  1
  Cu  Cu17  1  0.30517200  0.02892500  0.45458800  1
  C  C18  1  0.09942900  0.13554700  0.01203000  1
  C  C19  1  0.86445300  0.90057100  0.48797000  1
  C  C20  1  0.90057100  0.86445300  0.98797000  1
  C  C21  1  0.13554700  0.09942900  0.51203000  1
  C  C22  1  0.94286300  0.42355600  0.04684500  1
  C  C23  1  0.57644400  0.05713700  0.45315500  1
  C  C24  1  0.05713700  0.57644400  0.95315500  1
  C  C25  1  0.42355600  0.94286300  0.54684500  1
  C  C26  1  0.02644400  0.21712400  0.18651300  1
  C  C27  1  0.78287600  0.97355600  0.31348700  1
  C  C28  1  0.97355600  0.78287600  0.81348700  1
  C  C29  1  0.21712400  0.02644400  0.68651300  1
  C  C30  1  0.82972600  0.52759500  0.22124900  1
  C  C31  1  0.47240500  0.17027400  0.27875100  1
  C  C32  1  0.17027400  0.47240500  0.77875100  1
  C  C33  1  0.52759500  0.82972600  0.72124900  1
  C  C34  1  0.17482700  0.26310000  0.16788100  1
  C  C35  1  0.73690000  0.82517300  0.33211900  1
  C  C36  1  0.82517300  0.73690000  0.83211900  1
  C  C37  1  0.26310000  0.17482700  0.66788100  1
  C  C38  1  0.09879900  0.63397600  0.36794800  1
  C  C39  1  0.36602400  0.90120100  0.13205200  1
  C  C40  1  0.90120100  0.36602400  0.63205200  1
  C  C41  1  0.63397600  0.09879900  0.86794800  1
  C  C42  1  0.02507900  0.88186800  0.35226100  1
  C  C43  1  0.11813200  0.97492100  0.14773900  1
  C  C44  1  0.97492100  0.11813200  0.64773900  1
  C  C45  1  0.88186800  0.02507900  0.85226100  1
  C  C46  1  0.12859500  0.57616500  0.10592900  1
  C  C47  1  0.42383500  0.87140500  0.39407100  1
  C  C48  1  0.87140500  0.42383500  0.89407100  1
  C  C49  1  0.57616500  0.12859500  0.60592900  1
  C  C50  1  0.80860000  0.77321000  0.09737300  1
  C  C51  1  0.22679000  0.19140000  0.40262700  1
  C  C52  1  0.19140000  0.22679000  0.90262700  1
  C  C53  1  0.77321000  0.80860000  0.59737300  1
  C  C54  1  0.93052300  0.53486000  0.49500300  1
  C  C55  1  0.46514000  0.06947700  0.00499700  1
  C  C56  1  0.06947700  0.46514000  0.50499700  1
  C  C57  1  0.53486000  0.93052300  0.99500300  1
  C  C58  1  0.47677700  0.46584000  0.35186600  1
  C  C59  1  0.53416000  0.52322300  0.14813400  1
  C  C60  1  0.52322300  0.53416000  0.64813400  1
  C  C61  1  0.46584000  0.47677700  0.85186600  1
  C  C62  1  0.52958300  0.59414800  0.37852400  1
  C  C63  1  0.40585200  0.47041700  0.12147600  1
  C  C64  1  0.47041700  0.40585200  0.62147600  1
  C  C65  1  0.59414800  0.52958300  0.87852400  1
  C  C66  1  0.28127700  0.63142700  0.14082100  1
  C  C67  1  0.36857300  0.71872300  0.35917900  1
  C  C68  1  0.71872300  0.36857300  0.85917900  1
  C  C69  1  0.63142700  0.28127700  0.64082100  1
  C  C70  1  0.62538200  0.37805400  0.12433400  1
  C  C71  1  0.62194600  0.37461800  0.37566600  1
  C  C72  1  0.37461800  0.62194600  0.87566600  1
  C  C73  1  0.37805400  0.62538200  0.62433400  1
