# generated using pymatgen
data_Cu12Ni2C
_symmetry_space_group_name_H-M   'P 1'
_cell_length_a   4.86711769
_cell_length_b   7.69137449
_cell_length_c   12.57876100
_cell_angle_alpha   90.00000000
_cell_angle_beta   90.00000000
_cell_angle_gamma   108.55187121
_symmetry_Int_Tables_number   1
_chemical_formula_structural   Cu12Ni2C
_chemical_formula_sum   'Cu24 Ni4 C2'
_cell_volume   446.41471504
_cell_formula_units_Z   2
loop_
 _symmetry_equiv_pos_site_id
 _symmetry_equiv_pos_as_xyz
  1  'x, y, z'
loop_
 _atom_site_type_symbol
 _atom_site_label
 _atom_site_symmetry_multiplicity
 _atom_site_fract_x
 _atom_site_fract_y
 _atom_site_fract_z
 _atom_site_occupancy
  C  C0  1  0.00000000  0.00000000  0.00000000  1
  C  C1  1  0.00000000  0.50000000  0.50000000  1
  Ni  Ni2  1  0.53934700  0.95622900  0.70286200  1
  Ni  Ni3  1  0.46065300  0.54377100  0.20286200  1
  Ni  Ni4  1  0.46065300  0.04377100  0.29713800  1
  Ni  Ni5  1  0.53934700  0.45622900  0.79713800  1
  Cu  Cu6  1  0.98538900  0.05894900  0.84742700  1
  Cu  Cu7  1  0.01461100  0.44105100  0.34742700  1
  Cu  Cu8  1  0.01461100  0.94105100  0.15257300  1
  Cu  Cu9  1  0.98538900  0.55894900  0.65257300  1
  Cu  Cu10  1  0.52100200  0.80568100  0.97521000  1
  Cu  Cu11  1  0.47899800  0.69431900  0.47521000  1
  Cu  Cu12  1  0.47899800  0.19432000  0.02479000  1
  Cu  Cu13  1  0.52100200  0.30568100  0.52479000  1
  Cu  Cu14  1  0.26314100  0.78667600  0.99417800  1
  Cu  Cu15  1  0.73685900  0.71332400  0.49417800  1
  Cu  Cu16  1  0.73685900  0.21332400  0.00582200  1
  Cu  Cu17  1  0.26314100  0.28667600  0.50582200  1
  Cu  Cu18  1  0.37511200  0.94780200  0.62575600  1
  Cu  Cu19  1  0.62488800  0.55219800  0.12575600  1
  Cu  Cu20  1  0.62488800  0.05219800  0.37424400  1
  Cu  Cu21  1  0.37511200  0.44780200  0.87424400  1
  Cu  Cu22  1  0.77975000  0.92874200  0.68908700  1
  Cu  Cu23  1  0.22025000  0.57125800  0.18908700  1
  Cu  Cu24  1  0.22025000  0.07125800  0.31091300  1
  Cu  Cu25  1  0.77975000  0.42874200  0.81091300  1
  Cu  Cu26  1  0.47178600  0.99328400  0.79511100  1
  Cu  Cu27  1  0.52821400  0.50671600  0.29511100  1
  Cu  Cu28  1  0.52821400  0.00671600  0.20488900  1
  Cu  Cu29  1  0.47178600  0.49328400  0.70488900  1
