# generated using pymatgen
data_Cu5NiC3
_symmetry_space_group_name_H-M   'P 1'
_cell_length_a   8.97165200
_cell_length_b   9.12353600
_cell_length_c   12.35173200
_cell_angle_alpha   90.00000000
_cell_angle_beta   90.00000000
_cell_angle_gamma   90.00000000
_symmetry_Int_Tables_number   1
_chemical_formula_structural   Cu5NiC3
_chemical_formula_sum   'Cu20 Ni4 C12'
_cell_volume   1011.02866624
_cell_formula_units_Z   4
loop_
 _symmetry_equiv_pos_site_id
 _symmetry_equiv_pos_as_xyz
  1  'x, y, z'
loop_
 _atom_site_type_symbol
 _atom_site_label
 _atom_site_symmetry_multiplicity
 _atom_site_fract_x
 _atom_site_fract_y
 _atom_site_fract_z
 _atom_site_occupancy
  C  C0  1  0.00664800  0.12204200  0.82303600  1
  C  C1  1  0.49335200  0.37795800  0.32303600  1
  C  C2  1  0.50664800  0.87795800  0.17696400  1
  C  C3  1  0.99335200  0.62204200  0.67696400  1
  C  C4  1  0.99335200  0.87795800  0.17696400  1
  C  C5  1  0.50664800  0.62204200  0.67696400  1
  C  C6  1  0.49335200  0.12204200  0.82303600  1
  C  C7  1  0.00664800  0.37795800  0.32303600  1
  C  C8  1  0.25000000  0.32874600  0.59465600  1
  C  C9  1  0.25000000  0.17125400  0.09465600  1
  C  C10  1  0.75000000  0.67125400  0.40534400  1
  C  C11  1  0.75000000  0.82874600  0.90534400  1
  Ni  Ni12  1  0.25000000  0.97636100  0.52337400  1
  Ni  Ni13  1  0.25000000  0.52363900  0.02337400  1
  Ni  Ni14  1  0.75000000  0.02363900  0.47662600  1
  Ni  Ni15  1  0.75000000  0.47636100  0.97662600  1
  Cu  Cu16  1  0.05178600  0.17252600  0.55467100  1
  Cu  Cu17  1  0.44821400  0.32747400  0.05467100  1
  Cu  Cu18  1  0.55178600  0.82747400  0.44532900  1
  Cu  Cu19  1  0.94821400  0.67252600  0.94532900  1
  Cu  Cu20  1  0.94821400  0.82747400  0.44532900  1
  Cu  Cu21  1  0.55178600  0.67252600  0.94532900  1
  Cu  Cu22  1  0.44821400  0.17252600  0.55467100  1
  Cu  Cu23  1  0.05178600  0.32747400  0.05467100  1
  Cu  Cu24  1  0.25000000  0.88252600  0.71079600  1
  Cu  Cu25  1  0.25000000  0.61747400  0.21079600  1
  Cu  Cu26  1  0.75000000  0.11747400  0.28920400  1
  Cu  Cu27  1  0.75000000  0.38252600  0.78920400  1
  Cu  Cu28  1  0.25000000  0.38289400  0.77328600  1
  Cu  Cu29  1  0.25000000  0.11710600  0.27328600  1
  Cu  Cu30  1  0.75000000  0.61710600  0.22671400  1
  Cu  Cu31  1  0.75000000  0.88289400  0.72671400  1
  Cu  Cu32  1  0.25000000  0.96936800  0.99233900  1
  Cu  Cu33  1  0.25000000  0.53063200  0.49233900  1
  Cu  Cu34  1  0.75000000  0.03063200  0.00766100  1
  Cu  Cu35  1  0.75000000  0.46936800  0.50766100  1
