# generated using pymatgen
data_Cu2Ni4C21
_symmetry_space_group_name_H-M   'P 1'
_cell_length_a   8.07851617
_cell_length_b   9.00288500
_cell_length_c   9.71874379
_cell_angle_alpha   90.00000000
_cell_angle_beta   100.98798115
_cell_angle_gamma   90.00000000
_symmetry_Int_Tables_number   1
_chemical_formula_structural   Cu2Ni4C21
_chemical_formula_sum   'Cu4 Ni8 C42'
_cell_volume   693.88533537
_cell_formula_units_Z   2
loop_
 _symmetry_equiv_pos_site_id
 _symmetry_equiv_pos_as_xyz
  1  'x, y, z'
loop_
 _atom_site_type_symbol
 _atom_site_label
 _atom_site_symmetry_multiplicity
 _atom_site_fract_x
 _atom_site_fract_y
 _atom_site_fract_z
 _atom_site_occupancy
  C  C0  1  0.00000000  0.00000000  0.00000000  1
  C  C1  1  0.00000000  0.50000000  0.50000000  1
  C  C2  1  0.10753900  0.36201700  0.09176900  1
  C  C3  1  0.89246100  0.86201700  0.40823100  1
  C  C4  1  0.89246100  0.63798300  0.90823100  1
  C  C5  1  0.10753900  0.13798300  0.59176900  1
  Ni  Ni6  1  0.14094400  0.79547400  0.73221200  1
  Ni  Ni7  1  0.85905600  0.29547400  0.76778800  1
  Ni  Ni8  1  0.85905600  0.20452600  0.26778800  1
  Ni  Ni9  1  0.14094400  0.70452600  0.23221200  1
  Ni  Ni10  1  0.65979300  0.79377100  0.06753100  1
  Ni  Ni11  1  0.34020700  0.29377100  0.43246900  1
  Ni  Ni12  1  0.34020700  0.20622900  0.93246900  1
  Ni  Ni13  1  0.65979300  0.70622900  0.56753100  1
  Cu  Cu14  1  0.39767600  0.82968600  0.93152600  1
  Cu  Cu15  1  0.60232400  0.32968600  0.56847400  1
  Cu  Cu16  1  0.60232400  0.17031400  0.06847400  1
  Cu  Cu17  1  0.39767600  0.67031400  0.43152600  1
  C  C18  1  0.40685600  0.97215700  0.25276700  1
  C  C19  1  0.59314400  0.47215700  0.24723300  1
  C  C20  1  0.59314400  0.02784300  0.74723300  1
  C  C21  1  0.40685600  0.52784300  0.75276700  1
  C  C22  1  0.04702600  0.81781400  0.85579100  1
  C  C23  1  0.95297400  0.31781400  0.64420900  1
  C  C24  1  0.95297400  0.18218600  0.14420900  1
  C  C25  1  0.04702600  0.68218600  0.35579100  1
  C  C26  1  0.07473500  0.90312700  0.60942400  1
  C  C27  1  0.92526500  0.40312700  0.89057600  1
  C  C28  1  0.92526500  0.09687300  0.39057600  1
  C  C29  1  0.07473500  0.59687300  0.10942400  1
  C  C30  1  0.11705400  0.63114300  0.68083400  1
  C  C31  1  0.88294600  0.13114300  0.81916600  1
  C  C32  1  0.88294600  0.36885700  0.31916600  1
  C  C33  1  0.11705400  0.86885700  0.18083400  1
  C  C34  1  0.33580500  0.81527200  0.78647600  1
  C  C35  1  0.66419500  0.31527200  0.71352400  1
  C  C36  1  0.66419500  0.18472800  0.21352400  1
  C  C37  1  0.33580500  0.68472800  0.28647600  1
  C  C38  1  0.70894100  0.82568900  0.22442500  1
  C  C39  1  0.29105900  0.32568900  0.27557500  1
  C  C40  1  0.29105900  0.17431100  0.77557500  1
  C  C41  1  0.70894100  0.67431100  0.72442500  1
  C  C42  1  0.75328600  0.89087400  0.97477200  1
  C  C43  1  0.24671400  0.39087400  0.52522800  1
  C  C44  1  0.24671400  0.10912600  0.02522800  1
  C  C45  1  0.75328600  0.60912600  0.47477200  1
  C  C46  1  0.67968600  0.62907400  0.02826500  1
  C  C47  1  0.32031400  0.12907400  0.47173500  1
  C  C48  1  0.32031400  0.37092600  0.97173500  1
  C  C49  1  0.67968600  0.87092600  0.52826500  1
  C  C50  1  0.46394100  0.83677500  0.03694000  1
  C  C51  1  0.53605900  0.33677500  0.46306000  1
  C  C52  1  0.53605900  0.16322500  0.96306000  1
  C  C53  1  0.46394100  0.66322500  0.53694000  1
