# generated using pymatgen
data_Cu3Ni5C
_symmetry_space_group_name_H-M   'P 1'
_cell_length_a   3.66407400
_cell_length_b   14.71363415
_cell_length_c   14.71363415
_cell_angle_alpha   120.00000068
_cell_angle_beta   90.00000000
_cell_angle_gamma   90.00000000
_symmetry_Int_Tables_number   1
_chemical_formula_structural   Cu3Ni5C
_chemical_formula_sum   'Cu18 Ni30 C6'
_cell_volume   686.96525392
_cell_formula_units_Z   6
loop_
 _symmetry_equiv_pos_site_id
 _symmetry_equiv_pos_as_xyz
  1  'x, y, z'
loop_
 _atom_site_type_symbol
 _atom_site_label
 _atom_site_symmetry_multiplicity
 _atom_site_fract_x
 _atom_site_fract_y
 _atom_site_fract_z
 _atom_site_occupancy
  C  C0  1  0.75000000  0.70661200  0.10068800  1
  C  C1  1  0.25000000  0.29338800  0.89931200  1
  C  C2  1  0.75000000  0.39407500  0.29338800  1
  C  C3  1  0.25000000  0.60592500  0.70661200  1
  C  C4  1  0.75000000  0.89931200  0.60592500  1
  C  C5  1  0.25000000  0.10068800  0.39407500  1
  Ni  Ni6  1  0.75000000  0.58667200  0.85201700  1
  Ni  Ni7  1  0.25000000  0.41332800  0.14798300  1
  Ni  Ni8  1  0.75000000  0.26534500  0.41332800  1
  Ni  Ni9  1  0.25000000  0.73465500  0.58667200  1
  Ni  Ni10  1  0.75000000  0.14798300  0.73465500  1
  Ni  Ni11  1  0.25000000  0.85201700  0.26534500  1
  Ni  Ni12  1  0.75000000  0.45958500  0.53402000  1
  Ni  Ni13  1  0.25000000  0.54041500  0.46598000  1
  Ni  Ni14  1  0.75000000  0.07443500  0.54041500  1
  Ni  Ni15  1  0.25000000  0.92556500  0.45958500  1
  Ni  Ni16  1  0.75000000  0.46598000  0.92556500  1
  Ni  Ni17  1  0.25000000  0.53402000  0.07443500  1
  Ni  Ni18  1  0.75000000  0.89900300  0.02894100  1
  Ni  Ni19  1  0.25000000  0.10099700  0.97105900  1
  Ni  Ni20  1  0.75000000  0.12993800  0.10099700  1
  Ni  Ni21  1  0.25000000  0.87006200  0.89900300  1
  Ni  Ni22  1  0.75000000  0.97105900  0.87006200  1
  Ni  Ni23  1  0.25000000  0.02894100  0.12993800  1
  Ni  Ni24  1  0.75000000  0.77478200  0.34722400  1
  Ni  Ni25  1  0.25000000  0.22521800  0.65277600  1
  Ni  Ni26  1  0.75000000  0.57244200  0.22521800  1
  Ni  Ni27  1  0.25000000  0.42755800  0.77478200  1
  Ni  Ni28  1  0.75000000  0.65277600  0.42755800  1
  Ni  Ni29  1  0.25000000  0.34722400  0.57244200  1
  Ni  Ni30  1  0.75000000  0.95182000  0.21940200  1
  Ni  Ni31  1  0.25000000  0.04818000  0.78059800  1
  Ni  Ni32  1  0.75000000  0.26758200  0.04818000  1
  Ni  Ni33  1  0.25000000  0.73241800  0.95182000  1
  Ni  Ni34  1  0.75000000  0.78059800  0.73241800  1
  Ni  Ni35  1  0.25000000  0.21940200  0.26758200  1
  Cu  Cu36  1  0.75000000  0.44354700  0.68191700  1
  Cu  Cu37  1  0.25000000  0.55645300  0.31808300  1
  Cu  Cu38  1  0.75000000  0.23837000  0.55645300  1
  Cu  Cu39  1  0.25000000  0.76163000  0.44354700  1
  Cu  Cu40  1  0.75000000  0.31808300  0.76163000  1
  Cu  Cu41  1  0.25000000  0.68191700  0.23837000  1
  Cu  Cu42  1  0.75000000  0.75168600  0.86971400  1
  Cu  Cu43  1  0.25000000  0.24831400  0.13028600  1
  Cu  Cu44  1  0.75000000  0.11802700  0.24831400  1
  Cu  Cu45  1  0.25000000  0.88197300  0.75168600  1
  Cu  Cu46  1  0.75000000  0.13028600  0.88197300  1
  Cu  Cu47  1  0.25000000  0.86971400  0.11802700  1
  Cu  Cu48  1  0.75000000  0.93854500  0.36993500  1
  Cu  Cu49  1  0.25000000  0.06145500  0.63006500  1
  Cu  Cu50  1  0.75000000  0.43139000  0.06145500  1
  Cu  Cu51  1  0.25000000  0.56861000  0.93854500  1
  Cu  Cu52  1  0.75000000  0.63006500  0.56861000  1
  Cu  Cu53  1  0.25000000  0.36993500  0.43139000  1
