# generated using pymatgen
data_CuNiC16
_symmetry_space_group_name_H-M   'P 1'
_cell_length_a   8.98749652
_cell_length_b   8.98749676
_cell_length_c   8.98749698
_cell_angle_alpha   58.63240932
_cell_angle_beta   58.63241532
_cell_angle_gamma   58.63241655
_symmetry_Int_Tables_number   1
_chemical_formula_structural   CuNiC16
_chemical_formula_sum   'Cu2 Ni2 C32'
_cell_volume   497.28787467
_cell_formula_units_Z   2
loop_
 _symmetry_equiv_pos_site_id
 _symmetry_equiv_pos_as_xyz
  1  'x, y, z'
loop_
 _atom_site_type_symbol
 _atom_site_label
 _atom_site_symmetry_multiplicity
 _atom_site_fract_x
 _atom_site_fract_y
 _atom_site_fract_z
 _atom_site_occupancy
  C  C0  1  0.99941600  0.99941600  0.99941600  1
  C  C1  1  0.49941600  0.49941600  0.49941600  1
  Ni  Ni2  1  0.14843300  0.14843300  0.14843300  1
  Ni  Ni3  1  0.64843300  0.64843300  0.64843300  1
  C  C4  1  0.03793100  0.45303900  0.75901200  1
  C  C5  1  0.45303900  0.75901200  0.03793100  1
  C  C6  1  0.75901200  0.03793100  0.45303900  1
  C  C7  1  0.25901200  0.95303900  0.53793100  1
  C  C8  1  0.53793100  0.25901200  0.95303900  1
  C  C9  1  0.95303900  0.53793100  0.25901200  1
  Cu  Cu10  1  0.35535600  0.35535600  0.35535600  1
  Cu  Cu11  1  0.85535600  0.85535600  0.85535600  1
  C  C12  1  0.10610900  0.51051900  0.30572000  1
  C  C13  1  0.30572000  0.10610900  0.51051900  1
  C  C14  1  0.05058800  0.26771300  0.92697800  1
  C  C15  1  0.51051900  0.30572000  0.10610900  1
  C  C16  1  0.01051900  0.60610900  0.80572000  1
  C  C17  1  0.22482800  0.42885700  0.59706700  1
  C  C18  1  0.26771300  0.92697800  0.05058800  1
  C  C19  1  0.42885700  0.59706700  0.22482800  1
  C  C20  1  0.20718800  0.99953600  0.37170700  1
  C  C21  1  0.59706700  0.22482800  0.42885700  1
  C  C22  1  0.09706700  0.92885700  0.72482800  1
  C  C23  1  0.37170700  0.20718800  0.99953600  1
  C  C24  1  0.60610900  0.80572000  0.01051900  1
  C  C25  1  0.92697800  0.05058800  0.26771300  1
  C  C26  1  0.42697800  0.76771300  0.55058800  1
  C  C27  1  0.80572000  0.01051900  0.60610900  1
  C  C28  1  0.55058800  0.42697800  0.76771300  1
  C  C29  1  0.72482800  0.09706700  0.92885700  1
  C  C30  1  0.76771300  0.55058800  0.42697800  1
  C  C31  1  0.99953600  0.37170700  0.20718800  1
  C  C32  1  0.49953600  0.70718800  0.87170700  1
  C  C33  1  0.92885700  0.72482800  0.09706700  1
  C  C34  1  0.70718800  0.87170700  0.49953600  1
  C  C35  1  0.87170700  0.49953600  0.70718800  1
