# generated using pymatgen
data_Cu13Ni16
_symmetry_space_group_name_H-M   'P 1'
_cell_length_a   9.11490525
_cell_length_b   9.11490525
_cell_length_c   9.11490525
_cell_angle_alpha   109.47122063
_cell_angle_beta   109.47122063
_cell_angle_gamma   109.47122063
_symmetry_Int_Tables_number   1
_chemical_formula_structural   Cu13Ni16
_chemical_formula_sum   'Cu13 Ni16'
_cell_volume   582.95440028
_cell_formula_units_Z   1
loop_
 _symmetry_equiv_pos_site_id
 _symmetry_equiv_pos_as_xyz
  1  'x, y, z'
loop_
 _atom_site_type_symbol
 _atom_site_label
 _atom_site_symmetry_multiplicity
 _atom_site_fract_x
 _atom_site_fract_y
 _atom_site_fract_z
 _atom_site_occupancy
  Ni  Ni0  1  0.31630400  0.00000000  0.60255700  1
  Ni  Ni1  1  0.60255700  0.00000000  0.31630400  1
  Ni  Ni2  1  0.39744300  0.39744300  0.71374700  1
  Ni  Ni3  1  0.71374700  0.39744300  0.39744300  1
  Ni  Ni4  1  0.00000000  0.60255700  0.31630400  1
  Ni  Ni5  1  0.31630400  0.60255700  0.00000000  1
  Ni  Ni6  1  0.65546900  0.65546900  0.65546900  1
  Ni  Ni7  1  0.00000000  0.34453100  0.00000000  1
  Ni  Ni8  1  0.00000000  0.00000000  0.34453100  1
  Ni  Ni9  1  0.34453100  0.00000000  0.00000000  1
  Ni  Ni10  1  0.00000000  0.31630400  0.60255700  1
  Ni  Ni11  1  0.68369600  0.68369600  0.28625300  1
  Ni  Ni12  1  0.60255700  0.31630400  0.00000000  1
  Ni  Ni13  1  0.28625300  0.68369600  0.68369600  1
  Ni  Ni14  1  0.39744300  0.71374700  0.39744300  1
  Ni  Ni15  1  0.68369600  0.28625300  0.68369600  1
  Cu  Cu16  1  0.00000000  0.00000000  0.00000000  1
  Cu  Cu17  1  0.18478200  0.18478200  0.81759900  1
  Cu  Cu18  1  0.00000000  0.81521800  0.63281800  1
  Cu  Cu19  1  0.81759900  0.18478200  0.18478200  1
  Cu  Cu20  1  0.63281800  0.81521800  0.00000000  1
  Cu  Cu21  1  0.36718200  0.18240100  0.36718200  1
  Cu  Cu22  1  0.18478200  0.81759900  0.18478200  1
  Cu  Cu23  1  0.81521800  0.00000000  0.63281800  1
  Cu  Cu24  1  0.63281800  0.00000000  0.81521800  1
  Cu  Cu25  1  0.18240100  0.36718200  0.36718200  1
  Cu  Cu26  1  0.36718200  0.36718200  0.18240100  1
  Cu  Cu27  1  0.81521800  0.63281800  0.00000000  1
  Cu  Cu28  1  0.00000000  0.63281800  0.81521800  1
