# generated using pymatgen
data_Cu6Ni3C2
_symmetry_space_group_name_H-M   'P 1'
_cell_length_a   6.76630472
_cell_length_b   6.76630472
_cell_length_c   7.96011203
_cell_angle_alpha   83.75789856
_cell_angle_beta   83.75789856
_cell_angle_gamma   59.67290182
_symmetry_Int_Tables_number   1
_chemical_formula_structural   Cu6Ni3C2
_chemical_formula_sum   'Cu12 Ni6 C4'
_cell_volume   312.08526951
_cell_formula_units_Z   2
loop_
 _symmetry_equiv_pos_site_id
 _symmetry_equiv_pos_as_xyz
  1  'x, y, z'
loop_
 _atom_site_type_symbol
 _atom_site_label
 _atom_site_symmetry_multiplicity
 _atom_site_fract_x
 _atom_site_fract_y
 _atom_site_fract_z
 _atom_site_occupancy
  C  C0  1  0.56662100  0.43337900  0.75000000  1
  C  C1  1  0.43337900  0.56662100  0.25000000  1
  C  C2  1  0.00000000  0.50000000  0.00000000  1
  C  C3  1  0.50000000  0.00000000  0.50000000  1
  Ni  Ni4  1  0.81105500  0.81756400  0.05881300  1
  Ni  Ni5  1  0.18243600  0.18894500  0.44118700  1
  Ni  Ni6  1  0.18894500  0.18243600  0.94118700  1
  Ni  Ni7  1  0.81756400  0.81105500  0.55881300  1
  Ni  Ni8  1  0.83985300  0.16014700  0.75000000  1
  Ni  Ni9  1  0.16014700  0.83985300  0.25000000  1
  Cu  Cu10  1  0.19780700  0.59505500  0.83871900  1
  Cu  Cu11  1  0.40494500  0.80219300  0.66128100  1
  Cu  Cu12  1  0.80219300  0.40494500  0.16128100  1
  Cu  Cu13  1  0.59505500  0.19780700  0.33871900  1
  Cu  Cu14  1  0.81737200  0.55165800  0.79759800  1
  Cu  Cu15  1  0.44834200  0.18262800  0.70240200  1
  Cu  Cu16  1  0.18262800  0.44834200  0.20240200  1
  Cu  Cu17  1  0.55165800  0.81737200  0.29759800  1
  Cu  Cu18  1  0.70313000  0.45398800  0.49481000  1
  Cu  Cu19  1  0.54601200  0.29687000  0.00519000  1
  Cu  Cu20  1  0.29687000  0.54601200  0.50519000  1
  Cu  Cu21  1  0.45398800  0.70313000  0.99481000  1
