# generated using pymatgen
data_Cu4Ni2C13
_symmetry_space_group_name_H-M   'P 1'
_cell_length_a   8.44825709
_cell_length_b   8.44825709
_cell_length_c   8.44825709
_cell_angle_alpha   106.27767156
_cell_angle_beta   106.27767156
_cell_angle_gamma   116.06654306
_symmetry_Int_Tables_number   1
_chemical_formula_structural   Cu4Ni2C13
_chemical_formula_sum   'Cu8 Ni4 C26'
_cell_volume   459.50807950
_cell_formula_units_Z   2
loop_
 _symmetry_equiv_pos_site_id
 _symmetry_equiv_pos_as_xyz
  1  'x, y, z'
loop_
 _atom_site_type_symbol
 _atom_site_label
 _atom_site_symmetry_multiplicity
 _atom_site_fract_x
 _atom_site_fract_y
 _atom_site_fract_z
 _atom_site_occupancy
  C  C0  1  0.78448700  0.78448700  0.00000000  1
  C  C1  1  0.21551300  0.21551300  0.00000000  1
  Ni  Ni2  1  0.84164900  0.35762500  0.19927400  1
  Ni  Ni3  1  0.15835100  0.64237500  0.80072600  1
  Ni  Ni4  1  0.35762500  0.15835100  0.51597700  1
  Ni  Ni5  1  0.64237500  0.84164900  0.48402300  1
  Cu  Cu6  1  0.49500100  0.01321400  0.17493600  1
  Cu  Cu7  1  0.83827700  0.32006500  0.82506400  1
  Cu  Cu8  1  0.01321400  0.83827700  0.51821300  1
  Cu  Cu9  1  0.32006500  0.49500100  0.48178700  1
  Cu  Cu10  1  0.50499900  0.98678600  0.82506400  1
  Cu  Cu11  1  0.16172300  0.67993500  0.17493600  1
  Cu  Cu12  1  0.98678600  0.16172300  0.48178700  1
  Cu  Cu13  1  0.67993500  0.50499900  0.51821300  1
  C  C14  1  0.79993000  0.15065000  0.95058100  1
  C  C15  1  0.20007000  0.84935000  0.04941900  1
  C  C16  1  0.15065000  0.20007000  0.35072000  1
  C  C17  1  0.84935000  0.79993000  0.64928000  1
  C  C18  1  0.46844600  0.82343800  0.95818500  1
  C  C19  1  0.86525400  0.51026200  0.04181500  1
  C  C20  1  0.82343800  0.86525400  0.35499200  1
  C  C21  1  0.51026200  0.46844600  0.64500800  1
  C  C22  1  0.53155400  0.17656200  0.04181500  1
  C  C23  1  0.13474600  0.48973800  0.95818500  1
  C  C24  1  0.17656200  0.13474600  0.64500800  1
  C  C25  1  0.48973800  0.53155400  0.35499200  1
  C  C26  1  0.83892100  0.54783100  0.38675200  1
  C  C27  1  0.16107900  0.45216900  0.61324800  1
  C  C28  1  0.54783100  0.16107900  0.70890900  1
  C  C29  1  0.45216900  0.83892100  0.29109100  1
  C  C30  1  0.49996000  0.20817900  0.37060900  1
  C  C31  1  0.83757000  0.12935100  0.62939100  1
  C  C32  1  0.20817900  0.83757000  0.70821900  1
  C  C33  1  0.12935100  0.49996000  0.29178100  1
  C  C34  1  0.50004000  0.79182100  0.62939100  1
  C  C35  1  0.16243000  0.87064900  0.37060900  1
  C  C36  1  0.79182100  0.16243000  0.29178100  1
  C  C37  1  0.87064900  0.50004000  0.70821900  1
