# generated using pymatgen
data_Cu2NiC4
_symmetry_space_group_name_H-M   'P 1'
_cell_length_a   14.11805083
_cell_length_b   14.11805083
_cell_length_c   14.11805028
_cell_angle_alpha   17.55785347
_cell_angle_beta   17.55785347
_cell_angle_gamma   17.55785180
_symmetry_Int_Tables_number   1
_chemical_formula_structural   Cu2NiC4
_chemical_formula_sum   'Cu2 Ni1 C4'
_cell_volume   223.51155733
_cell_formula_units_Z   1
loop_
 _symmetry_equiv_pos_site_id
 _symmetry_equiv_pos_as_xyz
  1  'x, y, z'
loop_
 _atom_site_type_symbol
 _atom_site_label
 _atom_site_symmetry_multiplicity
 _atom_site_fract_x
 _atom_site_fract_y
 _atom_site_fract_z
 _atom_site_occupancy
  Ni  Ni0  1  0.42954300  0.42954300  0.42954300  1
  Cu  Cu1  1  0.57347200  0.57347200  0.57347200  1
  Cu  Cu2  1  0.00201200  0.00201200  0.00201200  1
  C  C3  1  0.13023000  0.13023000  0.13023000  1
  C  C4  1  0.86583500  0.86583500  0.86583500  1
  C  C5  1  0.28863000  0.28863000  0.28863000  1
  C  C6  1  0.71027900  0.71027900  0.71027900  1
