# generated using pymatgen
data_Cu(NiC3)2
_symmetry_space_group_name_H-M   'P 1'
_cell_length_a   9.63533700
_cell_length_b   5.70597600
_cell_length_c   10.70369791
_cell_angle_alpha   76.62489597
_cell_angle_beta   90.00000000
_cell_angle_gamma   90.00000000
_symmetry_Int_Tables_number   1
_chemical_formula_structural   Cu(NiC3)2
_chemical_formula_sum   'Cu4 Ni8 C24'
_cell_volume   572.51701654
_cell_formula_units_Z   4
loop_
 _symmetry_equiv_pos_site_id
 _symmetry_equiv_pos_as_xyz
  1  'x, y, z'
loop_
 _atom_site_type_symbol
 _atom_site_label
 _atom_site_symmetry_multiplicity
 _atom_site_fract_x
 _atom_site_fract_y
 _atom_site_fract_z
 _atom_site_occupancy
  Ni  Ni0  1  0.67772800  0.76946000  0.04775100  1
  Ni  Ni1  1  0.17772800  0.73054000  0.95224900  1
  Ni  Ni2  1  0.32227200  0.23054000  0.95224900  1
  Ni  Ni3  1  0.82227200  0.26946000  0.04775100  1
  Ni  Ni4  1  0.66775000  0.65634500  0.47494700  1
  Ni  Ni5  1  0.16775000  0.84365500  0.52505300  1
  Ni  Ni6  1  0.33225000  0.34365500  0.52505300  1
  Ni  Ni7  1  0.83225000  0.15634500  0.47494700  1
  Cu  Cu8  1  0.37615100  0.76295000  0.23958900  1
  Cu  Cu9  1  0.87615100  0.73705000  0.76041100  1
  Cu  Cu10  1  0.62384900  0.23705000  0.76041100  1
  Cu  Cu11  1  0.12384900  0.26295000  0.23958900  1
  C  C12  1  0.74913200  0.93714900  0.40913200  1
  C  C13  1  0.24913200  0.56285100  0.59086800  1
  C  C14  1  0.25086800  0.06285100  0.59086800  1
  C  C15  1  0.75086800  0.43714900  0.40913200  1
  C  C16  1  0.69405300  0.04349700  0.10028500  1
  C  C17  1  0.19405300  0.45650300  0.89971500  1
  C  C18  1  0.30594700  0.95650300  0.89971500  1
  C  C19  1  0.80594700  0.54349700  0.10028500  1
  C  C20  1  0.00625600  0.20504900  0.42072900  1
  C  C21  1  0.50625600  0.29495100  0.57927100  1
  C  C22  1  0.99374400  0.79495100  0.57927100  1
  C  C23  1  0.49374400  0.70504900  0.42072900  1
  C  C24  1  0.98221600  0.14829500  0.10779500  1
  C  C25  1  0.48221600  0.35170500  0.89220500  1
  C  C26  1  0.01778400  0.85170500  0.89220500  1
  C  C27  1  0.51778400  0.64829500  0.10779500  1
  C  C28  1  0.69476000  0.85622100  0.87459200  1
  C  C29  1  0.19476000  0.64377900  0.12540800  1
  C  C30  1  0.30524000  0.14377900  0.12540800  1
  C  C31  1  0.80524000  0.35622100  0.87459200  1
  C  C32  1  0.69499900  0.59661300  0.64837500  1
  C  C33  1  0.19499900  0.90338700  0.35162500  1
  C  C34  1  0.30500100  0.40338700  0.35162500  1
  C  C35  1  0.80500100  0.09661300  0.64837500  1
