# generated using pymatgen
data_Cu3(NiC4)4
_symmetry_space_group_name_H-M   'P 1'
_cell_length_a   9.69521800
_cell_length_b   9.69521800
_cell_length_c   13.60061700
_cell_angle_alpha   90.00000000
_cell_angle_beta   90.00000000
_cell_angle_gamma   90.00000000
_symmetry_Int_Tables_number   1
_chemical_formula_structural   Cu3(NiC4)4
_chemical_formula_sum   'Cu12 Ni16 C64'
_cell_volume   1278.42062442
_cell_formula_units_Z   4
loop_
 _symmetry_equiv_pos_site_id
 _symmetry_equiv_pos_as_xyz
  1  'x, y, z'
loop_
 _atom_site_type_symbol
 _atom_site_label
 _atom_site_symmetry_multiplicity
 _atom_site_fract_x
 _atom_site_fract_y
 _atom_site_fract_z
 _atom_site_occupancy
  C  C0  1  0.61398900  0.88601100  0.25000000  1
  C  C1  1  0.38601100  0.11398900  0.25000000  1
  C  C2  1  0.88601100  0.38601100  0.75000000  1
  C  C3  1  0.11398900  0.61398900  0.75000000  1
  C  C4  1  0.88601100  0.38601100  0.25000000  1
  C  C5  1  0.11398900  0.61398900  0.25000000  1
  C  C6  1  0.38601100  0.11398900  0.75000000  1
  C  C7  1  0.61398900  0.88601100  0.75000000  1
  Ni  Ni8  1  0.65204900  0.22971000  0.10543400  1
  Ni  Ni9  1  0.34795100  0.77029000  0.10543400  1
  Ni  Ni10  1  0.84795100  0.72971000  0.60543400  1
  Ni  Ni11  1  0.15204900  0.27029000  0.60543400  1
  Ni  Ni12  1  0.22971000  0.34795100  0.10543400  1
  Ni  Ni13  1  0.77029000  0.65204900  0.10543400  1
  Ni  Ni14  1  0.72971000  0.15204900  0.60543400  1
  Ni  Ni15  1  0.27029000  0.84795100  0.60543400  1
  Ni  Ni16  1  0.34795100  0.77029000  0.89456600  1
  Ni  Ni17  1  0.65204900  0.22971000  0.89456600  1
  Ni  Ni18  1  0.15204900  0.27029000  0.39456600  1
  Ni  Ni19  1  0.84795100  0.72971000  0.39456600  1
  Ni  Ni20  1  0.77029000  0.65204900  0.89456600  1
  Ni  Ni21  1  0.22971000  0.34795100  0.89456600  1
  Ni  Ni22  1  0.27029000  0.84795100  0.39456600  1
  Ni  Ni23  1  0.72971000  0.15204900  0.39456600  1
  Cu  Cu24  1  0.50000000  0.50000000  0.18344900  1
  Cu  Cu25  1  0.00000000  0.00000000  0.68344900  1
  Cu  Cu26  1  0.50000000  0.50000000  0.81655100  1
  Cu  Cu27  1  0.00000000  0.00000000  0.31655100  1
  Cu  Cu28  1  0.68430900  0.94051400  0.00000000  1
  Cu  Cu29  1  0.31569100  0.05948600  0.00000000  1
  Cu  Cu30  1  0.81569100  0.44051400  0.50000000  1
  Cu  Cu31  1  0.18430900  0.55948600  0.50000000  1
  Cu  Cu32  1  0.94051400  0.31569100  0.00000000  1
  Cu  Cu33  1  0.05948600  0.68430900  0.00000000  1
  Cu  Cu34  1  0.44051400  0.18430900  0.50000000  1
  Cu  Cu35  1  0.55948600  0.81569100  0.50000000  1
  C  C36  1  0.59176500  0.27983500  0.00000000  1
  C  C37  1  0.40823500  0.72016500  0.00000000  1
  C  C38  1  0.90823500  0.77983500  0.50000000  1
  C  C39  1  0.09176500  0.22016500  0.50000000  1
  C  C40  1  0.27983500  0.40823500  0.00000000  1
  C  C41  1  0.72016500  0.59176500  0.00000000  1
  C  C42  1  0.77983500  0.09176500  0.50000000  1
  C  C43  1  0.22016500  0.90823500  0.50000000  1
  C  C44  1  0.63107700  0.07243900  0.11258700  1
  C  C45  1  0.36892300  0.92756100  0.11258700  1
  C  C46  1  0.86892300  0.57243900  0.61258700  1
  C  C47  1  0.13107700  0.42756100  0.61258700  1
  C  C48  1  0.07243900  0.36892300  0.11258700  1
  C  C49  1  0.92756100  0.63107700  0.11258700  1
  C  C50  1  0.57243900  0.13107700  0.61258700  1
  C  C51  1  0.42756100  0.86892300  0.61258700  1
  C  C52  1  0.36892300  0.92756100  0.88741300  1
  C  C53  1  0.63107700  0.07243900  0.88741300  1
  C  C54  1  0.13107700  0.42756100  0.38741300  1
  C  C55  1  0.86892300  0.57243900  0.38741300  1
  C  C56  1  0.92756100  0.63107700  0.88741300  1
  C  C57  1  0.07243900  0.36892300  0.88741300  1
  C  C58  1  0.42756100  0.86892300  0.38741300  1
  C  C59  1  0.57243900  0.13107700  0.38741300  1
  C  C60  1  0.70261600  0.56396800  0.18573300  1
  C  C61  1  0.29738400  0.43603200  0.18573300  1
  C  C62  1  0.79738400  0.06396800  0.68573300  1
  C  C63  1  0.20261600  0.93603200  0.68573300  1
  C  C64  1  0.56396800  0.29738400  0.18573300  1
  C  C65  1  0.43603200  0.70261600  0.18573300  1
  C  C66  1  0.06396800  0.20261600  0.68573300  1
  C  C67  1  0.93603200  0.79738400  0.68573300  1
  C  C68  1  0.29738400  0.43603200  0.81426700  1
  C  C69  1  0.70261600  0.56396800  0.81426700  1
  C  C70  1  0.20261600  0.93603200  0.31426700  1
  C  C71  1  0.79738400  0.06396800  0.31426700  1
  C  C72  1  0.43603200  0.70261600  0.81426700  1
  C  C73  1  0.56396800  0.29738400  0.81426700  1
  C  C74  1  0.93603200  0.79738400  0.31426700  1
  C  C75  1  0.06396800  0.20261600  0.31426700  1
  C  C76  1  0.72416200  0.80370000  0.11043800  1
  C  C77  1  0.27583800  0.19630000  0.11043800  1
  C  C78  1  0.77583800  0.30370000  0.61043800  1
  C  C79  1  0.22416200  0.69630000  0.61043800  1
  C  C80  1  0.80370000  0.27583800  0.11043800  1
  C  C81  1  0.19630000  0.72416200  0.11043800  1
  C  C82  1  0.30370000  0.22416200  0.61043800  1
  C  C83  1  0.69630000  0.77583800  0.61043800  1
  C  C84  1  0.27583800  0.19630000  0.88956200  1
  C  C85  1  0.72416200  0.80370000  0.88956200  1
  C  C86  1  0.22416200  0.69630000  0.38956200  1
  C  C87  1  0.77583800  0.30370000  0.38956200  1
  C  C88  1  0.19630000  0.72416200  0.88956200  1
  C  C89  1  0.80370000  0.27583800  0.88956200  1
  C  C90  1  0.69630000  0.77583800  0.38956200  1
  C  C91  1  0.30370000  0.22416200  0.38956200  1
