# generated using pymatgen
data_CuNiC8
_symmetry_space_group_name_H-M   'P 1'
_cell_length_a   5.92319351
_cell_length_b   5.92319351
_cell_length_c   8.59899169
_cell_angle_alpha   90.00000000
_cell_angle_beta   90.00000000
_cell_angle_gamma   90.00000000
_symmetry_Int_Tables_number   1
_chemical_formula_structural   CuNiC8
_chemical_formula_sum   'Cu2 Ni2 C16'
_cell_volume   301.68892790
_cell_formula_units_Z   2
loop_
 _symmetry_equiv_pos_site_id
 _symmetry_equiv_pos_as_xyz
  1  'x, y, z'
loop_
 _atom_site_type_symbol
 _atom_site_label
 _atom_site_symmetry_multiplicity
 _atom_site_fract_x
 _atom_site_fract_y
 _atom_site_fract_z
 _atom_site_occupancy
  C  C0  1  0.50000000  0.00000000  0.25000000  1
  C  C1  1  -0.00000000  0.50000000  0.75000000  1
  Ni  Ni2  1  -0.00000000  0.50000000  0.25000000  1
  Ni  Ni3  1  0.50000000  0.00000000  0.75000000  1
  Cu  Cu4  1  -0.00000000  0.00000000  0.50000000  1
  Cu  Cu5  1  0.50000000  0.50000000  0.00000000  1
  C  C6  1  -0.00000000  0.00000000  -0.00000000  1
  C  C7  1  0.50000000  0.50000000  0.50000000  1
  C  C8  1  -0.00000000  0.00000000  0.24503988  1
  C  C9  1  0.50000000  0.50000000  0.25496012  1
  C  C10  1  -0.00000000  0.00000000  0.75496012  1
  C  C11  1  0.50000000  0.50000000  0.74503988  1
  C  C12  1  0.31936198  0.16485242  0.98949952  1
  C  C13  1  0.68063802  0.83514758  0.98949952  1
  C  C14  1  0.83514758  0.31936198  0.01050048  1
  C  C15  1  0.16485242  0.68063802  0.01050048  1
  C  C16  1  0.81936198  0.33514758  0.48949952  1
  C  C17  1  0.18063802  0.66485242  0.48949952  1
  C  C18  1  0.33514758  0.18063802  0.51050048  1
  C  C19  1  0.66485242  0.81936198  0.51050048  1
