# generated using pymatgen
data_CuNi2C7
_symmetry_space_group_name_H-M   'P 1'
_cell_length_a   10.27361345
_cell_length_b   10.27361345
_cell_length_c   10.27361381
_cell_angle_alpha   33.76325633
_cell_angle_beta   33.76325633
_cell_angle_gamma   33.76325801
_symmetry_Int_Tables_number   1
_chemical_formula_structural   CuNi2C7
_chemical_formula_sum   'Cu2 Ni4 C14'
_cell_volume   298.42743386
_cell_formula_units_Z   2
loop_
 _symmetry_equiv_pos_site_id
 _symmetry_equiv_pos_as_xyz
  1  'x, y, z'
loop_
 _atom_site_type_symbol
 _atom_site_label
 _atom_site_symmetry_multiplicity
 _atom_site_fract_x
 _atom_site_fract_y
 _atom_site_fract_z
 _atom_site_occupancy
  Ni  Ni0  1  0.71712400  0.71712400  0.71712400  1
  Ni  Ni1  1  0.28287600  0.28287600  0.28287600  1
  Ni  Ni2  1  0.87243800  0.87243800  0.87243800  1
  Ni  Ni3  1  0.12756200  0.12756200  0.12756200  1
  Cu  Cu4  1  0.40405800  0.40405800  0.40405800  1
  Cu  Cu5  1  0.59594200  0.59594200  0.59594200  1
  C  C6  1  0.50000000  0.50000000  0.50000000  1
  C  C7  1  0.00000000  0.00000000  0.00000000  1
  C  C8  1  0.19317400  0.72753500  0.19317400  1
  C  C9  1  0.80682600  0.27246500  0.80682600  1
  C  C10  1  0.19317400  0.19317400  0.72753500  1
  C  C11  1  0.72753500  0.19317400  0.19317400  1
  C  C12  1  0.80682600  0.80682600  0.27246500  1
  C  C13  1  0.27246500  0.80682600  0.80682600  1
  C  C14  1  0.16486600  0.60673500  0.60673500  1
  C  C15  1  0.60673500  0.60673500  0.16486600  1
  C  C16  1  0.60673500  0.16486600  0.60673500  1
  C  C17  1  0.39326500  0.83513400  0.39326500  1
  C  C18  1  0.83513400  0.39326500  0.39326500  1
  C  C19  1  0.39326500  0.39326500  0.83513400  1
