# generated using pymatgen
data_Cu6NiC7
_symmetry_space_group_name_H-M   'P 1'
_cell_length_a   5.43995600
_cell_length_b   7.79627600
_cell_length_c   14.39777404
_cell_angle_alpha   57.70546763
_cell_angle_beta   90.00000000
_cell_angle_gamma   90.00000000
_symmetry_Int_Tables_number   1
_chemical_formula_structural   Cu6NiC7
_chemical_formula_sum   'Cu24 Ni4 C28'
_cell_volume   516.17314088
_cell_formula_units_Z   4
loop_
 _symmetry_equiv_pos_site_id
 _symmetry_equiv_pos_as_xyz
  1  'x, y, z'
loop_
 _atom_site_type_symbol
 _atom_site_label
 _atom_site_symmetry_multiplicity
 _atom_site_fract_x
 _atom_site_fract_y
 _atom_site_fract_z
 _atom_site_occupancy
  C  C0  1  0.91103900  0.40171600  0.85080900  1
  C  C1  1  0.58896100  0.40171600  0.35080900  1
  C  C2  1  0.08896100  0.59828400  0.14919100  1
  C  C3  1  0.41103900  0.59828400  0.64919100  1
  C  C4  1  0.82902200  0.67856500  0.90876200  1
  C  C5  1  0.67097800  0.67856500  0.40876200  1
  C  C6  1  0.17097800  0.32143500  0.09123800  1
  C  C7  1  0.32902200  0.32143500  0.59123800  1
  C  C8  1  0.06371300  0.74543100  0.83662100  1
  C  C9  1  0.43628700  0.74543100  0.33662100  1
  C  C10  1  0.93628700  0.25456900  0.16337900  1
  C  C11  1  0.56371300  0.25456900  0.66337900  1
  C  C12  1  0.84665300  0.99771800  0.91426300  1
  C  C13  1  0.65334700  0.99771800  0.41426300  1
  C  C14  1  0.15334700  0.00228200  0.08573700  1
  C  C15  1  0.34665300  0.00228200  0.58573700  1
  C  C16  1  0.88810000  0.13367500  0.78492200  1
  C  C17  1  0.61190000  0.13367500  0.28492200  1
  C  C18  1  0.11190000  0.86632500  0.21507800  1
  C  C19  1  0.38810000  0.86632500  0.71507800  1
  C  C20  1  0.69850500  0.98530600  0.18206700  1
  C  C21  1  0.80149500  0.98530600  0.68206700  1
  C  C22  1  0.30149500  0.01469400  0.81793300  1
  C  C23  1  0.19850500  0.01469400  0.31793300  1
  C  C24  1  0.61444200  0.19937900  0.08264700  1
  C  C25  1  0.88555800  0.19937900  0.58264700  1
  C  C26  1  0.38555800  0.80062100  0.91735300  1
  C  C27  1  0.11444200  0.80062100  0.41735300  1
  Ni  Ni28  1  0.86205200  0.65442400  0.58941800  1
  Ni  Ni29  1  0.63794800  0.65442400  0.08941800  1
  Ni  Ni30  1  0.13794800  0.34557600  0.41058200  1
  Ni  Ni31  1  0.36205200  0.34557600  0.91058200  1
  Cu  Cu32  1  0.90431200  0.67499000  0.84706000  1
  Cu  Cu33  1  0.59568800  0.67499000  0.34706000  1
  Cu  Cu34  1  0.09568800  0.32501000  0.15294000  1
  Cu  Cu35  1  0.40431200  0.32501000  0.65294000  1
  Cu  Cu36  1  0.90699800  0.13134700  0.85386000  1
  Cu  Cu37  1  0.59300200  0.13134700  0.35386000  1
  Cu  Cu38  1  0.09300200  0.86865300  0.14614000  1
  Cu  Cu39  1  0.40699800  0.86865300  0.64614000  1
  Cu  Cu40  1  0.58874000  0.32050300  0.94041700  1
  Cu  Cu41  1  0.91126000  0.32050300  0.44041700  1
  Cu  Cu42  1  0.41126000  0.67949700  0.05958300  1
  Cu  Cu43  1  0.08874000  0.67949700  0.55958300  1
  Cu  Cu44  1  0.79384100  0.55003100  0.69220100  1
  Cu  Cu45  1  0.70615900  0.55003100  0.19220100  1
  Cu  Cu46  1  0.20615900  0.44996900  0.30779900  1
  Cu  Cu47  1  0.29384100  0.44996900  0.80779900  1
  Cu  Cu48  1  0.18362700  0.26966000  0.98208100  1
  Cu  Cu49  1  0.31637300  0.26966000  0.48208100  1
  Cu  Cu50  1  0.81637300  0.73034000  0.01791900  1
  Cu  Cu51  1  0.68362700  0.73034000  0.51791900  1
  Cu  Cu52  1  0.65731000  0.12312600  0.16260700  1
  Cu  Cu53  1  0.84269000  0.12312600  0.66260700  1
  Cu  Cu54  1  0.34269000  0.87687400  0.83739300  1
  Cu  Cu55  1  0.15731000  0.87687400  0.33739300  1
