# generated using pymatgen
data_Cu10NiC9
_symmetry_space_group_name_H-M   'P 1'
_cell_length_a   8.47115400
_cell_length_b   9.70586400
_cell_length_c   12.90317400
_cell_angle_alpha   90.00000000
_cell_angle_beta   90.00000000
_cell_angle_gamma   90.00000000
_symmetry_Int_Tables_number   1
_chemical_formula_structural   Cu10NiC9
_chemical_formula_sum   'Cu40 Ni4 C36'
_cell_volume   1060.89727141
_cell_formula_units_Z   4
loop_
 _symmetry_equiv_pos_site_id
 _symmetry_equiv_pos_as_xyz
  1  'x, y, z'
loop_
 _atom_site_type_symbol
 _atom_site_label
 _atom_site_symmetry_multiplicity
 _atom_site_fract_x
 _atom_site_fract_y
 _atom_site_fract_z
 _atom_site_occupancy
  C  C0  1  0.00000000  0.50000000  0.50000000  1
  C  C1  1  0.50000000  0.00000000  0.00000000  1
  C  C2  1  0.00000000  0.00000000  0.50000000  1
  C  C3  1  0.50000000  0.50000000  0.00000000  1
  C  C4  1  0.73325400  0.75000000  0.20487000  1
  C  C5  1  0.76674600  0.75000000  0.70487000  1
  C  C6  1  0.26674600  0.25000000  0.79513000  1
  C  C7  1  0.23325400  0.25000000  0.29513000  1
  C  C8  1  0.50000000  0.50000000  0.50000000  1
  C  C9  1  0.00000000  0.00000000  0.00000000  1
  C  C10  1  0.50000000  0.00000000  0.50000000  1
  C  C11  1  0.00000000  0.50000000  0.00000000  1
  C  C12  1  0.61124900  0.25000000  0.32864200  1
  C  C13  1  0.88875100  0.25000000  0.82864200  1
  C  C14  1  0.38875100  0.75000000  0.67135800  1
  C  C15  1  0.11124900  0.75000000  0.17135800  1
  C  C16  1  0.53733100  0.48707100  0.26590800  1
  C  C17  1  0.96266900  0.01292900  0.76590800  1
  C  C18  1  0.46266900  0.98707100  0.73409200  1
  C  C19  1  0.03733100  0.51292900  0.23409200  1
  C  C20  1  0.46266900  0.51292900  0.73409200  1
  C  C21  1  0.03733100  0.98707100  0.23409200  1
  C  C22  1  0.53733100  0.01292900  0.26590800  1
  C  C23  1  0.96266900  0.48707100  0.76590800  1
  C  C24  1  0.78455300  0.38508000  0.19038400  1
  C  C25  1  0.71544700  0.11492000  0.69038400  1
  C  C26  1  0.21544700  0.88508000  0.80961600  1
  C  C27  1  0.28455300  0.61492000  0.30961600  1
  C  C28  1  0.21544700  0.61492000  0.80961600  1
  C  C29  1  0.28455300  0.88508000  0.30961600  1
  C  C30  1  0.78455300  0.11492000  0.19038400  1
  C  C31  1  0.71544700  0.38508000  0.69038400  1
  C  C32  1  0.69872300  0.25000000  0.52357700  1
  C  C33  1  0.80127700  0.25000000  0.02357700  1
  C  C34  1  0.30127700  0.75000000  0.47642300  1
  C  C35  1  0.19872300  0.75000000  0.97642300  1
  Ni  Ni36  1  0.73744500  0.75000000  0.44681200  1
  Ni  Ni37  1  0.76255500  0.75000000  0.94681200  1
  Ni  Ni38  1  0.26255500  0.25000000  0.55318800  1
  Ni  Ni39  1  0.23744500  0.25000000  0.05318800  1
  Cu  Cu40  1  0.67348100  0.49824900  0.20816000  1
  Cu  Cu41  1  0.82651900  0.00175100  0.70816000  1
  Cu  Cu42  1  0.32651900  0.99824900  0.79184000  1
  Cu  Cu43  1  0.17348100  0.50175100  0.29184000  1
  Cu  Cu44  1  0.32651900  0.50175100  0.79184000  1
  Cu  Cu45  1  0.17348100  0.99824900  0.29184000  1
  Cu  Cu46  1  0.67348100  0.00175100  0.20816000  1
  Cu  Cu47  1  0.82651900  0.49824900  0.70816000  1
  Cu  Cu48  1  0.00703100  0.62722500  0.17312500  1
  Cu  Cu49  1  0.49296900  0.87277500  0.67312500  1
  Cu  Cu50  1  0.99296900  0.12722500  0.82687500  1
  Cu  Cu51  1  0.50703100  0.37277500  0.32687500  1
  Cu  Cu52  1  0.99296900  0.37277500  0.82687500  1
  Cu  Cu53  1  0.50703100  0.12722500  0.32687500  1
  Cu  Cu54  1  0.00703100  0.87277500  0.17312500  1
  Cu  Cu55  1  0.49296900  0.62722500  0.67312500  1
  Cu  Cu56  1  0.71118000  0.25000000  0.22972100  1
  Cu  Cu57  1  0.78882000  0.25000000  0.72972100  1
  Cu  Cu58  1  0.28882000  0.75000000  0.77027900  1
  Cu  Cu59  1  0.21118000  0.75000000  0.27027900  1
  Cu  Cu60  1  0.71380500  0.25000000  0.41804200  1
  Cu  Cu61  1  0.78619500  0.25000000  0.91804200  1
  Cu  Cu62  1  0.28619500  0.75000000  0.58195800  1
  Cu  Cu63  1  0.21380500  0.75000000  0.08195800  1
  Cu  Cu64  1  0.80214500  0.37330800  0.07645700  1
  Cu  Cu65  1  0.69785500  0.12669200  0.57645700  1
  Cu  Cu66  1  0.19785500  0.87330800  0.92354300  1
  Cu  Cu67  1  0.30214500  0.62669200  0.42354300  1
  Cu  Cu68  1  0.19785500  0.62669200  0.92354300  1
  Cu  Cu69  1  0.30214500  0.87330800  0.42354300  1
  Cu  Cu70  1  0.80214500  0.12669200  0.07645700  1
  Cu  Cu71  1  0.69785500  0.37330800  0.57645700  1
  Cu  Cu72  1  0.43468400  0.59479300  0.25799700  1
  Cu  Cu73  1  0.06531600  0.90520700  0.75799700  1
  Cu  Cu74  1  0.56531600  0.09479300  0.74200300  1
  Cu  Cu75  1  0.93468400  0.40520700  0.24200300  1
  Cu  Cu76  1  0.56531600  0.40520700  0.74200300  1
  Cu  Cu77  1  0.93468400  0.09479300  0.24200300  1
  Cu  Cu78  1  0.43468400  0.90520700  0.25799700  1
  Cu  Cu79  1  0.06531600  0.59479300  0.75799700  1
