# generated using pymatgen
data_Cu12Ni3C4
_symmetry_space_group_name_H-M   'P 1'
_cell_length_a   11.13564800
_cell_length_b   9.97020700
_cell_length_c   17.23747391
_cell_angle_alpha   69.40245807
_cell_angle_beta   90.00000000
_cell_angle_gamma   90.00000000
_symmetry_Int_Tables_number   1
_chemical_formula_structural   Cu12Ni3C4
_chemical_formula_sum   'Cu48 Ni12 C16'
_cell_volume   1791.44618273
_cell_formula_units_Z   4
loop_
 _symmetry_equiv_pos_site_id
 _symmetry_equiv_pos_as_xyz
  1  'x, y, z'
loop_
 _atom_site_type_symbol
 _atom_site_label
 _atom_site_symmetry_multiplicity
 _atom_site_fract_x
 _atom_site_fract_y
 _atom_site_fract_z
 _atom_site_occupancy
  C  C0  1  0.73810200  0.96969400  0.20920800  1
  C  C1  1  0.23810200  0.03030600  0.29079200  1
  C  C2  1  0.26189800  0.03030600  0.79079200  1
  C  C3  1  0.76189800  0.96969400  0.70920800  1
  C  C4  1  0.12769000  0.60737500  0.36538500  1
  C  C5  1  0.62769000  0.39262500  0.13461500  1
  C  C6  1  0.87231000  0.39262500  0.63461500  1
  C  C7  1  0.37231000  0.60737500  0.86538500  1
  C  C8  1  0.85028600  0.18568400  0.44059900  1
  C  C9  1  0.35028600  0.81431600  0.05940100  1
  C  C10  1  0.14971400  0.81431600  0.55940100  1
  C  C11  1  0.64971400  0.18568400  0.94059900  1
  C  C12  1  0.51886200  0.51701600  0.37440800  1
  C  C13  1  0.01886200  0.48298400  0.12559200  1
  C  C14  1  0.48113800  0.48298400  0.62559200  1
  C  C15  1  0.98113800  0.51701600  0.87440800  1
  Ni  Ni16  1  0.78635800  0.52534600  0.26676500  1
  Ni  Ni17  1  0.28635800  0.47465400  0.23323500  1
  Ni  Ni18  1  0.21364200  0.47465400  0.73323500  1
  Ni  Ni19  1  0.71364200  0.52534600  0.76676500  1
  Ni  Ni20  1  0.61971000  0.24409100  0.55917400  1
  Ni  Ni21  1  0.11971000  0.75590900  0.94082600  1
  Ni  Ni22  1  0.38029000  0.75590900  0.44082600  1
  Ni  Ni23  1  0.88029000  0.24409100  0.05917400  1
  Ni  Ni24  1  0.95166900  0.90023400  0.38092300  1
  Ni  Ni25  1  0.45166900  0.09976600  0.11907700  1
  Ni  Ni26  1  0.04833100  0.09976600  0.61907700  1
  Ni  Ni27  1  0.54833100  0.90023400  0.88092300  1
  Cu  Cu28  1  0.95840200  0.43545100  0.31338300  1
  Cu  Cu29  1  0.45840200  0.56454900  0.18661700  1
  Cu  Cu30  1  0.04159800  0.56454900  0.68661700  1
  Cu  Cu31  1  0.54159800  0.43545100  0.81338300  1
  Cu  Cu32  1  0.44494200  0.31694100  0.52604900  1
  Cu  Cu33  1  0.94494200  0.68305900  0.97395100  1
  Cu  Cu34  1  0.55505800  0.68305900  0.47395100  1
  Cu  Cu35  1  0.05505800  0.31694100  0.02604900  1
  Cu  Cu36  1  0.77508700  0.97886300  0.37100700  1
  Cu  Cu37  1  0.27508700  0.02113700  0.12899300  1
  Cu  Cu38  1  0.22491300  0.02113700  0.62899300  1
  Cu  Cu39  1  0.72491300  0.97886300  0.87100700  1
  Cu  Cu40  1  0.02080900  0.30523000  0.52663900  1
  Cu  Cu41  1  0.52080900  0.69477000  0.97336100  1
  Cu  Cu42  1  0.97919100  0.69477000  0.47336100  1
  Cu  Cu43  1  0.47919100  0.30523000  0.02663900  1
  Cu  Cu44  1  0.02768200  0.88310300  0.27011100  1
  Cu  Cu45  1  0.52768200  0.11689700  0.22988900  1
  Cu  Cu46  1  0.97231800  0.11689700  0.72988900  1
  Cu  Cu47  1  0.47231800  0.88310300  0.77011100  1
  Cu  Cu48  1  0.06520500  0.05408500  0.40711300  1
  Cu  Cu49  1  0.56520500  0.94591500  0.09288700  1
  Cu  Cu50  1  0.93479500  0.94591500  0.59288700  1
  Cu  Cu51  1  0.43479500  0.05408500  0.90711300  1
  Cu  Cu52  1  0.65867700  0.04386600  0.55124300  1
  Cu  Cu53  1  0.15867700  0.95613400  0.94875700  1
  Cu  Cu54  1  0.34132300  0.95613400  0.44875700  1
  Cu  Cu55  1  0.84132300  0.04386600  0.05124300  1
  Cu  Cu56  1  0.74111500  0.40451900  0.48610700  1
  Cu  Cu57  1  0.24111500  0.59548100  0.01389300  1
  Cu  Cu58  1  0.25888500  0.59548100  0.51389300  1
  Cu  Cu59  1  0.75888500  0.40451900  0.98610700  1
  Cu  Cu60  1  0.66692300  0.34351600  0.31305400  1
  Cu  Cu61  1  0.16692300  0.65648400  0.18694600  1
  Cu  Cu62  1  0.33307700  0.65648400  0.68694600  1
  Cu  Cu63  1  0.83307700  0.34351600  0.81305400  1
  Cu  Cu64  1  0.28989400  0.39605500  0.36406800  1
  Cu  Cu65  1  0.78989400  0.60394500  0.13593200  1
  Cu  Cu66  1  0.71010600  0.60394500  0.63593200  1
  Cu  Cu67  1  0.21010600  0.39605500  0.86406800  1
  Cu  Cu68  1  0.34806100  0.76537600  0.31629000  1
  Cu  Cu69  1  0.84806100  0.23462400  0.18371000  1
  Cu  Cu70  1  0.65193900  0.23462400  0.68371000  1
  Cu  Cu71  1  0.15193900  0.76537600  0.81629000  1
  Cu  Cu72  1  0.72215900  0.68839300  0.30833600  1
  Cu  Cu73  1  0.22215900  0.31160700  0.19166400  1
  Cu  Cu74  1  0.27784100  0.31160700  0.69166400  1
  Cu  Cu75  1  0.77784100  0.68839300  0.80833600  1
