# generated using pymatgen
data_Cu2(NiC2)3
_symmetry_space_group_name_H-M   'P 1'
_cell_length_a   3.78018144
_cell_length_b   3.78018144
_cell_length_c   18.35039900
_cell_angle_alpha   90.00000000
_cell_angle_beta   90.00000000
_cell_angle_gamma   119.99999026
_symmetry_Int_Tables_number   1
_chemical_formula_structural   Cu2(NiC2)3
_chemical_formula_sum   'Cu2 Ni3 C6'
_cell_volume   227.09181311
_cell_formula_units_Z   1
loop_
 _symmetry_equiv_pos_site_id
 _symmetry_equiv_pos_as_xyz
  1  'x, y, z'
loop_
 _atom_site_type_symbol
 _atom_site_label
 _atom_site_symmetry_multiplicity
 _atom_site_fract_x
 _atom_site_fract_y
 _atom_site_fract_z
 _atom_site_occupancy
  Ni  Ni0  1  0.33333300  0.66666700  0.77579200  1
  Ni  Ni1  1  0.00000000  0.00000000  0.37749200  1
  Ni  Ni2  1  0.33333300  0.66666700  0.20308900  1
  Cu  Cu3  1  0.00000000  0.00000000  0.95157000  1
  Cu  Cu4  1  0.66666700  0.33333300  0.57893100  1
  C  C5  1  0.33333300  0.66666700  0.99799900  1
  C  C6  1  0.00000000  0.00000000  0.82471300  1
  C  C7  1  0.33333300  0.66666700  0.65277800  1
  C  C8  1  0.00000000  0.00000000  0.51326500  1
  C  C9  1  0.33333300  0.66666700  0.33833100  1
  C  C10  1  0.00000000  0.00000000  0.16164300  1
