# generated using pymatgen
data_Cu(Ni3C)2
_symmetry_space_group_name_H-M   'P 1'
_cell_length_a   4.04028600
_cell_length_b   4.07595700
_cell_length_c   11.15909946
_cell_angle_alpha   90.00000000
_cell_angle_beta   100.42981874
_cell_angle_gamma   90.00000000
_symmetry_Int_Tables_number   1
_chemical_formula_structural   Cu(Ni3C)2
_chemical_formula_sum   'Cu1 Ni6 C2'
_cell_volume   180.73207313
_cell_formula_units_Z   1
loop_
 _symmetry_equiv_pos_site_id
 _symmetry_equiv_pos_as_xyz
  1  'x, y, z'
loop_
 _atom_site_type_symbol
 _atom_site_label
 _atom_site_symmetry_multiplicity
 _atom_site_fract_x
 _atom_site_fract_y
 _atom_site_fract_z
 _atom_site_occupancy
  C  C0  1  0.77761400  0.50000000  0.55522700  1
  C  C1  1  0.11812400  0.50000000  0.23624800  1
  Ni  Ni2  1  0.49305300  0.50000000  0.98610500  1
  Ni  Ni3  1  0.37907100  0.50000000  0.75814100  1
  Ni  Ni4  1  0.99185000  0.00000000  0.98369900  1
  Ni  Ni5  1  0.87763700  0.00000000  0.75527500  1
  Ni  Ni6  1  0.66948800  0.00000000  0.33897600  1
  Ni  Ni7  1  0.24111600  0.00000000  0.48223200  1
  Cu  Cu8  1  0.55904800  0.00000000  0.11809500  1
