# generated using pymatgen
data_CuNiC4
_symmetry_space_group_name_H-M   'P 1'
_cell_length_a   6.69374767
_cell_length_b   6.69374767
_cell_length_c   10.07571100
_cell_angle_alpha   90.00000000
_cell_angle_beta   90.00000000
_cell_angle_gamma   146.28043564
_symmetry_Int_Tables_number   1
_chemical_formula_structural   CuNiC4
_chemical_formula_sum   'Cu2 Ni2 C8'
_cell_volume   250.61547333
_cell_formula_units_Z   2
loop_
 _symmetry_equiv_pos_site_id
 _symmetry_equiv_pos_as_xyz
  1  'x, y, z'
loop_
 _atom_site_type_symbol
 _atom_site_label
 _atom_site_symmetry_multiplicity
 _atom_site_fract_x
 _atom_site_fract_y
 _atom_site_fract_z
 _atom_site_occupancy
  Ni  Ni0  1  0.75105600  0.24894400  0.25000000  1
  Ni  Ni1  1  0.24894400  0.75105600  0.75000000  1
  Cu  Cu2  1  0.00000000  0.00000000  0.50000000  1
  Cu  Cu3  1  0.00000000  0.00000000  0.00000000  1
  C  C4  1  0.52584000  0.47416000  0.75000000  1
  C  C5  1  0.47416000  0.52584000  0.25000000  1
  C  C6  1  0.07964200  0.92035800  0.25000000  1
  C  C7  1  0.92035800  0.07964200  0.75000000  1
  C  C8  1  0.63782300  0.36217700  0.56831700  1
  C  C9  1  0.63782300  0.36217700  0.93168300  1
  C  C10  1  0.36217700  0.63782300  0.06831700  1
  C  C11  1  0.36217700  0.63782300  0.43168300  1
