# generated using pymatgen
data_Cu11(NiC)3
_symmetry_space_group_name_H-M   'P 1'
_cell_length_a   8.04013400
_cell_length_b   7.29117100
_cell_length_c   10.52938300
_cell_angle_alpha   90.00000000
_cell_angle_beta   90.00000000
_cell_angle_gamma   90.00000000
_symmetry_Int_Tables_number   1
_chemical_formula_structural   Cu11(NiC)3
_chemical_formula_sum   'Cu22 Ni6 C6'
_cell_volume   617.25340448
_cell_formula_units_Z   2
loop_
 _symmetry_equiv_pos_site_id
 _symmetry_equiv_pos_as_xyz
  1  'x, y, z'
loop_
 _atom_site_type_symbol
 _atom_site_label
 _atom_site_symmetry_multiplicity
 _atom_site_fract_x
 _atom_site_fract_y
 _atom_site_fract_z
 _atom_site_occupancy
  C  C0  1  0.25000000  0.73461800  0.93333400  1
  C  C1  1  0.25000000  0.73461800  0.56666600  1
  C  C2  1  0.75000000  0.26538200  0.06666600  1
  C  C3  1  0.75000000  0.26538200  0.43333400  1
  C  C4  1  0.25000000  0.81590500  0.25000000  1
  C  C5  1  0.75000000  0.18409500  0.75000000  1
  Ni  Ni6  1  0.25000000  0.24419300  0.25000000  1
  Ni  Ni7  1  0.75000000  0.75580700  0.75000000  1
  Ni  Ni8  1  0.25000000  0.46313900  0.80454100  1
  Ni  Ni9  1  0.25000000  0.46313900  0.69545900  1
  Ni  Ni10  1  0.75000000  0.53686100  0.19545900  1
  Ni  Ni11  1  0.75000000  0.53686100  0.30454100  1
  Cu  Cu12  1  0.25000000  0.85919900  0.75000000  1
  Cu  Cu13  1  0.75000000  0.14080100  0.25000000  1
  Cu  Cu14  1  0.98987700  0.24812400  0.43382400  1
  Cu  Cu15  1  0.51012300  0.24812400  0.43382400  1
  Cu  Cu16  1  0.98987700  0.24812400  0.06617600  1
  Cu  Cu17  1  0.51012300  0.24812400  0.06617600  1
  Cu  Cu18  1  0.01012300  0.75187600  0.56617600  1
  Cu  Cu19  1  0.48987700  0.75187600  0.56617600  1
  Cu  Cu20  1  0.01012300  0.75187600  0.93382400  1
  Cu  Cu21  1  0.48987700  0.75187600  0.93382400  1
  Cu  Cu22  1  0.25000000  0.94468100  0.42891300  1
  Cu  Cu23  1  0.25000000  0.94468100  0.07108700  1
  Cu  Cu24  1  0.75000000  0.05531900  0.57108700  1
  Cu  Cu25  1  0.75000000  0.05531900  0.92891300  1
  Cu  Cu26  1  0.25000000  0.60276100  0.38481000  1
  Cu  Cu27  1  0.25000000  0.60276100  0.11519000  1
  Cu  Cu28  1  0.75000000  0.39723900  0.61519000  1
  Cu  Cu29  1  0.75000000  0.39723900  0.88481000  1
  Cu  Cu30  1  0.01193700  0.82738100  0.25000000  1
  Cu  Cu31  1  0.48806300  0.82738100  0.25000000  1
  Cu  Cu32  1  0.98806300  0.17261900  0.75000000  1
  Cu  Cu33  1  0.51193700  0.17261900  0.75000000  1
