# generated using pymatgen
data_Cu6NiC2
_symmetry_space_group_name_H-M   'P 1'
_cell_length_a   7.09907980
_cell_length_b   7.09907980
_cell_length_c   7.09907980
_cell_angle_alpha   121.54724862
_cell_angle_beta   119.00281642
_cell_angle_gamma   89.53852770
_symmetry_Int_Tables_number   1
_chemical_formula_structural   Cu6NiC2
_chemical_formula_sum   'Cu12 Ni2 C4'
_cell_volume   251.76553779
_cell_formula_units_Z   2
loop_
 _symmetry_equiv_pos_site_id
 _symmetry_equiv_pos_as_xyz
  1  'x, y, z'
loop_
 _atom_site_type_symbol
 _atom_site_label
 _atom_site_symmetry_multiplicity
 _atom_site_fract_x
 _atom_site_fract_y
 _atom_site_fract_z
 _atom_site_occupancy
  C  C0  1  0.00000000  0.00000000  0.00000000  1
  C  C1  1  0.50000000  0.00000000  0.50000000  1
  C  C2  1  0.00000000  0.00000000  0.50000000  1
  C  C3  1  0.00000000  0.50000000  0.00000000  1
  Ni  Ni4  1  0.12338100  0.87338100  0.25000000  1
  Ni  Ni5  1  0.87661900  0.12661900  0.75000000  1
  Cu  Cu6  1  0.33877300  0.08877300  0.25000000  1
  Cu  Cu7  1  0.90315700  0.65315700  0.25000000  1
  Cu  Cu8  1  0.34888100  0.65858800  0.25725200  1
  Cu  Cu9  1  0.90133700  0.09162900  0.24274800  1
  Cu  Cu10  1  0.34888100  0.09162900  0.69029200  1
  Cu  Cu11  1  0.90133700  0.65858800  0.80970800  1
  Cu  Cu12  1  0.66122700  0.91122700  0.75000000  1
  Cu  Cu13  1  0.09684300  0.34684300  0.75000000  1
  Cu  Cu14  1  0.65111900  0.34141200  0.74274800  1
  Cu  Cu15  1  0.09866300  0.90837100  0.75725200  1
  Cu  Cu16  1  0.65111900  0.90837100  0.30970800  1
  Cu  Cu17  1  0.09866300  0.34141200  0.19029200  1
