# generated using pymatgen
data_Cu(NiC9)3
_symmetry_space_group_name_H-M   'P 1'
_cell_length_a   7.25559201
_cell_length_b   7.25559201
_cell_length_c   17.32963000
_cell_angle_alpha   90.00000000
_cell_angle_beta   90.00000000
_cell_angle_gamma   120.00000007
_symmetry_Int_Tables_number   1
_chemical_formula_structural   Cu(NiC9)3
_chemical_formula_sum   'Cu2 Ni6 C54'
_cell_volume   790.07010512
_cell_formula_units_Z   2
loop_
 _symmetry_equiv_pos_site_id
 _symmetry_equiv_pos_as_xyz
  1  'x, y, z'
loop_
 _atom_site_type_symbol
 _atom_site_label
 _atom_site_symmetry_multiplicity
 _atom_site_fract_x
 _atom_site_fract_y
 _atom_site_fract_z
 _atom_site_occupancy
  Ni  Ni0  1  0.66666700  0.33333300  0.86820500  1
  Ni  Ni1  1  0.33333300  0.66666700  0.13179500  1
  Ni  Ni2  1  0.33333300  0.66666700  0.36820500  1
  Ni  Ni3  1  0.66666700  0.33333300  0.63179500  1
  Ni  Ni4  1  0.00000000  0.00000000  0.75000000  1
  Ni  Ni5  1  0.00000000  0.00000000  0.25000000  1
  Cu  Cu6  1  0.00000000  0.00000000  0.00000000  1
  Cu  Cu7  1  0.00000000  0.00000000  0.50000000  1
  C  C8  1  0.55157800  0.83470200  0.91857400  1
  C  C9  1  0.44842200  0.16529800  0.08142600  1
  C  C10  1  0.28312400  0.44842200  0.91857400  1
  C  C11  1  0.44842200  0.16529800  0.41857400  1
  C  C12  1  0.71687600  0.55157800  0.08142600  1
  C  C13  1  0.55157800  0.83470200  0.58142600  1
  C  C14  1  0.16529800  0.71687600  0.91857400  1
  C  C15  1  0.71687600  0.55157800  0.41857400  1
  C  C16  1  0.83470200  0.28312400  0.08142600  1
  C  C17  1  0.28312400  0.44842200  0.58142600  1
  C  C18  1  0.83470200  0.28312400  0.41857400  1
  C  C19  1  0.16529800  0.71687600  0.58142600  1
  C  C20  1  0.50522900  0.62192000  0.75000000  1
  C  C21  1  0.49477100  0.37808000  0.25000000  1
  C  C22  1  0.11669100  0.49477100  0.75000000  1
  C  C23  1  0.88330900  0.50522900  0.25000000  1
  C  C24  1  0.37808000  0.88330900  0.75000000  1
  C  C25  1  0.62192000  0.11669100  0.25000000  1
  C  C26  1  0.54243500  0.83326500  0.75000000  1
  C  C27  1  0.45756500  0.16673500  0.25000000  1
  C  C28  1  0.29083000  0.45756500  0.75000000  1
  C  C29  1  0.70917000  0.54243500  0.25000000  1
  C  C30  1  0.16673500  0.70917000  0.75000000  1
  C  C31  1  0.83326500  0.29083000  0.25000000  1
  C  C32  1  0.91864000  0.33188600  0.75000000  1
  C  C33  1  0.08136000  0.66811400  0.25000000  1
  C  C34  1  0.41324500  0.08136000  0.75000000  1
  C  C35  1  0.58675500  0.91864000  0.25000000  1
  C  C36  1  0.66811400  0.58675500  0.75000000  1
  C  C37  1  0.33188600  0.41324500  0.25000000  1
  C  C38  1  0.75214200  0.99449500  0.92035400  1
  C  C39  1  0.24785800  0.00550500  0.07964600  1
  C  C40  1  0.24235200  0.24785800  0.92035400  1
  C  C41  1  0.24785800  0.00550500  0.42035400  1
  C  C42  1  0.75764800  0.75214200  0.07964600  1
  C  C43  1  0.75214200  0.99449500  0.57964600  1
  C  C44  1  0.00550500  0.75764800  0.92035400  1
  C  C45  1  0.75764800  0.75214200  0.42035400  1
  C  C46  1  0.99449500  0.24235200  0.07964600  1
  C  C47  1  0.24235200  0.24785800  0.57964600  1
  C  C48  1  0.99449500  0.24235200  0.42035400  1
  C  C49  1  0.00550500  0.75764800  0.57964600  1
  C  C50  1  0.49597200  0.61841300  0.91800000  1
  C  C51  1  0.50402800  0.38158700  0.08200000  1
  C  C52  1  0.12244100  0.50402800  0.91800000  1
  C  C53  1  0.50402800  0.38158700  0.41800000  1
  C  C54  1  0.87755900  0.49597200  0.08200000  1
  C  C55  1  0.49597200  0.61841300  0.58200000  1
  C  C56  1  0.38158700  0.87755900  0.91800000  1
  C  C57  1  0.87755900  0.49597200  0.41800000  1
  C  C58  1  0.61841300  0.12244100  0.08200000  1
  C  C59  1  0.12244100  0.50402800  0.58200000  1
  C  C60  1  0.61841300  0.12244100  0.41800000  1
  C  C61  1  0.38158700  0.87755900  0.58200000  1
