# generated using pymatgen
data_CuNiC8
_symmetry_space_group_name_H-M   'P 1'
_cell_length_a   8.10202401
_cell_length_b   8.96551352
_cell_length_c   9.03283463
_cell_angle_alpha   78.30883979
_cell_angle_beta   63.34959303
_cell_angle_gamma   63.14310175
_symmetry_Int_Tables_number   1
_chemical_formula_structural   CuNiC8
_chemical_formula_sum   'Cu4 Ni4 C32'
_cell_volume   523.17322681
_cell_formula_units_Z   4
loop_
 _symmetry_equiv_pos_site_id
 _symmetry_equiv_pos_as_xyz
  1  'x, y, z'
loop_
 _atom_site_type_symbol
 _atom_site_label
 _atom_site_symmetry_multiplicity
 _atom_site_fract_x
 _atom_site_fract_y
 _atom_site_fract_z
 _atom_site_occupancy
  C  C0  1  0.25837800  0.98518300  0.50001500  1
  C  C1  1  0.00853000  0.98291300  0.00000600  1
  C  C2  1  0.75638600  0.98520000  0.49999100  1
  C  C3  1  0.50852800  0.98294000  0.99997800  1
  C  C4  1  0.49362100  0.51478200  0.50000900  1
  C  C5  1  0.24145300  0.51708600  0.00000900  1
  C  C6  1  0.99161900  0.51482400  0.49998500  1
  C  C7  1  0.74148800  0.51705700  0.00000900  1
  Ni  Ni8  1  0.75056500  0.75007900  0.24885500  1
  Ni  Ni9  1  0.49933600  0.75003800  0.75125900  1
  Ni  Ni10  1  0.00009900  0.74995500  0.74986500  1
  Ni  Ni11  1  0.24993400  0.75002000  0.25011200  1
  Cu  Cu12  1  0.24989600  0.25038500  0.74980800  1
  Cu  Cu13  1  0.00012000  0.24959800  0.25018500  1
  Cu  Cu14  1  0.75029900  0.24961000  0.74982500  1
  Cu  Cu15  1  0.49972200  0.25037400  0.25015800  1
  C  C16  1  0.88111600  0.99131200  0.74657300  1
  C  C17  1  0.63064100  0.98993100  0.24891500  1
  C  C18  1  0.37956300  0.98994600  0.75113500  1
  C  C19  1  0.12772200  0.99132800  0.25340400  1
  C  C20  1  0.12230100  0.50865700  0.74658600  1
  C  C21  1  0.87043600  0.51005600  0.24886100  1
  C  C22  1  0.61933900  0.51006800  0.75110000  1
  C  C23  1  0.36890500  0.50867600  0.25340100  1
  C  C24  1  0.37764100  0.24468200  0.49998900  1
  C  C25  1  0.12500500  0.24999700  0.99999200  1
  C  C26  1  0.87235900  0.25533500  0.50000100  1
  C  C27  1  0.62500500  0.24999400  0.99999700  1
  C  C28  1  0.50010700  0.25002800  0.74976700  1
  C  C29  1  0.24991100  0.25000100  0.25019100  1
  C  C30  1  0.00010400  0.25001000  0.74979300  1
  C  C31  1  0.74989900  0.24996900  0.25021900  1
  C  C32  1  0.12501000  0.74999200  0.49999200  1
  C  C33  1  0.87734400  0.75001000  0.99546100  1
  C  C34  1  0.62500200  0.74999000  0.49999700  1
  C  C35  1  0.37264300  0.74999200  0.00453900  1
  C  C36  1  0.25764300  0.75001400  0.74992200  1
  C  C37  1  0.99234400  0.74998200  0.25008400  1
  C  C38  1  0.74242400  0.74999100  0.75000300  1
  C  C39  1  0.50756300  0.74999500  0.25000600  1
