# generated using pymatgen
data_Cu2Ni2C13
_symmetry_space_group_name_H-M   'P 1'
_cell_length_a   10.42987700
_cell_length_b   10.30273400
_cell_length_c   10.77618631
_cell_angle_alpha   87.28128431
_cell_angle_beta   90.00000000
_cell_angle_gamma   90.00000000
_symmetry_Int_Tables_number   1
_chemical_formula_structural   Cu2Ni2C13
_chemical_formula_sum   'Cu8 Ni8 C52'
_cell_volume   1156.66518261
_cell_formula_units_Z   4
loop_
 _symmetry_equiv_pos_site_id
 _symmetry_equiv_pos_as_xyz
  1  'x, y, z'
loop_
 _atom_site_type_symbol
 _atom_site_label
 _atom_site_symmetry_multiplicity
 _atom_site_fract_x
 _atom_site_fract_y
 _atom_site_fract_z
 _atom_site_occupancy
  C  C0  1  0.40762800  0.66522300  0.95366700  1
  C  C1  1  0.90762800  0.33477700  0.04633300  1
  C  C2  1  0.57404900  0.33148800  0.54806400  1
  C  C3  1  0.07404900  0.66851200  0.45193600  1
  Ni  Ni4  1  0.33832200  0.41893100  0.38385900  1
  Ni  Ni5  1  0.83832200  0.58106900  0.61614100  1
  Ni  Ni6  1  0.12528000  0.08691100  0.61031200  1
  Ni  Ni7  1  0.62528000  0.91308900  0.38968800  1
  Ni  Ni8  1  0.14444300  0.41979200  0.88323600  1
  Ni  Ni9  1  0.64444300  0.58020800  0.11676400  1
  Ni  Ni10  1  0.34754400  0.08518600  0.10954600  1
  Ni  Ni11  1  0.84754400  0.91481400  0.89045400  1
  Cu  Cu12  1  0.10551300  0.10365200  0.90574400  1
  Cu  Cu13  1  0.60551300  0.89634800  0.09425600  1
  Cu  Cu14  1  0.87923400  0.60162900  0.91179400  1
  Cu  Cu15  1  0.37923400  0.39837100  0.08820600  1
  Cu  Cu16  1  0.10826700  0.40451600  0.58911600  1
  Cu  Cu17  1  0.60826700  0.59548400  0.41088400  1
  Cu  Cu18  1  0.36566300  0.10233000  0.40599500  1
  Cu  Cu19  1  0.86566300  0.89767000  0.59400500  1
  C  C20  1  0.61066700  0.04978600  0.69807900  1
  C  C21  1  0.11066700  0.95021400  0.30192100  1
  C  C22  1  0.35950100  0.94944200  0.80725800  1
  C  C23  1  0.85950100  0.05055800  0.19274200  1
  C  C24  1  0.18146100  0.82584900  0.04468400  1
  C  C25  1  0.68146100  0.17415100  0.95531600  1
  C  C26  1  0.04734400  0.24110000  0.29141200  1
  C  C27  1  0.54734400  0.75890000  0.70858800  1
  C  C28  1  0.42076500  0.24448500  0.79146200  1
  C  C29  1  0.92076500  0.75551500  0.20853800  1
  C  C30  1  0.62407600  0.45212200  0.81387300  1
  C  C31  1  0.12407600  0.54787800  0.18612700  1
  C  C32  1  0.80225700  0.17215000  0.44771700  1
  C  C33  1  0.30225700  0.82785000  0.55228300  1
  C  C34  1  0.37426000  0.54164700  0.69174300  1
  C  C35  1  0.87426000  0.45835300  0.30825700  1
  C  C36  1  0.00861700  0.51135000  0.92615900  1
  C  C37  1  0.50861700  0.48865000  0.07384100  1
  C  C38  1  0.20582200  0.05189100  0.01816700  1
  C  C39  1  0.70582200  0.94810900  0.98183300  1
  C  C40  1  0.96902300  0.02762700  0.91543700  1
  C  C41  1  0.46902300  0.97237300  0.08456300  1
  C  C42  1  0.17591000  0.44589000  0.72169200  1
  C  C43  1  0.67591000  0.55411000  0.27830800  1
  C  C44  1  0.49792400  0.02030800  0.41300200  1
  C  C45  1  0.99792400  0.97969200  0.58699800  1
  C  C46  1  0.08552800  0.25039800  0.58242400  1
  C  C47  1  0.58552800  0.74960200  0.41757600  1
  C  C48  1  0.17432200  0.06861200  0.77174700  1
  C  C49  1  0.67432200  0.93138800  0.22825300  1
  C  C50  1  0.29274000  0.07822800  0.27050700  1
  C  C51  1  0.79274000  0.92177200  0.72949300  1
  C  C52  1  0.39140100  0.25803800  0.42204200  1
  C  C53  1  0.89140100  0.74196200  0.57795800  1
  C  C54  1  0.28292400  0.45289200  0.97401800  1
  C  C55  1  0.78292400  0.54710800  0.02598200  1
  C  C56  1  0.47791100  0.50596600  0.42514200  1
  C  C57  1  0.97791100  0.49403400  0.57485800  1
  C  C58  1  0.40130600  0.24465900  0.08155800  1
  C  C59  1  0.90130600  0.75534100  0.91844200  1
  C  C60  1  0.31130800  0.43851800  0.22079700  1
  C  C61  1  0.81130800  0.56148200  0.77920300  1
  C  C62  1  0.26268800  0.04737200  0.51502100  1
  C  C63  1  0.76268800  0.95262800  0.48497900  1
  C  C64  1  0.20539400  0.46238600  0.47744700  1
  C  C65  1  0.70539400  0.53761400  0.52255300  1
  C  C66  1  0.08480800  0.26053200  0.91731700  1
  C  C67  1  0.58480800  0.73946800  0.08268300  1
