# generated using pymatgen
data_Cu3NiC16
_symmetry_space_group_name_H-M   'P 1'
_cell_length_a   8.05072700
_cell_length_b   5.63828600
_cell_length_c   5.76841261
_cell_angle_alpha   89.97362874
_cell_angle_beta   90.00000000
_cell_angle_gamma   90.00000000
_symmetry_Int_Tables_number   1
_chemical_formula_structural   Cu3NiC16
_chemical_formula_sum   'Cu3 Ni1 C16'
_cell_volume   261.84149572
_cell_formula_units_Z   1
loop_
 _symmetry_equiv_pos_site_id
 _symmetry_equiv_pos_as_xyz
  1  'x, y, z'
loop_
 _atom_site_type_symbol
 _atom_site_label
 _atom_site_symmetry_multiplicity
 _atom_site_fract_x
 _atom_site_fract_y
 _atom_site_fract_z
 _atom_site_occupancy
  Ni  Ni0  1  0.00000000  0.48907600  0.45775400  1
  Cu  Cu1  1  0.00000000  0.01353500  0.94965700  1
  Cu  Cu2  1  0.50000000  0.51055800  0.55221600  1
  Cu  Cu3  1  0.50000000  0.99060800  0.04744900  1
  C  C4  1  0.25215300  0.49957000  0.00125700  1
  C  C5  1  0.74727200  0.00032500  0.50012400  1
  C  C6  1  0.74784700  0.49957000  0.00125700  1
  C  C7  1  0.25272800  0.00032500  0.50012400  1
  C  C8  1  0.00000000  0.60258400  0.02197500  1
  C  C9  1  0.00000000  0.91879000  0.54003900  1
  C  C10  1  0.50000000  0.39786800  0.96270900  1
  C  C11  1  0.50000000  0.10412300  0.45772700  1
  C  C12  1  0.19930100  0.19533300  0.19880000  1
  C  C13  1  0.79437700  0.29491300  0.70847600  1
  C  C14  1  0.69464000  0.79860500  0.79683600  1
  C  C15  1  0.30467800  0.69768300  0.29974600  1
  C  C16  1  0.30536000  0.79860500  0.79683600  1
  C  C17  1  0.69532200  0.69768300  0.29974600  1
  C  C18  1  0.80069900  0.19533300  0.19880000  1
  C  C19  1  0.20562300  0.29491300  0.70847600  1
