# generated using pymatgen
data_CuNi14C
_symmetry_space_group_name_H-M   'P 1'
_cell_length_a   6.25570345
_cell_length_b   6.32284511
_cell_length_c   10.29991834
_cell_angle_alpha   90.00000000
_cell_angle_beta   90.00000000
_cell_angle_gamma   120.35568543
_symmetry_Int_Tables_number   1
_chemical_formula_structural   CuNi14C
_chemical_formula_sum   'Cu1 Ni14 C1'
_cell_volume   351.54858974
_cell_formula_units_Z   1
loop_
 _symmetry_equiv_pos_site_id
 _symmetry_equiv_pos_as_xyz
  1  'x, y, z'
loop_
 _atom_site_type_symbol
 _atom_site_label
 _atom_site_symmetry_multiplicity
 _atom_site_fract_x
 _atom_site_fract_y
 _atom_site_fract_z
 _atom_site_occupancy
  Ni  Ni0  1  0.16888563  0.33444231  0.62500000  1
  Ni  Ni1  1  0.16855993  0.83427947  0.62500000  1
  Ni  Ni2  1  0.66957342  0.33519218  0.12500000  1
  Ni  Ni3  1  0.66586869  0.33283144  0.62500000  1
  Ni  Ni4  1  0.66957342  0.83438025  0.12500000  1
  Ni  Ni5  1  0.66586869  0.83303625  0.62500000  1
  Ni  Ni6  1  0.32834591  0.16478863  0.36774705  1
  Ni  Ni7  1  0.32834591  0.16478863  0.88225295  1
  Ni  Ni8  1  0.32834591  0.66355828  0.36774705  1
  Ni  Ni9  1  0.32834591  0.66355828  0.88225295  1
  Ni  Ni10  1  0.83664787  0.16832444  0.37312739  1
  Ni  Ni11  1  0.83664787  0.16832444  0.87687261  1
  Ni  Ni12  1  0.83617598  0.66808849  0.37407741  1
  Ni  Ni13  1  0.83617598  0.66808849  0.87592259  1
  Cu  Cu14  1  0.16688663  0.33344281  0.12500000  1
  C  C15  1  0.16575222  0.83287561  0.12500000  1
