# generated using pymatgen
data_CuNi4C
_symmetry_space_group_name_H-M   'P 1'
_cell_length_a   7.70927200
_cell_length_b   8.86281700
_cell_length_c   9.76620300
_cell_angle_alpha   90.00000000
_cell_angle_beta   90.00000000
_cell_angle_gamma   90.00000000
_symmetry_Int_Tables_number   1
_chemical_formula_structural   CuNi4C
_chemical_formula_sum   'Cu6 Ni24 C6'
_cell_volume   667.28428668
_cell_formula_units_Z   6
loop_
 _symmetry_equiv_pos_site_id
 _symmetry_equiv_pos_as_xyz
  1  'x, y, z'
loop_
 _atom_site_type_symbol
 _atom_site_label
 _atom_site_symmetry_multiplicity
 _atom_site_fract_x
 _atom_site_fract_y
 _atom_site_fract_z
 _atom_site_occupancy
  C  C0  1  0.32016500  0.50000000  0.75000000  1
  C  C1  1  0.67983500  0.50000000  0.25000000  1
  C  C2  1  0.83891200  0.24900800  0.75000000  1
  C  C3  1  0.16108800  0.75099200  0.25000000  1
  C  C4  1  0.83891200  0.75099200  0.75000000  1
  C  C5  1  0.16108800  0.24900800  0.25000000  1
  Ni  Ni6  1  0.17864200  0.23622700  0.57524900  1
  Ni  Ni7  1  0.82135800  0.76377300  0.42475100  1
  Ni  Ni8  1  0.17864200  0.76377300  0.92475100  1
  Ni  Ni9  1  0.82135800  0.23622700  0.42475100  1
  Ni  Ni10  1  0.82135800  0.23622700  0.07524900  1
  Ni  Ni11  1  0.17864200  0.76377300  0.57524900  1
  Ni  Ni12  1  0.82135800  0.76377300  0.07524900  1
  Ni  Ni13  1  0.17864200  0.23622700  0.92475100  1
  Ni  Ni14  1  0.13004100  0.00000000  0.75000000  1
  Ni  Ni15  1  0.86995900  0.00000000  0.25000000  1
  Ni  Ni16  1  0.33786500  0.00000000  0.06101600  1
  Ni  Ni17  1  0.66213500  0.00000000  0.93898400  1
  Ni  Ni18  1  0.33786500  0.00000000  0.43898400  1
  Ni  Ni19  1  0.66213500  0.00000000  0.56101600  1
  Ni  Ni20  1  0.45270600  0.15634400  0.75000000  1
  Ni  Ni21  1  0.54729400  0.84365600  0.25000000  1
  Ni  Ni22  1  0.45270600  0.84365600  0.75000000  1
  Ni  Ni23  1  0.54729400  0.15634400  0.25000000  1
  Ni  Ni24  1  0.65642700  0.50000000  0.58528300  1
  Ni  Ni25  1  0.34357300  0.50000000  0.41471700  1
  Ni  Ni26  1  0.65642700  0.50000000  0.91471700  1
  Ni  Ni27  1  0.34357300  0.50000000  0.08528300  1
  Ni  Ni28  1  0.00000000  0.50000000  0.50000000  1
  Ni  Ni29  1  0.00000000  0.50000000  0.00000000  1
  Cu  Cu30  1  0.50000000  0.25922900  0.50000000  1
  Cu  Cu31  1  0.50000000  0.74077100  0.50000000  1
  Cu  Cu32  1  0.50000000  0.74077100  0.00000000  1
  Cu  Cu33  1  0.50000000  0.25922900  0.00000000  1
  Cu  Cu34  1  0.00000000  0.00000000  0.50000000  1
  Cu  Cu35  1  0.00000000  0.00000000  0.00000000  1
