# generated using pymatgen
data_Cu14Ni2C
_symmetry_space_group_name_H-M   'P 1'
_cell_length_a   8.76263100
_cell_length_b   8.76263100
_cell_length_c   12.06148900
_cell_angle_alpha   90.00000000
_cell_angle_beta   90.00000000
_cell_angle_gamma   90.00000000
_symmetry_Int_Tables_number   1
_chemical_formula_structural   Cu14Ni2C
_chemical_formula_sum   'Cu56 Ni8 C4'
_cell_volume   926.12577756
_cell_formula_units_Z   4
loop_
 _symmetry_equiv_pos_site_id
 _symmetry_equiv_pos_as_xyz
  1  'x, y, z'
loop_
 _atom_site_type_symbol
 _atom_site_label
 _atom_site_symmetry_multiplicity
 _atom_site_fract_x
 _atom_site_fract_y
 _atom_site_fract_z
 _atom_site_occupancy
  Ni  Ni0  1  0.22864400  0.77135600  0.50000000  1
  Ni  Ni1  1  0.77135600  0.22864400  0.50000000  1
  Ni  Ni2  1  0.27135600  0.27135600  0.00000000  1
  Ni  Ni3  1  0.72864400  0.72864400  0.00000000  1
  Ni  Ni4  1  0.64636200  0.64636200  0.50000000  1
  Ni  Ni5  1  0.35363800  0.35363800  0.50000000  1
  Ni  Ni6  1  0.85363800  0.14636200  0.00000000  1
  Ni  Ni7  1  0.14636200  0.85363800  0.00000000  1
  Cu  Cu8  1  0.00000000  0.50000000  0.50000000  1
  Cu  Cu9  1  0.50000000  0.00000000  0.00000000  1
  Cu  Cu10  1  0.50000000  0.00000000  0.50000000  1
  Cu  Cu11  1  0.00000000  0.50000000  0.00000000  1
  Cu  Cu12  1  0.50000000  0.50000000  0.11577200  1
  Cu  Cu13  1  0.00000000  0.00000000  0.61577200  1
  Cu  Cu14  1  0.50000000  0.50000000  0.88422800  1
  Cu  Cu15  1  0.00000000  0.00000000  0.38422800  1
  Cu  Cu16  1  0.18196000  0.81804000  0.25366500  1
  Cu  Cu17  1  0.81804000  0.18196000  0.25366500  1
  Cu  Cu18  1  0.31804000  0.31804000  0.75366500  1
  Cu  Cu19  1  0.68196000  0.68196000  0.75366500  1
  Cu  Cu20  1  0.81804000  0.18196000  0.74633500  1
  Cu  Cu21  1  0.18196000  0.81804000  0.74633500  1
  Cu  Cu22  1  0.68196000  0.68196000  0.24633500  1
  Cu  Cu23  1  0.31804000  0.31804000  0.24633500  1
  Cu  Cu24  1  0.40259500  0.59740500  0.29811900  1
  Cu  Cu25  1  0.59740500  0.40259500  0.29811900  1
  Cu  Cu26  1  0.09740500  0.09740500  0.79811900  1
  Cu  Cu27  1  0.90259500  0.90259500  0.79811900  1
  Cu  Cu28  1  0.59740500  0.40259500  0.70188100  1
  Cu  Cu29  1  0.40259500  0.59740500  0.70188100  1
  Cu  Cu30  1  0.90259500  0.90259500  0.20188100  1
  Cu  Cu31  1  0.09740500  0.09740500  0.20188100  1
  Cu  Cu32  1  0.14025000  0.53752100  0.32478500  1
  Cu  Cu33  1  0.85975000  0.46247900  0.32478500  1
  Cu  Cu34  1  0.35975000  0.03752100  0.82478500  1
  Cu  Cu35  1  0.64025000  0.96247900  0.82478500  1
  Cu  Cu36  1  0.85975000  0.46247900  0.67521500  1
  Cu  Cu37  1  0.14025000  0.53752100  0.67521500  1
  Cu  Cu38  1  0.64025000  0.96247900  0.17521500  1
  Cu  Cu39  1  0.35975000  0.03752100  0.17521500  1
  Cu  Cu40  1  0.53752100  0.14025000  0.32478500  1
  Cu  Cu41  1  0.46247900  0.85975000  0.32478500  1
  Cu  Cu42  1  0.03752100  0.35975000  0.82478500  1
  Cu  Cu43  1  0.96247900  0.64025000  0.82478500  1
  Cu  Cu44  1  0.46247900  0.85975000  0.67521500  1
  Cu  Cu45  1  0.53752100  0.14025000  0.67521500  1
  Cu  Cu46  1  0.96247900  0.64025000  0.17521500  1
  Cu  Cu47  1  0.03752100  0.35975000  0.17521500  1
  Cu  Cu48  1  0.93353300  0.72406600  0.37239800  1
  Cu  Cu49  1  0.06646700  0.27593400  0.37239800  1
  Cu  Cu50  1  0.56646700  0.22406600  0.87239800  1
  Cu  Cu51  1  0.43353300  0.77593400  0.87239800  1
  Cu  Cu52  1  0.06646700  0.27593400  0.62760200  1
  Cu  Cu53  1  0.93353300  0.72406600  0.62760200  1
  Cu  Cu54  1  0.43353300  0.77593400  0.12760200  1
  Cu  Cu55  1  0.56646700  0.22406600  0.12760200  1
  Cu  Cu56  1  0.72406600  0.93353300  0.37239800  1
  Cu  Cu57  1  0.27593400  0.06646700  0.37239800  1
  Cu  Cu58  1  0.22406600  0.56646700  0.87239800  1
  Cu  Cu59  1  0.77593400  0.43353300  0.87239800  1
  Cu  Cu60  1  0.27593400  0.06646700  0.62760200  1
  Cu  Cu61  1  0.72406600  0.93353300  0.62760200  1
  Cu  Cu62  1  0.77593400  0.43353300  0.12760200  1
  Cu  Cu63  1  0.22406600  0.56646700  0.12760200  1
  C  C64  1  0.87730400  0.87730400  0.50000000  1
  C  C65  1  0.12269600  0.12269600  0.50000000  1
  C  C66  1  0.62269600  0.37730400  0.00000000  1
  C  C67  1  0.37730400  0.62269600  0.00000000  1
