# generated using pymatgen
data_Cu4NiC3
_symmetry_space_group_name_H-M   'P 1'
_cell_length_a   5.76081500
_cell_length_b   7.55452800
_cell_length_c   11.68263200
_cell_angle_alpha   90.00000000
_cell_angle_beta   90.00000000
_cell_angle_gamma   90.00000000
_symmetry_Int_Tables_number   1
_chemical_formula_structural   Cu4NiC3
_chemical_formula_sum   'Cu16 Ni4 C12'
_cell_volume   508.43092768
_cell_formula_units_Z   4
loop_
 _symmetry_equiv_pos_site_id
 _symmetry_equiv_pos_as_xyz
  1  'x, y, z'
loop_
 _atom_site_type_symbol
 _atom_site_label
 _atom_site_symmetry_multiplicity
 _atom_site_fract_x
 _atom_site_fract_y
 _atom_site_fract_z
 _atom_site_occupancy
  C  C0  1  0.75984100  0.33162900  0.91147400  1
  C  C1  1  0.25984100  0.66837100  0.08852600  1
  C  C2  1  0.25984100  0.16837100  0.41147400  1
  C  C3  1  0.75984100  0.83162900  0.58852600  1
  C  C4  1  0.25967200  0.48826100  0.72496100  1
  C  C5  1  0.75967200  0.51173900  0.27503900  1
  C  C6  1  0.75967200  0.01173900  0.22496100  1
  C  C7  1  0.25967200  0.98826100  0.77503900  1
  C  C8  1  0.73903600  0.31761800  0.56544000  1
  C  C9  1  0.23903600  0.68238200  0.43456000  1
  C  C10  1  0.23903600  0.18238200  0.06544000  1
  C  C11  1  0.73903600  0.81761800  0.93456000  1
  Ni  Ni12  1  0.52922800  0.18705200  0.61322300  1
  Ni  Ni13  1  0.02922800  0.81294800  0.38677700  1
  Ni  Ni14  1  0.02922800  0.31294800  0.11322300  1
  Ni  Ni15  1  0.52922800  0.68705200  0.88677700  1
  Cu  Cu16  1  0.77247300  0.22499100  0.40862400  1
  Cu  Cu17  1  0.27247300  0.77500900  0.59137600  1
  Cu  Cu18  1  0.27247300  0.27500900  0.90862400  1
  Cu  Cu19  1  0.77247300  0.72499100  0.09137600  1
  Cu  Cu20  1  0.03365000  0.49420800  0.50009900  1
  Cu  Cu21  1  0.53365000  0.50579200  0.49990100  1
  Cu  Cu22  1  0.53365000  0.00579200  0.00009900  1
  Cu  Cu23  1  0.03365000  0.99420800  0.99990100  1
  Cu  Cu24  1  0.77745500  0.47150200  0.69583400  1
  Cu  Cu25  1  0.27745500  0.52849800  0.30416600  1
  Cu  Cu26  1  0.27745500  0.02849800  0.19583400  1
  Cu  Cu27  1  0.77745500  0.97150200  0.80416600  1
  Cu  Cu28  1  0.00594500  0.17987100  0.61123900  1
  Cu  Cu29  1  0.50594500  0.82012900  0.38876100  1
  Cu  Cu30  1  0.50594500  0.32012900  0.11123900  1
  Cu  Cu31  1  0.00594500  0.67987100  0.88876100  1
