# generated using pymatgen
data_Cu5NiC15
_symmetry_space_group_name_H-M   'P 1'
_cell_length_a   14.01926100
_cell_length_b   5.22217400
_cell_length_c   8.65398382
_cell_angle_alpha   79.08426221
_cell_angle_beta   90.00000000
_cell_angle_gamma   90.00000000
_symmetry_Int_Tables_number   1
_chemical_formula_structural   Cu5NiC15
_chemical_formula_sum   'Cu10 Ni2 C30'
_cell_volume   622.10368990
_cell_formula_units_Z   2
loop_
 _symmetry_equiv_pos_site_id
 _symmetry_equiv_pos_as_xyz
  1  'x, y, z'
loop_
 _atom_site_type_symbol
 _atom_site_label
 _atom_site_symmetry_multiplicity
 _atom_site_fract_x
 _atom_site_fract_y
 _atom_site_fract_z
 _atom_site_occupancy
  Ni  Ni0  1  0.50000000  0.50000000  0.50000000  1
  Ni  Ni1  1  0.00000000  0.50000000  0.50000000  1
  Cu  Cu2  1  0.25000000  0.46045900  0.01931500  1
  Cu  Cu3  1  0.58360100  0.36848500  0.16468500  1
  Cu  Cu4  1  0.91639900  0.36848500  0.16468500  1
  Cu  Cu5  1  0.64364100  0.01840500  0.47048700  1
  Cu  Cu6  1  0.85635900  0.01840500  0.47048700  1
  Cu  Cu7  1  0.14364100  0.98159500  0.52951300  1
  Cu  Cu8  1  0.35635900  0.98159500  0.52951300  1
  Cu  Cu9  1  0.08360100  0.63151500  0.83531500  1
  Cu  Cu10  1  0.41639900  0.63151500  0.83531500  1
  Cu  Cu11  1  0.75000000  0.53954100  0.98068500  1
  C  C12  1  0.25000000  0.74042200  0.02789900  1
  C  C13  1  0.66121300  0.58050400  0.11463600  1
  C  C14  1  0.83878700  0.58050400  0.11463600  1
  C  C15  1  0.98588800  0.48944000  0.27840600  1
  C  C16  1  0.51411200  0.48944000  0.27840600  1
  C  C17  1  0.12008800  0.27320400  0.50274300  1
  C  C18  1  0.37991200  0.27320400  0.50274300  1
  C  C19  1  0.58039000  0.17077000  0.56712000  1
  C  C20  1  0.91961000  0.17077000  0.56712000  1
  C  C21  1  0.64443000  0.14273200  0.29490500  1
  C  C22  1  0.85557000  0.14273200  0.29490500  1
  C  C23  1  0.53326100  0.23485200  0.05555000  1
  C  C24  1  0.25000000  0.23116200  0.14674800  1
  C  C25  1  0.96673900  0.23485200  0.05555000  1
  C  C26  1  0.75000000  0.04053500  0.52921800  1
  C  C27  1  0.25000000  0.95946500  0.47078200  1
  C  C28  1  0.03326100  0.76514800  0.94445000  1
  C  C29  1  0.75000000  0.76883800  0.85325200  1
  C  C30  1  0.46673900  0.76514800  0.94445000  1
  C  C31  1  0.14443000  0.85726800  0.70509500  1
  C  C32  1  0.35557000  0.85726800  0.70509500  1
  C  C33  1  0.08039000  0.82923000  0.43288000  1
  C  C34  1  0.41961000  0.82923000  0.43288000  1
  C  C35  1  0.62008800  0.72679600  0.49725700  1
  C  C36  1  0.87991200  0.72679600  0.49725700  1
  C  C37  1  0.48588800  0.51056000  0.72159400  1
  C  C38  1  0.01411200  0.51056000  0.72159400  1
  C  C39  1  0.16121300  0.41949600  0.88536400  1
  C  C40  1  0.33878700  0.41949600  0.88536400  1
  C  C41  1  0.75000000  0.25957800  0.97210100  1
