# generated using pymatgen
data_Cu2Ni2C13
_symmetry_space_group_name_H-M   'P 1'
_cell_length_a   5.59739657
_cell_length_b   5.59739657
_cell_length_c   7.73307347
_cell_angle_alpha   70.18668588
_cell_angle_beta   70.18668588
_cell_angle_gamma   68.75536100
_symmetry_Int_Tables_number   1
_chemical_formula_structural   Cu2Ni2C13
_chemical_formula_sum   'Cu2 Ni2 C13'
_cell_volume   205.89570376
_cell_formula_units_Z   1
loop_
 _symmetry_equiv_pos_site_id
 _symmetry_equiv_pos_as_xyz
  1  'x, y, z'
loop_
 _atom_site_type_symbol
 _atom_site_label
 _atom_site_symmetry_multiplicity
 _atom_site_fract_x
 _atom_site_fract_y
 _atom_site_fract_z
 _atom_site_occupancy
  C  C0  1  0.50000000  0.00000000  0.50000000  1
  C  C1  1  0.00000000  0.50000000  0.50000000  1
  Ni  Ni2  1  0.58142900  0.58142900  0.21437600  1
  Ni  Ni3  1  0.41857100  0.41857100  0.78562400  1
  Cu  Cu4  1  0.79468800  0.79468800  0.73168700  1
  Cu  Cu5  1  0.20531200  0.20531200  0.26831300  1
  C  C6  1  0.00000000  0.00000000  0.00000000  1
  C  C7  1  0.68895000  0.68895000  0.35961100  1
  C  C8  1  0.31105000  0.31105000  0.64038900  1
  C  C9  1  0.82479800  0.82479800  0.59343400  1
  C  C10  1  0.17520200  0.17520200  0.40656600  1
  C  C11  1  0.68842500  0.23951400  0.26728400  1
  C  C12  1  0.31157500  0.76048600  0.73271600  1
  C  C13  1  0.76048600  0.31157500  0.73271600  1
  C  C14  1  0.23951400  0.68842500  0.26728400  1
  C  C15  1  0.27892700  0.27892700  0.01053700  1
  C  C16  1  0.72107300  0.72107300  0.98946300  1
