# generated using pymatgen
data_Cu(Ni2C17)2
_symmetry_space_group_name_H-M   'P 1'
_cell_length_a   7.62074248
_cell_length_b   7.62074248
_cell_length_c   15.18423654
_cell_angle_alpha   88.69826267
_cell_angle_beta   88.69826267
_cell_angle_gamma   41.84321358
_symmetry_Int_Tables_number   1
_chemical_formula_structural   Cu(Ni2C17)2
_chemical_formula_sum   'Cu1 Ni4 C34'
_cell_volume   588.09356815
_cell_formula_units_Z   1
loop_
 _symmetry_equiv_pos_site_id
 _symmetry_equiv_pos_as_xyz
  1  'x, y, z'
loop_
 _atom_site_type_symbol
 _atom_site_label
 _atom_site_symmetry_multiplicity
 _atom_site_fract_x
 _atom_site_fract_y
 _atom_site_fract_z
 _atom_site_occupancy
  Ni  Ni0  1  0.09630500  0.26442400  0.62327700  1
  Ni  Ni1  1  0.26527800  0.10746400  0.12517400  1
  Ni  Ni2  1  0.73557600  0.90369500  0.37672300  1
  Ni  Ni3  1  0.89253600  0.73472200  0.87482600  1
  Cu  Cu4  1  0.57908100  0.42091900  0.00000000  1
  C  C5  1  0.14735900  0.10025800  0.87540100  1
  C  C6  1  0.89974200  0.85264100  0.12459900  1
  C  C7  1  0.10254500  0.14441300  0.37794100  1
  C  C8  1  0.85558700  0.89745500  0.62205900  1
  C  C9  1  0.50263700  0.50182900  0.74975400  1
  C  C10  1  0.49817100  0.49736300  0.25024600  1
  C  C11  1  0.39794200  0.89799700  0.29677100  1
  C  C12  1  0.17886600  0.59028800  0.03750000  1
  C  C13  1  0.58927700  0.16096000  0.54394200  1
  C  C14  1  0.12639000  0.70954200  0.23392700  1
  C  C15  1  0.64141600  0.03991000  0.02564000  1
  C  C16  1  0.92687500  0.08681800  0.09635000  1
  C  C17  1  0.49147000  0.61549400  0.13685000  1
  C  C18  1  0.50942200  0.37732800  0.35846300  1
  C  C19  1  0.06406500  0.93242900  0.60199900  1
  C  C20  1  0.29045800  0.87361000  0.76607300  1
  C  C21  1  0.62267200  0.49057800  0.64153700  1
  C  C22  1  0.06757100  0.93593500  0.39800100  1
  C  C23  1  0.35190300  0.99113700  0.46910500  1
  C  C24  1  0.85939800  0.63755500  0.14798000  1
  C  C25  1  0.91318200  0.07312500  0.90365000  1
  C  C26  1  0.36244500  0.14060200  0.85202000  1
  C  C27  1  0.13676000  0.35765100  0.34911300  1
  C  C28  1  0.40971200  0.82113400  0.96250000  1
  C  C29  1  0.59447200  0.11350500  0.20380600  1
  C  C30  1  0.83904000  0.41072300  0.45605800  1
  C  C31  1  0.10200300  0.60205800  0.70322900  1
  C  C32  1  0.38450600  0.50853000  0.86315000  1
  C  C33  1  0.70190200  0.12642000  0.72763000  1
  C  C34  1  0.64234900  0.86324000  0.65088700  1
  C  C35  1  0.00886300  0.64809700  0.53089500  1
  C  C36  1  0.96009000  0.35858400  0.97436000  1
  C  C37  1  0.88649500  0.40552800  0.79619400  1
  C  C38  1  0.87358000  0.29809800  0.27237000  1
