# generated using pymatgen
data_Cu(NiC5)2
_symmetry_space_group_name_H-M   'P 1'
_cell_length_a   8.60937400
_cell_length_b   13.68505800
_cell_length_c   14.02728000
_cell_angle_alpha   90.00000000
_cell_angle_beta   90.00000000
_cell_angle_gamma   90.00000000
_symmetry_Int_Tables_number   1
_chemical_formula_structural   Cu(NiC5)2
_chemical_formula_sum   'Cu8 Ni16 C80'
_cell_volume   1652.69107914
_cell_formula_units_Z   8
loop_
 _symmetry_equiv_pos_site_id
 _symmetry_equiv_pos_as_xyz
  1  'x, y, z'
loop_
 _atom_site_type_symbol
 _atom_site_label
 _atom_site_symmetry_multiplicity
 _atom_site_fract_x
 _atom_site_fract_y
 _atom_site_fract_z
 _atom_site_occupancy
  C  C0  1  0.32523300  0.18259900  0.75000000  1
  C  C1  1  0.82523300  0.31740100  0.75000000  1
  C  C2  1  0.67476700  0.81740100  0.25000000  1
  C  C3  1  0.17476700  0.68259900  0.25000000  1
  C  C4  1  0.40144500  0.37136400  0.25000000  1
  C  C5  1  0.90144500  0.12863600  0.25000000  1
  C  C6  1  0.59855500  0.62863600  0.75000000  1
  C  C7  1  0.09855500  0.87136400  0.75000000  1
  C  C8  1  0.60962900  0.19720400  0.48882600  1
  C  C9  1  0.10962900  0.30279600  0.01117400  1
  C  C10  1  0.39037100  0.80279600  0.98882600  1
  C  C11  1  0.89037100  0.69720400  0.51117400  1
  C  C12  1  0.39037100  0.80279600  0.51117400  1
  C  C13  1  0.89037100  0.69720400  0.98882600  1
  C  C14  1  0.60962900  0.19720400  0.01117400  1
  C  C15  1  0.10962900  0.30279600  0.48882600  1
  Ni  Ni16  1  0.48414700  0.96420700  0.69464300  1
  Ni  Ni17  1  0.98414700  0.53579300  0.80535700  1
  Ni  Ni18  1  0.51585300  0.03579300  0.19464300  1
  Ni  Ni19  1  0.01585300  0.46420700  0.30535700  1
  Ni  Ni20  1  0.51585300  0.03579300  0.30535700  1
  Ni  Ni21  1  0.01585300  0.46420700  0.19464300  1
  Ni  Ni22  1  0.48414700  0.96420700  0.80535700  1
  Ni  Ni23  1  0.98414700  0.53579300  0.69464300  1
  Ni  Ni24  1  0.45996800  0.40375800  0.80550000  1
  Ni  Ni25  1  0.95996800  0.09624200  0.69450000  1
  Ni  Ni26  1  0.54003200  0.59624200  0.30550000  1
  Ni  Ni27  1  0.04003200  0.90375800  0.19450000  1
  Ni  Ni28  1  0.54003200  0.59624200  0.19450000  1
  Ni  Ni29  1  0.04003200  0.90375800  0.30550000  1
  Ni  Ni30  1  0.45996800  0.40375800  0.69450000  1
  Ni  Ni31  1  0.95996800  0.09624200  0.80550000  1
  Cu  Cu32  1  0.73627100  0.44985100  0.47198900  1
  Cu  Cu33  1  0.23627100  0.05014900  0.02801100  1
  Cu  Cu34  1  0.26372900  0.55014900  0.97198900  1
  Cu  Cu35  1  0.76372900  0.94985100  0.52801100  1
  Cu  Cu36  1  0.26372900  0.55014900  0.52801100  1
  Cu  Cu37  1  0.76372900  0.94985100  0.97198900  1
  Cu  Cu38  1  0.73627100  0.44985100  0.02801100  1
  Cu  Cu39  1  0.23627100  0.05014900  0.47198900  1
  C  C40  1  0.63219900  0.23565800  0.36619600  1
  C  C41  1  0.13219900  0.26434200  0.13380400  1
  C  C42  1  0.36780100  0.76434200  0.86619600  1
  C  C43  1  0.86780100  0.73565800  0.63380400  1
  C  C44  1  0.36780100  0.76434200  0.63380400  1
  C  C45  1  0.86780100  0.73565800  0.86619600  1
  C  C46  1  0.63219900  0.23565800  0.13380400  1
  C  C47  1  0.13219900  0.26434200  0.36619600  1
  C  C48  1  0.59171800  0.16091700  0.61276700  1
  C  C49  1  0.09171800  0.33908300  0.88723300  1
  C  C50  1  0.40828200  0.83908300  0.11276700  1
  C  C51  1  0.90828200  0.66091700  0.38723300  1
  C  C52  1  0.40828200  0.83908300  0.38723300  1
  C  C53  1  0.90828200  0.66091700  0.11276700  1
  C  C54  1  0.59171800  0.16091700  0.88723300  1
  C  C55  1  0.09171800  0.33908300  0.61276700  1
  C  C56  1  0.40947500  0.08921300  0.42887700  1
  C  C57  1  0.90947500  0.41078700  0.07112300  1
  C  C58  1  0.59052500  0.91078700  0.92887700  1
  C  C59  1  0.09052500  0.58921300  0.57112300  1
  C  C60  1  0.59052500  0.91078700  0.57112300  1
  C  C61  1  0.09052500  0.58921300  0.92887700  1
  C  C62  1  0.40947500  0.08921300  0.07112300  1
  C  C63  1  0.90947500  0.41078700  0.42887700  1
  C  C64  1  0.72969200  0.04534300  0.45455900  1
  C  C65  1  0.22969200  0.45465700  0.04544100  1
  C  C66  1  0.27030800  0.95465700  0.95455900  1
  C  C67  1  0.77030800  0.54534300  0.54544100  1
  C  C68  1  0.27030800  0.95465700  0.54544100  1
  C  C69  1  0.77030800  0.54534300  0.95455900  1
  C  C70  1  0.72969200  0.04534300  0.04544100  1
  C  C71  1  0.22969200  0.45465700  0.45455900  1
  C  C72  1  0.66724500  0.36025800  0.54336100  1
  C  C73  1  0.16724500  0.13974200  0.95663900  1
  C  C74  1  0.33275500  0.63974200  0.04336100  1
  C  C75  1  0.83275500  0.86025800  0.45663900  1
  C  C76  1  0.33275500  0.63974200  0.45663900  1
  C  C77  1  0.83275500  0.86025800  0.04336100  1
  C  C78  1  0.66724500  0.36025800  0.95663900  1
  C  C79  1  0.16724500  0.13974200  0.54336100  1
  C  C80  1  0.61700300  0.47784400  0.38517000  1
  C  C81  1  0.11700300  0.02215600  0.11483000  1
  C  C82  1  0.38299700  0.52215600  0.88517000  1
  C  C83  1  0.88299700  0.97784400  0.61483000  1
  C  C84  1  0.38299700  0.52215600  0.61483000  1
  C  C85  1  0.88299700  0.97784400  0.88517000  1
  C  C86  1  0.61700300  0.47784400  0.11483000  1
  C  C87  1  0.11700300  0.02215600  0.38517000  1
  C  C88  1  0.41917100  0.97899600  0.75000000  1
  C  C89  1  0.91917100  0.52100400  0.75000000  1
  C  C90  1  0.58082900  0.02100400  0.25000000  1
  C  C91  1  0.08082900  0.47899600  0.25000000  1
  C  C92  1  0.50093500  0.36859900  0.75000000  1
  C  C93  1  0.00093500  0.13140100  0.75000000  1
  C  C94  1  0.49906500  0.63140100  0.25000000  1
  C  C95  1  0.99906500  0.86859900  0.25000000  1
  C  C96  1  0.37824700  0.28065900  0.50333300  1
  C  C97  1  0.87824700  0.21934100  0.99666700  1
  C  C98  1  0.62175300  0.71934100  0.00333300  1
  C  C99  1  0.12175300  0.78065900  0.49666700  1
  C  C100  1  0.62175300  0.71934100  0.49666700  1
  C  C101  1  0.12175300  0.78065900  0.00333300  1
  C  C102  1  0.37824700  0.28065900  0.99666700  1
  C  C103  1  0.87824700  0.21934100  0.50333300  1
