# generated using pymatgen
data_Cu2NiC5
_symmetry_space_group_name_H-M   'P 1'
_cell_length_a   6.51940500
_cell_length_b   7.25628100
_cell_length_c   9.33152300
_cell_angle_alpha   90.00000000
_cell_angle_beta   90.00000000
_cell_angle_gamma   90.00000000
_symmetry_Int_Tables_number   1
_chemical_formula_structural   Cu2NiC5
_chemical_formula_sum   'Cu8 Ni4 C20'
_cell_volume   441.44294913
_cell_formula_units_Z   4
loop_
 _symmetry_equiv_pos_site_id
 _symmetry_equiv_pos_as_xyz
  1  'x, y, z'
loop_
 _atom_site_type_symbol
 _atom_site_label
 _atom_site_symmetry_multiplicity
 _atom_site_fract_x
 _atom_site_fract_y
 _atom_site_fract_z
 _atom_site_occupancy
  C  C0  1  0.83242800  0.57299200  0.36297900  1
  C  C1  1  0.66757200  0.42700800  0.86297900  1
  C  C2  1  0.33242800  0.92700800  0.63702100  1
  C  C3  1  0.16757200  0.07299200  0.13702100  1
  C  C4  1  0.94592800  0.82385300  0.85767600  1
  C  C5  1  0.55407200  0.17614700  0.35767600  1
  C  C6  1  0.44592800  0.67614700  0.14232400  1
  C  C7  1  0.05407200  0.32385300  0.64232400  1
  C  C8  1  0.81135200  0.99190600  0.75479000  1
  C  C9  1  0.68864800  0.00809400  0.25479000  1
  C  C10  1  0.31135200  0.50809400  0.24521000  1
  C  C11  1  0.18864800  0.49190600  0.74521000  1
  C  C12  1  0.81996500  0.73980200  0.06251000  1
  C  C13  1  0.68003500  0.26019800  0.56251000  1
  C  C14  1  0.31996500  0.76019800  0.93749000  1
  C  C15  1  0.18003500  0.23980200  0.43749000  1
  Ni  Ni16  1  0.67715200  0.92577400  0.95232700  1
  Ni  Ni17  1  0.82284800  0.07422600  0.45232700  1
  Ni  Ni18  1  0.17715200  0.57422600  0.04767300  1
  Ni  Ni19  1  0.32284800  0.42577400  0.54767300  1
  Cu  Cu20  1  0.81934900  0.90664300  0.84270800  1
  Cu  Cu21  1  0.68065100  0.09335700  0.34270800  1
  Cu  Cu22  1  0.31934900  0.59335700  0.15729200  1
  Cu  Cu23  1  0.18065100  0.40664300  0.65729200  1
  Cu  Cu24  1  0.69464300  0.82515900  0.07256700  1
  Cu  Cu25  1  0.80535700  0.17484100  0.57256700  1
  Cu  Cu26  1  0.19464300  0.67484100  0.92743300  1
  Cu  Cu27  1  0.30535700  0.32515900  0.42743300  1
  C  C28  1  0.52830000  0.03999900  0.93180000  1
  C  C29  1  0.97170000  0.96000100  0.43180000  1
  C  C30  1  0.02830000  0.46000100  0.06820000  1
  C  C31  1  0.47170000  0.53999900  0.56820000  1
