# generated using pymatgen
data_Cu3(Ni2C)2
_symmetry_space_group_name_H-M   'P 1'
_cell_length_a   3.77181100
_cell_length_b   10.83911000
_cell_length_c   12.52432300
_cell_angle_alpha   90.00000000
_cell_angle_beta   90.00000000
_cell_angle_gamma   90.00000000
_symmetry_Int_Tables_number   1
_chemical_formula_structural   Cu3(Ni2C)2
_chemical_formula_sum   'Cu12 Ni16 C8'
_cell_volume   512.03282812
_cell_formula_units_Z   4
loop_
 _symmetry_equiv_pos_site_id
 _symmetry_equiv_pos_as_xyz
  1  'x, y, z'
loop_
 _atom_site_type_symbol
 _atom_site_label
 _atom_site_symmetry_multiplicity
 _atom_site_fract_x
 _atom_site_fract_y
 _atom_site_fract_z
 _atom_site_occupancy
  C  C0  1  0.25000000  0.58411900  0.79253700  1
  C  C1  1  0.25000000  0.91588100  0.29253700  1
  C  C2  1  0.75000000  0.41588100  0.20746300  1
  C  C3  1  0.75000000  0.08411900  0.70746300  1
  C  C4  1  0.25000000  0.71391600  0.52187100  1
  C  C5  1  0.25000000  0.78608400  0.02187100  1
  C  C6  1  0.75000000  0.28608400  0.47812900  1
  C  C7  1  0.75000000  0.21391600  0.97812900  1
  Ni  Ni8  1  0.25000000  0.08711700  0.50580200  1
  Ni  Ni9  1  0.25000000  0.41288300  0.00580200  1
  Ni  Ni10  1  0.75000000  0.91288300  0.49419800  1
  Ni  Ni11  1  0.75000000  0.58711700  0.99419800  1
  Ni  Ni12  1  0.25000000  0.46283900  0.56515200  1
  Ni  Ni13  1  0.25000000  0.03716100  0.06515200  1
  Ni  Ni14  1  0.75000000  0.53716100  0.43484800  1
  Ni  Ni15  1  0.75000000  0.96283900  0.93484800  1
  Ni  Ni16  1  0.25000000  0.87451000  0.80750100  1
  Ni  Ni17  1  0.25000000  0.62549000  0.30750100  1
  Ni  Ni18  1  0.75000000  0.12549000  0.19249900  1
  Ni  Ni19  1  0.75000000  0.37451000  0.69249900  1
  Ni  Ni20  1  0.25000000  0.28593900  0.81779400  1
  Ni  Ni21  1  0.25000000  0.21406100  0.31779400  1
  Ni  Ni22  1  0.75000000  0.71406100  0.18220600  1
  Ni  Ni23  1  0.75000000  0.78593900  0.68220600  1
  Cu  Cu24  1  0.25000000  0.90589900  0.61705700  1
  Cu  Cu25  1  0.25000000  0.59410100  0.11705700  1
  Cu  Cu26  1  0.75000000  0.09410100  0.38294300  1
  Cu  Cu27  1  0.75000000  0.40589900  0.88294300  1
  Cu  Cu28  1  0.25000000  0.25779500  0.62404900  1
  Cu  Cu29  1  0.25000000  0.24220500  0.12404900  1
  Cu  Cu30  1  0.75000000  0.74220500  0.37595100  1
  Cu  Cu31  1  0.75000000  0.75779500  0.87595100  1
  Cu  Cu32  1  0.25000000  0.08492400  0.87898400  1
  Cu  Cu33  1  0.25000000  0.41507600  0.37898400  1
  Cu  Cu34  1  0.75000000  0.91507600  0.12101600  1
  Cu  Cu35  1  0.75000000  0.58492400  0.62101600  1
