# generated using pymatgen
data_Cu2NiC22
_symmetry_space_group_name_H-M   'P 1'
_cell_length_a   7.87626680
_cell_length_b   7.87626680
_cell_length_c   7.51514570
_cell_angle_alpha   63.38599551
_cell_angle_beta   63.38599551
_cell_angle_gamma   92.77787580
_symmetry_Int_Tables_number   1
_chemical_formula_structural   Cu2NiC22
_chemical_formula_sum   'Cu2 Ni1 C22'
_cell_volume   354.08105224
_cell_formula_units_Z   1
loop_
 _symmetry_equiv_pos_site_id
 _symmetry_equiv_pos_as_xyz
  1  'x, y, z'
loop_
 _atom_site_type_symbol
 _atom_site_label
 _atom_site_symmetry_multiplicity
 _atom_site_fract_x
 _atom_site_fract_y
 _atom_site_fract_z
 _atom_site_occupancy
  C  C0  1  0.78636200  0.21363800  0.75000000  1
  C  C1  1  0.24558600  0.75441400  0.25000000  1
  Ni  Ni2  1  0.00652300  0.99347700  0.25000000  1
  Cu  Cu3  1  0.22770200  0.77229800  0.75000000  1
  Cu  Cu4  1  0.75559000  0.24441000  0.25000000  1
  C  C5  1  0.28843200  0.30951900  0.70989900  1
  C  C6  1  0.70806600  0.69138700  0.29267800  1
  C  C7  1  0.69048100  0.71156800  0.79010100  1
  C  C8  1  0.30861300  0.29193400  0.20732100  1
  C  C9  1  0.35201700  0.23931200  0.95571800  1
  C  C10  1  0.64487900  0.75821500  0.04488400  1
  C  C11  1  0.76068800  0.64798300  0.54428200  1
  C  C12  1  0.24178500  0.35512100  0.45511500  1
  C  C13  1  0.62445000  0.93579800  0.63581200  1
  C  C14  1  0.38192300  0.07144000  0.36024100  1
  C  C15  1  0.06420200  0.37555000  0.86418800  1
  C  C16  1  0.92856000  0.61807700  0.13975900  1
  C  C17  1  0.41947700  0.62736200  0.52512700  1
  C  C18  1  0.57637500  0.37561100  0.48170000  1
  C  C19  1  0.37263800  0.58052300  0.97487300  1
  C  C20  1  0.62438900  0.42362500  0.01830000  1
  C  C21  1  0.20981100  0.03649900  0.83171900  1
  C  C22  1  0.79077000  0.96448700  0.18672100  1
  C  C23  1  0.96350100  0.79018900  0.66828100  1
  C  C24  1  0.03551300  0.20923000  0.31327900  1
