# generated using pymatgen
data_Cu3Ni5C
_symmetry_space_group_name_H-M   'P 1'
_cell_length_a   14.62697841
_cell_length_b   14.62697841
_cell_length_c   3.66220400
_cell_angle_alpha   90.00000000
_cell_angle_beta   90.00000000
_cell_angle_gamma   120.00000185
_symmetry_Int_Tables_number   1
_chemical_formula_structural   Cu3Ni5C
_chemical_formula_sum   'Cu18 Ni30 C6'
_cell_volume   678.55084690
_cell_formula_units_Z   6
loop_
 _symmetry_equiv_pos_site_id
 _symmetry_equiv_pos_as_xyz
  1  'x, y, z'
loop_
 _atom_site_type_symbol
 _atom_site_label
 _atom_site_symmetry_multiplicity
 _atom_site_fract_x
 _atom_site_fract_y
 _atom_site_fract_z
 _atom_site_occupancy
  C  C0  1  0.29405700  0.89946600  0.75000000  1
  C  C1  1  0.10053400  0.39459200  0.75000000  1
  C  C2  1  0.60540800  0.70594300  0.75000000  1
  C  C3  1  0.70594300  0.10053400  0.25000000  1
  C  C4  1  0.89946600  0.60540800  0.25000000  1
  C  C5  1  0.39459200  0.29405700  0.25000000  1
  Ni  Ni6  1  0.42775700  0.77491400  0.75000000  1
  Ni  Ni7  1  0.22508600  0.65284300  0.75000000  1
  Ni  Ni8  1  0.34715700  0.57224300  0.75000000  1
  Ni  Ni9  1  0.57224300  0.22508600  0.25000000  1
  Ni  Ni10  1  0.77491400  0.34715700  0.25000000  1
  Ni  Ni11  1  0.65284300  0.42775700  0.25000000  1
  Ni  Ni12  1  0.53367400  0.07420400  0.75000000  1
  Ni  Ni13  1  0.92579600  0.45947000  0.75000000  1
  Ni  Ni14  1  0.54053000  0.46632600  0.75000000  1
  Ni  Ni15  1  0.46632600  0.92579600  0.25000000  1
  Ni  Ni16  1  0.07420400  0.54053000  0.25000000  1
  Ni  Ni17  1  0.45947000  0.53367400  0.25000000  1
  Ni  Ni18  1  0.04921300  0.78120700  0.75000000  1
  Ni  Ni19  1  0.21879300  0.26800600  0.75000000  1
  Ni  Ni20  1  0.73199400  0.95078700  0.75000000  1
  Ni  Ni21  1  0.95078700  0.21879300  0.25000000  1
  Ni  Ni22  1  0.78120700  0.73199400  0.25000000  1
  Ni  Ni23  1  0.26800600  0.04921300  0.25000000  1
  Ni  Ni24  1  0.73479500  0.58645700  0.75000000  1
  Ni  Ni25  1  0.41354300  0.14833800  0.75000000  1
  Ni  Ni26  1  0.85166200  0.26520500  0.75000000  1
  Ni  Ni27  1  0.26520500  0.41354300  0.25000000  1
  Ni  Ni28  1  0.58645700  0.85166200  0.25000000  1
  Ni  Ni29  1  0.14833800  0.73479500  0.25000000  1
  Ni  Ni30  1  0.10032100  0.97150400  0.75000000  1
  Ni  Ni31  1  0.02849600  0.12881700  0.75000000  1
  Ni  Ni32  1  0.87118300  0.89967900  0.75000000  1
  Ni  Ni33  1  0.89967900  0.02849600  0.25000000  1
  Ni  Ni34  1  0.97150400  0.87118300  0.25000000  1
  Ni  Ni35  1  0.12881700  0.10032100  0.25000000  1
  Cu  Cu36  1  0.68178300  0.23856900  0.75000000  1
  Cu  Cu37  1  0.76143100  0.44321400  0.75000000  1
  Cu  Cu38  1  0.55678600  0.31821700  0.75000000  1
  Cu  Cu39  1  0.31821700  0.76143100  0.25000000  1
  Cu  Cu40  1  0.23856900  0.55678600  0.25000000  1
  Cu  Cu41  1  0.44321400  0.68178300  0.25000000  1
  Cu  Cu42  1  0.88262100  0.75161100  0.75000000  1
  Cu  Cu43  1  0.24838900  0.13101000  0.75000000  1
  Cu  Cu44  1  0.86899000  0.11737900  0.75000000  1
  Cu  Cu45  1  0.11737900  0.24838900  0.25000000  1
  Cu  Cu46  1  0.75161100  0.86899000  0.25000000  1
  Cu  Cu47  1  0.13101000  0.88262100  0.25000000  1
  Cu  Cu48  1  0.06230500  0.63030500  0.75000000  1
  Cu  Cu49  1  0.36969500  0.43200000  0.75000000  1
  Cu  Cu50  1  0.56800000  0.93769500  0.75000000  1
  Cu  Cu51  1  0.93769500  0.36969500  0.25000000  1
  Cu  Cu52  1  0.63030500  0.56800000  0.25000000  1
  Cu  Cu53  1  0.43200000  0.06230500  0.25000000  1
