# generated using pymatgen
data_Cu2(NiC2)3
_symmetry_space_group_name_H-M   'P 1'
_cell_length_a   8.18734023
_cell_length_b   8.18734023
_cell_length_c   8.18734091
_cell_angle_alpha   54.39838888
_cell_angle_beta   54.39838888
_cell_angle_gamma   54.39839101
_symmetry_Int_Tables_number   1
_chemical_formula_structural   Cu2(NiC2)3
_chemical_formula_sum   'Cu2 Ni3 C6'
_cell_volume   337.37367296
_cell_formula_units_Z   1
loop_
 _symmetry_equiv_pos_site_id
 _symmetry_equiv_pos_as_xyz
  1  'x, y, z'
loop_
 _atom_site_type_symbol
 _atom_site_label
 _atom_site_symmetry_multiplicity
 _atom_site_fract_x
 _atom_site_fract_y
 _atom_site_fract_z
 _atom_site_occupancy
  Ni  Ni0  1  0.16096800  0.48041100  0.85699800  1
  Ni  Ni1  1  0.48041100  0.85699800  0.16096800  1
  Ni  Ni2  1  0.85699800  0.16096800  0.48041100  1
  Cu  Cu3  1  0.66642400  0.66642400  0.66642400  1
  Cu  Cu4  1  0.00269600  0.00269600  0.00269600  1
  C  C5  1  0.04753700  0.37154800  0.69237100  1
  C  C6  1  0.37154800  0.69237100  0.04753700  1
  C  C7  1  0.69237100  0.04753700  0.37154800  1
  C  C8  1  0.87539500  0.87539500  0.87539500  1
  C  C9  1  0.22148000  0.22148000  0.22148000  1
  C  C10  1  0.53915900  0.53915900  0.53915900  1
