# generated using pymatgen
data_Cu(Ni3C2)4
_symmetry_space_group_name_H-M   'P 1'
_cell_length_a   9.85312340
_cell_length_b   9.85312340
_cell_length_c   7.31697300
_cell_angle_alpha   90.00000000
_cell_angle_beta   90.00000000
_cell_angle_gamma   119.99999598
_symmetry_Int_Tables_number   1
_chemical_formula_structural   Cu(Ni3C2)4
_chemical_formula_sum   'Cu2 Ni24 C16'
_cell_volume   615.19096095
_cell_formula_units_Z   2
loop_
 _symmetry_equiv_pos_site_id
 _symmetry_equiv_pos_as_xyz
  1  'x, y, z'
loop_
 _atom_site_type_symbol
 _atom_site_label
 _atom_site_symmetry_multiplicity
 _atom_site_fract_x
 _atom_site_fract_y
 _atom_site_fract_z
 _atom_site_occupancy
  C  C0  1  0.33333300  0.66666700  0.99979700  1
  C  C1  1  0.66666700  0.33333300  0.00020300  1
  C  C2  1  0.66666700  0.33333300  0.49979700  1
  C  C3  1  0.33333300  0.66666700  0.50020300  1
  C  C4  1  0.74812300  0.75824200  0.75000000  1
  C  C5  1  0.25187700  0.24175800  0.25000000  1
  C  C6  1  0.01011900  0.25187700  0.75000000  1
  C  C7  1  0.98988100  0.74812300  0.25000000  1
  C  C8  1  0.24175800  0.98988100  0.75000000  1
  C  C9  1  0.75824200  0.01011900  0.25000000  1
  C  C10  1  0.96987600  0.60163400  0.75000000  1
  C  C11  1  0.03012400  0.39836600  0.25000000  1
  C  C12  1  0.63175800  0.03012400  0.75000000  1
  C  C13  1  0.36824200  0.96987600  0.25000000  1
  C  C14  1  0.39836600  0.36824200  0.75000000  1
  C  C15  1  0.60163400  0.63175800  0.25000000  1
  Ni  Ni16  1  0.52028300  0.84922200  0.75000000  1
  Ni  Ni17  1  0.47971700  0.15077800  0.25000000  1
  Ni  Ni18  1  0.32893900  0.47971700  0.75000000  1
  Ni  Ni19  1  0.67106100  0.52028300  0.25000000  1
  Ni  Ni20  1  0.15077800  0.67106100  0.75000000  1
  Ni  Ni21  1  0.84922200  0.32893900  0.25000000  1
  Ni  Ni22  1  0.88223500  0.41818400  0.75000000  1
  Ni  Ni23  1  0.11776500  0.58181600  0.25000000  1
  Ni  Ni24  1  0.53594800  0.11776500  0.75000000  1
  Ni  Ni25  1  0.46405200  0.88223500  0.25000000  1
  Ni  Ni26  1  0.58181600  0.46405200  0.75000000  1
  Ni  Ni27  1  0.41818400  0.53594800  0.25000000  1
  Ni  Ni28  1  0.91685900  0.65605700  0.92223300  1
  Ni  Ni29  1  0.08314100  0.34394300  0.07776700  1
  Ni  Ni30  1  0.73919700  0.08314100  0.92223300  1
  Ni  Ni31  1  0.08314100  0.34394300  0.42223300  1
  Ni  Ni32  1  0.26080300  0.91685900  0.07776700  1
  Ni  Ni33  1  0.91685900  0.65605700  0.57776700  1
  Ni  Ni34  1  0.34394300  0.26080300  0.92223300  1
  Ni  Ni35  1  0.26080300  0.91685900  0.42223300  1
  Ni  Ni36  1  0.65605700  0.73919700  0.07776700  1
  Ni  Ni37  1  0.73919700  0.08314100  0.57776700  1
  Ni  Ni38  1  0.65605700  0.73919700  0.42223300  1
  Ni  Ni39  1  0.34394300  0.26080300  0.57776700  1
  Cu  Cu40  1  0.00000000  0.00000000  0.75000000  1
  Cu  Cu41  1  0.00000000  0.00000000  0.25000000  1
