# generated using pymatgen
data_Cu2Ni2C
_symmetry_space_group_name_H-M   'P 1'
_cell_length_a   9.11919700
_cell_length_b   9.11919700
_cell_length_c   9.11919700
_cell_angle_alpha   90.00000000
_cell_angle_beta   90.00000000
_cell_angle_gamma   90.00000000
_symmetry_Int_Tables_number   1
_chemical_formula_structural   Cu2Ni2C
_chemical_formula_sum   'Cu16 Ni16 C8'
_cell_volume   758.35017851
_cell_formula_units_Z   8
loop_
 _symmetry_equiv_pos_site_id
 _symmetry_equiv_pos_as_xyz
  1  'x, y, z'
loop_
 _atom_site_type_symbol
 _atom_site_label
 _atom_site_symmetry_multiplicity
 _atom_site_fract_x
 _atom_site_fract_y
 _atom_site_fract_z
 _atom_site_occupancy
  C  C0  1  0.19007700  0.30992300  0.69007700  1
  C  C1  1  0.30992300  0.69007700  0.19007700  1
  C  C2  1  0.80992300  0.80992300  0.80992300  1
  C  C3  1  0.69007700  0.19007700  0.30992300  1
  C  C4  1  0.19789200  0.69789200  0.80210800  1
  C  C5  1  0.80210800  0.19789200  0.69789200  1
  C  C6  1  0.69789200  0.80210800  0.19789200  1
  C  C7  1  0.30210800  0.30210800  0.30210800  1
  Ni  Ni8  1  0.81275100  0.38481800  0.65420400  1
  Ni  Ni9  1  0.41314600  0.41314600  0.41314600  1
  Ni  Ni10  1  0.61518200  0.15420400  0.68724900  1
  Ni  Ni11  1  0.84579600  0.18724900  0.88481800  1
  Ni  Ni12  1  0.38481800  0.65420400  0.81275100  1
  Ni  Ni13  1  0.58685400  0.91314600  0.08685400  1
  Ni  Ni14  1  0.65420400  0.81275100  0.38481800  1
  Ni  Ni15  1  0.31275100  0.11518200  0.34579600  1
  Ni  Ni16  1  0.68724900  0.61518200  0.15420400  1
  Ni  Ni17  1  0.88481800  0.84579600  0.18724900  1
  Ni  Ni18  1  0.18724900  0.88481800  0.84579600  1
  Ni  Ni19  1  0.11518200  0.34579600  0.31275100  1
  Ni  Ni20  1  0.91314600  0.08685400  0.58685400  1
  Ni  Ni21  1  0.15420400  0.68724900  0.61518200  1
  Ni  Ni22  1  0.34579600  0.31275100  0.11518200  1
  Ni  Ni23  1  0.08685400  0.58685400  0.91314600  1
  Cu  Cu24  1  0.98904900  0.36851800  0.31785800  1
  Cu  Cu25  1  0.01095100  0.86851800  0.18214200  1
  Cu  Cu26  1  0.48745600  0.48745600  0.48745600  1
  Cu  Cu27  1  0.18214200  0.01095100  0.86851800  1
  Cu  Cu28  1  0.63148200  0.81785800  0.51095100  1
  Cu  Cu29  1  0.68214200  0.48904900  0.13148200  1
  Cu  Cu30  1  0.51095100  0.63148200  0.81785800  1
  Cu  Cu31  1  0.98745600  0.01254400  0.51254400  1
  Cu  Cu32  1  0.81785800  0.51095100  0.63148200  1
  Cu  Cu33  1  0.01254400  0.51254400  0.98745600  1
  Cu  Cu34  1  0.48904900  0.13148200  0.68214200  1
  Cu  Cu35  1  0.31785800  0.98904900  0.36851800  1
  Cu  Cu36  1  0.51254400  0.98745600  0.01254400  1
  Cu  Cu37  1  0.86851800  0.18214200  0.01095100  1
  Cu  Cu38  1  0.13148200  0.68214200  0.48904900  1
  Cu  Cu39  1  0.36851800  0.31785800  0.98904900  1
