# generated using pymatgen
data_Cu149Ni
_symmetry_space_group_name_H-M   'P 1'
_cell_length_a   15.94676590
_cell_length_b   15.94677140
_cell_length_c   15.59871713
_cell_angle_alpha   90.00000000
_cell_angle_beta   90.00000000
_cell_angle_gamma   120.00001141
_symmetry_Int_Tables_number   1
_chemical_formula_structural   Cu149Ni
_chemical_formula_sum   'Cu149 Ni1'
_cell_volume   3435.30144216
_cell_formula_units_Z   1
loop_
 _symmetry_equiv_pos_site_id
 _symmetry_equiv_pos_as_xyz
  1  'x, y, z'
loop_
 _atom_site_type_symbol
 _atom_site_label
 _atom_site_symmetry_multiplicity
 _atom_site_fract_x
 _atom_site_fract_y
 _atom_site_fract_z
 _atom_site_occupancy
  Ni  Ni0  1  -0.00000000  -0.00000000  0.00000000  1
  Cu  Cu1  1  0.60143723  0.00010455  -0.00000000  1
  Cu  Cu2  1  0.39866732  0.00010455  -0.00000000  1
  Cu  Cu3  1  0.19732698  0.19863379  -0.00000000  1
  Cu  Cu4  1  0.00130681  0.19863379  0.00000000  1
  Cu  Cu5  1  0.59977165  0.19954431  0.00000000  1
  Cu  Cu6  1  0.79973603  0.20026397  -0.00000000  1
  Cu  Cu7  1  0.40052894  0.20026497  -0.00000000  1
  Cu  Cu8  1  0.39866732  0.39856277  0.00000000  1
  Cu  Cu9  1  0.99989545  0.39856277  0.00000000  1
  Cu  Cu10  1  0.59977165  0.40022735  -0.00000000  1
  Cu  Cu11  1  0.80045569  0.40022735  -0.00000000  1
  Cu  Cu12  1  0.20051283  0.40102465  0.00000000  1
  Cu  Cu13  1  0.79973603  0.59947106  0.00000000  1
  Cu  Cu14  1  0.40002138  0.59997762  -0.00000000  1
  Cu  Cu15  1  0.19995624  0.59997862  0.00000000  1
  Cu  Cu16  1  0.99989545  0.60133268  0.00000000  1
  Cu  Cu17  1  0.60143723  0.60133268  -0.00000000  1
  Cu  Cu18  1  0.59897535  0.79948817  -0.00000000  1
  Cu  Cu19  1  0.20051283  0.79948817  -0.00000000  1
  Cu  Cu20  1  0.40002138  0.80004376  0.00000000  1
  Cu  Cu21  1  0.80136721  0.80267302  0.00000000  1
  Cu  Cu22  1  0.00130681  0.80267302  0.00000000  1
  Cu  Cu23  1  0.80136721  0.99869319  0.00000000  1
  Cu  Cu24  1  0.19732698  0.99869419  0.00000000  1
  Cu  Cu25  1  0.06604713  0.13209427  0.16472695  1
  Cu  Cu26  1  0.86790673  0.93395287  0.16472695  1
  Cu  Cu27  1  0.06604713  0.93395287  0.16472695  1
  Cu  Cu28  1  0.26549388  0.13274694  0.16537577  1
  Cu  Cu29  1  0.86725306  0.13274694  0.16537577  1
  Cu  Cu30  1  0.86725306  0.73450612  0.16537577  1
  Cu  Cu31  1  0.66666600  0.33333300  0.16618406  1
  Cu  Cu32  1  0.46592377  0.13304509  0.16656574  1
  Cu  Cu33  1  0.66712033  0.13304509  0.16656574  1
  Cu  Cu34  1  0.46592377  0.33287967  0.16656574  1
  Cu  Cu35  1  0.86695491  0.33287967  0.16656574  1
  Cu  Cu36  1  0.66712033  0.53407523  0.16656574  1
  Cu  Cu37  1  0.86695491  0.53407623  0.16656574  1
  Cu  Cu38  1  0.06664566  0.53332283  0.16676565  1
  Cu  Cu39  1  0.46667717  0.53332283  0.16676565  1
  Cu  Cu40  1  0.46667717  0.93335534  0.16676565  1
  Cu  Cu41  1  0.26669731  0.33427760  0.16694745  1
  Cu  Cu42  1  0.06758029  0.33427760  0.16694745  1
  Cu  Cu43  1  0.66572140  0.73330169  0.16694745  1
  Cu  Cu44  1  0.06758029  0.73330269  0.16694745  1
  Cu  Cu45  1  0.66572140  0.93241971  0.16694745  1
  Cu  Cu46  1  0.26669731  0.93241971  0.16694745  1
  Cu  Cu47  1  0.26695324  0.53390648  0.16707975  1
  Cu  Cu48  1  0.26695324  0.73304676  0.16707975  1
  Cu  Cu49  1  0.46609352  0.73304676  0.16707975  1
  Cu  Cu50  1  0.19967211  0.19989862  0.33231345  1
  Cu  Cu51  1  0.00022752  0.19989962  0.33231345  1
  Cu  Cu52  1  0.00022752  0.80032789  0.33231345  1
  Cu  Cu53  1  0.80010138  0.80032889  0.33231345  1
  Cu  Cu54  1  0.19967211  0.99977248  0.33231345  1
  Cu  Cu55  1  0.80010138  0.99977248  0.33231345  1
  Cu  Cu56  1  0.59995215  0.19990431  0.33288259  1
  Cu  Cu57  1  0.59995215  0.40004785  0.33288259  1
  Cu  Cu58  1  0.80009569  0.40004785  0.33288259  1
  Cu  Cu59  1  0.80010712  0.19989288  0.33316451  1
  Cu  Cu60  1  0.39978677  0.19989288  0.33316451  1
  Cu  Cu61  1  0.80010712  0.60021423  0.33316451  1
  Cu  Cu62  1  0.60006006  0.00010140  0.33337773  1
  Cu  Cu63  1  0.40004234  0.00010140  0.33337773  1
  Cu  Cu64  1  0.99989860  0.39993994  0.33337773  1
  Cu  Cu65  1  0.40004234  0.39993994  0.33337773  1
  Cu  Cu66  1  0.60006006  0.59995866  0.33337773  1
  Cu  Cu67  1  0.99989860  0.59995866  0.33337773  1
  Cu  Cu68  1  0.40006479  0.59993421  0.33363516  1
  Cu  Cu69  1  0.19986943  0.59993521  0.33363516  1
  Cu  Cu70  1  0.40006479  0.80013057  0.33363516  1
  Cu  Cu71  1  0.20021061  0.40042123  0.33393461  1
  Cu  Cu72  1  0.20021061  0.79978939  0.33393461  1
  Cu  Cu73  1  0.59957877  0.79978939  0.33393461  1
  Cu  Cu74  1  -0.00000000  -0.00000000  0.33435423  1
  Cu  Cu75  1  0.86672714  0.13327286  0.50000000  1
  Cu  Cu76  1  0.26654571  0.13327286  0.50000000  1
  Cu  Cu77  1  0.06675779  0.13351558  0.50000000  1
  Cu  Cu78  1  0.46701234  0.13409782  0.50000000  1
  Cu  Cu79  1  0.66708548  0.13409782  0.50000000  1
  Cu  Cu80  1  0.86590218  0.33291352  0.50000000  1
  Cu  Cu81  1  0.46701234  0.33291452  0.50000000  1
  Cu  Cu82  1  0.26663026  0.33309055  0.50000000  1
  Cu  Cu83  1  0.06646029  0.33309055  0.50000000  1
  Cu  Cu84  1  0.66666600  0.33333300  0.50000000  1
  Cu  Cu85  1  0.66708548  0.53298766  0.50000000  1
  Cu  Cu86  1  0.86590218  0.53298766  0.50000000  1
  Cu  Cu87  1  0.06576530  0.53288265  0.50000000  1
  Cu  Cu88  1  0.46711735  0.53288265  0.50000000  1
  Cu  Cu89  1  0.26656746  0.53313591  0.50000000  1
  Cu  Cu90  1  0.06646029  0.73336974  0.50000000  1
  Cu  Cu91  1  0.66691045  0.73336974  0.50000000  1
  Cu  Cu92  1  0.46686409  0.73343254  0.50000000  1
  Cu  Cu93  1  0.26656746  0.73343254  0.50000000  1
  Cu  Cu94  1  0.86672714  0.73345429  0.50000000  1
  Cu  Cu95  1  0.06675779  0.93324221  0.50000000  1
  Cu  Cu96  1  0.86648442  0.93324221  0.50000000  1
  Cu  Cu97  1  0.26663026  0.93353971  0.50000000  1
  Cu  Cu98  1  0.66691045  0.93353971  0.50000000  1
  Cu  Cu99  1  0.46711735  0.93423370  0.50000000  1
  Cu  Cu100  1  -0.00000000  -0.00000000  0.66564577  1
  Cu  Cu101  1  0.20021061  0.40042123  0.66606639  1
  Cu  Cu102  1  0.20021061  0.79978939  0.66606639  1
  Cu  Cu103  1  0.59957877  0.79978939  0.66606639  1
  Cu  Cu104  1  0.40006479  0.59993421  0.66636484  1
  Cu  Cu105  1  0.19986943  0.59993521  0.66636484  1
  Cu  Cu106  1  0.40006479  0.80013057  0.66636484  1
  Cu  Cu107  1  0.60006006  0.00010140  0.66662227  1
  Cu  Cu108  1  0.40004234  0.00010140  0.66662227  1
  Cu  Cu109  1  0.99989860  0.39993994  0.66662227  1
  Cu  Cu110  1  0.40004234  0.39993994  0.66662227  1
  Cu  Cu111  1  0.60006006  0.59995866  0.66662227  1
  Cu  Cu112  1  0.99989860  0.59995866  0.66662227  1
  Cu  Cu113  1  0.80010712  0.19989288  0.66683549  1
  Cu  Cu114  1  0.39978677  0.19989288  0.66683549  1
  Cu  Cu115  1  0.80010712  0.60021423  0.66683549  1
  Cu  Cu116  1  0.59995215  0.19990431  0.66711741  1
  Cu  Cu117  1  0.59995215  0.40004785  0.66711741  1
  Cu  Cu118  1  0.80009569  0.40004785  0.66711741  1
  Cu  Cu119  1  0.19967211  0.19989862  0.66768555  1
  Cu  Cu120  1  0.00022752  0.19989962  0.66768555  1
  Cu  Cu121  1  0.00022752  0.80032789  0.66768555  1
  Cu  Cu122  1  0.80010138  0.80032889  0.66768555  1
  Cu  Cu123  1  0.19967211  0.99977248  0.66768555  1
  Cu  Cu124  1  0.80010138  0.99977248  0.66768555  1
  Cu  Cu125  1  0.26695324  0.53390648  0.83292025  1
  Cu  Cu126  1  0.26695324  0.73304676  0.83292025  1
  Cu  Cu127  1  0.46609352  0.73304676  0.83292025  1
  Cu  Cu128  1  0.26669731  0.33427760  0.83305255  1
  Cu  Cu129  1  0.06758029  0.33427760  0.83305255  1
  Cu  Cu130  1  0.66572140  0.73330169  0.83305255  1
  Cu  Cu131  1  0.06758029  0.73330269  0.83305255  1
  Cu  Cu132  1  0.66572140  0.93241971  0.83305255  1
  Cu  Cu133  1  0.26669731  0.93241971  0.83305255  1
  Cu  Cu134  1  0.06664566  0.53332283  0.83323535  1
  Cu  Cu135  1  0.46667717  0.53332283  0.83323535  1
  Cu  Cu136  1  0.46667717  0.93335534  0.83323535  1
  Cu  Cu137  1  0.46592377  0.13304509  0.83343526  1
  Cu  Cu138  1  0.66712033  0.13304509  0.83343526  1
  Cu  Cu139  1  0.46592377  0.33287967  0.83343526  1
  Cu  Cu140  1  0.86695491  0.33287967  0.83343526  1
  Cu  Cu141  1  0.66712033  0.53407523  0.83343526  1
  Cu  Cu142  1  0.86695491  0.53407623  0.83343526  1
  Cu  Cu143  1  0.66666600  0.33333300  0.83381594  1
  Cu  Cu144  1  0.26549388  0.13274694  0.83462423  1
  Cu  Cu145  1  0.86725306  0.13274694  0.83462423  1
  Cu  Cu146  1  0.86725306  0.73450612  0.83462423  1
  Cu  Cu147  1  0.06604713  0.13209427  0.83527305  1
  Cu  Cu148  1  0.86790673  0.93395287  0.83527305  1
  Cu  Cu149  1  0.06604713  0.93395287  0.83527305  1
