# generated using pymatgen
data_Cu2(Ni2C15)3
_symmetry_space_group_name_H-M   'P 1'
_cell_length_a   9.39683444
_cell_length_b   9.39683444
_cell_length_c   9.39683440
_cell_angle_alpha   88.42155051
_cell_angle_beta   88.42155051
_cell_angle_gamma   88.42155290
_symmetry_Int_Tables_number   1
_chemical_formula_structural   Cu2(Ni2C15)3
_chemical_formula_sum   'Cu2 Ni6 C45'
_cell_volume   828.81760702
_cell_formula_units_Z   1
loop_
 _symmetry_equiv_pos_site_id
 _symmetry_equiv_pos_as_xyz
  1  'x, y, z'
loop_
 _atom_site_type_symbol
 _atom_site_label
 _atom_site_symmetry_multiplicity
 _atom_site_fract_x
 _atom_site_fract_y
 _atom_site_fract_z
 _atom_site_occupancy
  Ni  Ni0  1  0.35796300  0.35753600  0.86541900  1
  Ni  Ni1  1  0.35753600  0.86541900  0.35796300  1
  Ni  Ni2  1  0.64203700  0.13458100  0.64246400  1
  Ni  Ni3  1  0.86541900  0.35796300  0.35753600  1
  Ni  Ni4  1  0.64246400  0.64203700  0.13458100  1
  Ni  Ni5  1  0.13458100  0.64246400  0.64203700  1
  Cu  Cu6  1  0.24649300  0.24649300  0.24649300  1
  Cu  Cu7  1  0.75350700  0.75350700  0.75350700  1
  C  C8  1  0.23484000  0.76516000  0.00000000  1
  C  C9  1  0.76516000  0.00000000  0.23484000  1
  C  C10  1  0.00000000  0.23484000  0.76516000  1
  C  C11  1  0.00000000  0.00000000  0.00000000  1
  C  C12  1  0.75128400  0.24871600  0.00000000  1
  C  C13  1  0.24871600  0.00000000  0.75128400  1
  C  C14  1  0.00000000  0.75128400  0.24871600  1
  C  C15  1  0.10941000  0.46722300  0.10855400  1
  C  C16  1  0.46722300  0.10855400  0.10941000  1
  C  C17  1  0.89059000  0.89144600  0.53277700  1
  C  C18  1  0.10855400  0.10941000  0.46722300  1
  C  C19  1  0.53277700  0.89059000  0.89144600  1
  C  C20  1  0.89144600  0.53277700  0.89059000  1
  C  C21  1  0.43380200  0.41461000  0.24969100  1
  C  C22  1  0.41461000  0.24969100  0.43380200  1
  C  C23  1  0.56619800  0.75030900  0.58539000  1
  C  C24  1  0.24969100  0.43380200  0.41461000  1
  C  C25  1  0.58539000  0.56619800  0.75030900  1
  C  C26  1  0.75030900  0.58539000  0.56619800  1
  C  C27  1  0.39994400  0.39994400  0.39994400  1
  C  C28  1  0.60005600  0.60005600  0.60005600  1
  C  C29  1  0.90006500  0.39740300  0.90503600  1
  C  C30  1  0.39740300  0.90503600  0.90006500  1
  C  C31  1  0.09993500  0.09496400  0.60259700  1
  C  C32  1  0.90503600  0.90006500  0.39740300  1
  C  C33  1  0.60259700  0.09993500  0.09496400  1
  C  C34  1  0.09496400  0.60259700  0.09993500  1
  C  C35  1  0.36713100  0.12928200  0.70651500  1
  C  C36  1  0.12928200  0.70651500  0.36713100  1
  C  C37  1  0.63286900  0.29348500  0.87071800  1
  C  C38  1  0.70651500  0.36713100  0.12928200  1
  C  C39  1  0.87071800  0.63286900  0.29348500  1
  C  C40  1  0.29348500  0.87071800  0.63286900  1
  C  C41  1  0.13469400  0.13390500  0.88670900  1
  C  C42  1  0.13390500  0.88670900  0.13469400  1
  C  C43  1  0.86530600  0.11329100  0.86609500  1
  C  C44  1  0.88670900  0.13469400  0.13390500  1
  C  C45  1  0.86609500  0.86530600  0.11329100  1
  C  C46  1  0.11329100  0.86609500  0.86530600  1
  C  C47  1  0.11262400  0.36503200  0.69246700  1
  C  C48  1  0.36503200  0.69246700  0.11262400  1
  C  C49  1  0.88737600  0.30753300  0.63496800  1
  C  C50  1  0.69246700  0.11262400  0.36503200  1
  C  C51  1  0.63496800  0.88737600  0.30753300  1
  C  C52  1  0.30753300  0.63496800  0.88737600  1
