# generated using pymatgen
data_CuNiC
_symmetry_space_group_name_H-M   'P 1'
_cell_length_a   7.71448549
_cell_length_b   7.71448549
_cell_length_c   7.71448549
_cell_angle_alpha   60.00000000
_cell_angle_beta   60.00000000
_cell_angle_gamma   60.00000000
_symmetry_Int_Tables_number   1
_chemical_formula_structural   CuNiC
_chemical_formula_sum   'Cu6 Ni6 C6'
_cell_volume   324.64289381
_cell_formula_units_Z   6
loop_
 _symmetry_equiv_pos_site_id
 _symmetry_equiv_pos_as_xyz
  1  'x, y, z'
loop_
 _atom_site_type_symbol
 _atom_site_label
 _atom_site_symmetry_multiplicity
 _atom_site_fract_x
 _atom_site_fract_y
 _atom_site_fract_z
 _atom_site_occupancy
  C  C0  1  0.00000000  0.00000000  0.00000000  1
  C  C1  1  0.50000000  0.50000000  0.50000000  1
  Ni  Ni2  1  0.70129700  0.70129700  0.29870300  1
  Ni  Ni3  1  0.29870300  0.70129700  0.29870300  1
  Ni  Ni4  1  0.70129700  0.29870300  0.29870300  1
  Ni  Ni5  1  0.29870300  0.29870300  0.70129700  1
  Ni  Ni6  1  0.70129700  0.29870300  0.70129700  1
  Ni  Ni7  1  0.29870300  0.70129700  0.70129700  1
  Cu  Cu8  1  0.80864400  0.80864400  0.19135600  1
  Cu  Cu9  1  0.19135600  0.80864400  0.19135600  1
  Cu  Cu10  1  0.80864400  0.19135600  0.19135600  1
  Cu  Cu11  1  0.19135600  0.19135600  0.80864400  1
  Cu  Cu12  1  0.80864400  0.19135600  0.80864400  1
  Cu  Cu13  1  0.19135600  0.80864400  0.80864400  1
  C  C14  1  0.69129400  0.69129400  0.92611800  1
  C  C15  1  0.69129400  0.92611800  0.69129400  1
  C  C16  1  0.92611800  0.69129400  0.69129400  1
  C  C17  1  0.69129400  0.69129400  0.69129400  1
