# generated using pymatgen
data_CuNiC9
_symmetry_space_group_name_H-M   'P 1'
_cell_length_a   7.31710818
_cell_length_b   7.31710818
_cell_length_c   7.31710818
_cell_angle_alpha   120.87648097
_cell_angle_beta   118.53906242
_cell_angle_gamma   90.51871810
_symmetry_Int_Tables_number   1
_chemical_formula_structural   CuNiC9
_chemical_formula_sum   'Cu2 Ni2 C18'
_cell_volume   278.08321194
_cell_formula_units_Z   2
loop_
 _symmetry_equiv_pos_site_id
 _symmetry_equiv_pos_as_xyz
  1  'x, y, z'
loop_
 _atom_site_type_symbol
 _atom_site_label
 _atom_site_symmetry_multiplicity
 _atom_site_fract_x
 _atom_site_fract_y
 _atom_site_fract_z
 _atom_site_occupancy
  C  C0  1  0.50000000  0.00000000  0.50000000  1
  C  C1  1  0.00000000  0.00000000  0.00000000  1
  Ni  Ni2  1  0.00000000  0.50000000  0.00000000  1
  Ni  Ni3  1  0.00000000  0.00000000  0.50000000  1
  Cu  Cu4  1  0.50000000  0.00000000  0.00000000  1
  Cu  Cu5  1  0.50000000  0.50000000  0.50000000  1
  C  C6  1  0.00000000  0.50000000  0.50000000  1
  C  C7  1  0.50000000  0.50000000  0.00000000  1
  C  C8  1  0.92685200  0.17685200  0.75000000  1
  C  C9  1  0.32839500  0.57839500  0.75000000  1
  C  C10  1  0.93477500  0.58170500  0.76093700  1
  C  C11  1  0.32076800  0.17383800  0.73906300  1
  C  C12  1  0.93477500  0.17383800  0.35307000  1
  C  C13  1  0.32076800  0.58170500  0.14693000  1
  C  C14  1  0.07314800  0.82314800  0.25000000  1
  C  C15  1  0.67160500  0.42160500  0.25000000  1
  C  C16  1  0.06522500  0.41829500  0.23906300  1
  C  C17  1  0.67923200  0.82616200  0.26093700  1
  C  C18  1  0.06522500  0.82616200  0.64693000  1
  C  C19  1  0.67923200  0.41829500  0.85307000  1
  C  C20  1  0.62554500  0.87554500  0.75000000  1
  C  C21  1  0.37445500  0.12445500  0.25000000  1
