# generated using pymatgen
data_Cu6Ni6C49
_symmetry_space_group_name_H-M   'P 1'
_cell_length_a   13.26043584
_cell_length_b   13.26094371
_cell_length_c   18.81905721
_cell_angle_alpha   90.00000000
_cell_angle_beta   90.00000000
_cell_angle_gamma   94.29636325
_symmetry_Int_Tables_number   1
_chemical_formula_structural   Cu6Ni6C49
_chemical_formula_sum   'Cu24 Ni24 C196'
_cell_volume   3299.95456058
_cell_formula_units_Z   4
loop_
 _symmetry_equiv_pos_site_id
 _symmetry_equiv_pos_as_xyz
  1  'x, y, z'
loop_
 _atom_site_type_symbol
 _atom_site_label
 _atom_site_symmetry_multiplicity
 _atom_site_fract_x
 _atom_site_fract_y
 _atom_site_fract_z
 _atom_site_occupancy
  C  C0  1  0.15149676  0.21395421  0.25409180  1
  C  C1  1  0.65149676  0.71395421  0.24590820  1
  C  C2  1  0.84850324  0.78604579  0.74590820  1
  C  C3  1  0.34850324  0.28604579  0.75409180  1
  C  C4  1  0.34562383  0.10759240  0.23509803  1
  C  C5  1  0.84562383  0.60759240  0.26490197  1
  C  C6  1  0.65437617  0.89240760  0.76490197  1
  C  C7  1  0.15437617  0.39240760  0.73509803  1
  C  C8  1  0.36010179  0.22096567  0.20580713  1
  C  C9  1  0.86010179  0.72096567  0.29419287  1
  C  C10  1  0.63989821  0.77903433  0.79419287  1
  C  C11  1  0.13989821  0.27903433  0.70580713  1
  C  C12  1  0.10714585  0.18886814  0.41116682  1
  C  C13  1  0.60714585  0.68886814  0.08883318  1
  C  C14  1  0.89285415  0.81113186  0.58883318  1
  C  C15  1  0.39285415  0.31113186  0.91116682  1
  C  C16  1  0.21554272  0.24545673  0.40311231  1
  C  C17  1  0.71554272  0.74545673  0.09688769  1
  C  C18  1  0.78445728  0.75454327  0.59688769  1
  C  C19  1  0.28445728  0.25454327  0.90311231  1
  C  C20  1  0.18236333  0.99083884  0.25318858  1
  C  C21  1  0.68236333  0.49083884  0.24681142  1
  C  C22  1  0.81763667  0.00916116  0.74681142  1
  C  C23  1  0.31763667  0.50916116  0.75318858  1
  C  C24  1  0.13016132  0.01272336  0.32755380  1
  C  C25  1  0.63016132  0.51272336  0.17244620  1
  C  C26  1  0.86983868  0.98727664  0.67244620  1
  C  C27  1  0.36983868  0.48727664  0.82755380  1
  C  C28  1  0.96513257  0.07704660  0.27667281  1
  C  C29  1  0.46513257  0.57704660  0.22332719  1
  C  C30  1  0.03486743  0.92295340  0.72332719  1
  C  C31  1  0.53486743  0.42295340  0.77667281  1
  C  C32  1  0.93586786  0.18587254  0.30198783  1
  C  C33  1  0.43586786  0.68587254  0.19801217  1
  C  C34  1  0.06413214  0.81412746  0.69801217  1
  C  C35  1  0.56413214  0.31412746  0.80198783  1
  C  C36  1  0.09451513  0.14695800  0.10715931  1
  C  C37  1  0.59451513  0.64695800  0.39284069  1
  C  C38  1  0.90548487  0.85304200  0.89284069  1
  C  C39  1  0.40548487  0.35304200  0.60715931  1
  C  C40  1  0.06962573  0.05088095  0.15403554  1
  C  C41  1  0.56962573  0.55088095  0.34596446  1
  C  C42  1  0.93037427  0.94911905  0.84596446  1
  C  C43  1  0.43037427  0.44911905  0.65403554  1
  Ni  Ni44  1  0.27787186  0.52705614  0.36345327  1
  Ni  Ni45  1  0.77787186  0.02705614  0.13654673  1
  Ni  Ni46  1  0.72212814  0.47294386  0.63654673  1
  Ni  Ni47  1  0.22212814  0.97294386  0.86345327  1
  Ni  Ni48  1  0.51877443  0.23675321  0.40421265  1
  Ni  Ni49  1  0.01877443  0.73675321  0.09578735  1
  Ni  Ni50  1  0.48122557  0.76324679  0.59578735  1
  Ni  Ni51  1  0.98122557  0.26324679  0.90421265  1
  Ni  Ni52  1  0.25898947  0.48390258  0.09083145  1
  Ni  Ni53  1  0.75898947  0.98390258  0.40916855  1
  Ni  Ni54  1  0.74101053  0.51609742  0.90916855  1
  Ni  Ni55  1  0.24101053  0.01609742  0.59083145  1
  Ni  Ni56  1  0.56117781  0.25328765  0.11552432  1
  Ni  Ni57  1  0.06117781  0.75328765  0.38447568  1
  Ni  Ni58  1  0.43882219  0.74671235  0.88447568  1
  Ni  Ni59  1  0.93882219  0.24671235  0.61552432  1
  Ni  Ni60  1  0.91499497  0.38378993  0.14520369  1
  Ni  Ni61  1  0.41499497  0.88378993  0.35479631  1
  Ni  Ni62  1  0.08500503  0.61621007  0.85479631  1
  Ni  Ni63  1  0.58500503  0.11621007  0.64520369  1
  Ni  Ni64  1  0.85498492  0.42893976  0.41780624  1
  Ni  Ni65  1  0.35498492  0.92893976  0.08219376  1
  Ni  Ni66  1  0.14501508  0.57106024  0.58219376  1
  Ni  Ni67  1  0.64501508  0.07106024  0.91780624  1
  Cu  Cu68  1  0.33822105  0.41359779  0.32906491  1
  Cu  Cu69  1  0.83822105  0.91359779  0.17093509  1
  Cu  Cu70  1  0.66177895  0.58640221  0.67093509  1
  Cu  Cu71  1  0.16177895  0.08640221  0.82906491  1
  Cu  Cu72  1  0.46173218  0.35119975  0.44082932  1
  Cu  Cu73  1  0.96173218  0.85119975  0.05917068  1
  Cu  Cu74  1  0.53826782  0.64880025  0.55917068  1
  Cu  Cu75  1  0.03826782  0.14880025  0.94082932  1
  Cu  Cu76  1  0.27581538  0.34463157  0.09264335  1
  Cu  Cu77  1  0.77581538  0.84463157  0.40735665  1
  Cu  Cu78  1  0.72418462  0.65536843  0.90735665  1
  Cu  Cu79  1  0.22418462  0.15536843  0.59264335  1
  Cu  Cu80  1  0.48811712  0.35562862  0.07759668  1
  Cu  Cu81  1  0.98811712  0.85562862  0.42240332  1
  Cu  Cu82  1  0.51188288  0.64437138  0.92240332  1
  Cu  Cu83  1  0.01188288  0.14437138  0.57759668  1
  Cu  Cu84  1  0.98282958  0.42790664  0.22831187  1
  Cu  Cu85  1  0.48282958  0.92790664  0.27168813  1
  Cu  Cu86  1  0.01717042  0.57209336  0.77168813  1
  Cu  Cu87  1  0.51717042  0.07209336  0.72831187  1
  Cu  Cu88  1  0.82172031  0.38224118  0.32631386  1
  Cu  Cu89  1  0.32172031  0.88224118  0.17368614  1
  Cu  Cu90  1  0.17827969  0.61775882  0.67368614  1
  Cu  Cu91  1  0.67827969  0.11775882  0.82631386  1
  C  C92  1  0.35633092  0.34811361  0.39712707  1
  C  C93  1  0.85633092  0.84811361  0.10287293  1
  C  C94  1  0.64366908  0.65188639  0.60287293  1
  C  C95  1  0.14366908  0.15188639  0.89712707  1
  C  C96  1  0.38579545  0.33446337  0.12351998  1
  C  C97  1  0.88579545  0.83446337  0.37648002  1
  C  C98  1  0.61420455  0.66553663  0.87648002  1
  C  C99  1  0.11420455  0.16553663  0.62351998  1
  C  C100  1  0.89392455  0.45736978  0.27877274  1
  C  C101  1  0.39392455  0.95736978  0.22122726  1
  C  C102  1  0.10607545  0.54263022  0.72122726  1
  C  C103  1  0.60607545  0.04263022  0.77877274  1
  C  C104  1  0.31686506  0.17381694  0.23476444  1
  C  C105  1  0.81686506  0.67381694  0.26523556  1
  C  C106  1  0.68313494  0.82618306  0.76523556  1
  C  C107  1  0.18313494  0.32618306  0.73476444  1
  C  C108  1  0.15582017  0.21866282  0.37646285  1
  C  C109  1  0.65582017  0.71866282  0.12353715  1
  C  C110  1  0.84417983  0.78133718  0.62353715  1
  C  C111  1  0.34417983  0.28133718  0.87646285  1
  C  C112  1  0.16508079  0.04472195  0.28635842  1
  C  C113  1  0.66508079  0.54472195  0.21364158  1
  C  C114  1  0.83491921  0.95527805  0.71364158  1
  C  C115  1  0.33491921  0.45527805  0.78635842  1
  C  C116  1  0.99253178  0.14400941  0.29220687  1
  C  C117  1  0.49253178  0.64400941  0.20779313  1
  C  C118  1  0.00746822  0.85599059  0.70779313  1
  C  C119  1  0.50746822  0.35599059  0.79220687  1
  C  C120  1  0.09780165  0.12123604  0.15614981  1
  C  C121  1  0.59780165  0.62123604  0.34385019  1
  C  C122  1  0.90219835  0.87876396  0.84385019  1
  C  C123  1  0.40219835  0.37876396  0.65614981  1
  C  C124  1  0.25682413  0.36071175  0.28806100  1
  C  C125  1  0.75682413  0.86071175  0.21193900  1
  C  C126  1  0.74317587  0.63928825  0.71193900  1
  C  C127  1  0.24317587  0.13928825  0.78806100  1
  C  C128  1  0.42528867  0.45532750  0.28953816  1
  C  C129  1  0.92528867  0.95532750  0.21046184  1
  C  C130  1  0.57471133  0.54467250  0.71046184  1
  C  C131  1  0.07471133  0.04467250  0.78953816  1
  C  C132  1  0.43881668  0.32607330  0.51388117  1
  C  C133  1  0.93881668  0.82607330  0.98611883  1
  C  C134  1  0.56118332  0.67392670  0.48611883  1
  C  C135  1  0.06118332  0.17392670  0.01388117  1
  C  C136  1  0.53311621  0.43541956  0.42448184  1
  C  C137  1  0.03311621  0.93541956  0.07551816  1
  C  C138  1  0.46688379  0.56458044  0.57551816  1
  C  C139  1  0.96688379  0.06458044  0.92448184  1
  C  C140  1  0.20450601  0.30471133  0.14689201  1
  C  C141  1  0.70450601  0.80471133  0.35310799  1
  C  C142  1  0.79549399  0.69528867  0.85310799  1
  C  C143  1  0.29549399  0.19528867  0.64689201  1
  C  C144  1  0.25746537  0.31311007  0.02031252  1
  C  C145  1  0.75746537  0.81311007  0.47968748  1
  C  C146  1  0.74253463  0.68688993  0.97968748  1
  C  C147  1  0.24253463  0.18688993  0.52031252  1
  C  C148  1  0.47887842  0.33502978  0.00227715  1
  C  C149  1  0.97887842  0.83502978  0.49772285  1
  C  C150  1  0.52112158  0.66497022  0.99772285  1
  C  C151  1  0.02112158  0.16497022  0.50227715  1
  C  C152  1  0.54496819  0.44755101  0.10003015  1
  C  C153  1  0.04496819  0.94755101  0.39996985  1
  C  C154  1  0.45503181  0.55244899  0.89996985  1
  C  C155  1  0.95503181  0.05244899  0.60003015  1
  C  C156  1  0.03354431  0.33830736  0.25049639  1
  C  C157  1  0.53354431  0.83830736  0.24950361  1
  C  C158  1  0.96645569  0.66169264  0.74950361  1
  C  C159  1  0.46645569  0.16169264  0.75049639  1
  C  C160  1  0.04452314  0.51741161  0.21022572  1
  C  C161  1  0.54452314  0.01741161  0.28977428  1
  C  C162  1  0.95547686  0.48258839  0.78977428  1
  C  C163  1  0.45547686  0.98258839  0.71022572  1
  C  C164  1  0.84342264  0.27681213  0.32640118  1
  C  C165  1  0.34342264  0.77681213  0.17359882  1
  C  C166  1  0.15657736  0.72318787  0.67359882  1
  C  C167  1  0.65657736  0.22318787  0.82640118  1
  C  C168  1  0.71829628  0.40697513  0.31572176  1
  C  C169  1  0.21829628  0.90697513  0.18427824  1
  C  C170  1  0.28170372  0.59302487  0.68427824  1
  C  C171  1  0.78170372  0.09302487  0.81572176  1
  C  C172  1  0.26090016  0.58843371  0.30815447  1
  C  C173  1  0.76090016  0.08843371  0.19184553  1
  C  C174  1  0.73909984  0.41156629  0.69184553  1
  C  C175  1  0.23909984  0.91156629  0.80815447  1
  C  C176  1  0.18944391  0.49992638  0.39605968  1
  C  C177  1  0.68944391  0.99992638  0.10394032  1
  C  C178  1  0.81055609  0.50007362  0.60394032  1
  C  C179  1  0.31055609  0.00007362  0.89605968  1
  C  C180  1  0.34111903  0.57659154  0.40997209  1
  C  C181  1  0.84111903  0.07659154  0.09002791  1
  C  C182  1  0.65888097  0.42340846  0.59002791  1
  C  C183  1  0.15888097  0.92340846  0.90997209  1
  C  C184  1  0.45868627  0.15290078  0.41894423  1
  C  C185  1  0.95868627  0.65290078  0.08105577  1
  C  C186  1  0.54131373  0.84709922  0.58105577  1
  C  C187  1  0.04131373  0.34709922  0.91894423  1
  C  C188  1  0.61014160  0.22968161  0.43468597  1
  C  C189  1  0.11014160  0.72968161  0.06531403  1
  C  C190  1  0.38985840  0.77031839  0.56531403  1
  C  C191  1  0.88985840  0.27031839  0.93468597  1
  C  C192  1  0.53030683  0.24530205  0.33324849  1
  C  C193  1  0.03030683  0.74530205  0.16675151  1
  C  C194  1  0.46969317  0.75469795  0.66675151  1
  C  C195  1  0.96969317  0.25469795  0.83324849  1
  C  C196  1  0.26974034  0.52454690  0.15626513  1
  C  C197  1  0.76974034  0.02454690  0.34373487  1
  C  C198  1  0.73025966  0.47545310  0.84373487  1
  C  C199  1  0.23025966  0.97545310  0.65626513  1
  C  C200  1  0.32999930  0.52879638  0.04741057  1
  C  C201  1  0.82999930  0.02879638  0.45258943  1
  C  C202  1  0.67000070  0.47120362  0.95258943  1
  C  C203  1  0.17000070  0.97120362  0.54741057  1
  C  C204  1  0.16659167  0.49906642  0.06522724  1
  C  C205  1  0.66659167  0.99906642  0.43477276  1
  C  C206  1  0.83340833  0.50093358  0.93477276  1
  C  C207  1  0.33340833  0.00093358  0.56522724  1
  C  C208  1  0.51441803  0.16093537  0.10337064  1
  C  C209  1  0.01441803  0.66093537  0.39662936  1
  C  C210  1  0.48558197  0.83906463  0.89662936  1
  C  C211  1  0.98558197  0.33906463  0.60337064  1
  C  C212  1  0.57271410  0.26640243  0.18635536  1
  C  C213  1  0.07271410  0.76640243  0.31364464  1
  C  C214  1  0.42728590  0.73359757  0.81364464  1
  C  C215  1  0.92728590  0.23359757  0.68635536  1
  C  C216  1  0.65293836  0.25928513  0.08425202  1
  C  C217  1  0.15293836  0.75928513  0.41574798  1
  C  C218  1  0.34706164  0.74071487  0.91574798  1
  C  C219  1  0.84706164  0.24071487  0.58425202  1
  C  C220  1  0.85264923  0.30055189  0.15877341  1
  C  C221  1  0.35264923  0.80055189  0.34122659  1
  C  C222  1  0.14735077  0.69944811  0.84122659  1
  C  C223  1  0.64735077  0.19944811  0.65877341  1
  C  C224  1  0.85965598  0.45744671  0.12057758  1
  C  C225  1  0.35965598  0.95744671  0.37942242  1
  C  C226  1  0.14034402  0.54255329  0.87942242  1
  C  C227  1  0.64034402  0.04255329  0.62057758  1
  C  C228  1  0.98366369  0.36104337  0.09630423  1
  C  C229  1  0.48366369  0.86104337  0.40369577  1
  C  C230  1  0.01633631  0.63895663  0.90369577  1
  C  C231  1  0.51633631  0.13895663  0.59630423  1
  C  C232  1  0.95449823  0.42194475  0.43029238  1
  C  C233  1  0.45449823  0.92194475  0.06970762  1
  C  C234  1  0.04550177  0.57805525  0.56970762  1
  C  C235  1  0.54550177  0.07805525  0.93029238  1
  C  C236  1  0.80055310  0.37103833  0.46478068  1
  C  C237  1  0.30055310  0.87103833  0.03521932  1
  C  C238  1  0.19944690  0.62896167  0.53521932  1
  C  C239  1  0.69944690  0.12896167  0.96478068  1
  C  C240  1  0.83299264  0.52617164  0.42494370  1
  C  C241  1  0.33299264  0.02617164  0.07505630  1
  C  C242  1  0.16700736  0.47382836  0.57505630  1
  C  C243  1  0.66700736  0.97382836  0.92494370  1
