# generated using pymatgen
data_Cu4NiC19
_symmetry_space_group_name_H-M   'P 1'
_cell_length_a   5.62698752
_cell_length_b   5.62698752
_cell_length_c   22.74947500
_cell_angle_alpha   90.00000000
_cell_angle_beta   90.00000000
_cell_angle_gamma   119.99999435
_symmetry_Int_Tables_number   1
_chemical_formula_structural   Cu4NiC19
_chemical_formula_sum   'Cu8 Ni2 C38'
_cell_volume   623.81230751
_cell_formula_units_Z   2
loop_
 _symmetry_equiv_pos_site_id
 _symmetry_equiv_pos_as_xyz
  1  'x, y, z'
loop_
 _atom_site_type_symbol
 _atom_site_label
 _atom_site_symmetry_multiplicity
 _atom_site_fract_x
 _atom_site_fract_y
 _atom_site_fract_z
 _atom_site_occupancy
  Ni  Ni0  1  0.66666700  0.33333300  0.45946700  1
  Ni  Ni1  1  0.66666700  0.33333300  0.95946700  1
  Cu  Cu2  1  0.66666700  0.33333300  0.14177200  1
  Cu  Cu3  1  0.66666700  0.33333300  0.64177200  1
  Cu  Cu4  1  0.33333300  0.66666700  0.85863300  1
  Cu  Cu5  1  0.33333300  0.66666700  0.35863300  1
  Cu  Cu6  1  0.00000000  0.00000000  0.25067100  1
  Cu  Cu7  1  0.00000000  0.00000000  0.75067100  1
  Cu  Cu8  1  0.33333300  0.66666700  0.53138800  1
  Cu  Cu9  1  0.33333300  0.66666700  0.03138800  1
  C  C10  1  0.00000000  0.00000000  0.09342000  1
  C  C11  1  0.00000000  0.00000000  0.59342000  1
  C  C12  1  0.00000000  0.00000000  0.90812500  1
  C  C13  1  0.00000000  0.00000000  0.40812500  1
  C  C14  1  0.66666700  0.33333300  0.30101600  1
  C  C15  1  0.66666700  0.33333300  0.80101600  1
  C  C16  1  0.33333300  0.66666700  0.69774900  1
  C  C17  1  0.33333300  0.66666700  0.19774900  1
  C  C18  1  0.56172400  0.00013300  0.24967000  1
  C  C19  1  0.43841000  0.43827600  0.24967000  1
  C  C20  1  0.99986700  0.56159000  0.24967000  1
  C  C21  1  0.56172400  0.56159000  0.74967000  1
  C  C22  1  0.99986700  0.43827600  0.74967000  1
  C  C23  1  0.43841000  0.00013300  0.74967000  1
  C  C24  1  0.66076600  0.80813700  0.94433000  1
  C  C25  1  0.14737100  0.33923400  0.94433000  1
  C  C26  1  0.19186300  0.85262900  0.94433000  1
  C  C27  1  0.66076600  0.85262900  0.44433000  1
  C  C28  1  0.19186300  0.33923400  0.44433000  1
  C  C29  1  0.14737100  0.80813700  0.44433000  1
  C  C30  1  0.33277700  0.24687800  0.05886000  1
  C  C31  1  0.91410200  0.66722300  0.05886000  1
  C  C32  1  0.75312200  0.08589800  0.05886000  1
  C  C33  1  0.33277700  0.08589800  0.55886000  1
  C  C34  1  0.75312200  0.66722300  0.55886000  1
  C  C35  1  0.91410200  0.24687800  0.55886000  1
  C  C36  1  0.22892300  0.89767600  0.15488000  1
  C  C37  1  0.66875300  0.77107700  0.15488000  1
  C  C38  1  0.10232400  0.33124700  0.15488000  1
  C  C39  1  0.22892300  0.33124700  0.65488000  1
  C  C40  1  0.10232400  0.77107700  0.65488000  1
  C  C41  1  0.66875300  0.89767600  0.65488000  1
  C  C42  1  0.77853600  0.10924300  0.84484700  1
  C  C43  1  0.33070700  0.22146400  0.84484700  1
  C  C44  1  0.89075700  0.66929300  0.84484700  1
  C  C45  1  0.77853600  0.66929300  0.34484700  1
  C  C46  1  0.89075700  0.22146400  0.34484700  1
  C  C47  1  0.33070700  0.10924300  0.34484700  1
