# generated using pymatgen
data_CuNiC8
_symmetry_space_group_name_H-M   'P 1'
_cell_length_a   8.45839021
_cell_length_b   8.41569757
_cell_length_c   8.37472358
_cell_angle_alpha   90.00000000
_cell_angle_beta   90.00000000
_cell_angle_gamma   90.00000000
_symmetry_Int_Tables_number   1
_chemical_formula_structural   CuNiC8
_chemical_formula_sum   'Cu4 Ni4 C32'
_cell_volume   596.14007524
_cell_formula_units_Z   4
loop_
 _symmetry_equiv_pos_site_id
 _symmetry_equiv_pos_as_xyz
  1  'x, y, z'
loop_
 _atom_site_type_symbol
 _atom_site_label
 _atom_site_symmetry_multiplicity
 _atom_site_fract_x
 _atom_site_fract_y
 _atom_site_fract_z
 _atom_site_occupancy
  C  C0  1  -0.00000000  0.00000000  -0.00000000  1
  C  C1  1  0.50000000  0.50000000  0.50000000  1
  C  C2  1  0.50000000  0.00000000  0.50000000  1
  C  C3  1  0.00000000  0.50000000  -0.00000000  1
  Ni  Ni4  1  0.75000000  0.75000000  0.75000000  1
  Ni  Ni5  1  0.25000000  0.25000000  0.75000000  1
  Ni  Ni6  1  0.25000000  0.75000000  0.25000000  1
  Ni  Ni7  1  0.75000000  0.25000000  0.25000000  1
  Cu  Cu8  1  0.00000000  0.50000000  0.50000000  1
  Cu  Cu9  1  0.50000000  0.50000000  -0.00000000  1
  Cu  Cu10  1  0.50000000  0.00000000  -0.00000000  1
  Cu  Cu11  1  -0.00000000  0.00000000  0.50000000  1
  C  C12  1  0.25000000  0.25000000  0.25000000  1
  C  C13  1  0.75000000  0.75000000  0.25000000  1
  C  C14  1  0.75000000  0.25000000  0.75000000  1
  C  C15  1  0.25000000  0.75000000  0.75000000  1
  C  C16  1  0.02207260  0.21128883  0.28169864  1
  C  C17  1  0.97792740  0.78871117  0.28169864  1
  C  C18  1  0.97792740  0.21128883  0.71830136  1
  C  C19  1  0.02207260  0.78871117  0.71830136  1
  C  C20  1  0.28563923  0.02145022  0.21393564  1
  C  C21  1  0.28563923  0.97854978  0.78606436  1
  C  C22  1  0.71436077  0.97854978  0.21393564  1
  C  C23  1  0.71436077  0.02145022  0.78606436  1
  C  C24  1  0.22107988  0.27707991  0.02052950  1
  C  C25  1  0.77892012  0.27707991  0.97947050  1
  C  C26  1  0.22107988  0.72292009  0.97947050  1
  C  C27  1  0.77892012  0.72292009  0.02052950  1
  C  C28  1  0.47792740  0.28871117  0.21830136  1
  C  C29  1  0.52207260  0.71128883  0.21830136  1
  C  C30  1  0.52207260  0.28871117  0.78169864  1
  C  C31  1  0.47792740  0.71128883  0.78169864  1
  C  C32  1  0.21436077  0.47854978  0.28606436  1
  C  C33  1  0.21436077  0.52145022  0.71393564  1
  C  C34  1  0.78563923  0.52145022  0.28606436  1
  C  C35  1  0.78563923  0.47854978  0.71393564  1
  C  C36  1  0.27892012  0.22292009  0.47947050  1
  C  C37  1  0.72107988  0.22292009  0.52052950  1
  C  C38  1  0.27892012  0.77707991  0.52052950  1
  C  C39  1  0.72107988  0.77707991  0.47947050  1
