# generated using pymatgen
data_Cu6NiC24
_symmetry_space_group_name_H-M   'P 1'
_cell_length_a   5.85018742
_cell_length_b   5.94986684
_cell_length_c   15.03222159
_cell_angle_alpha   93.25367455
_cell_angle_beta   88.71085376
_cell_angle_gamma   122.01035672
_symmetry_Int_Tables_number   1
_chemical_formula_structural   Cu6NiC24
_chemical_formula_sum   'Cu6 Ni1 C24'
_cell_volume   442.94880907
_cell_formula_units_Z   1
loop_
 _symmetry_equiv_pos_site_id
 _symmetry_equiv_pos_as_xyz
  1  'x, y, z'
loop_
 _atom_site_type_symbol
 _atom_site_label
 _atom_site_symmetry_multiplicity
 _atom_site_fract_x
 _atom_site_fract_y
 _atom_site_fract_z
 _atom_site_occupancy
  C  C0  1  0.00857824  0.97376112  0.75911190  1
  C  C1  1  0.96490159  0.02182833  0.24309168  1
  C  C2  1  0.32771539  0.65113633  0.90769009  1
  C  C3  1  0.36482533  0.62073550  0.61022747  1
  C  C4  1  0.65056740  0.34762582  0.08743930  1
  C  C5  1  0.61009157  0.38628996  0.36459615  1
  Ni  Ni6  1  0.73549157  0.15572268  0.49823223  1
  Cu  Cu7  1  0.98846494  0.00102909  0.00130625  1
  Cu  Cu8  1  0.02341619  0.96033656  0.50599349  1
  Cu  Cu9  1  0.31608529  0.68316175  0.14996903  1
  Cu  Cu10  1  0.29567214  0.66605742  0.34217220  1
  Cu  Cu11  1  0.65648065  0.31389266  0.85180512  1
  Cu  Cu12  1  0.69541343  0.32506210  0.66398812  1
  C  C13  1  0.05440497  0.31608868  0.41813610  1
  C  C14  1  0.68357824  0.91873827  0.08680785  1
  C  C15  1  0.95094634  0.68457621  0.59789607  1
  C  C16  1  0.30209085  0.09126550  0.91818871  1
  C  C17  1  0.15043276  0.88358509  0.09685219  1
  C  C18  1  0.10934982  0.83698448  0.39612944  1
  C  C19  1  0.82273476  0.11384545  0.90689729  1
  C  C20  1  0.90181566  0.14195356  0.60958344  1
  C  C21  1  0.60097868  0.78999666  0.45309777  1
  C  C22  1  0.19217925  0.37977665  0.05251039  1
  C  C23  1  0.43309791  0.18219697  0.54715390  1
  C  C24  1  0.80216055  0.62841390  0.94442992  1
  C  C25  1  0.52153859  0.46100248  0.75666143  1
  C  C26  1  0.45185988  0.52438967  0.23691325  1
  C  C27  1  0.52383580  0.02822189  0.75092915  1
  C  C28  1  0.96851572  0.47812873  0.76644871  1
  C  C29  1  0.46279892  0.96368446  0.25269071  1
  C  C30  1  0.01330958  0.52259803  0.24090764  1
