# generated using pymatgen
data_Cu2NiC5
_symmetry_space_group_name_H-M   'P 1'
_cell_length_a   7.07370565
_cell_length_b   7.07370565
_cell_length_c   13.77138500
_cell_angle_alpha   90.00000000
_cell_angle_beta   90.00000000
_cell_angle_gamma   147.38747094
_symmetry_Int_Tables_number   1
_chemical_formula_structural   Cu2NiC5
_chemical_formula_sum   'Cu4 Ni2 C10'
_cell_volume   371.38476830
_cell_formula_units_Z   2
loop_
 _symmetry_equiv_pos_site_id
 _symmetry_equiv_pos_as_xyz
  1  'x, y, z'
loop_
 _atom_site_type_symbol
 _atom_site_label
 _atom_site_symmetry_multiplicity
 _atom_site_fract_x
 _atom_site_fract_y
 _atom_site_fract_z
 _atom_site_occupancy
  Ni  Ni0  1  0.10921200  0.89078800  0.25000000  1
  Ni  Ni1  1  0.89078800  0.10921200  0.75000000  1
  Cu  Cu2  1  0.63426700  0.36573300  0.93689100  1
  Cu  Cu3  1  0.36573300  0.63426700  0.43689100  1
  Cu  Cu4  1  0.63426700  0.36573300  0.56310900  1
  Cu  Cu5  1  0.36573300  0.63426700  0.06310900  1
  C  C6  1  0.16256000  0.83744000  0.75000000  1
  C  C7  1  0.83744000  0.16256000  0.25000000  1
  C  C8  1  0.00000000  0.00000000  0.50000000  1
  C  C9  1  0.00000000  0.00000000  0.00000000  1
  C  C10  1  0.73736100  0.26263900  0.11148700  1
  C  C11  1  0.26263900  0.73736100  0.88851300  1
  C  C12  1  0.56909000  0.43091000  0.75000000  1
  C  C13  1  0.73736100  0.26263900  0.38851300  1
  C  C14  1  0.43091000  0.56909000  0.25000000  1
  C  C15  1  0.26263900  0.73736100  0.61148700  1
