# generated using pymatgen
data_CuNi3C11
_symmetry_space_group_name_H-M   'P 1'
_cell_length_a   8.46924557
_cell_length_b   8.46924557
_cell_length_c   9.71800977
_cell_angle_alpha   99.24771969
_cell_angle_beta   99.24771969
_cell_angle_gamma   108.59638733
_symmetry_Int_Tables_number   1
_chemical_formula_structural   CuNi3C11
_chemical_formula_sum   'Cu2 Ni6 C22'
_cell_volume   635.11598093
_cell_formula_units_Z   2
loop_
 _symmetry_equiv_pos_site_id
 _symmetry_equiv_pos_as_xyz
  1  'x, y, z'
loop_
 _atom_site_type_symbol
 _atom_site_label
 _atom_site_symmetry_multiplicity
 _atom_site_fract_x
 _atom_site_fract_y
 _atom_site_fract_z
 _atom_site_occupancy
  C  C0  1  0.16655500  0.83344500  0.25000000  1
  C  C1  1  0.83344500  0.16655500  0.75000000  1
  Ni  Ni2  1  0.52821900  0.92297000  0.47746800  1
  Ni  Ni3  1  0.07703000  0.47178100  0.02253200  1
  Ni  Ni4  1  0.47178100  0.07703000  0.52253200  1
  Ni  Ni5  1  0.92297000  0.52821900  0.97746800  1
  Ni  Ni6  1  0.89742100  0.10257900  0.25000000  1
  Ni  Ni7  1  0.10257900  0.89742100  0.75000000  1
  Cu  Cu8  1  0.78011500  0.21988500  0.25000000  1
  Cu  Cu9  1  0.21988500  0.78011500  0.75000000  1
  C  C10  1  0.98357400  0.01642600  0.25000000  1
  C  C11  1  0.01642600  0.98357400  0.75000000  1
  C  C12  1  0.52240900  0.47759100  0.25000000  1
  C  C13  1  0.47759100  0.52240900  0.75000000  1
  C  C14  1  0.33204700  0.07064400  0.44814900  1
  C  C15  1  0.92935600  0.66795300  0.05185100  1
  C  C16  1  0.66795300  0.92935600  0.55185100  1
  C  C17  1  0.07064400  0.33204700  0.94814900  1
  C  C18  1  0.42898000  0.80853500  0.37182300  1
  C  C19  1  0.19146500  0.57102000  0.12817700  1
  C  C20  1  0.57102000  0.19146500  0.62817700  1
  C  C21  1  0.80853500  0.42898000  0.87182300  1
  C  C22  1  0.05266000  0.72157500  0.36696600  1
  C  C23  1  0.27842500  0.94734000  0.13303400  1
  C  C24  1  0.94734000  0.27842500  0.63303400  1
  C  C25  1  0.72157500  0.05266000  0.86696600  1
  C  C26  1  0.27575700  0.42652300  0.46190900  1
  C  C27  1  0.57347700  0.72424300  0.03809100  1
  C  C28  1  0.72424300  0.57347700  0.53809100  1
  C  C29  1  0.42652300  0.27575700  0.96190900  1
