# generated using pymatgen
data_CuNiC9
_symmetry_space_group_name_H-M   'P 1'
_cell_length_a   5.73465000
_cell_length_b   4.75796000
_cell_length_c   9.97868650
_cell_angle_alpha   76.01175650
_cell_angle_beta   90.00000000
_cell_angle_gamma   90.00000000
_symmetry_Int_Tables_number   1
_chemical_formula_structural   CuNiC9
_chemical_formula_sum   'Cu2 Ni2 C18'
_cell_volume   264.19671251
_cell_formula_units_Z   2
loop_
 _symmetry_equiv_pos_site_id
 _symmetry_equiv_pos_as_xyz
  1  'x, y, z'
loop_
 _atom_site_type_symbol
 _atom_site_label
 _atom_site_symmetry_multiplicity
 _atom_site_fract_x
 _atom_site_fract_y
 _atom_site_fract_z
 _atom_site_occupancy
  Ni  Ni0  1  0.50000000  0.00000000  0.00000000  1
  Ni  Ni1  1  0.00000000  0.00000000  0.00000000  1
  C  C2  1  0.25000000  0.60865800  0.94272300  1
  C  C3  1  0.75000000  0.39134200  0.05727700  1
  C  C4  1  0.25000000  0.25286300  0.13188300  1
  C  C5  1  0.75000000  0.74713700  0.86811700  1
  Cu  Cu6  1  0.25000000  0.02201500  0.65880500  1
  Cu  Cu7  1  0.75000000  0.97798500  0.34119500  1
  C  C8  1  0.25000000  0.55395600  0.33329100  1
  C  C9  1  0.75000000  0.44604400  0.66670900  1
  C  C10  1  0.25000000  0.59318000  0.47567700  1
  C  C11  1  0.75000000  0.40682000  0.52432300  1
  C  C12  1  0.25000000  0.23962700  0.33300400  1
  C  C13  1  0.75000000  0.76037300  0.66699600  1
  C  C14  1  0.96324000  0.31022200  0.74445400  1
  C  C15  1  0.46324000  0.68977800  0.25554600  1
  C  C16  1  0.03676000  0.68977800  0.25554600  1
  C  C17  1  0.53676000  0.31022200  0.74445400  1
  C  C18  1  0.25000000  0.25433700  0.03303300  1
  C  C19  1  0.75000000  0.74566300  0.96696700  1
  C  C20  1  0.25000000  0.82581300  0.90608800  1
  C  C21  1  0.75000000  0.17418700  0.09391200  1
