# generated using pymatgen
data_CuNiC6
_symmetry_space_group_name_H-M   'P 1'
_cell_length_a   6.00072972
_cell_length_b   9.08262344
_cell_length_c   6.00314228
_cell_angle_alpha   70.70375086
_cell_angle_beta   90.00021908
_cell_angle_gamma   70.70980578
_symmetry_Int_Tables_number   1
_chemical_formula_structural   CuNiC6
_chemical_formula_sum   'Cu4 Ni4 C24'
_cell_volume   289.27104400
_cell_formula_units_Z   4
loop_
 _symmetry_equiv_pos_site_id
 _symmetry_equiv_pos_as_xyz
  1  'x, y, z'
loop_
 _atom_site_type_symbol
 _atom_site_label
 _atom_site_symmetry_multiplicity
 _atom_site_fract_x
 _atom_site_fract_y
 _atom_site_fract_z
 _atom_site_occupancy
  C  C0  1  0.49997300  0.00000000  0.49999900  1
  C  C1  1  0.99997300  0.00000000  0.00000000  1
  C  C2  1  0.24997200  0.50000000  0.75000000  1
  C  C3  1  0.74997400  0.50000000  0.25000000  1
  C  C4  1  0.75003000  0.49999900  0.75000300  1
  C  C5  1  0.25002800  0.50000000  0.25000300  1
  C  C6  1  0.50002800  0.00000000  0.00000400  1
  C  C7  1  0.00002900  0.00000000  0.50000300  1
  Ni  Ni8  1  0.62500200  0.24999700  0.62500200  1
  Ni  Ni9  1  0.12499800  0.25000200  0.12499900  1
  Ni  Ni10  1  0.37500000  0.74999900  0.87500100  1
  Ni  Ni11  1  0.87500200  0.75000100  0.37500000  1
  Cu  Cu12  1  0.62499500  0.24999800  0.12498800  1
  Cu  Cu13  1  0.37499000  0.75000600  0.37499100  1
  Cu  Cu14  1  0.12500800  0.24999400  0.62499800  1
  Cu  Cu15  1  0.87499400  0.75000700  0.87499100  1
  C  C16  1  0.50761300  0.48478400  0.50763300  1
  C  C17  1  0.00761000  0.48478600  0.00763100  1
  C  C18  1  0.25761300  0.98478200  0.75763300  1
  C  C19  1  0.75761200  0.98478700  0.25763200  1
  C  C20  1  0.74238800  0.01521700  0.74236900  1
  C  C21  1  0.24238900  0.01521200  0.24237100  1
  C  C22  1  0.49238800  0.51521500  0.99236900  1
  C  C23  1  0.99239100  0.51521300  0.49237100  1
  C  C24  1  0.87500000  0.25000000  0.37500100  1
  C  C25  1  0.37500100  0.25000000  0.87500100  1
  C  C26  1  0.62500100  0.75000000  0.62500100  1
  C  C27  1  0.12500100  0.75000100  0.12500100  1
  C  C28  1  0.87500000  0.24999900  0.87500000  1
  C  C29  1  0.37500200  0.25000000  0.37500200  1
  C  C30  1  0.62499900  0.75000000  0.12500000  1
  C  C31  1  0.12500100  0.74999900  0.62500200  1
