# generated using pymatgen
data_CuNiC24
_symmetry_space_group_name_H-M   'P 1'
_cell_length_a   9.08681600
_cell_length_b   9.24179160
_cell_length_c   9.24179160
_cell_angle_alpha   76.01394098
_cell_angle_beta   60.55318088
_cell_angle_gamma   60.55318088
_symmetry_Int_Tables_number   1
_chemical_formula_structural   CuNiC24
_chemical_formula_sum   'Cu2 Ni2 C48'
_cell_volume   588.53631389
_cell_formula_units_Z   2
loop_
 _symmetry_equiv_pos_site_id
 _symmetry_equiv_pos_as_xyz
  1  'x, y, z'
loop_
 _atom_site_type_symbol
 _atom_site_label
 _atom_site_symmetry_multiplicity
 _atom_site_fract_x
 _atom_site_fract_y
 _atom_site_fract_z
 _atom_site_occupancy
  Ni  Ni0  1  0.37500000  0.75000000  0.75000000  1
  Ni  Ni1  1  0.62500000  0.25000000  0.25000000  1
  Cu  Cu2  1  0.87500000  0.75000000  0.75000000  1
  Cu  Cu3  1  0.12500000  0.25000000  0.25000000  1
  C  C4  1  0.45555600  0.39657400  0.91284700  1
  C  C5  1  0.26497700  0.10342600  0.58715300  1
  C  C6  1  0.86840300  0.08715300  0.89657400  1
  C  C7  1  0.35213000  0.41284700  0.60342600  1
  C  C8  1  0.54444400  0.60342600  0.08715300  1
  C  C9  1  0.73502300  0.89657400  0.41284700  1
  C  C10  1  0.13159700  0.91284700  0.10342600  1
  C  C11  1  0.64787000  0.58715300  0.39657400  1
  C  C12  1  0.67383800  0.34043100  0.82573900  1
  C  C13  1  0.34000800  0.15956900  0.67426100  1
  C  C14  1  0.99957700  0.17426100  0.84043100  1
  C  C15  1  0.51426900  0.32573900  0.65956900  1
  C  C16  1  0.32616200  0.65956900  0.17426100  1
  C  C17  1  0.65999200  0.84043100  0.32573900  1
  C  C18  1  0.00042300  0.82573900  0.15956900  1
  C  C19  1  0.48573100  0.67426100  0.34043100  1
  C  C20  1  0.07432800  0.98034600  0.52829600  1
  C  C21  1  0.08297000  0.51965400  0.97170400  1
  C  C22  1  0.10262300  0.47170400  0.48034600  1
  C  C23  1  0.55467400  0.02829600  0.01965400  1
  C  C24  1  0.92567200  0.01965400  0.47170400  1
  C  C25  1  0.91703000  0.48034600  0.02829600  1
  C  C26  1  0.89737700  0.52829600  0.51965400  1
  C  C27  1  0.44532600  0.97170400  0.98034600  1
  C  C28  1  0.56035800  0.39877700  0.80614300  1
  C  C29  1  0.26527900  0.10122300  0.69385700  1
  C  C30  1  0.86650100  0.19385700  0.89877700  1
  C  C31  1  0.45913600  0.30614300  0.60122300  1
  C  C32  1  0.43964200  0.60122300  0.19385700  1
  C  C33  1  0.73472100  0.89877700  0.30614300  1
  C  C34  1  0.13349900  0.80614300  0.10122300  1
  C  C35  1  0.54086400  0.69385700  0.39877700  1
  C  C36  1  0.08397900  0.87408700  0.64254000  1
  C  C37  1  0.10060700  0.62591300  0.85746000  1
  C  C38  1  0.22651900  0.35746000  0.37408700  1
  C  C39  1  0.45806600  0.14254000  0.12591300  1
  C  C40  1  0.91602100  0.12591300  0.35746000  1
  C  C41  1  0.89939300  0.37408700  0.14254000  1
  C  C42  1  0.77348100  0.64254000  0.62591300  1
  C  C43  1  0.54193400  0.85746000  0.87408700  1
  C  C44  1  0.17409600  0.05972500  0.45464800  1
  C  C45  1  0.18846900  0.44027500  0.04535200  1
  C  C46  1  0.12874300  0.54535200  0.55972500  1
  C  C47  1  0.73382100  0.95464800  0.94027500  1
  C  C48  1  0.82590400  0.94027500  0.54535200  1
  C  C49  1  0.81153100  0.55972500  0.95464800  1
  C  C50  1  0.87125700  0.45464800  0.44027500  1
  C  C51  1  0.26617900  0.04535200  0.05972500  1
