# generated using pymatgen
data_CuNiC8
_symmetry_space_group_name_H-M   'P 1'
_cell_length_a   8.47384831
_cell_length_b   8.44480030
_cell_length_c   8.44107630
_cell_angle_alpha   90.00000000
_cell_angle_beta   90.00000000
_cell_angle_gamma   90.00000000
_symmetry_Int_Tables_number   1
_chemical_formula_structural   CuNiC8
_chemical_formula_sum   'Cu4 Ni4 C32'
_cell_volume   604.04305496
_cell_formula_units_Z   4
loop_
 _symmetry_equiv_pos_site_id
 _symmetry_equiv_pos_as_xyz
  1  'x, y, z'
loop_
 _atom_site_type_symbol
 _atom_site_label
 _atom_site_symmetry_multiplicity
 _atom_site_fract_x
 _atom_site_fract_y
 _atom_site_fract_z
 _atom_site_occupancy
  Ni  Ni0  1  -0.00000000  -0.00000000  -0.00000000  1
  Ni  Ni1  1  0.50000000  0.50000000  0.50000000  1
  Ni  Ni2  1  0.50000000  -0.00000000  0.50000000  1
  Ni  Ni3  1  -0.00000000  0.50000000  -0.00000000  1
  C  C4  1  0.25000000  0.25000000  0.25000000  1
  C  C5  1  0.75000000  0.75000000  0.25000000  1
  C  C6  1  0.75000000  0.25000000  0.75000000  1
  C  C7  1  0.25000000  0.75000000  0.75000000  1
  Cu  Cu8  1  -0.00000000  0.50000000  0.50000000  1
  Cu  Cu9  1  0.50000000  0.50000000  -0.00000000  1
  Cu  Cu10  1  0.50000000  -0.00000000  -0.00000000  1
  Cu  Cu11  1  -0.00000000  -0.00000000  0.50000000  1
  C  C12  1  0.75000000  0.75000000  0.75000000  1
  C  C13  1  0.25000000  0.25000000  0.75000000  1
  C  C14  1  0.25000000  0.75000000  0.25000000  1
  C  C15  1  0.75000000  0.25000000  0.25000000  1
  C  C16  1  0.98539086  0.21666936  0.27900950  1
  C  C17  1  0.01460914  0.78333064  0.27900950  1
  C  C18  1  0.01460914  0.21666936  0.72099050  1
  C  C19  1  0.98539086  0.78333064  0.72099050  1
  C  C20  1  0.28144899  0.98543022  0.21774749  1
  C  C21  1  0.28144899  0.01456978  0.78225251  1
  C  C22  1  0.71855101  0.01456978  0.21774749  1
  C  C23  1  0.71855101  0.98543022  0.78225251  1
  C  C24  1  0.22555907  0.27501890  0.98602877  1
  C  C25  1  0.77444093  0.27501890  0.01397123  1
  C  C26  1  0.22555907  0.72498110  0.01397123  1
  C  C27  1  0.77444093  0.72498110  0.98602877  1
  C  C28  1  0.51460914  0.28333064  0.22099050  1
  C  C29  1  0.48539086  0.71666936  0.22099050  1
  C  C30  1  0.48539086  0.28333064  0.77900950  1
  C  C31  1  0.51460914  0.71666936  0.77900950  1
  C  C32  1  0.21855101  0.51456978  0.28225251  1
  C  C33  1  0.21855101  0.48543022  0.71774749  1
  C  C34  1  0.78144899  0.48543022  0.28225251  1
  C  C35  1  0.78144899  0.51456978  0.71774749  1
  C  C36  1  0.27444093  0.22498110  0.51397123  1
  C  C37  1  0.72555907  0.22498110  0.48602877  1
  C  C38  1  0.27444093  0.77501890  0.48602877  1
  C  C39  1  0.72555907  0.77501890  0.51397123  1
