# generated using pymatgen
data_CuNiC15
_symmetry_space_group_name_H-M   'P 1'
_cell_length_a   8.72355500
_cell_length_b   8.72355500
_cell_length_c   11.90714900
_cell_angle_alpha   90.00000000
_cell_angle_beta   90.00000000
_cell_angle_gamma   90.00000000
_symmetry_Int_Tables_number   1
_chemical_formula_structural   CuNiC15
_chemical_formula_sum   'Cu4 Ni4 C60'
_cell_volume   906.13894272
_cell_formula_units_Z   4
loop_
 _symmetry_equiv_pos_site_id
 _symmetry_equiv_pos_as_xyz
  1  'x, y, z'
loop_
 _atom_site_type_symbol
 _atom_site_label
 _atom_site_symmetry_multiplicity
 _atom_site_fract_x
 _atom_site_fract_y
 _atom_site_fract_z
 _atom_site_occupancy
  Ni  Ni0  1  0.23242800  0.76757200  0.50000000  1
  Ni  Ni1  1  0.76757200  0.23242800  0.50000000  1
  Ni  Ni2  1  0.26757200  0.26757200  0.00000000  1
  Ni  Ni3  1  0.73242800  0.73242800  0.00000000  1
  Cu  Cu4  1  0.64378400  0.64378400  0.50000000  1
  Cu  Cu5  1  0.35621600  0.35621600  0.50000000  1
  Cu  Cu6  1  0.85621600  0.14378400  0.00000000  1
  Cu  Cu7  1  0.14378400  0.85621600  0.00000000  1
  C  C8  1  0.93308400  0.72518800  0.37317900  1
  C  C9  1  0.06691600  0.27481200  0.37317900  1
  C  C10  1  0.56691600  0.22518800  0.87317900  1
  C  C11  1  0.43308400  0.77481200  0.87317900  1
  C  C12  1  0.06691600  0.27481200  0.62682100  1
  C  C13  1  0.93308400  0.72518800  0.62682100  1
  C  C14  1  0.43308400  0.77481200  0.12682100  1
  C  C15  1  0.56691600  0.22518800  0.12682100  1
  C  C16  1  0.72518800  0.93308400  0.37317900  1
  C  C17  1  0.27481200  0.06691600  0.37317900  1
  C  C18  1  0.22518800  0.56691600  0.87317900  1
  C  C19  1  0.77481200  0.43308400  0.87317900  1
  C  C20  1  0.27481200  0.06691600  0.62682100  1
  C  C21  1  0.72518800  0.93308400  0.62682100  1
  C  C22  1  0.77481200  0.43308400  0.12682100  1
  C  C23  1  0.22518800  0.56691600  0.12682100  1
  C  C24  1  0.14102900  0.53635100  0.32537700  1
  C  C25  1  0.85897100  0.46364900  0.32537700  1
  C  C26  1  0.35897100  0.03635100  0.82537700  1
  C  C27  1  0.64102900  0.96364900  0.82537700  1
  C  C28  1  0.85897100  0.46364900  0.67462300  1
  C  C29  1  0.14102900  0.53635100  0.67462300  1
  C  C30  1  0.64102900  0.96364900  0.17462300  1
  C  C31  1  0.35897100  0.03635100  0.17462300  1
  C  C32  1  0.53635100  0.14102900  0.32537700  1
  C  C33  1  0.46364900  0.85897100  0.32537700  1
  C  C34  1  0.03635100  0.35897100  0.82537700  1
  C  C35  1  0.96364900  0.64102900  0.82537700  1
  C  C36  1  0.46364900  0.85897100  0.67462300  1
  C  C37  1  0.53635100  0.14102900  0.67462300  1
  C  C38  1  0.96364900  0.64102900  0.17462300  1
  C  C39  1  0.03635100  0.35897100  0.17462300  1
  C  C40  1  0.18270600  0.81729400  0.25351300  1
  C  C41  1  0.81729400  0.18270600  0.25351300  1
  C  C42  1  0.31729400  0.31729400  0.75351300  1
  C  C43  1  0.68270600  0.68270600  0.75351300  1
  C  C44  1  0.81729400  0.18270600  0.74648700  1
  C  C45  1  0.18270600  0.81729400  0.74648700  1
  C  C46  1  0.68270600  0.68270600  0.24648700  1
  C  C47  1  0.31729400  0.31729400  0.24648700  1
  C  C48  1  0.40294500  0.59705500  0.30124300  1
  C  C49  1  0.59705500  0.40294500  0.30124300  1
  C  C50  1  0.09705500  0.09705500  0.80124300  1
  C  C51  1  0.90294500  0.90294500  0.80124300  1
  C  C52  1  0.59705500  0.40294500  0.69875700  1
  C  C53  1  0.40294500  0.59705500  0.69875700  1
  C  C54  1  0.90294500  0.90294500  0.19875700  1
  C  C55  1  0.09705500  0.09705500  0.19875700  1
  C  C56  1  0.50000000  0.50000000  0.11756300  1
  C  C57  1  0.00000000  0.00000000  0.61756300  1
  C  C58  1  0.50000000  0.50000000  0.88243700  1
  C  C59  1  0.00000000  0.00000000  0.38243700  1
  C  C60  1  0.00000000  0.50000000  0.50000000  1
  C  C61  1  0.50000000  0.00000000  0.00000000  1
  C  C62  1  0.50000000  0.00000000  0.50000000  1
  C  C63  1  0.00000000  0.50000000  0.00000000  1
  C  C64  1  0.87657700  0.87657700  0.50000000  1
  C  C65  1  0.12342300  0.12342300  0.50000000  1
  C  C66  1  0.62342300  0.37657700  0.00000000  1
  C  C67  1  0.37657700  0.62342300  0.00000000  1
