# generated using pymatgen
data_Cu61Ni3C13
_symmetry_space_group_name_H-M   'P 1'
_cell_length_a   10.97260200
_cell_length_b   10.97260200
_cell_length_c   10.97260200
_cell_angle_alpha   90.00000000
_cell_angle_beta   90.00000000
_cell_angle_gamma   90.00000000
_symmetry_Int_Tables_number   1
_chemical_formula_structural   Cu61Ni3C13
_chemical_formula_sum   'Cu61 Ni3 C13'
_cell_volume   1321.07927690
_cell_formula_units_Z   1
loop_
 _symmetry_equiv_pos_site_id
 _symmetry_equiv_pos_as_xyz
  1  'x, y, z'
loop_
 _atom_site_type_symbol
 _atom_site_label
 _atom_site_symmetry_multiplicity
 _atom_site_fract_x
 _atom_site_fract_y
 _atom_site_fract_z
 _atom_site_occupancy
  C  C0  1  0.26653200  0.49093800  0.73346800  1
  C  C1  1  0.49093800  0.26653200  0.73346800  1
  C  C2  1  0.26653200  0.26653200  0.50906200  1
  C  C3  1  0.26653200  0.50906200  0.26653200  1
  C  C4  1  0.49093800  0.73346800  0.26653200  1
  C  C5  1  0.26653200  0.73346800  0.49093800  1
  C  C6  1  0.73346800  0.49093800  0.26653200  1
  C  C7  1  0.50906200  0.26653200  0.26653200  1
  C  C8  1  0.73346800  0.26653200  0.49093800  1
  C  C9  1  0.73346800  0.50906200  0.73346800  1
  C  C10  1  0.50906200  0.73346800  0.73346800  1
  C  C11  1  0.73346800  0.73346800  0.50906200  1
  C  C12  1  0.50000000  0.50000000  0.50000000  1
  Ni  Ni13  1  0.00000000  0.50000000  0.50000000  1
  Ni  Ni14  1  0.50000000  0.50000000  0.00000000  1
  Ni  Ni15  1  0.50000000  0.00000000  0.50000000  1
  Cu  Cu16  1  0.19041200  0.36287300  0.63712700  1
  Cu  Cu17  1  0.36287300  0.36287300  0.80958800  1
  Cu  Cu18  1  0.36287300  0.19041200  0.63712700  1
  Cu  Cu19  1  0.19041200  0.63712700  0.36287300  1
  Cu  Cu20  1  0.36287300  0.63712700  0.19041200  1
  Cu  Cu21  1  0.36287300  0.80958800  0.36287300  1
  Cu  Cu22  1  0.80958800  0.36287300  0.36287300  1
  Cu  Cu23  1  0.63712700  0.36287300  0.19041200  1
  Cu  Cu24  1  0.63712700  0.19041200  0.36287300  1
  Cu  Cu25  1  0.80958800  0.63712700  0.63712700  1
  Cu  Cu26  1  0.63712700  0.63712700  0.80958800  1
  Cu  Cu27  1  0.63712700  0.80958800  0.63712700  1
  Cu  Cu28  1  0.77618200  0.60751900  0.39248100  1
  Cu  Cu29  1  0.60751900  0.60751900  0.22381800  1
  Cu  Cu30  1  0.60751900  0.77618200  0.39248100  1
  Cu  Cu31  1  0.77618200  0.39248100  0.60751900  1
  Cu  Cu32  1  0.60751900  0.39248100  0.77618200  1
  Cu  Cu33  1  0.60751900  0.22381800  0.60751900  1
  Cu  Cu34  1  0.22381800  0.60751900  0.60751900  1
  Cu  Cu35  1  0.39248100  0.60751900  0.77618200  1
  Cu  Cu36  1  0.39248100  0.77618200  0.60751900  1
  Cu  Cu37  1  0.22381800  0.39248100  0.39248100  1
  Cu  Cu38  1  0.39248100  0.39248100  0.22381800  1
  Cu  Cu39  1  0.39248100  0.22381800  0.39248100  1
  Cu  Cu40  1  0.15773800  0.51649400  0.84226200  1
  Cu  Cu41  1  0.51649400  0.15773800  0.84226200  1
  Cu  Cu42  1  0.15773800  0.15773800  0.48350600  1
  Cu  Cu43  1  0.15773800  0.48350600  0.15773800  1
  Cu  Cu44  1  0.51649400  0.84226200  0.15773800  1
  Cu  Cu45  1  0.15773800  0.84226200  0.51649400  1
  Cu  Cu46  1  0.84226200  0.51649400  0.15773800  1
  Cu  Cu47  1  0.48350600  0.15773800  0.15773800  1
  Cu  Cu48  1  0.84226200  0.15773800  0.51649400  1
  Cu  Cu49  1  0.84226200  0.48350600  0.84226200  1
  Cu  Cu50  1  0.48350600  0.84226200  0.84226200  1
  Cu  Cu51  1  0.84226200  0.84226200  0.48350600  1
  Cu  Cu52  1  0.00000000  0.30365900  0.00000000  1
  Cu  Cu53  1  0.30365900  0.00000000  0.00000000  1
  Cu  Cu54  1  0.00000000  0.00000000  0.69634100  1
  Cu  Cu55  1  0.00000000  0.69634100  0.00000000  1
  Cu  Cu56  1  0.00000000  0.00000000  0.30365900  1
  Cu  Cu57  1  0.69634100  0.00000000  0.00000000  1
  Cu  Cu58  1  0.00000000  0.50000000  0.00000000  1
  Cu  Cu59  1  0.50000000  0.00000000  0.00000000  1
  Cu  Cu60  1  0.00000000  0.00000000  0.50000000  1
  Cu  Cu61  1  0.08123200  0.17514700  0.82485300  1
  Cu  Cu62  1  0.17514700  0.17514700  0.91876800  1
  Cu  Cu63  1  0.17514700  0.08123200  0.82485300  1
  Cu  Cu64  1  0.08123200  0.82485300  0.17514700  1
  Cu  Cu65  1  0.17514700  0.82485300  0.08123200  1
  Cu  Cu66  1  0.17514700  0.91876800  0.17514700  1
  Cu  Cu67  1  0.91876800  0.17514700  0.17514700  1
  Cu  Cu68  1  0.82485300  0.17514700  0.08123200  1
  Cu  Cu69  1  0.82485300  0.08123200  0.17514700  1
  Cu  Cu70  1  0.91876800  0.82485300  0.82485300  1
  Cu  Cu71  1  0.82485300  0.82485300  0.91876800  1
  Cu  Cu72  1  0.82485300  0.91876800  0.82485300  1
  Cu  Cu73  1  0.41847800  0.41847800  0.58152200  1
  Cu  Cu74  1  0.41847800  0.58152200  0.41847800  1
  Cu  Cu75  1  0.58152200  0.41847800  0.41847800  1
  Cu  Cu76  1  0.58152200  0.58152200  0.58152200  1
