# generated using pymatgen
data_Cu17(Ni3C2)2
_symmetry_space_group_name_H-M   'P 1'
_cell_length_a   11.06600194
_cell_length_b   11.06600194
_cell_length_c   14.45454676
_cell_angle_alpha   79.31278031
_cell_angle_beta   100.68721969
_cell_angle_gamma   104.68504140
_symmetry_Int_Tables_number   1
_chemical_formula_structural   Cu17(Ni3C2)2
_chemical_formula_sum   'Cu68 Ni24 C16'
_cell_volume   1664.59226494
_cell_formula_units_Z   4
loop_
 _symmetry_equiv_pos_site_id
 _symmetry_equiv_pos_as_xyz
  1  'x, y, z'
loop_
 _atom_site_type_symbol
 _atom_site_label
 _atom_site_symmetry_multiplicity
 _atom_site_fract_x
 _atom_site_fract_y
 _atom_site_fract_z
 _atom_site_occupancy
  C  C0  1  0.28460319  0.28460319  0.75000000  1
  C  C1  1  0.71539681  0.71539681  0.25000000  1
  C  C2  1  0.99361441  0.99361441  0.75000000  1
  C  C3  1  0.00638559  0.00638559  0.25000000  1
  C  C4  1  0.22012757  0.87621032  0.04598596  1
  C  C5  1  0.87621032  0.22012757  0.45401404  1
  C  C6  1  0.77987243  0.12378968  0.95401404  1
  C  C7  1  0.12378968  0.77987243  0.54598596  1
  C  C8  1  0.47005852  0.34432511  0.99384511  1
  C  C9  1  0.34432511  0.47005852  0.50615489  1
  C  C10  1  0.52994148  0.65567489  0.00615489  1
  C  C11  1  0.65567489  0.52994148  0.49384511  1
  C  C12  1  0.55429861  0.16746053  0.24749667  1
  C  C13  1  0.16746053  0.55429861  0.25250333  1
  C  C14  1  0.44570139  0.83253947  0.75250333  1
  C  C15  1  0.83253947  0.44570139  0.74749667  1
  Ni  Ni16  1  0.73053743  0.07042474  0.17814961  1
  Ni  Ni17  1  0.07042474  0.73053743  0.32185039  1
  Ni  Ni18  1  0.26946257  0.92957526  0.82185039  1
  Ni  Ni19  1  0.92957526  0.26946257  0.67814961  1
  Ni  Ni20  1  0.71414701  0.99620029  0.28097907  1
  Ni  Ni21  1  0.99620029  0.71414701  0.21902093  1
  Ni  Ni22  1  0.28585299  0.00379971  0.71902093  1
  Ni  Ni23  1  0.00379971  0.28585299  0.78097907  1
  Ni  Ni24  1  0.60294919  0.43622271  0.18807897  1
  Ni  Ni25  1  0.43622271  0.60294919  0.31192103  1
  Ni  Ni26  1  0.39705081  0.56377729  0.81192103  1
  Ni  Ni27  1  0.56377729  0.39705081  0.68807897  1
  Ni  Ni28  1  0.69183099  0.41590858  0.28401442  1
  Ni  Ni29  1  0.41590858  0.69183099  0.21598558  1
  Ni  Ni30  1  0.30816901  0.58409142  0.71598558  1
  Ni  Ni31  1  0.58409142  0.30816901  0.78401442  1
  Ni  Ni32  1  0.29824193  0.03433526  0.21124347  1
  Ni  Ni33  1  0.03433526  0.29824193  0.28875653  1
  Ni  Ni34  1  0.70175807  0.96566474  0.78875653  1
  Ni  Ni35  1  0.96566474  0.70175807  0.71124347  1
  Ni  Ni36  1  0.31002839  0.09535274  0.30220399  1
  Ni  Ni37  1  0.09535274  0.31002839  0.19779601  1
  Ni  Ni38  1  0.68997161  0.90464726  0.69779601  1
  Ni  Ni39  1  0.90464726  0.68997161  0.80220399  1
  Cu  Cu40  1  0.34738443  0.11704492  0.97921365  1
  Cu  Cu41  1  0.11704492  0.34738443  0.52078635  1
  Cu  Cu42  1  0.65261557  0.88295508  0.02078635  1
  Cu  Cu43  1  0.88295508  0.65261557  0.47921365  1
  Cu  Cu44  1  0.26461856  0.17458407  0.97962646  1
  Cu  Cu45  1  0.17458407  0.26461856  0.52037354  1
  Cu  Cu46  1  0.73538144  0.82541593  0.02037354  1
  Cu  Cu47  1  0.82541593  0.73538144  0.47962646  1
  Cu  Cu48  1  0.32226462  0.55114926  0.01934361  1
  Cu  Cu49  1  0.55114926  0.32226462  0.48065639  1
  Cu  Cu50  1  0.67773538  0.44885074  0.98065639  1
  Cu  Cu51  1  0.44885074  0.67773538  0.51934361  1
  Cu  Cu52  1  0.19545321  0.68427233  0.98031429  1
  Cu  Cu53  1  0.68427233  0.19545321  0.51968571  1
  Cu  Cu54  1  0.80454679  0.31572767  0.01968571  1
  Cu  Cu55  1  0.31572767  0.80454679  0.48031429  1
  Cu  Cu56  1  0.21075795  0.57187233  0.98373767  1
  Cu  Cu57  1  0.57187233  0.21075795  0.51626233  1
  Cu  Cu58  1  0.78924205  0.42812767  0.01626233  1
  Cu  Cu59  1  0.42812767  0.78924205  0.48373767  1
  Cu  Cu60  1  0.66132957  0.15176951  0.15064632  1
  Cu  Cu61  1  0.15176951  0.66132957  0.34935368  1
  Cu  Cu62  1  0.33867043  0.84823049  0.84935368  1
  Cu  Cu63  1  0.84823049  0.33867043  0.65064632  1
  Cu  Cu64  1  0.63956335  0.03265197  0.32326160  1
  Cu  Cu65  1  0.03265197  0.63956335  0.17673840  1
  Cu  Cu66  1  0.36043665  0.96734803  0.67673840  1
  Cu  Cu67  1  0.96734803  0.36043665  0.82326160  1
  Cu  Cu68  1  0.19573806  0.95296892  0.86795802  1
  Cu  Cu69  1  0.95296892  0.19573806  0.63204198  1
  Cu  Cu70  1  0.80426194  0.04703108  0.13204198  1
  Cu  Cu71  1  0.04703108  0.80426194  0.36795802  1
  Cu  Cu72  1  0.22774684  0.08849340  0.68703113  1
  Cu  Cu73  1  0.08849340  0.22774684  0.81296887  1
  Cu  Cu74  1  0.77225316  0.91150660  0.31296887  1
  Cu  Cu75  1  0.91150660  0.77225316  0.18703113  1
  Cu  Cu76  1  0.53158910  0.33416294  0.15940467  1
  Cu  Cu77  1  0.33416294  0.53158910  0.34059533  1
  Cu  Cu78  1  0.46841090  0.66583706  0.84059533  1
  Cu  Cu79  1  0.66583706  0.46841090  0.65940467  1
  Cu  Cu80  1  0.69125453  0.29860853  0.31582334  1
  Cu  Cu81  1  0.29860853  0.69125453  0.18417666  1
  Cu  Cu82  1  0.30874547  0.70139147  0.68417666  1
  Cu  Cu83  1  0.70139147  0.30874547  0.81582334  1
  Cu  Cu84  1  0.39390879  0.45493822  0.85542510  1
  Cu  Cu85  1  0.45493822  0.39390879  0.64457490  1
  Cu  Cu86  1  0.60609121  0.54506178  0.14457490  1
  Cu  Cu87  1  0.54506178  0.60609121  0.35542510  1
  Cu  Cu88  1  0.24513593  0.49125612  0.67824413  1
  Cu  Cu89  1  0.49125612  0.24513593  0.82175587  1
  Cu  Cu90  1  0.75486407  0.50874388  0.32175587  1
  Cu  Cu91  1  0.50874388  0.75486407  0.17824413  1
  Cu  Cu92  1  0.40338935  0.05556821  0.17736777  1
  Cu  Cu93  1  0.05556821  0.40338935  0.32263223  1
  Cu  Cu94  1  0.59661065  0.94443179  0.82263223  1
  Cu  Cu95  1  0.94443179  0.59661065  0.67736777  1
  Cu  Cu96  1  0.42431388  0.15722870  0.32887409  1
  Cu  Cu97  1  0.15722870  0.42431388  0.17112591  1
  Cu  Cu98  1  0.57568612  0.84277130  0.67112591  1
  Cu  Cu99  1  0.84277130  0.57568612  0.82887409  1
  Cu  Cu100  1  0.80473044  0.02884422  0.82411164  1
  Cu  Cu101  1  0.02884422  0.80473044  0.67588836  1
  Cu  Cu102  1  0.19526956  0.97115578  0.17588836  1
  Cu  Cu103  1  0.97115578  0.19526956  0.32411164  1
  Cu  Cu104  1  0.78321365  0.91678327  0.65847637  1
  Cu  Cu105  1  0.91678327  0.78321365  0.84152363  1
  Cu  Cu106  1  0.21678635  0.08321673  0.34152363  1
  Cu  Cu107  1  0.08321673  0.21678635  0.15847637  1
