# generated using pymatgen
data_Cu2NiC10
_symmetry_space_group_name_H-M   'P 1'
_cell_length_a   3.68362000
_cell_length_b   3.68362000
_cell_length_c   13.10909200
_cell_angle_alpha   90.00000000
_cell_angle_beta   90.00000000
_cell_angle_gamma   90.00000000
_symmetry_Int_Tables_number   1
_chemical_formula_structural   Cu2NiC10
_chemical_formula_sum   'Cu2 Ni1 C10'
_cell_volume   177.87800745
_cell_formula_units_Z   1
loop_
 _symmetry_equiv_pos_site_id
 _symmetry_equiv_pos_as_xyz
  1  'x, y, z'
loop_
 _atom_site_type_symbol
 _atom_site_label
 _atom_site_symmetry_multiplicity
 _atom_site_fract_x
 _atom_site_fract_y
 _atom_site_fract_z
 _atom_site_occupancy
  C  C0  1  0.50000000  0.50000000  0.21399900  1
  C  C1  1  0.50000000  0.50000000  0.78600100  1
  Ni  Ni2  1  0.50000000  0.50000000  0.50000000  1
  C  C3  1  0.00000000  0.00000000  0.00000000  1
  Cu  Cu4  1  0.00000000  0.00000000  0.38627100  1
  Cu  Cu5  1  0.00000000  0.00000000  0.61372900  1
  C  C6  1  0.00000000  0.00000000  0.16228700  1
  C  C7  1  0.00000000  0.50000000  0.40528200  1
  C  C8  1  0.50000000  0.00000000  0.40528200  1
  C  C9  1  0.50000000  0.00000000  0.59471800  1
  C  C10  1  0.50000000  0.50000000  0.00000000  1
  C  C11  1  0.00000000  0.50000000  0.59471800  1
  C  C12  1  0.00000000  0.00000000  0.83771300  1
