# generated using pymatgen
data_Cu4Ni10C21
_symmetry_space_group_name_H-M   'P 1'
_cell_length_a   6.62874200
_cell_length_b   11.52738600
_cell_length_c   11.68105400
_cell_angle_alpha   90.00000000
_cell_angle_beta   90.00000000
_cell_angle_gamma   90.00000000
_symmetry_Int_Tables_number   1
_chemical_formula_structural   Cu4Ni10C21
_chemical_formula_sum   'Cu8 Ni20 C42'
_cell_volume   892.57348939
_cell_formula_units_Z   2
loop_
 _symmetry_equiv_pos_site_id
 _symmetry_equiv_pos_as_xyz
  1  'x, y, z'
loop_
 _atom_site_type_symbol
 _atom_site_label
 _atom_site_symmetry_multiplicity
 _atom_site_fract_x
 _atom_site_fract_y
 _atom_site_fract_z
 _atom_site_occupancy
  Ni  Ni0  1  0.14643400  0.31573800  0.76690500  1
  Ni  Ni1  1  0.14643400  0.68426200  0.23309500  1
  Ni  Ni2  1  0.64643400  0.18426200  0.26690500  1
  Ni  Ni3  1  0.64643400  0.81573800  0.73309500  1
  Ni  Ni4  1  0.03407900  0.23580500  0.95775400  1
  Ni  Ni5  1  0.03407900  0.76419500  0.04224600  1
  Ni  Ni6  1  0.53407900  0.26419500  0.45775400  1
  Ni  Ni7  1  0.53407900  0.73580500  0.54224600  1
  Ni  Ni8  1  0.37082800  0.48898100  0.74428300  1
  Ni  Ni9  1  0.37082800  0.51101900  0.25571700  1
  Ni  Ni10  1  0.87082800  0.01101900  0.24428300  1
  Ni  Ni11  1  0.87082800  0.98898100  0.75571700  1
  Ni  Ni12  1  0.99701800  0.20907400  0.18039600  1
  Ni  Ni13  1  0.99701800  0.79092600  0.81960400  1
  Ni  Ni14  1  0.49701800  0.29092600  0.68039600  1
  Ni  Ni15  1  0.49701800  0.70907400  0.31960400  1
  Ni  Ni16  1  0.81378800  0.21253900  0.78875200  1
  Ni  Ni17  1  0.81378800  0.78746100  0.21124800  1
  Ni  Ni18  1  0.31378800  0.28746100  0.28875200  1
  Ni  Ni19  1  0.31378800  0.71253900  0.71124800  1
  Cu  Cu20  1  0.84925800  0.53743000  0.73738600  1
  Cu  Cu21  1  0.84925800  0.46257000  0.26261400  1
  Cu  Cu22  1  0.34925800  0.96257000  0.23738600  1
  Cu  Cu23  1  0.34925800  0.03743000  0.76261400  1
  Cu  Cu24  1  0.00364400  0.23024500  0.52333600  1
  Cu  Cu25  1  0.00364400  0.76975500  0.47666400  1
  Cu  Cu26  1  0.50364400  0.26975500  0.02333600  1
  Cu  Cu27  1  0.50364400  0.73024500  0.97666400  1
  C  C28  1  0.24134000  0.00000000  0.50000000  1
  C  C29  1  0.74134000  0.50000000  0.00000000  1
  C  C30  1  0.96795200  0.50000000  0.50000000  1
  C  C31  1  0.46795200  0.00000000  0.00000000  1
  C  C32  1  0.18602000  0.44350800  0.77436700  1
  C  C33  1  0.18602000  0.55649200  0.22563300  1
  C  C34  1  0.68602000  0.05649200  0.27436700  1
  C  C35  1  0.68602000  0.94350800  0.72563300  1
  C  C36  1  0.18711200  0.26136400  0.87998200  1
  C  C37  1  0.18711200  0.73863600  0.12001800  1
  C  C38  1  0.68711200  0.23863600  0.37998200  1
  C  C39  1  0.68711200  0.76136400  0.62001800  1
  C  C40  1  0.93162100  0.30771200  0.73517100  1
  C  C41  1  0.93162100  0.69228800  0.26482900  1
  C  C42  1  0.43162100  0.19228800  0.23517100  1
  C  C43  1  0.43162100  0.80771200  0.76482900  1
  C  C44  1  0.84274200  0.21440300  0.91705700  1
  C  C45  1  0.84274200  0.78559700  0.08294300  1
  C  C46  1  0.34274200  0.28559700  0.41705700  1
  C  C47  1  0.34274200  0.71440300  0.58294300  1
  C  C48  1  0.52323200  0.41797600  0.70611300  1
  C  C49  1  0.52323200  0.58202400  0.29388700  1
  C  C50  1  0.02323200  0.08202400  0.20611300  1
  C  C51  1  0.02323200  0.91797600  0.79388700  1
  C  C52  1  0.27831400  0.26287200  0.67963800  1
  C  C53  1  0.27831400  0.73712800  0.32036200  1
  C  C54  1  0.77831400  0.23712800  0.17963800  1
  C  C55  1  0.77831400  0.76287200  0.82036200  1
  C  C56  1  0.09724300  0.28023200  0.26935300  1
  C  C57  1  0.09724300  0.71976800  0.73064700  1
  C  C58  1  0.59724300  0.21976800  0.76935300  1
  C  C59  1  0.59724300  0.78023200  0.23064700  1
  C  C60  1  0.91215200  0.10472500  0.74289300  1
  C  C61  1  0.91215200  0.89527500  0.25710700  1
  C  C62  1  0.41215200  0.39527500  0.24289300  1
  C  C63  1  0.41215200  0.60472500  0.75710700  1
  C  C64  1  0.09276200  0.23370900  0.06930300  1
  C  C65  1  0.09276200  0.76629100  0.93069700  1
  C  C66  1  0.59276200  0.26629100  0.56930300  1
  C  C67  1  0.59276200  0.73370900  0.43069700  1
  C  C68  1  0.37501400  0.50000000  0.00000000  1
  C  C69  1  0.87501400  0.00000000  0.50000000  1
