# generated using pymatgen
data_Cu3Ni8C13
_symmetry_space_group_name_H-M   'P 1'
_cell_length_a   8.03829754
_cell_length_b   9.10367851
_cell_length_c   10.32860298
_cell_angle_alpha   70.51165333
_cell_angle_beta   119.41879551
_cell_angle_gamma   85.42163412
_symmetry_Int_Tables_number   1
_chemical_formula_structural   Cu3Ni8C13
_chemical_formula_sum   'Cu6 Ni16 C26'
_cell_volume   592.68687895
_cell_formula_units_Z   2
loop_
 _symmetry_equiv_pos_site_id
 _symmetry_equiv_pos_as_xyz
  1  'x, y, z'
loop_
 _atom_site_type_symbol
 _atom_site_label
 _atom_site_symmetry_multiplicity
 _atom_site_fract_x
 _atom_site_fract_y
 _atom_site_fract_z
 _atom_site_occupancy
  C  C0  1  0.15515000  0.32598700  0.76142400  1
  C  C1  1  0.84485000  0.67401300  0.23857600  1
  C  C2  1  0.13245600  0.11884400  0.76079200  1
  C  C3  1  0.86754400  0.88115600  0.23920800  1
  C  C4  1  0.92588500  0.27177900  0.62785200  1
  C  C5  1  0.07411500  0.72822100  0.37214800  1
  C  C6  1  0.32986800  0.89914300  0.78866200  1
  C  C7  1  0.67013200  0.10085700  0.21133800  1
  C  C8  1  0.34174000  0.87286500  0.95253000  1
  C  C9  1  0.65826000  0.12713500  0.04747000  1
  C  C10  1  0.41119300  0.41004200  0.13369200  1
  C  C11  1  0.58880700  0.58995800  0.86630800  1
  C  C12  1  0.15266900  0.51767800  0.68900700  1
  C  C13  1  0.84733100  0.48232200  0.31099300  1
  C  C14  1  0.37842600  0.37247600  0.79278800  1
  C  C15  1  0.62157400  0.62752400  0.20721200  1
  C  C16  1  0.39272700  0.43009900  0.05023200  1
  C  C17  1  0.60727300  0.56990100  0.94976800  1
  C  C18  1  0.64992200  0.35115000  0.82104100  1
  C  C19  1  0.35007800  0.64885000  0.17895900  1
  C  C20  1  0.53980900  0.23634700  0.75019900  1
  C  C21  1  0.46019100  0.76365300  0.24980100  1
  C  C22  1  0.81052600  0.79263900  0.69820100  1
  C  C23  1  0.18947400  0.20736100  0.30179900  1
  C  C24  1  0.71112100  0.66853200  0.57898400  1
  C  C25  1  0.28887900  0.33146800  0.42101600  1
  Ni  Ni26  1  0.86979700  0.61471500  0.55797200  1
  Ni  Ni27  1  0.13020300  0.38528500  0.44202800  1
  Ni  Ni28  1  0.52999100  0.78767300  0.42493400  1
  Ni  Ni29  1  0.47000900  0.21232700  0.57506600  1
  Ni  Ni30  1  0.67705100  0.53915900  0.68299700  1
  Ni  Ni31  1  0.32294900  0.46084100  0.31700300  1
  Ni  Ni32  1  0.05023700  0.22681700  0.73571100  1
  Ni  Ni33  1  0.94976300  0.77318300  0.26428900  1
  Ni  Ni34  1  0.30815400  0.95616300  0.84589900  1
  Ni  Ni35  1  0.69184600  0.04383700  0.15410100  1
  Ni  Ni36  1  0.93660600  0.06493200  0.94383200  1
  Ni  Ni37  1  0.06339400  0.93506800  0.05616800  1
  Ni  Ni38  1  0.24686400  0.41397700  0.78451000  1
  Ni  Ni39  1  0.75313600  0.58602300  0.21549000  1
  Ni  Ni40  1  0.57253800  0.27645100  0.83686200  1
  Ni  Ni41  1  0.42746200  0.72354900  0.16313800  1
  Cu  Cu42  1  0.68127500  0.84640300  0.73176200  1
  Cu  Cu43  1  0.31872500  0.15359700  0.26823800  1
  Cu  Cu44  1  0.98802000  0.70200900  0.84296000  1
  Cu  Cu45  1  0.01198000  0.29799100  0.15704000  1
  Cu  Cu46  1  0.84076400  0.92445800  0.61079100  1
  Cu  Cu47  1  0.15923600  0.07554200  0.38920900  1
