# generated using pymatgen
data_CuNi2C5
_symmetry_space_group_name_H-M   'P 1'
_cell_length_a   4.08175700
_cell_length_b   4.08175700
_cell_length_c   16.06862800
_cell_angle_alpha   90.00000000
_cell_angle_beta   90.00000000
_cell_angle_gamma   90.00000000
_symmetry_Int_Tables_number   1
_chemical_formula_structural   CuNi2C5
_chemical_formula_sum   'Cu2 Ni4 C10'
_cell_volume   267.71523659
_cell_formula_units_Z   2
loop_
 _symmetry_equiv_pos_site_id
 _symmetry_equiv_pos_as_xyz
  1  'x, y, z'
loop_
 _atom_site_type_symbol
 _atom_site_label
 _atom_site_symmetry_multiplicity
 _atom_site_fract_x
 _atom_site_fract_y
 _atom_site_fract_z
 _atom_site_occupancy
  Ni  Ni0  1  0.50000000  0.00000000  0.80809700  1
  Ni  Ni1  1  0.00000000  0.50000000  0.19190300  1
  Ni  Ni2  1  0.50000000  0.00000000  0.58511600  1
  Ni  Ni3  1  0.00000000  0.50000000  0.41488400  1
  Cu  Cu4  1  0.00000000  0.50000000  0.69179000  1
  Cu  Cu5  1  0.50000000  0.00000000  0.30821000  1
  C  C6  1  0.50000000  0.50000000  0.00000000  1
  C  C7  1  0.00000000  0.00000000  0.00000000  1
  C  C8  1  0.00000000  0.50000000  0.90760200  1
  C  C9  1  0.50000000  0.00000000  0.09239800  1
  C  C10  1  0.50000000  0.50000000  0.71263000  1
  C  C11  1  0.00000000  0.00000000  0.71263000  1
  C  C12  1  0.00000000  0.00000000  0.28737000  1
  C  C13  1  0.50000000  0.50000000  0.28737000  1
  C  C14  1  0.00000000  0.50000000  0.56662400  1
  C  C15  1  0.50000000  0.00000000  0.43337600  1
