# generated using pymatgen
data_Cu(NiC6)2
_symmetry_space_group_name_H-M   'P 1'
_cell_length_a   5.81516965
_cell_length_b   5.81516965
_cell_length_c   7.83393096
_cell_angle_alpha   67.94418955
_cell_angle_beta   67.94418955
_cell_angle_gamma   72.70118422
_symmetry_Int_Tables_number   1
_chemical_formula_structural   Cu(NiC6)2
_chemical_formula_sum   'Cu1 Ni2 C12'
_cell_volume   223.75784057
_cell_formula_units_Z   1
loop_
 _symmetry_equiv_pos_site_id
 _symmetry_equiv_pos_as_xyz
  1  'x, y, z'
loop_
 _atom_site_type_symbol
 _atom_site_label
 _atom_site_symmetry_multiplicity
 _atom_site_fract_x
 _atom_site_fract_y
 _atom_site_fract_z
 _atom_site_occupancy
  C  C0  1  0.00596600  0.00596600  0.00021200  1
  Ni  Ni1  1  0.50804300  0.50804300  0.22895500  1
  Ni  Ni2  1  0.51124200  0.51124200  0.76250800  1
  Cu  Cu3  1  0.00982500  0.00982500  0.49779300  1
  C  C4  1  0.78260100  0.20786600  0.30551800  1
  C  C5  1  0.20786600  0.78260100  0.30551800  1
  C  C6  1  0.23074000  0.80591700  0.69126000  1
  C  C7  1  0.80591700  0.23074000  0.69126000  1
  C  C8  1  0.74342200  0.74342200  0.07489400  1
  C  C9  1  0.27537200  0.27537200  0.87687100  1
  C  C10  1  0.75639300  0.75639300  0.64351300  1
  C  C11  1  0.26242400  0.26242400  0.36105700  1
  C  C12  1  0.66886800  0.33469400  0.99998400  1
  C  C13  1  0.33469400  0.66886800  0.99998400  1
  C  C14  1  0.53652800  0.53652800  0.47957200  1
