# generated using pymatgen
data_CuNi2C7
_symmetry_space_group_name_H-M   'P 1'
_cell_length_a   5.71291700
_cell_length_b   5.53344500
_cell_length_c   9.67508376
_cell_angle_alpha   55.07507247
_cell_angle_beta   90.00000000
_cell_angle_gamma   90.00000000
_symmetry_Int_Tables_number   1
_chemical_formula_structural   CuNi2C7
_chemical_formula_sum   'Cu2 Ni4 C14'
_cell_volume   250.76715647
_cell_formula_units_Z   2
loop_
 _symmetry_equiv_pos_site_id
 _symmetry_equiv_pos_as_xyz
  1  'x, y, z'
loop_
 _atom_site_type_symbol
 _atom_site_label
 _atom_site_symmetry_multiplicity
 _atom_site_fract_x
 _atom_site_fract_y
 _atom_site_fract_z
 _atom_site_occupancy
  Ni  Ni0  1  0.44834700  0.23634900  0.75042300  1
  Ni  Ni1  1  0.55165300  0.76365100  0.24957700  1
  Ni  Ni2  1  0.94834700  0.76365100  0.74957700  1
  Ni  Ni3  1  0.05165300  0.23634900  0.25042300  1
  Cu  Cu4  1  0.00000000  0.00000000  0.00000000  1
  Cu  Cu5  1  0.50000000  0.00000000  0.50000000  1
  C  C6  1  0.00000000  0.50000000  0.50000000  1
  C  C7  1  0.50000000  0.50000000  0.00000000  1
  C  C8  1  0.03291800  0.35516900  0.74280300  1
  C  C9  1  0.96708200  0.64483100  0.25719700  1
  C  C10  1  0.53291800  0.64483100  0.75719700  1
  C  C11  1  0.46708200  0.35516900  0.24280300  1
  C  C12  1  0.69676200  0.84176300  0.94974500  1
  C  C13  1  0.30323800  0.15823700  0.05025500  1
  C  C14  1  0.19676200  0.15823700  0.55025500  1
  C  C15  1  0.80323800  0.84176300  0.44974500  1
  C  C16  1  0.21039900  0.74719100  0.94653500  1
  C  C17  1  0.78960100  0.25280900  0.05346500  1
  C  C18  1  0.71039900  0.25280900  0.55346500  1
  C  C19  1  0.28960100  0.74719100  0.44653500  1
