# generated using pymatgen
data_CuNiC
_symmetry_space_group_name_H-M   'P 1'
_cell_length_a   3.79229800
_cell_length_b   4.83085700
_cell_length_c   5.88399200
_cell_angle_alpha   90.00000000
_cell_angle_beta   90.00000000
_cell_angle_gamma   90.00000000
_symmetry_Int_Tables_number   1
_chemical_formula_structural   CuNiC
_chemical_formula_sum   'Cu2 Ni2 C2'
_cell_volume   107.79502375
_cell_formula_units_Z   2
loop_
 _symmetry_equiv_pos_site_id
 _symmetry_equiv_pos_as_xyz
  1  'x, y, z'
loop_
 _atom_site_type_symbol
 _atom_site_label
 _atom_site_symmetry_multiplicity
 _atom_site_fract_x
 _atom_site_fract_y
 _atom_site_fract_z
 _atom_site_occupancy
  Ni  Ni0  1  0.00000000  0.50000000  0.25109300  1
  Ni  Ni1  1  0.50000000  0.00000000  0.74890700  1
  C  C2  1  0.50000000  0.50000000  0.95160900  1
  C  C3  1  0.00000000  0.00000000  0.04839100  1
  Cu  Cu4  1  0.50000000  0.50000000  0.50020900  1
  Cu  Cu5  1  0.00000000  0.00000000  0.49979100  1
