# generated using pymatgen
data_Cu3(NiC7)2
_symmetry_space_group_name_H-M   'P 1'
_cell_length_a   9.53034800
_cell_length_b   9.75367500
_cell_length_c   13.21532200
_cell_angle_alpha   90.00000000
_cell_angle_beta   90.00000000
_cell_angle_gamma   90.00000000
_symmetry_Int_Tables_number   1
_chemical_formula_structural   Cu3(NiC7)2
_chemical_formula_sum   'Cu12 Ni8 C56'
_cell_volume   1228.44237534
_cell_formula_units_Z   4
loop_
 _symmetry_equiv_pos_site_id
 _symmetry_equiv_pos_as_xyz
  1  'x, y, z'
loop_
 _atom_site_type_symbol
 _atom_site_label
 _atom_site_symmetry_multiplicity
 _atom_site_fract_x
 _atom_site_fract_y
 _atom_site_fract_z
 _atom_site_occupancy
  C  C0  1  0.26927200  0.77694000  0.81101900  1
  C  C1  1  0.73072800  0.22306000  0.18898100  1
  C  C2  1  0.76927200  0.72306000  0.68898100  1
  C  C3  1  0.23072800  0.77694000  0.18898100  1
  C  C4  1  0.23072800  0.27694000  0.31101900  1
  C  C5  1  0.76927200  0.22306000  0.81101900  1
  C  C6  1  0.73072800  0.72306000  0.31101900  1
  C  C7  1  0.26927200  0.27694000  0.68898100  1
  Ni  Ni8  1  0.46578300  0.75407200  0.62244600  1
  Ni  Ni9  1  0.53421700  0.24592800  0.37755400  1
  Ni  Ni10  1  0.96578300  0.74592800  0.87755400  1
  Ni  Ni11  1  0.03421700  0.75407200  0.37755400  1
  Ni  Ni12  1  0.03421700  0.25407200  0.12244600  1
  Ni  Ni13  1  0.96578300  0.24592800  0.62244600  1
  Ni  Ni14  1  0.53421700  0.74592800  0.12244600  1
  Ni  Ni15  1  0.46578300  0.25407200  0.87755400  1
  Cu  Cu16  1  0.10500300  0.59773600  0.64232500  1
  Cu  Cu17  1  0.89499700  0.40226400  0.35767500  1
  Cu  Cu18  1  0.60500300  0.90226400  0.85767500  1
  Cu  Cu19  1  0.39499700  0.59773600  0.35767500  1
  Cu  Cu20  1  0.39499700  0.09773600  0.14232500  1
  Cu  Cu21  1  0.60500300  0.40226400  0.64232500  1
  Cu  Cu22  1  0.89499700  0.90226400  0.14232500  1
  Cu  Cu23  1  0.10500300  0.09773600  0.85767500  1
  Cu  Cu24  1  0.25000000  0.03788800  0.50000000  1
  Cu  Cu25  1  0.75000000  0.96211200  0.50000000  1
  Cu  Cu26  1  0.75000000  0.46211200  0.00000000  1
  Cu  Cu27  1  0.25000000  0.53788800  0.00000000  1
  C  C28  1  0.07037600  0.64055300  0.51271300  1
  C  C29  1  0.92962400  0.35944700  0.48728700  1
  C  C30  1  0.57037600  0.85944700  0.98728700  1
  C  C31  1  0.42962400  0.64055300  0.48728700  1
  C  C32  1  0.42962400  0.14055300  0.01271300  1
  C  C33  1  0.57037600  0.35944700  0.51271300  1
  C  C34  1  0.92962400  0.85944700  0.01271300  1
  C  C35  1  0.07037600  0.14055300  0.98728700  1
  C  C36  1  0.11109700  0.91206800  0.83782800  1
  C  C37  1  0.88890300  0.08793200  0.16217200  1
  C  C38  1  0.61109700  0.58793200  0.66217200  1
  C  C39  1  0.38890300  0.91206800  0.16217200  1
  C  C40  1  0.38890300  0.41206800  0.33782800  1
  C  C41  1  0.61109700  0.08793200  0.83782800  1
  C  C42  1  0.88890300  0.58793200  0.33782800  1
  C  C43  1  0.11109700  0.41206800  0.66217200  1
  C  C44  1  0.46548100  0.82854700  0.78053800  1
  C  C45  1  0.53451900  0.17145300  0.21946200  1
  C  C46  1  0.96548100  0.67145300  0.71946200  1
  C  C47  1  0.03451900  0.82854700  0.21946200  1
  C  C48  1  0.03451900  0.32854700  0.28053800  1
  C  C49  1  0.96548100  0.17145300  0.78053800  1
  C  C50  1  0.53451900  0.67145300  0.28053800  1
  C  C51  1  0.46548100  0.32854700  0.71946200  1
  C  C52  1  0.37491200  0.93176900  0.56534800  1
  C  C53  1  0.62508800  0.06823100  0.43465200  1
  C  C54  1  0.87491200  0.56823100  0.93465200  1
  C  C55  1  0.12508800  0.93176900  0.43465200  1
  C  C56  1  0.12508800  0.43176900  0.06534800  1
  C  C57  1  0.87491200  0.06823100  0.56534800  1
  C  C58  1  0.62508800  0.56823100  0.06534800  1
  C  C59  1  0.37491200  0.43176900  0.93465200  1
  C  C60  1  0.16507600  0.64921100  0.90660800  1
  C  C61  1  0.83492400  0.35078900  0.09339200  1
  C  C62  1  0.66507600  0.85078900  0.59339200  1
  C  C63  1  0.33492400  0.64921100  0.09339200  1
  C  C64  1  0.33492400  0.14921100  0.40660800  1
  C  C65  1  0.66507600  0.35078900  0.90660800  1
  C  C66  1  0.83492400  0.85078900  0.40660800  1
  C  C67  1  0.16507600  0.14921100  0.59339200  1
  C  C68  1  0.27148200  0.67368500  0.68068800  1
  C  C69  1  0.72851800  0.32631500  0.31931200  1
  C  C70  1  0.77148200  0.82631500  0.81931200  1
  C  C71  1  0.22851800  0.67368500  0.31931200  1
  C  C72  1  0.22851800  0.17368500  0.18068800  1
  C  C73  1  0.77148200  0.32631500  0.68068800  1
  C  C74  1  0.72851800  0.82631500  0.18068800  1
  C  C75  1  0.27148200  0.17368500  0.81931200  1
