# generated using pymatgen
data_Cu8NiC6
_symmetry_space_group_name_H-M   'P 1'
_cell_length_a   3.98170800
_cell_length_b   3.98170800
_cell_length_c   14.99345900
_cell_angle_alpha   90.00000000
_cell_angle_beta   90.00000000
_cell_angle_gamma   90.00000000
_symmetry_Int_Tables_number   1
_chemical_formula_structural   Cu8NiC6
_chemical_formula_sum   'Cu8 Ni1 C6'
_cell_volume   237.70627795
_cell_formula_units_Z   1
loop_
 _symmetry_equiv_pos_site_id
 _symmetry_equiv_pos_as_xyz
  1  'x, y, z'
loop_
 _atom_site_type_symbol
 _atom_site_label
 _atom_site_symmetry_multiplicity
 _atom_site_fract_x
 _atom_site_fract_y
 _atom_site_fract_z
 _atom_site_occupancy
  C  C0  1  0.50000000  0.50000000  0.32549300  1
  C  C1  1  0.50000000  0.50000000  0.14156200  1
  C  C2  1  0.00000000  0.00000000  0.36442100  1
  C  C3  1  0.00000000  0.00000000  0.63391900  1
  C  C4  1  0.50000000  0.50000000  0.80018500  1
  C  C5  1  0.00000000  0.00000000  0.00514000  1
  Ni  Ni6  1  0.50000000  0.50000000  0.49539900  1
  Cu  Cu7  1  0.00000000  0.00000000  0.14293300  1
  Cu  Cu8  1  0.50000000  0.00000000  0.02975900  1
  Cu  Cu9  1  0.00000000  0.50000000  0.02975900  1
  Cu  Cu10  1  0.00000000  0.00000000  0.88335600  1
  Cu  Cu11  1  0.50000000  0.00000000  0.70527300  1
  Cu  Cu12  1  0.00000000  0.50000000  0.70527300  1
  Cu  Cu13  1  0.50000000  0.00000000  0.29689800  1
  Cu  Cu14  1  0.00000000  0.50000000  0.29689800  1
