# generated using pymatgen
data_Cu19Ni5C7
_symmetry_space_group_name_H-M   'P 1'
_cell_length_a   5.57909645
_cell_length_b   5.03155673
_cell_length_c   15.77946830
_cell_angle_alpha   91.61196506
_cell_angle_beta   104.01256513
_cell_angle_gamma   91.72901015
_symmetry_Int_Tables_number   1
_chemical_formula_structural   Cu19Ni5C7
_chemical_formula_sum   'Cu19 Ni5 C7'
_cell_volume   429.29030234
_cell_formula_units_Z   1
loop_
 _symmetry_equiv_pos_site_id
 _symmetry_equiv_pos_as_xyz
  1  'x, y, z'
loop_
 _atom_site_type_symbol
 _atom_site_label
 _atom_site_symmetry_multiplicity
 _atom_site_fract_x
 _atom_site_fract_y
 _atom_site_fract_z
 _atom_site_occupancy
  C  C0  1  0.31709700  0.51368900  0.15794300  1
  C  C1  1  0.05349500  0.95848100  0.99920500  1
  C  C2  1  0.11230000  0.46230600  0.33548600  1
  C  C3  1  0.26602600  0.03518500  0.66130500  1
  C  C4  1  0.54365100  0.47323900  0.98436900  1
  C  C5  1  0.64298800  0.99115500  0.33514200  1
  C  C6  1  0.77346000  0.48804200  0.66262200  1
  Ni  Ni7  1  0.01594800  0.21165300  0.63422100  1
  Ni  Ni8  1  0.51665100  0.29719700  0.63463200  1
  Ni  Ni9  1  0.75041500  0.28885600  0.95956900  1
  Ni  Ni10  1  0.25802200  0.72569200  0.04219500  1
  Ni  Ni11  1  0.86954300  0.23092600  0.29938500  1
  Cu  Cu12  1  0.27370300  0.21815200  0.95621900  1
  Cu  Cu13  1  0.14320200  0.73086600  0.69838500  1
  Cu  Cu14  1  0.10862400  0.19995800  0.10095000  1
  Cu  Cu15  1  0.23407100  0.37944700  0.44672300  1
  Cu  Cu16  1  0.40246900  0.13842500  0.77122700  1
  Cu  Cu17  1  0.07666200  0.61777900  0.22088500  1
  Cu  Cu18  1  0.28522800  0.87916200  0.56147900  1
  Cu  Cu19  1  0.42007000  0.64388200  0.88934000  1
  Cu  Cu20  1  0.37627400  0.24883400  0.29013600  1
  Cu  Cu21  1  0.39900900  0.74610700  0.36384400  1
  Cu  Cu22  1  0.65341000  0.78941900  0.69754700  1
  Cu  Cu23  1  0.57876200  0.37929900  0.10136600  1
  Cu  Cu24  1  0.69990700  0.13042200  0.44104600  1
  Cu  Cu25  1  0.90203000  0.39325300  0.77089700  1
  Cu  Cu26  1  0.55046700  0.80975700  0.22483000  1
  Cu  Cu27  1  0.79509400  0.61127300  0.56053200  1
  Cu  Cu28  1  0.91408100  0.87087700  0.88740800  1
  Cu  Cu29  1  0.76139400  0.77470400  0.03121900  1
  Cu  Cu30  1  0.90118300  0.73696000  0.36918300  1
