# generated using pymatgen
data_Cu3NiC24
_symmetry_space_group_name_H-M   'P 1'
_cell_length_a   6.11067100
_cell_length_b   4.75208000
_cell_length_c   10.46342151
_cell_angle_alpha   89.92693616
_cell_angle_beta   90.00000000
_cell_angle_gamma   90.00000000
_symmetry_Int_Tables_number   1
_chemical_formula_structural   Cu3NiC24
_chemical_formula_sum   'Cu3 Ni1 C24'
_cell_volume   303.84074533
_cell_formula_units_Z   1
loop_
 _symmetry_equiv_pos_site_id
 _symmetry_equiv_pos_as_xyz
  1  'x, y, z'
loop_
 _atom_site_type_symbol
 _atom_site_label
 _atom_site_symmetry_multiplicity
 _atom_site_fract_x
 _atom_site_fract_y
 _atom_site_fract_z
 _atom_site_occupancy
  C  C0  1  0.25071100  0.50015700  0.49960700  1
  C  C1  1  0.74987800  0.99950000  0.99979700  1
  C  C2  1  0.74928900  0.50015700  0.49960700  1
  C  C3  1  0.25012200  0.99950000  0.99979700  1
  Ni  Ni4  1  0.00000000  0.51722400  0.77768500  1
  Cu  Cu5  1  0.00000000  0.97480500  0.28098300  1
  Cu  Cu6  1  0.50000000  0.47505200  0.21789400  1
  Cu  Cu7  1  0.50000000  0.02347100  0.71954200  1
  C  C8  1  0.00000000  0.08144400  0.59419600  1
  C  C9  1  0.00000000  0.41806100  0.09473200  1
  C  C10  1  0.50000000  0.91814300  0.40537000  1
  C  C11  1  0.50000000  0.58388800  0.90591400  1
  C  C12  1  0.20273800  0.21475200  0.66525600  1
  C  C13  1  0.79757800  0.28451900  0.16549900  1
  C  C14  1  0.70266200  0.78481000  0.33504700  1
  C  C15  1  0.29865000  0.72027400  0.83586700  1
  C  C16  1  0.29733800  0.78481000  0.33504700  1
  C  C17  1  0.70135000  0.72027400  0.83586700  1
  C  C18  1  0.79726200  0.21475200  0.66525600  1
  C  C19  1  0.20242200  0.28451900  0.16549900  1
  C  C20  1  0.00000000  0.75848900  0.59640500  1
  C  C21  1  0.00000000  0.74133400  0.09709400  1
  C  C22  1  0.50000000  0.24163300  0.40327300  1
  C  C23  1  0.50000000  0.26011400  0.90306600  1
  C  C24  1  0.00000000  0.29274400  0.95748900  1
  C  C25  1  0.00000000  0.20639500  0.45717600  1
  C  C26  1  0.50000000  0.70550700  0.04395200  1
  C  C27  1  0.50000000  0.79366800  0.54308300  1
