# generated using pymatgen
data_Cu2NiC4
_symmetry_space_group_name_H-M   'P 1'
_cell_length_a   6.40680398
_cell_length_b   6.40680398
_cell_length_c   15.36182500
_cell_angle_alpha   90.00000000
_cell_angle_beta   90.00000000
_cell_angle_gamma   119.99999981
_symmetry_Int_Tables_number   1
_chemical_formula_structural   Cu2NiC4
_chemical_formula_sum   'Cu12 Ni6 C24'
_cell_volume   546.08006110
_cell_formula_units_Z   6
loop_
 _symmetry_equiv_pos_site_id
 _symmetry_equiv_pos_as_xyz
  1  'x, y, z'
loop_
 _atom_site_type_symbol
 _atom_site_label
 _atom_site_symmetry_multiplicity
 _atom_site_fract_x
 _atom_site_fract_y
 _atom_site_fract_z
 _atom_site_occupancy
  Ni  Ni0  1  0.00000000  0.00000000  0.95152500  1
  Ni  Ni1  1  0.66666700  0.33333300  0.61962300  1
  Ni  Ni2  1  0.33333300  0.66666700  0.66547500  1
  Ni  Ni3  1  0.33333300  0.66666700  0.28676200  1
  Ni  Ni4  1  0.66666700  0.33333300  0.99806300  1
  Ni  Ni5  1  0.66666700  0.33333300  0.37965400  1
  Cu  Cu6  1  0.99834100  0.49917100  0.83316200  1
  Cu  Cu7  1  0.50082900  0.49917100  0.83316200  1
  Cu  Cu8  1  0.66102000  0.83051000  0.50036300  1
  Cu  Cu9  1  0.50082900  0.00165900  0.83316200  1
  Cu  Cu10  1  0.16949000  0.83051000  0.50036300  1
  Cu  Cu11  1  0.00000000  0.00000000  0.33439600  1
  Cu  Cu12  1  0.00000000  0.00000000  0.70982500  1
  Cu  Cu13  1  0.33666400  0.16833200  0.16633300  1
  Cu  Cu14  1  0.16949000  0.33898000  0.50036300  1
  Cu  Cu15  1  0.83166800  0.16833200  0.16633300  1
  Cu  Cu16  1  0.83166800  0.66333600  0.16633300  1
  Cu  Cu17  1  0.33333300  0.66666700  0.04530800  1
  C  C18  1  0.35883100  0.17941600  0.91279700  1
  C  C19  1  0.66666700  0.33333300  0.74996900  1
  C  C20  1  0.82058400  0.17941600  0.91279700  1
  C  C21  1  0.82058400  0.64116900  0.91279700  1
  C  C22  1  0.02045100  0.51022600  0.58488900  1
  C  C23  1  0.18780400  0.37560800  0.75825500  1
  C  C24  1  0.33333300  0.66666700  0.41794300  1
  C  C25  1  0.18780400  0.81219600  0.75825500  1
  C  C26  1  0.33333300  0.66666700  0.91007700  1
  C  C27  1  0.48977400  0.51022600  0.58488900  1
  C  C28  1  0.48977400  0.97954900  0.58488900  1
  C  C29  1  0.62439200  0.81219600  0.75825500  1
  C  C30  1  0.68252900  0.84126500  0.24161500  1
  C  C31  1  0.83815100  0.67630300  0.42112200  1
  C  C32  1  0.83815100  0.16184900  0.42112200  1
  C  C33  1  0.00000000  0.00000000  0.07965100  1
  C  C34  1  0.00000000  0.00000000  0.57057800  1
  C  C35  1  0.15873500  0.84126500  0.24161500  1
  C  C36  1  0.15873500  0.31747100  0.24161500  1
  C  C37  1  0.32369700  0.16184900  0.42112200  1
  C  C38  1  0.52135400  0.04270800  0.09080300  1
  C  C39  1  0.52135400  0.47864600  0.09080300  1
  C  C40  1  0.66666700  0.33333300  0.25331500  1
  C  C41  1  0.95729200  0.47864600  0.09080300  1
