# generated using pymatgen
data_Cu(NiC)4
_symmetry_space_group_name_H-M   'P 1'
_cell_length_a   5.52768100
_cell_length_b   5.62519036
_cell_length_c   7.81558457
_cell_angle_alpha   107.19742549
_cell_angle_beta   104.31516399
_cell_angle_gamma   97.39953012
_symmetry_Int_Tables_number   1
_chemical_formula_structural   Cu(NiC)4
_chemical_formula_sum   'Cu2 Ni8 C8'
_cell_volume   219.53052132
_cell_formula_units_Z   2
loop_
 _symmetry_equiv_pos_site_id
 _symmetry_equiv_pos_as_xyz
  1  'x, y, z'
loop_
 _atom_site_type_symbol
 _atom_site_label
 _atom_site_symmetry_multiplicity
 _atom_site_fract_x
 _atom_site_fract_y
 _atom_site_fract_z
 _atom_site_occupancy
  C  C0  1  0.26316500  0.57534300  0.15784400  1
  C  C1  1  0.46253100  0.14232200  0.83036000  1
  C  C2  1  0.49737900  0.02965000  0.46399100  1
  C  C3  1  0.82170300  0.46559700  0.83535600  1
  C  C4  1  0.66475500  0.35784100  0.22955400  1
  C  C5  1  0.33617300  0.63190300  0.77973400  1
  C  C6  1  0.00505200  0.99935400  0.00967100  1
  C  C7  1  0.97786500  0.98888200  0.50592500  1
  Ni  Ni8  1  0.26410200  0.79825800  0.65936200  1
  Ni  Ni9  1  0.72035800  0.20361500  0.36098100  1
  Ni  Ni10  1  0.29765500  0.34274200  0.67183900  1
  Ni  Ni11  1  0.16729400  0.65836000  0.91876700  1
  Ni  Ni12  1  0.84694600  0.33700700  0.10102400  1
  Ni  Ni13  1  0.38550700  0.24703400  0.08513300  1
  Ni  Ni14  1  0.66705600  0.63926200  0.33222700  1
  Ni  Ni15  1  0.62533400  0.72638300  0.89561800  1
  Cu  Cu16  1  0.73491700  0.12977100  0.69810400  1
  Cu  Cu17  1  0.19008800  0.85830900  0.30592100  1
