# generated using pymatgen
data_Cu5Ni2C25
_symmetry_space_group_name_H-M   'P 1'
_cell_length_a   4.98193200
_cell_length_b   5.94516654
_cell_length_c   9.81456238
_cell_angle_alpha   100.27964884
_cell_angle_beta   93.43928792
_cell_angle_gamma   91.58286014
_symmetry_Int_Tables_number   1
_chemical_formula_structural   Cu5Ni2C25
_chemical_formula_sum   'Cu5 Ni2 C25'
_cell_volume   285.29311155
_cell_formula_units_Z   1
loop_
 _symmetry_equiv_pos_site_id
 _symmetry_equiv_pos_as_xyz
  1  'x, y, z'
loop_
 _atom_site_type_symbol
 _atom_site_label
 _atom_site_symmetry_multiplicity
 _atom_site_fract_x
 _atom_site_fract_y
 _atom_site_fract_z
 _atom_site_occupancy
  C  C0  1  0.88127900  0.81741500  0.25444800  1
  C  C1  1  0.12735700  0.68709100  0.74829600  1
  C  C2  1  0.37247400  0.57035800  0.25461500  1
  C  C3  1  0.87856400  0.30964300  0.25352700  1
  C  C4  1  0.12163100  0.18201300  0.74647800  1
  C  C5  1  0.38275000  0.05617500  0.25346100  1
  C  C6  1  0.61156000  0.93152200  0.74412000  1
  C  C7  1  0.62882200  0.44055800  0.74647700  1
  C  C8  1  0.25040500  0.87495900  0.49916500  1
  Ni  Ni9  1  0.00076700  0.99997900  0.99880400  1
  Ni  Ni10  1  0.24795400  0.37226100  0.50207700  1
  Cu  Cu11  1  0.50060800  0.74786800  0.99997100  1
  Cu  Cu12  1  0.74989100  0.63060000  0.49970700  1
  Cu  Cu13  1  0.99960200  0.50071800  0.00121800  1
  Cu  Cu14  1  0.50057000  0.25373100  0.00008000  1
  Cu  Cu15  1  0.74331200  0.11812000  0.49813900  1
  C  C16  1  0.69410300  0.03257800  0.11320400  1
  C  C17  1  0.89792500  0.90795200  0.60473100  1
  C  C18  1  0.19647000  0.75600200  0.11822700  1
  C  C19  1  0.69844900  0.53511800  0.11513900  1
  C  C20  1  0.95006700  0.37897500  0.61547500  1
  C  C21  1  0.20005700  0.26294600  0.11756100  1
  C  C22  1  0.44931000  0.17157500  0.60877400  1
  C  C23  1  0.43929300  0.63897000  0.61125600  1
  C  C24  1  0.05893900  0.57481300  0.39407600  1
  C  C25  1  0.30093900  0.46915800  0.88775200  1
  C  C26  1  0.56909600  0.34642700  0.39467600  1
  C  C27  1  0.05557400  0.11049500  0.39027300  1
  C  C28  1  0.30452300  0.96669000  0.88106100  1
  C  C29  1  0.58075400  0.87398400  0.38102700  1
  C  C30  1  0.80418100  0.73563500  0.88168700  1
  C  C31  1  0.80277700  0.24567000  0.88449800  1
