# generated using pymatgen
data_Cu(NiC10)2
_symmetry_space_group_name_H-M   'P 1'
_cell_length_a   7.39523870
_cell_length_b   7.39523870
_cell_length_c   11.18647728
_cell_angle_alpha   77.21937283
_cell_angle_beta   77.21937283
_cell_angle_gamma   68.79147718
_symmetry_Int_Tables_number   1
_chemical_formula_structural   Cu(NiC10)2
_chemical_formula_sum   'Cu1 Ni2 C20'
_cell_volume   549.46862091
_cell_formula_units_Z   1
loop_
 _symmetry_equiv_pos_site_id
 _symmetry_equiv_pos_as_xyz
  1  'x, y, z'
loop_
 _atom_site_type_symbol
 _atom_site_label
 _atom_site_symmetry_multiplicity
 _atom_site_fract_x
 _atom_site_fract_y
 _atom_site_fract_z
 _atom_site_occupancy
  Ni  Ni0  1  0.17136400  0.17136400  0.23534400  1
  Ni  Ni1  1  0.82863600  0.82863600  0.76465600  1
  Cu  Cu2  1  0.50000000  0.50000000  0.50000000  1
  C  C3  1  0.99832000  0.30660400  0.07056600  1
  C  C4  1  0.30660400  0.99832000  0.07056600  1
  C  C5  1  0.00168000  0.69339600  0.92943400  1
  C  C6  1  0.69339600  0.00168000  0.92943400  1
  C  C7  1  0.03635500  0.37981700  0.31364000  1
  C  C8  1  0.37981700  0.03635500  0.31364000  1
  C  C9  1  0.96364500  0.62018300  0.68636000  1
  C  C10  1  0.62018300  0.96364500  0.68636000  1
  C  C11  1  0.01770900  0.01770900  0.28866900  1
  C  C12  1  0.98229100  0.98229100  0.71133100  1
  C  C13  1  0.57806500  0.57806500  0.28448700  1
  C  C14  1  0.42193500  0.42193500  0.71551300  1
  C  C15  1  0.68418600  0.68418600  0.52600900  1
  C  C16  1  0.31581400  0.31581400  0.47399100  1
  C  C17  1  0.77920700  0.22079300  0.50000000  1
  C  C18  1  0.22079300  0.77920700  0.50000000  1
  C  C19  1  0.85340600  0.85340600  0.00307600  1
  C  C20  1  0.14659400  0.14659400  0.99692400  1
  C  C21  1  0.36902600  0.36902600  0.11077900  1
  C  C22  1  0.63097400  0.63097400  0.88922100  1
