# generated using pymatgen
data_CuNiC7
_symmetry_space_group_name_H-M   'P 1'
_cell_length_a   5.77068600
_cell_length_b   11.85541370
_cell_length_c   11.86945556
_cell_angle_alpha   105.81375004
_cell_angle_beta   104.06897203
_cell_angle_gamma   90.00000000
_symmetry_Int_Tables_number   1
_chemical_formula_structural   CuNiC7
_chemical_formula_sum   'Cu4 Ni4 C28'
_cell_volume   755.95437470
_cell_formula_units_Z   4
loop_
 _symmetry_equiv_pos_site_id
 _symmetry_equiv_pos_as_xyz
  1  'x, y, z'
loop_
 _atom_site_type_symbol
 _atom_site_label
 _atom_site_symmetry_multiplicity
 _atom_site_fract_x
 _atom_site_fract_y
 _atom_site_fract_z
 _atom_site_occupancy
  C  C0  1  0.03752700  0.18245100  0.36523500  1
  C  C1  1  0.67229100  0.31754900  0.63476500  1
  C  C2  1  0.96247300  0.81754900  0.63476500  1
  C  C3  1  0.32770900  0.68245100  0.36523500  1
  C  C4  1  0.96107900  0.20407900  0.21960100  1
  C  C5  1  0.74147800  0.29592100  0.78039900  1
  C  C6  1  0.03892100  0.79592100  0.78039900  1
  C  C7  1  0.25852200  0.70407900  0.21960100  1
  C  C8  1  0.56948700  0.16124300  0.10303300  1
  C  C9  1  0.46645400  0.33875700  0.89696700  1
  C  C10  1  0.43051300  0.83875700  0.89696700  1
  C  C11  1  0.53354600  0.66124300  0.10303300  1
  C  C12  1  0.38364800  0.06478200  0.13710000  1
  C  C13  1  0.24654800  0.43521800  0.86290000  1
  C  C14  1  0.61635200  0.93521800  0.86290000  1
  C  C15  1  0.75345200  0.56478200  0.13710000  1
  Ni  Ni16  1  0.70279300  0.11662100  0.26163500  1
  Ni  Ni17  1  0.44115800  0.38337900  0.73836500  1
  Ni  Ni18  1  0.29720700  0.88337900  0.73836500  1
  Ni  Ni19  1  0.55884200  0.61662100  0.26163500  1
  Cu  Cu20  1  0.61100600  0.05261200  0.35905700  1
  Cu  Cu21  1  0.25194900  0.44738800  0.64094300  1
  Cu  Cu22  1  0.38899400  0.94738800  0.64094300  1
  Cu  Cu23  1  0.74805100  0.55261200  0.35905700  1
  C  C24  1  0.00000000  0.00000000  0.50000000  1
  C  C25  1  0.50000000  0.50000000  0.50000000  1
  C  C26  1  0.92887100  0.25000000  0.00000000  1
  C  C27  1  0.07112900  0.75000000  0.00000000  1
  C  C28  1  0.91811700  0.17096900  0.28380800  1
  C  C29  1  0.63430900  0.32903100  0.71619200  1
  C  C30  1  0.08188300  0.82903100  0.71619200  1
  C  C31  1  0.36569100  0.67096900  0.28380800  1
  C  C32  1  0.54090500  0.11290400  0.15844100  1
  C  C33  1  0.38246400  0.38709600  0.84155900  1
  C  C34  1  0.45909500  0.88709600  0.84155900  1
  C  C35  1  0.61753600  0.61290400  0.15844100  1
