# generated using pymatgen
data_Cu5Ni5C2
_symmetry_space_group_name_H-M   'P 1'
_cell_length_a   5.57157209
_cell_length_b   5.57157209
_cell_length_c   6.49426908
_cell_angle_alpha   64.59837685
_cell_angle_beta   64.59837685
_cell_angle_gamma   59.99999888
_symmetry_Int_Tables_number   1
_chemical_formula_structural   Cu5Ni5C2
_chemical_formula_sum   'Cu5 Ni5 C2'
_cell_volume   151.66703539
_cell_formula_units_Z   1
loop_
 _symmetry_equiv_pos_site_id
 _symmetry_equiv_pos_as_xyz
  1  'x, y, z'
loop_
 _atom_site_type_symbol
 _atom_site_label
 _atom_site_symmetry_multiplicity
 _atom_site_fract_x
 _atom_site_fract_y
 _atom_site_fract_z
 _atom_site_occupancy
  C  C0  1  0.49358300  0.49358300  0.51925200  1
  C  C1  1  0.00923600  0.00923600  0.97229300  1
  Ni  Ni2  1  0.82701500  0.82701500  0.51895500  1
  Ni  Ni3  1  0.64310700  0.96214300  0.75164200  1
  Ni  Ni4  1  0.64310700  0.64310700  0.75164200  1
  Ni  Ni5  1  0.96214300  0.64310700  0.75164200  1
  Ni  Ni6  1  0.67183200  0.67183200  0.98450500  1
  Cu  Cu7  1  0.50766200  0.18669500  0.79798000  1
  Cu  Cu8  1  0.50766200  0.50766200  0.79798000  1
  Cu  Cu9  1  0.18669500  0.50766200  0.79798000  1
  Cu  Cu10  1  0.89781800  0.89781800  0.30654600  1
  Cu  Cu11  1  0.60194000  0.60194000  0.19418000  1
