# generated using pymatgen
data_Cu6Ni14C31
_symmetry_space_group_name_H-M   'P 1'
_cell_length_a   12.21832402
_cell_length_b   12.21832402
_cell_length_c   5.14819200
_cell_angle_alpha   90.00000000
_cell_angle_beta   90.00000000
_cell_angle_gamma   120.00000011
_symmetry_Int_Tables_number   1
_chemical_formula_structural   Cu6Ni14C31
_chemical_formula_sum   'Cu6 Ni14 C31'
_cell_volume   665.59284211
_cell_formula_units_Z   1
loop_
 _symmetry_equiv_pos_site_id
 _symmetry_equiv_pos_as_xyz
  1  'x, y, z'
loop_
 _atom_site_type_symbol
 _atom_site_label
 _atom_site_symmetry_multiplicity
 _atom_site_fract_x
 _atom_site_fract_y
 _atom_site_fract_z
 _atom_site_occupancy
  Ni  Ni0  1  0.00040800  0.47267700  0.25238600  1
  Ni  Ni1  1  0.52732300  0.52773100  0.25238600  1
  Ni  Ni2  1  0.47226900  0.99959200  0.25238600  1
  Ni  Ni3  1  0.33509200  0.19858100  0.72895200  1
  Ni  Ni4  1  0.80141900  0.13651100  0.72895200  1
  Ni  Ni5  1  0.86348900  0.66490800  0.72895200  1
  Ni  Ni6  1  0.00000000  0.00000000  0.18713000  1
  Ni  Ni7  1  0.33333300  0.66666700  0.71327000  1
  Ni  Ni8  1  0.21323100  0.27778000  0.20778400  1
  Ni  Ni9  1  0.72222000  0.93545100  0.20778400  1
  Ni  Ni10  1  0.06454900  0.78676900  0.20778400  1
  Ni  Ni11  1  0.11349500  0.38559500  0.70566400  1
  Ni  Ni12  1  0.61440500  0.72790100  0.70566400  1
  Ni  Ni13  1  0.27209900  0.88650500  0.70566400  1
  Cu  Cu14  1  0.81990500  0.39407200  0.52322600  1
  Cu  Cu15  1  0.60592800  0.42583300  0.52322600  1
  Cu  Cu16  1  0.57416700  0.18009500  0.52322600  1
  Cu  Cu17  1  0.50730700  0.26045000  0.02806900  1
  Cu  Cu18  1  0.73955000  0.24685800  0.02806900  1
  Cu  Cu19  1  0.75314200  0.49269300  0.02806900  1
  C  C20  1  0.28145100  0.76111300  0.88231900  1
  C  C21  1  0.23888700  0.52033800  0.88231900  1
  C  C22  1  0.47966200  0.71854900  0.88231900  1
  C  C23  1  0.04427700  0.90110300  0.38906400  1
  C  C24  1  0.09889700  0.14317400  0.38906400  1
  C  C25  1  0.85682600  0.95572300  0.38906400  1
  C  C26  1  0.83591800  0.40584100  0.33543700  1
  C  C27  1  0.59415900  0.43007700  0.33543700  1
  C  C28  1  0.56992300  0.16408200  0.33543700  1
  C  C29  1  0.49437500  0.25392400  0.83918300  1
  C  C30  1  0.74607600  0.24045100  0.83918300  1
  C  C31  1  0.75954900  0.50562500  0.83918300  1
  C  C32  1  0.21627600  0.38213200  0.47184200  1
  C  C33  1  0.61786800  0.83414400  0.47184200  1
  C  C34  1  0.16585600  0.78372400  0.47184200  1
  C  C35  1  0.10836400  0.28636700  0.97989500  1
  C  C36  1  0.71363300  0.82199700  0.97989500  1
  C  C37  1  0.17800300  0.89163600  0.97989500  1
  C  C38  1  0.02511300  0.62712900  0.14658200  1
  C  C39  1  0.37287100  0.39798400  0.14658200  1
  C  C40  1  0.60201600  0.97488700  0.14658200  1
  C  C41  1  0.29783700  0.04091000  0.62157100  1
  C  C42  1  0.95909000  0.25692700  0.62157100  1
  C  C43  1  0.74307300  0.70216300  0.62157100  1
  C  C44  1  0.83558700  0.08411400  0.03513700  1
  C  C45  1  0.91588600  0.75147300  0.03513700  1
  C  C46  1  0.24852700  0.16441300  0.03513700  1
  C  C47  1  0.50290800  0.56789400  0.58242100  1
  C  C48  1  0.43210600  0.93501400  0.58242100  1
  C  C49  1  0.06498600  0.49709200  0.58242100  1
  C  C50  1  0.33333300  0.66666700  0.39507500  1
