# generated using pymatgen
data_Cu2Ni9C
_symmetry_space_group_name_H-M   'P 1'
_cell_length_a   6.25726000
_cell_length_b   7.50549520
_cell_length_c   7.50549520
_cell_angle_alpha   79.99349647
_cell_angle_beta   65.36442565
_cell_angle_gamma   65.36442565
_symmetry_Int_Tables_number   1
_chemical_formula_structural   Cu2Ni9C
_chemical_formula_sum   'Cu4 Ni18 C2'
_cell_volume   291.23873836
_cell_formula_units_Z   2
loop_
 _symmetry_equiv_pos_site_id
 _symmetry_equiv_pos_as_xyz
  1  'x, y, z'
loop_
 _atom_site_type_symbol
 _atom_site_label
 _atom_site_symmetry_multiplicity
 _atom_site_fract_x
 _atom_site_fract_y
 _atom_site_fract_z
 _atom_site_occupancy
  C  C0  1  0.37500000  0.25000000  0.75000000  1
  C  C1  1  0.62500000  0.75000000  0.25000000  1
  Ni  Ni2  1  0.12500000  0.75000000  0.25000000  1
  Ni  Ni3  1  0.87500000  0.25000000  0.75000000  1
  Ni  Ni4  1  0.55883000  0.57864500  0.66817800  1
  Ni  Ni5  1  0.55883000  0.16817800  0.07864500  1
  Ni  Ni6  1  0.13747400  0.42135500  0.16817800  1
  Ni  Ni7  1  0.13747400  0.66817800  0.92135500  1
  Ni  Ni8  1  0.80565300  0.33182200  0.42135500  1
  Ni  Ni9  1  0.80565300  0.92135500  0.83182200  1
  Ni  Ni10  1  0.72700800  0.83182200  0.57864500  1
  Ni  Ni11  1  0.72700800  0.07864500  0.33182200  1
  Ni  Ni12  1  0.44117000  0.42135500  0.33182200  1
  Ni  Ni13  1  0.44117000  0.83182200  0.92135500  1
  Ni  Ni14  1  0.86252600  0.57864500  0.83182200  1
  Ni  Ni15  1  0.86252600  0.33182200  0.07864500  1
  Ni  Ni16  1  0.19434700  0.66817800  0.57864500  1
  Ni  Ni17  1  0.19434700  0.07864500  0.16817800  1
  Ni  Ni18  1  0.27299200  0.16817800  0.42135500  1
  Ni  Ni19  1  0.27299200  0.92135500  0.66817800  1
  Cu  Cu20  1  0.50000000  0.50000000  0.00000000  1
  Cu  Cu21  1  0.00000000  0.50000000  0.50000000  1
  Cu  Cu22  1  0.00000000  0.00000000  0.00000000  1
  Cu  Cu23  1  0.00000000  0.00000000  0.50000000  1
