# generated using pymatgen
data_Cu8Ni2C5
_symmetry_space_group_name_H-M   'P 1'
_cell_length_a   5.91274336
_cell_length_b   6.25398900
_cell_length_c   8.55918937
_cell_angle_alpha   90.00000000
_cell_angle_beta   90.92560814
_cell_angle_gamma   90.00000000
_symmetry_Int_Tables_number   1
_chemical_formula_structural   Cu8Ni2C5
_chemical_formula_sum   'Cu16 Ni4 C10'
_cell_volume   316.46238977
_cell_formula_units_Z   2
loop_
 _symmetry_equiv_pos_site_id
 _symmetry_equiv_pos_as_xyz
  1  'x, y, z'
loop_
 _atom_site_type_symbol
 _atom_site_label
 _atom_site_symmetry_multiplicity
 _atom_site_fract_x
 _atom_site_fract_y
 _atom_site_fract_z
 _atom_site_occupancy
  C  C0  1  0.00000000  0.50000000  0.00000000  1
  C  C1  1  0.00000000  0.00000000  0.50000000  1
  C  C2  1  0.39592400  0.69998200  0.99779600  1
  C  C3  1  0.60407600  0.19998200  0.50220400  1
  C  C4  1  0.60407600  0.30001800  0.00220400  1
  C  C5  1  0.39592400  0.80001800  0.49779600  1
  C  C6  1  0.23237000  0.80314200  0.11658200  1
  C  C7  1  0.76763000  0.30314200  0.38341800  1
  C  C8  1  0.76763000  0.19685800  0.88341800  1
  C  C9  1  0.23237000  0.69685800  0.61658200  1
  Ni  Ni10  1  0.23829900  0.16982900  0.79521700  1
  Ni  Ni11  1  0.76170100  0.66982900  0.70478300  1
  Ni  Ni12  1  0.76170100  0.83017100  0.20478300  1
  Ni  Ni13  1  0.23829900  0.33017100  0.29521700  1
  Cu  Cu14  1  0.04758600  0.13594700  0.72804100  1
  Cu  Cu15  1  0.95241400  0.63594700  0.77195900  1
  Cu  Cu16  1  0.95241400  0.86405300  0.27195900  1
  Cu  Cu17  1  0.04758600  0.36405300  0.22804100  1
  Cu  Cu18  1  0.41635000  0.09216400  0.74710600  1
  Cu  Cu19  1  0.58365000  0.59216400  0.75289400  1
  Cu  Cu20  1  0.58365000  0.90783600  0.25289400  1
  Cu  Cu21  1  0.41635000  0.40783600  0.24710600  1
  Cu  Cu22  1  0.24350400  0.28846400  0.91815000  1
  Cu  Cu23  1  0.75649600  0.78846400  0.58185000  1
  Cu  Cu24  1  0.75649600  0.71153600  0.08185000  1
  Cu  Cu25  1  0.24350400  0.21153600  0.41815000  1
  Cu  Cu26  1  0.23663100  0.73689600  0.01279200  1
  Cu  Cu27  1  0.76336900  0.23689600  0.48720800  1
  Cu  Cu28  1  0.76336900  0.26310400  0.98720800  1
  Cu  Cu29  1  0.23663100  0.76310400  0.51279200  1
