# generated using pymatgen
data_CuNiC8
_symmetry_space_group_name_H-M   'P 1'
_cell_length_a   10.05736900
_cell_length_b   11.20784900
_cell_length_c   12.48672600
_cell_angle_alpha   90.00000000
_cell_angle_beta   90.00000000
_cell_angle_gamma   90.00000000
_symmetry_Int_Tables_number   1
_chemical_formula_structural   CuNiC8
_chemical_formula_sum   'Cu8 Ni8 C64'
_cell_volume   1407.52214878
_cell_formula_units_Z   8
loop_
 _symmetry_equiv_pos_site_id
 _symmetry_equiv_pos_as_xyz
  1  'x, y, z'
loop_
 _atom_site_type_symbol
 _atom_site_label
 _atom_site_symmetry_multiplicity
 _atom_site_fract_x
 _atom_site_fract_y
 _atom_site_fract_z
 _atom_site_occupancy
  Ni  Ni0  1  0.65788100  0.44034400  0.00033400  1
  Ni  Ni1  1  0.84211900  0.94034400  0.99966600  1
  Ni  Ni2  1  0.15788100  0.55965600  0.49966600  1
  Ni  Ni3  1  0.34211900  0.05965600  0.50033400  1
  Ni  Ni4  1  0.34211900  0.55965600  0.99966600  1
  Ni  Ni5  1  0.15788100  0.05965600  0.00033400  1
  Ni  Ni6  1  0.84211900  0.44034400  0.50033400  1
  Ni  Ni7  1  0.65788100  0.94034400  0.49966600  1
  Cu  Cu8  1  0.56710500  0.30141300  0.24012300  1
  Cu  Cu9  1  0.93289500  0.80141300  0.75987700  1
  Cu  Cu10  1  0.06710500  0.69858700  0.25987700  1
  Cu  Cu11  1  0.43289500  0.19858700  0.74012300  1
  Cu  Cu12  1  0.43289500  0.69858700  0.75987700  1
  Cu  Cu13  1  0.06710500  0.19858700  0.24012300  1
  Cu  Cu14  1  0.93289500  0.30141300  0.74012300  1
  Cu  Cu15  1  0.56710500  0.80141300  0.25987700  1
  C  C16  1  0.59766400  0.39745600  0.16392900  1
  C  C17  1  0.90233600  0.89745600  0.83607100  1
  C  C18  1  0.09766400  0.60254400  0.33607100  1
  C  C19  1  0.40233600  0.10254400  0.66392900  1
  C  C20  1  0.40233600  0.60254400  0.83607100  1
  C  C21  1  0.09766400  0.10254400  0.16392900  1
  C  C22  1  0.90233600  0.39745600  0.66392900  1
  C  C23  1  0.59766400  0.89745600  0.33607100  1
  C  C24  1  0.45210500  0.40431800  0.96651200  1
  C  C25  1  0.04789500  0.90431800  0.03348800  1
  C  C26  1  0.95210500  0.59568200  0.53348800  1
  C  C27  1  0.54789500  0.09568200  0.46651200  1
  C  C28  1  0.54789500  0.59568200  0.03348800  1
  C  C29  1  0.95210500  0.09568200  0.96651200  1
  C  C30  1  0.04789500  0.40431800  0.46651200  1
  C  C31  1  0.45210500  0.90431800  0.53348800  1
  C  C32  1  0.69102600  0.27085000  0.98254100  1
  C  C33  1  0.80897400  0.77085000  0.01745900  1
  C  C34  1  0.19102600  0.72915000  0.51745900  1
  C  C35  1  0.30897400  0.22915000  0.48254100  1
  C  C36  1  0.30897400  0.72915000  0.01745900  1
  C  C37  1  0.19102600  0.22915000  0.98254100  1
  C  C38  1  0.80897400  0.27085000  0.48254100  1
  C  C39  1  0.69102600  0.77085000  0.51745900  1
  C  C40  1  0.82213700  0.49713400  0.06107800  1
  C  C41  1  0.67786300  0.99713400  0.93892200  1
  C  C42  1  0.32213700  0.50286600  0.43892200  1
  C  C43  1  0.17786300  0.00286600  0.56107800  1
  C  C44  1  0.17786300  0.50286600  0.93892200  1
  C  C45  1  0.32213700  0.00286600  0.06107800  1
  C  C46  1  0.67786300  0.49713400  0.56107800  1
  C  C47  1  0.82213700  0.99713400  0.43892200  1
  C  C48  1  0.68370500  0.48854600  0.85186200  1
  C  C49  1  0.81629500  0.98854600  0.14813800  1
  C  C50  1  0.18370500  0.51145400  0.64813800  1
  C  C51  1  0.31629500  0.01145400  0.35186200  1
  C  C52  1  0.31629500  0.51145400  0.14813800  1
  C  C53  1  0.18370500  0.01145400  0.85186200  1
  C  C54  1  0.81629500  0.48854600  0.35186200  1
  C  C55  1  0.68370500  0.98854600  0.64813800  1
  C  C56  1  0.45164400  0.21990100  0.20761300  1
  C  C57  1  0.04835600  0.71990100  0.79238700  1
  C  C58  1  0.95164400  0.78009900  0.29238700  1
  C  C59  1  0.54835600  0.28009900  0.70761300  1
  C  C60  1  0.54835600  0.78009900  0.79238700  1
  C  C61  1  0.95164400  0.28009900  0.20761300  1
  C  C62  1  0.04835600  0.21990100  0.70761300  1
  C  C63  1  0.45164400  0.71990100  0.29238700  1
  C  C64  1  0.68093900  0.21408400  0.26185200  1
  C  C65  1  0.81906100  0.71408400  0.73814800  1
  C  C66  1  0.18093900  0.78591600  0.23814800  1
  C  C67  1  0.31906100  0.28591600  0.76185200  1
  C  C68  1  0.31906100  0.78591600  0.73814800  1
  C  C69  1  0.18093900  0.28591600  0.26185200  1
  C  C70  1  0.81906100  0.21408400  0.76185200  1
  C  C71  1  0.68093900  0.71408400  0.23814800  1
  C  C72  1  0.52802300  0.34797600  0.35041900  1
  C  C73  1  0.97197700  0.84797600  0.64958100  1
  C  C74  1  0.02802300  0.65202400  0.14958100  1
  C  C75  1  0.47197700  0.15202400  0.85041900  1
  C  C76  1  0.47197700  0.65202400  0.64958100  1
  C  C77  1  0.02802300  0.15202400  0.35041900  1
  C  C78  1  0.97197700  0.34797600  0.85041900  1
  C  C79  1  0.52802300  0.84797600  0.14958100  1
