# generated using pymatgen
data_CuNi2C3
_symmetry_space_group_name_H-M   'P 1'
_cell_length_a   7.04567756
_cell_length_b   11.57666785
_cell_length_c   11.57666785
_cell_angle_alpha   90.00000000
_cell_angle_beta   90.00000000
_cell_angle_gamma   90.00000000
_symmetry_Int_Tables_number   1
_chemical_formula_structural   CuNi2C3
_chemical_formula_sum   'Cu8 Ni16 C24'
_cell_volume   944.25634137
_cell_formula_units_Z   8
loop_
 _symmetry_equiv_pos_site_id
 _symmetry_equiv_pos_as_xyz
  1  'x, y, z'
loop_
 _atom_site_type_symbol
 _atom_site_label
 _atom_site_symmetry_multiplicity
 _atom_site_fract_x
 _atom_site_fract_y
 _atom_site_fract_z
 _atom_site_occupancy
  C  C0  1  -0.00000000  0.22246193  0.36016201  1
  C  C1  1  0.00000000  0.77753807  0.63983799  1
  C  C2  1  0.50000000  0.63983799  0.22246193  1
  C  C3  1  -0.00000000  0.27753807  0.86016201  1
  C  C4  1  0.50000000  0.36016201  0.77753807  1
  C  C5  1  0.00000000  0.72246193  0.13983799  1
  C  C6  1  0.50000000  0.86016201  0.72246193  1
  C  C7  1  0.50000000  0.13983799  0.27753807  1
  C  C8  1  0.25000000  0.10797063  0.60797063  1
  C  C9  1  0.75000000  0.89202937  0.39202937  1
  C  C10  1  0.25000000  0.89202937  0.39202937  1
  C  C11  1  0.75000000  0.39202937  0.10797063  1
  C  C12  1  0.75000000  0.10797063  0.60797063  1
  C  C13  1  0.25000000  0.60797063  0.89202937  1
  C  C14  1  0.75000000  0.60797063  0.89202937  1
  C  C15  1  0.25000000  0.39202937  0.10797063  1
  C  C16  1  0.00000000  0.04594209  0.13039378  1
  C  C17  1  -0.00000000  0.95405791  0.86960622  1
  C  C18  1  0.50000000  0.86960622  0.04594209  1
  C  C19  1  0.00000000  0.45405791  0.63039378  1
  C  C20  1  0.50000000  0.13039378  0.95405791  1
  C  C21  1  -0.00000000  0.54594209  0.36960622  1
  C  C22  1  0.50000000  0.63039378  0.54594209  1
  C  C23  1  0.50000000  0.36960622  0.45405791  1
  Ni  Ni24  1  0.27858053  0.17872820  0.11322583  1
  Ni  Ni25  1  0.72141947  0.82127180  0.88677417  1
  Ni  Ni26  1  0.27858053  0.82127180  0.88677417  1
  Ni  Ni27  1  0.77858053  0.88677417  0.17872820  1
  Ni  Ni28  1  0.72141947  0.32127180  0.61322583  1
  Ni  Ni29  1  0.72141947  0.17872820  0.11322583  1
  Ni  Ni30  1  0.22141947  0.11322583  0.82127180  1
  Ni  Ni31  1  0.27858053  0.67872820  0.38677417  1
  Ni  Ni32  1  0.77858053  0.11322583  0.82127180  1
  Ni  Ni33  1  0.72141947  0.67872820  0.38677417  1
  Ni  Ni34  1  0.22141947  0.88677417  0.17872820  1
  Ni  Ni35  1  0.27858053  0.32127180  0.61322583  1
  Ni  Ni36  1  0.22141947  0.61322583  0.67872820  1
  Ni  Ni37  1  0.77858053  0.38677417  0.32127180  1
  Ni  Ni38  1  0.22141947  0.38677417  0.32127180  1
  Ni  Ni39  1  0.77858053  0.61322583  0.67872820  1
  Cu  Cu40  1  0.25000000  0.59548426  0.09548426  1
  Cu  Cu41  1  0.75000000  0.40451574  0.90451574  1
  Cu  Cu42  1  0.25000000  0.40451574  0.90451574  1
  Cu  Cu43  1  0.75000000  0.90451574  0.59548426  1
  Cu  Cu44  1  0.75000000  0.59548426  0.09548426  1
  Cu  Cu45  1  0.25000000  0.09548426  0.40451574  1
  Cu  Cu46  1  0.75000000  0.09548426  0.40451574  1
  Cu  Cu47  1  0.25000000  0.90451574  0.59548426  1
