# generated using pymatgen
data_CuNi5C
_symmetry_space_group_name_H-M   'P 1'
_cell_length_a   4.74307900
_cell_length_b   6.55567635
_cell_length_c   6.55567635
_cell_angle_alpha   98.07309088
_cell_angle_beta   111.20792483
_cell_angle_gamma   68.79207517
_symmetry_Int_Tables_number   1
_chemical_formula_structural   CuNi5C
_chemical_formula_sum   'Cu2 Ni10 C2'
_cell_volume   177.15604264
_cell_formula_units_Z   2
loop_
 _symmetry_equiv_pos_site_id
 _symmetry_equiv_pos_as_xyz
  1  'x, y, z'
loop_
 _atom_site_type_symbol
 _atom_site_label
 _atom_site_symmetry_multiplicity
 _atom_site_fract_x
 _atom_site_fract_y
 _atom_site_fract_z
 _atom_site_occupancy
  C  C0  1  0.00000000  0.00000000  0.00000000  1
  Ni  Ni1  1  0.71998700  0.78001300  0.21998700  1
  Ni  Ni2  1  0.28001300  0.21998700  0.78001300  1
  Ni  Ni3  1  0.50000000  0.77881500  0.77881500  1
  Ni  Ni4  1  0.50000000  0.22118500  0.22118500  1
  Ni  Ni5  1  0.50000000  0.00000000  0.50000000  1
  Ni  Ni6  1  0.00000000  0.00000000  0.50000000  1
  Ni  Ni7  1  0.50000000  0.50000000  0.00000000  1
  Ni  Ni8  1  0.00000000  0.50000000  0.00000000  1
  Ni  Ni9  1  0.64040300  0.35959700  0.64040300  1
  Ni  Ni10  1  0.35959700  0.64040300  0.35959700  1
  Cu  Cu11  1  0.00000000  0.35722000  0.35722000  1
  Cu  Cu12  1  0.00000000  0.64278000  0.64278000  1
  C  C13  1  0.50000000  0.00000000  0.00000000  1
