# generated using pymatgen
data_CuNi3C10
_symmetry_space_group_name_H-M   'P 1'
_cell_length_a   5.64772400
_cell_length_b   7.78535200
_cell_length_c   9.45486395
_cell_angle_alpha   88.05827032
_cell_angle_beta   90.00000000
_cell_angle_gamma   90.00000000
_symmetry_Int_Tables_number   1
_chemical_formula_structural   CuNi3C10
_chemical_formula_sum   'Cu2 Ni6 C20'
_cell_volume   415.48711497
_cell_formula_units_Z   2
loop_
 _symmetry_equiv_pos_site_id
 _symmetry_equiv_pos_as_xyz
  1  'x, y, z'
loop_
 _atom_site_type_symbol
 _atom_site_label
 _atom_site_symmetry_multiplicity
 _atom_site_fract_x
 _atom_site_fract_y
 _atom_site_fract_z
 _atom_site_occupancy
  Ni  Ni0  1  0.25000000  0.22333600  0.92299000  1
  Ni  Ni1  1  0.75000000  0.77666400  0.07701000  1
  Ni  Ni2  1  0.25000000  0.68577900  0.57698500  1
  Ni  Ni3  1  0.75000000  0.31422100  0.42301500  1
  Ni  Ni4  1  0.25000000  0.49971900  0.20716000  1
  Ni  Ni5  1  0.75000000  0.50028100  0.79284000  1
  Cu  Cu6  1  0.25000000  0.97554100  0.26574500  1
  Cu  Cu7  1  0.75000000  0.02445900  0.73425500  1
  C  C8  1  0.25000000  0.21574900  0.57165800  1
  C  C9  1  0.75000000  0.78425100  0.42834200  1
  C  C10  1  0.75000000  0.22504400  0.09823200  1
  C  C11  1  0.25000000  0.77495600  0.90176800  1
  C  C12  1  0.25000000  0.05148400  0.48288800  1
  C  C13  1  0.75000000  0.94851600  0.51711200  1
  C  C14  1  0.25000000  0.37470900  0.47208600  1
  C  C15  1  0.75000000  0.62529100  0.52791400  1
  C  C16  1  0.02547800  0.21531300  0.67032700  1
  C  C17  1  0.52547800  0.78468700  0.32967300  1
  C  C18  1  0.97452200  0.78468700  0.32967300  1
  C  C19  1  0.47452200  0.21531300  0.67032700  1
  C  C20  1  0.97646300  0.15299300  0.17565300  1
  C  C21  1  0.47646300  0.84700700  0.82434700  1
  C  C22  1  0.02353700  0.84700700  0.82434700  1
  C  C23  1  0.52353700  0.15299300  0.17565300  1
  C  C24  1  0.75000000  0.16190600  0.94265200  1
  C  C25  1  0.25000000  0.83809400  0.05734800  1
  C  C26  1  0.75000000  0.42227700  0.10054000  1
  C  C27  1  0.25000000  0.57772300  0.89946000  1
