# generated using pymatgen
data_Cu8Ni2C7
_symmetry_space_group_name_H-M   'P 1'
_cell_length_a   7.71992400
_cell_length_b   10.04539100
_cell_length_c   12.53215500
_cell_angle_alpha   90.00000000
_cell_angle_beta   90.00000000
_cell_angle_gamma   90.00000000
_symmetry_Int_Tables_number   1
_chemical_formula_structural   Cu8Ni2C7
_chemical_formula_sum   'Cu32 Ni8 C28'
_cell_volume   971.86429754
_cell_formula_units_Z   4
loop_
 _symmetry_equiv_pos_site_id
 _symmetry_equiv_pos_as_xyz
  1  'x, y, z'
loop_
 _atom_site_type_symbol
 _atom_site_label
 _atom_site_symmetry_multiplicity
 _atom_site_fract_x
 _atom_site_fract_y
 _atom_site_fract_z
 _atom_site_occupancy
  C  C0  1  0.50761500  0.16448100  0.38046100  1
  C  C1  1  0.49238500  0.66448100  0.61953900  1
  C  C2  1  0.00761500  0.66448100  0.11953900  1
  C  C3  1  0.99238500  0.16448100  0.88046100  1
  C  C4  1  0.21691000  0.38258800  0.24233000  1
  C  C5  1  0.78309000  0.88258800  0.75767000  1
  C  C6  1  0.71691000  0.88258800  0.25767000  1
  C  C7  1  0.28309000  0.38258800  0.74233000  1
  C  C8  1  0.41550100  0.66751100  0.18734100  1
  C  C9  1  0.58449900  0.16751100  0.81265900  1
  C  C10  1  0.91550100  0.16751100  0.31265900  1
  C  C11  1  0.08449900  0.66751100  0.68734100  1
  C  C12  1  0.32759800  0.41997000  0.48615100  1
  C  C13  1  0.67240200  0.91997000  0.51384900  1
  C  C14  1  0.82759800  0.91997000  0.01384900  1
  C  C15  1  0.17240200  0.41997000  0.98615100  1
  Ni  Ni16  1  0.73616600  0.51485300  0.37231600  1
  Ni  Ni17  1  0.26383400  0.01485300  0.62768400  1
  Ni  Ni18  1  0.23616600  0.01485300  0.12768400  1
  Ni  Ni19  1  0.76383400  0.51485300  0.87231600  1
  Ni  Ni20  1  0.34570800  0.80027500  0.91208200  1
  Ni  Ni21  1  0.65429200  0.30027500  0.08791800  1
  Ni  Ni22  1  0.84570800  0.30027500  0.58791800  1
  Ni  Ni23  1  0.15429200  0.80027500  0.41208200  1
  Cu  Cu24  1  0.40193500  0.52346100  0.22956400  1
  Cu  Cu25  1  0.59806500  0.02346100  0.77043600  1
  Cu  Cu26  1  0.90193500  0.02346100  0.27043600  1
  Cu  Cu27  1  0.09806500  0.52346100  0.72956400  1
  Cu  Cu28  1  0.53816000  0.74488600  0.25865900  1
  Cu  Cu29  1  0.46184000  0.24488600  0.74134100  1
  Cu  Cu30  1  0.03816000  0.24488600  0.24134100  1
  Cu  Cu31  1  0.96184000  0.74488600  0.75865900  1
  Cu  Cu32  1  0.49371800  0.33486000  0.46618300  1
  Cu  Cu33  1  0.50628200  0.83486000  0.53381700  1
  Cu  Cu34  1  0.99371800  0.83486000  0.03381700  1
  Cu  Cu35  1  0.00628200  0.33486000  0.96618300  1
  Cu  Cu36  1  0.48334600  0.65741700  0.06846200  1
  Cu  Cu37  1  0.51665400  0.15741700  0.93153800  1
  Cu  Cu38  1  0.98334600  0.15741700  0.43153800  1
  Cu  Cu39  1  0.01665400  0.65741700  0.56846200  1
  Cu  Cu40  1  0.37301200  0.56735200  0.50537200  1
  Cu  Cu41  1  0.62698800  0.06735200  0.49462800  1
  Cu  Cu42  1  0.87301200  0.06735200  0.99462800  1
  Cu  Cu43  1  0.12698800  0.56735200  0.00537200  1
  Cu  Cu44  1  0.23730600  0.73540600  0.17405800  1
  Cu  Cu45  1  0.76269400  0.23540600  0.82594200  1
  Cu  Cu46  1  0.73730600  0.23540600  0.32594200  1
  Cu  Cu47  1  0.26269400  0.73540600  0.67405800  1
  Cu  Cu48  1  0.19742800  0.41159000  0.39400600  1
  Cu  Cu49  1  0.80257200  0.91159000  0.60599400  1
  Cu  Cu50  1  0.69742800  0.91159000  0.10599400  1
  Cu  Cu51  1  0.30257200  0.41159000  0.89400600  1
  Cu  Cu52  1  0.25377500  0.35612600  0.08708300  1
  Cu  Cu53  1  0.74622500  0.85612600  0.91291700  1
  Cu  Cu54  1  0.75377500  0.85612600  0.41291700  1
  Cu  Cu55  1  0.24622500  0.35612600  0.58708300  1
  C  C56  1  0.40093300  0.25460400  0.26003300  1
  C  C57  1  0.59906700  0.75460400  0.73996700  1
  C  C58  1  0.90093300  0.75460400  0.23996700  1
  C  C59  1  0.09906700  0.25460400  0.76003300  1
  C  C60  1  0.03941000  0.51408000  0.21767400  1
  C  C61  1  0.96059000  0.01408000  0.78232600  1
  C  C62  1  0.53941000  0.01408000  0.28232600  1
  C  C63  1  0.46059000  0.51408000  0.71767400  1
  C  C64  1  0.29613900  0.09914000  0.42682000  1
  C  C65  1  0.70386100  0.59914000  0.57318000  1
  C  C66  1  0.79613900  0.59914000  0.07318000  1
  C  C67  1  0.20386100  0.09914000  0.92682000  1
