# generated using pymatgen
data_CuNiC2
_symmetry_space_group_name_H-M   'P 1'
_cell_length_a   6.32733400
_cell_length_b   6.43655800
_cell_length_c   8.04813700
_cell_angle_alpha   90.00000000
_cell_angle_beta   90.00000000
_cell_angle_gamma   90.00000000
_symmetry_Int_Tables_number   1
_chemical_formula_structural   CuNiC2
_chemical_formula_sum   'Cu4 Ni4 C8'
_cell_volume   327.77045782
_cell_formula_units_Z   4
loop_
 _symmetry_equiv_pos_site_id
 _symmetry_equiv_pos_as_xyz
  1  'x, y, z'
loop_
 _atom_site_type_symbol
 _atom_site_label
 _atom_site_symmetry_multiplicity
 _atom_site_fract_x
 _atom_site_fract_y
 _atom_site_fract_z
 _atom_site_occupancy
  C  C0  1  0.25000000  0.65099700  0.69575400  1
  C  C1  1  0.25000000  0.15099700  0.80424600  1
  C  C2  1  0.75000000  0.34900300  0.30424600  1
  C  C3  1  0.75000000  0.84900300  0.19575400  1
  C  C4  1  0.00000000  0.00000000  0.50000000  1
  C  C5  1  0.50000000  0.50000000  0.00000000  1
  C  C6  1  0.50000000  0.00000000  0.50000000  1
  C  C7  1  0.00000000  0.50000000  0.00000000  1
  Ni  Ni8  1  0.25000000  0.41980100  0.38125800  1
  Ni  Ni9  1  0.25000000  0.91980100  0.11874200  1
  Ni  Ni10  1  0.75000000  0.58019900  0.61874200  1
  Ni  Ni11  1  0.75000000  0.08019900  0.88125800  1
  Cu  Cu12  1  0.25000000  0.44213000  0.87335500  1
  Cu  Cu13  1  0.25000000  0.94213000  0.62664500  1
  Cu  Cu14  1  0.75000000  0.55787000  0.12664500  1
  Cu  Cu15  1  0.75000000  0.05787000  0.37335500  1
