# generated using pymatgen
data_Cu(NiC14)2
_symmetry_space_group_name_H-M   'P 1'
_cell_length_a   12.69320400
_cell_length_b   6.37782000
_cell_length_c   9.37097208
_cell_angle_alpha   74.86396615
_cell_angle_beta   90.00000000
_cell_angle_gamma   90.00000000
_symmetry_Int_Tables_number   1
_chemical_formula_structural   Cu(NiC14)2
_chemical_formula_sum   'Cu2 Ni4 C56'
_cell_volume   732.30894706
_cell_formula_units_Z   2
loop_
 _symmetry_equiv_pos_site_id
 _symmetry_equiv_pos_as_xyz
  1  'x, y, z'
loop_
 _atom_site_type_symbol
 _atom_site_label
 _atom_site_symmetry_multiplicity
 _atom_site_fract_x
 _atom_site_fract_y
 _atom_site_fract_z
 _atom_site_occupancy
  Ni  Ni0  1  0.15223600  0.65121500  0.63305200  1
  Ni  Ni1  1  0.65223600  0.34878500  0.86694800  1
  Ni  Ni2  1  0.84776400  0.34878500  0.36694800  1
  Ni  Ni3  1  0.34776400  0.65121500  0.13305200  1
  Cu  Cu4  1  0.50000000  0.00000000  0.50000000  1
  Cu  Cu5  1  0.00000000  0.00000000  0.00000000  1
  C  C6  1  0.41270100  0.68677700  0.70115100  1
  C  C7  1  0.91270100  0.31322300  0.79884900  1
  C  C8  1  0.58729900  0.31322300  0.29884900  1
  C  C9  1  0.08729900  0.68677700  0.20115100  1
  C  C10  1  0.37355700  0.90887300  0.73524300  1
  C  C11  1  0.87355700  0.09112700  0.76475700  1
  C  C12  1  0.62644300  0.09112700  0.26475700  1
  C  C13  1  0.12644300  0.90887300  0.23524300  1
  C  C14  1  0.40478700  0.06887900  0.23592100  1
  C  C15  1  0.90478700  0.93112100  0.26407900  1
  C  C16  1  0.59521300  0.93112100  0.76407900  1
  C  C17  1  0.09521300  0.06887900  0.73592100  1
  C  C18  1  0.31797500  0.99367500  0.36295600  1
  C  C19  1  0.81797500  0.00632500  0.13704400  1
  C  C20  1  0.68202500  0.00632500  0.63704400  1
  C  C21  1  0.18202500  0.99367500  0.86295600  1
  C  C22  1  0.55095900  0.66473100  0.40633500  1
  C  C23  1  0.05095900  0.33526900  0.09366500  1
  C  C24  1  0.44904100  0.33526900  0.59366500  1
  C  C25  1  0.94904100  0.66473100  0.90633500  1
  C  C26  1  0.63642400  0.67215000  0.52834000  1
  C  C27  1  0.13642400  0.32785000  0.97166000  1
  C  C28  1  0.36357600  0.32785000  0.47166000  1
  C  C29  1  0.86357600  0.67215000  0.02834000  1
  C  C30  1  0.36301100  0.26318300  0.90776800  1
  C  C31  1  0.86301100  0.73681700  0.59223200  1
  C  C32  1  0.63698900  0.73681700  0.09223200  1
  C  C33  1  0.13698900  0.26318300  0.40776800  1
  C  C34  1  0.25979300  0.42326500  0.91917500  1
  C  C35  1  0.75979300  0.57673500  0.58082500  1
  C  C36  1  0.74020700  0.57673500  0.08082500  1
  C  C37  1  0.24020700  0.42326500  0.41917500  1
  C  C38  1  0.43430900  0.21723200  0.06282900  1
  C  C39  1  0.93430900  0.78276800  0.43717100  1
  C  C40  1  0.56569100  0.78276800  0.93717100  1
  C  C41  1  0.06569100  0.21723200  0.56282900  1
  C  C42  1  0.44012000  0.39665900  0.76713800  1
  C  C43  1  0.94012000  0.60334100  0.73286200  1
  C  C44  1  0.55988000  0.60334100  0.23286200  1
  C  C45  1  0.05988000  0.39665900  0.26713800  1
  C  C46  1  0.31952700  0.02842400  0.87739100  1
  C  C47  1  0.81952700  0.97157600  0.62260900  1
  C  C48  1  0.68047300  0.97157600  0.12260900  1
  C  C49  1  0.18047300  0.02842400  0.37739100  1
  C  C50  1  0.38983800  0.83914300  0.65529500  1
  C  C51  1  0.88983800  0.16085700  0.84470500  1
  C  C52  1  0.61016200  0.16085700  0.34470500  1
  C  C53  1  0.11016200  0.83914300  0.15529500  1
  C  C54  1  0.39234100  0.97114200  0.33670200  1
  C  C55  1  0.89234100  0.02885800  0.16329800  1
  C  C56  1  0.60765900  0.02885800  0.66329800  1
  C  C57  1  0.10765900  0.97114200  0.83670200  1
  C  C58  1  0.56093900  0.70265800  0.50151900  1
  C  C59  1  0.06093900  0.29734200  0.99848100  1
  C  C60  1  0.43906100  0.29734200  0.49848100  1
  C  C61  1  0.93906100  0.70265800  0.00151900  1
