# generated using pymatgen
data_CuNi2C11
_symmetry_space_group_name_H-M   'P 1'
_cell_length_a   8.09587999
_cell_length_b   7.94736325
_cell_length_c   8.09448303
_cell_angle_alpha   59.38725008
_cell_angle_beta   59.99740593
_cell_angle_gamma   59.37690126
_symmetry_Int_Tables_number   1
_chemical_formula_structural   CuNi2C11
_chemical_formula_sum   'Cu1 Ni2 C11'
_cell_volume   364.78151848
_cell_formula_units_Z   1
loop_
 _symmetry_equiv_pos_site_id
 _symmetry_equiv_pos_as_xyz
  1  'x, y, z'
loop_
 _atom_site_type_symbol
 _atom_site_label
 _atom_site_symmetry_multiplicity
 _atom_site_fract_x
 _atom_site_fract_y
 _atom_site_fract_z
 _atom_site_occupancy
  C  C0  1  0.49998600  0.50003500  0.49998100  1
  C  C1  1  0.49999600  0.49999000  0.00000600  1
  C  C2  1  0.99997600  0.50001400  0.50002200  1
  Ni  Ni3  1  0.87522300  0.87446800  0.87516700  1
  Ni  Ni4  1  0.12479900  0.12548800  0.12484000  1
  Cu  Cu5  1  0.50002500  0.99997000  0.50001800  1
  C  C6  1  0.72960300  0.77770200  0.72952200  1
  C  C7  1  0.27040800  0.22230700  0.73675300  1
  C  C8  1  0.25141000  0.74573700  0.25143700  1
  C  C9  1  0.73668000  0.22208300  0.27059100  1
  C  C10  1  0.74857600  0.25428100  0.74853600  1
  C  C11  1  0.26332100  0.77790500  0.72941700  1
  C  C12  1  0.27039800  0.22229800  0.27048400  1
  C  C13  1  0.72960100  0.77771700  0.26322600  1
