# generated using pymatgen
data_Cu(Ni2C9)2
_symmetry_space_group_name_H-M   'P 1'
_cell_length_a   8.09876946
_cell_length_b   8.47898358
_cell_length_c   8.10346824
_cell_angle_alpha   92.38944596
_cell_angle_beta   86.49357494
_cell_angle_gamma   58.19161198
_symmetry_Int_Tables_number   1
_chemical_formula_structural   Cu(Ni2C9)2
_chemical_formula_sum   'Cu1 Ni4 C18'
_cell_volume   470.20674450
_cell_formula_units_Z   1
loop_
 _symmetry_equiv_pos_site_id
 _symmetry_equiv_pos_as_xyz
  1  'x, y, z'
loop_
 _atom_site_type_symbol
 _atom_site_label
 _atom_site_symmetry_multiplicity
 _atom_site_fract_x
 _atom_site_fract_y
 _atom_site_fract_z
 _atom_site_occupancy
  Ni  Ni0  1  0.14861300  0.58977500  0.28342500  1
  Ni  Ni1  1  0.49740700  0.78912600  0.12268700  1
  Ni  Ni2  1  0.76047300  0.49588100  0.64790800  1
  Ni  Ni3  1  0.63714700  0.14797300  0.96468300  1
  Cu  Cu4  1  0.33937700  0.22522300  0.60063200  1
  C  C5  1  0.71457800  0.12706900  0.41550100  1
  C  C6  1  0.95068100  0.29305900  0.12910800  1
  C  C7  1  0.27547300  0.90234800  0.61965900  1
  C  C8  1  0.08392600  0.66873300  0.84629400  1
  C  C9  1  0.63104000  0.22005600  0.61979100  1
  C  C10  1  0.78091800  0.39606100  0.99630600  1
  C  C11  1  0.38062000  0.73083400  0.46441100  1
  C  C12  1  0.29469000  0.57338000  0.93181500  1
  C  C13  1  0.49184300  0.21687100  0.33367500  1
  C  C14  1  0.89622600  0.44065900  0.29517300  1
  C  C15  1  0.45615300  0.92306200  0.70222800  1
  C  C16  1  0.10761600  0.52331100  0.68384500  1
  C  C17  1  0.80971200  0.89868100  0.40889800  1
  C  C18  1  0.17776400  0.20433900  0.04241000  1
  C  C19  1  0.13907300  0.11324200  0.54086900  1
  C  C20  1  0.89656400  0.71471400  0.97960600  1
  C  C21  1  0.93958400  0.10443900  0.18809500  1
  C  C22  1  0.02385500  0.87616200  0.77464700  1
