# generated using pymatgen
data_Cu(NiC4)3
_symmetry_space_group_name_H-M   'P 1'
_cell_length_a   8.04772300
_cell_length_b   8.31695519
_cell_length_c   10.72185691
_cell_angle_alpha   68.60263135
_cell_angle_beta   85.45930411
_cell_angle_gamma   84.94491975
_symmetry_Int_Tables_number   1
_chemical_formula_structural   Cu(NiC4)3
_chemical_formula_sum   'Cu2 Ni6 C24'
_cell_volume   664.72124270
_cell_formula_units_Z   2
loop_
 _symmetry_equiv_pos_site_id
 _symmetry_equiv_pos_as_xyz
  1  'x, y, z'
loop_
 _atom_site_type_symbol
 _atom_site_label
 _atom_site_symmetry_multiplicity
 _atom_site_fract_x
 _atom_site_fract_y
 _atom_site_fract_z
 _atom_site_occupancy
  C  C0  1  0.62988500  0.29316700  0.36930500  1
  C  C1  1  0.37011500  0.70683300  0.63069500  1
  C  C2  1  0.75976200  0.24142200  0.98109500  1
  C  C3  1  0.24023800  0.75857800  0.01890500  1
  C  C4  1  0.11123100  0.21246100  0.66642800  1
  C  C5  1  0.88876900  0.78753900  0.33357200  1
  Ni  Ni6  1  0.74283800  0.72803800  0.00189100  1
  Ni  Ni7  1  0.25716200  0.27196200  0.99810900  1
  Ni  Ni8  1  0.07931900  0.26912700  0.25223700  1
  Ni  Ni9  1  0.92068100  0.73087300  0.74776300  1
  Ni  Ni10  1  0.35773700  0.01096800  0.26004700  1
  Ni  Ni11  1  0.64226300  0.98903200  0.73995300  1
  Cu  Cu12  1  0.29156400  0.52061800  0.41076400  1
  Cu  Cu13  1  0.70843600  0.47938200  0.58923600  1
  C  C14  1  0.38840200  0.13584200  0.10305600  1
  C  C15  1  0.61159800  0.86415800  0.89694400  1
  C  C16  1  0.15162400  0.36035600  0.09729000  1
  C  C17  1  0.84837600  0.63964400  0.90271000  1
  C  C18  1  0.25975800  0.86036500  0.27247100  1
  C  C19  1  0.74024200  0.13963500  0.72752900  1
  C  C20  1  0.47677900  0.01913400  0.67684700  1
  C  C21  1  0.52322100  0.98086600  0.32315300  1
  C  C22  1  0.14512700  0.17242000  0.95213900  1
  C  C23  1  0.85487300  0.82758000  0.04786100  1
  C  C24  1  0.05193400  0.40407200  0.31503000  1
  C  C25  1  0.94806600  0.59592800  0.68497000  1
  C  C26  1  0.93737600  0.16143000  0.25535600  1
  C  C27  1  0.06262400  0.83857000  0.74464400  1
  C  C28  1  0.64121700  0.59034100  0.10052000  1
  C  C29  1  0.35878300  0.40965900  0.89948000  1
  C  C30  1  0.24383200  0.14500000  0.31857400  1
  C  C31  1  0.75616800  0.85500000  0.68142600  1
