# generated using pymatgen
data_Cu2Ni6C19
_symmetry_space_group_name_H-M   'P 1'
_cell_length_a   3.10792500
_cell_length_b   9.35753411
_cell_length_c   10.95788761
_cell_angle_alpha   89.52356150
_cell_angle_beta   90.00000000
_cell_angle_gamma   90.00000000
_symmetry_Int_Tables_number   1
_chemical_formula_structural   Cu2Ni6C19
_chemical_formula_sum   'Cu2 Ni6 C19'
_cell_volume   318.67190443
_cell_formula_units_Z   1
loop_
 _symmetry_equiv_pos_site_id
 _symmetry_equiv_pos_as_xyz
  1  'x, y, z'
loop_
 _atom_site_type_symbol
 _atom_site_label
 _atom_site_symmetry_multiplicity
 _atom_site_fract_x
 _atom_site_fract_y
 _atom_site_fract_z
 _atom_site_occupancy
  C  C0  1  0.25000000  0.25471000  0.83940300  1
  C  C1  1  0.25000000  0.75588900  0.66127100  1
  C  C2  1  0.75000000  0.74345900  0.15414300  1
  Ni  Ni3  1  0.25000000  0.93846700  0.88695300  1
  Ni  Ni4  1  0.25000000  0.43611600  0.61073000  1
  Ni  Ni5  1  0.75000000  0.06633700  0.10758600  1
  Ni  Ni6  1  0.75000000  0.55141900  0.39574300  1
  Ni  Ni7  1  0.75000000  0.09315300  0.60278300  1
  Ni  Ni8  1  0.75000000  0.58689700  0.89245000  1
  Cu  Cu9  1  0.25000000  0.92177500  0.39497200  1
  Cu  Cu10  1  0.25000000  0.41055800  0.10960600  1
  C  C11  1  0.25000000  0.61658400  0.02591500  1
  C  C12  1  0.25000000  0.11142600  0.48659300  1
  C  C13  1  0.75000000  0.38262100  0.97459300  1
  C  C14  1  0.75000000  0.87538300  0.52486800  1
  C  C15  1  0.25000000  0.91602100  0.06985900  1
  C  C16  1  0.25000000  0.42985500  0.43378600  1
  C  C17  1  0.75000000  0.08229600  0.92318700  1
  C  C18  1  0.75000000  0.58399900  0.58038300  1
  C  C19  1  0.25000000  0.70602300  0.33441900  1
  C  C20  1  0.25000000  0.19661000  0.13804700  1
  C  C21  1  0.75000000  0.29748700  0.67055200  1
  C  C22  1  0.75000000  0.79476300  0.83671200  1
  C  C23  1  0.25000000  0.02578600  0.71744600  1
  C  C24  1  0.25000000  0.52909600  0.78797300  1
  C  C25  1  0.75000000  0.96153100  0.27453600  1
  C  C26  1  0.75000000  0.48273900  0.21549100  1
