# generated using pymatgen
data_Cu10NiC2
_symmetry_space_group_name_H-M   'P 1'
_cell_length_a   4.90330200
_cell_length_b   6.10865200
_cell_length_c   12.86012600
_cell_angle_alpha   90.00000000
_cell_angle_beta   90.00000000
_cell_angle_gamma   90.00000000
_symmetry_Int_Tables_number   1
_chemical_formula_structural   Cu10NiC2
_chemical_formula_sum   'Cu20 Ni2 C4'
_cell_volume   385.19376724
_cell_formula_units_Z   2
loop_
 _symmetry_equiv_pos_site_id
 _symmetry_equiv_pos_as_xyz
  1  'x, y, z'
loop_
 _atom_site_type_symbol
 _atom_site_label
 _atom_site_symmetry_multiplicity
 _atom_site_fract_x
 _atom_site_fract_y
 _atom_site_fract_z
 _atom_site_occupancy
  C  C0  1  0.98195600  0.00000000  0.11337700  1
  C  C1  1  0.01804400  0.50000000  0.61337700  1
  C  C2  1  0.55447900  0.00000000  0.71370000  1
  C  C3  1  0.44552100  0.50000000  0.21370000  1
  Ni  Ni4  1  0.04399800  0.00000000  0.49280500  1
  Ni  Ni5  1  0.95600200  0.50000000  0.99280500  1
  Cu  Cu6  1  0.73890200  0.77284000  0.79354800  1
  Cu  Cu7  1  0.73890200  0.22716000  0.79354800  1
  Cu  Cu8  1  0.26109800  0.72716000  0.29354800  1
  Cu  Cu9  1  0.26109800  0.27284000  0.29354800  1
  Cu  Cu10  1  0.23811200  0.00000000  0.76182900  1
  Cu  Cu11  1  0.76188800  0.50000000  0.26182900  1
  Cu  Cu12  1  0.63995400  0.00000000  0.58901200  1
  Cu  Cu13  1  0.36004600  0.50000000  0.08901200  1
  Cu  Cu14  1  0.03883200  0.81862000  0.25246900  1
  Cu  Cu15  1  0.03883200  0.18138000  0.25246900  1
  Cu  Cu16  1  0.96116800  0.68138000  0.75246900  1
  Cu  Cu17  1  0.96116800  0.31862000  0.75246900  1
  Cu  Cu18  1  0.86519200  0.68057300  0.01383800  1
  Cu  Cu19  1  0.86519200  0.31942700  0.01383800  1
  Cu  Cu20  1  0.13480800  0.81942700  0.51383800  1
  Cu  Cu21  1  0.13480800  0.18057300  0.51383800  1
  Cu  Cu22  1  0.56007900  0.00000000  0.13525400  1
  Cu  Cu23  1  0.43992100  0.50000000  0.63525400  1
  Cu  Cu24  1  0.37963600  0.00000000  0.05731400  1
  Cu  Cu25  1  0.62036400  0.50000000  0.55731400  1
