# generated using pymatgen
data_CuNi3C11
_symmetry_space_group_name_H-M   'P 1'
_cell_length_a   6.06359675
_cell_length_b   5.93973418
_cell_length_c   7.41517365
_cell_angle_alpha   88.80895886
_cell_angle_beta   89.20302099
_cell_angle_gamma   121.70414856
_symmetry_Int_Tables_number   1
_chemical_formula_structural   CuNi3C11
_chemical_formula_sum   'Cu1 Ni3 C11'
_cell_volume   227.06665723
_cell_formula_units_Z   1
loop_
 _symmetry_equiv_pos_site_id
 _symmetry_equiv_pos_as_xyz
  1  'x, y, z'
loop_
 _atom_site_type_symbol
 _atom_site_label
 _atom_site_symmetry_multiplicity
 _atom_site_fract_x
 _atom_site_fract_y
 _atom_site_fract_z
 _atom_site_occupancy
  Ni  Ni0  1  0.08635200  0.01238500  0.06636700  1
  Ni  Ni1  1  0.24683700  0.65400600  0.60057300  1
  Ni  Ni2  1  0.66688300  0.33325100  0.33298700  1
  Cu  Cu3  1  0.66675000  0.83350600  0.83342900  1
  C  C4  1  0.98980700  0.02016200  0.50960000  1
  C  C5  1  0.34356500  0.64646000  0.15715200  1
  C  C6  1  0.66545800  0.33277000  0.83269500  1
  C  C7  1  0.03250500  0.51428600  0.00689100  1
  C  C8  1  0.16662600  0.33314000  0.33344100  1
  C  C9  1  0.50982200  0.00820100  0.01027900  1
  C  C10  1  0.66616200  0.83320400  0.33329800  1
  C  C11  1  0.30198200  0.15298300  0.66029600  1
  C  C12  1  0.51514500  0.48850900  0.01613500  1
  C  C13  1  0.82369000  0.65884300  0.65635300  1
  C  C14  1  0.81841300  0.17829500  0.65053700  1
