# generated using pymatgen
data_Cu(NiC3)14
_symmetry_space_group_name_H-M   'P 1'
_cell_length_a   10.26255730
_cell_length_b   18.62988796
_cell_length_c   18.96695285
_cell_angle_alpha   90.00000000
_cell_angle_beta   90.00000000
_cell_angle_gamma   90.00000000
_symmetry_Int_Tables_number   1
_chemical_formula_structural   Cu(NiC3)14
_chemical_formula_sum   'Cu4 Ni56 C168'
_cell_volume   3626.29726668
_cell_formula_units_Z   4
loop_
 _symmetry_equiv_pos_site_id
 _symmetry_equiv_pos_as_xyz
  1  'x, y, z'
loop_
 _atom_site_type_symbol
 _atom_site_label
 _atom_site_symmetry_multiplicity
 _atom_site_fract_x
 _atom_site_fract_y
 _atom_site_fract_z
 _atom_site_occupancy
  C  C0  1  0.42482735  0.44103954  0.17830589  1
  C  C1  1  0.07517265  0.94103954  0.32169411  1
  C  C2  1  0.92482735  0.55896046  0.32169411  1
  C  C3  1  0.57517265  0.05896046  0.17830589  1
  C  C4  1  0.57517265  0.55896046  0.82169411  1
  C  C5  1  0.92482735  0.05896046  0.67830589  1
  C  C6  1  0.07517265  0.44103954  0.67830589  1
  C  C7  1  0.42482735  0.94103954  0.82169411  1
  C  C8  1  0.11927606  0.46672148  0.21889178  1
  C  C9  1  0.38072394  0.96672148  0.28110822  1
  C  C10  1  0.61927606  0.53327852  0.28110822  1
  C  C11  1  0.88072394  0.03327852  0.21889178  1
  C  C12  1  0.88072394  0.53327852  0.78110822  1
  C  C13  1  0.61927606  0.03327852  0.71889178  1
  C  C14  1  0.38072394  0.46672148  0.71889178  1
  C  C15  1  0.11927606  0.96672148  0.78110822  1
  C  C16  1  0.50000000  0.50000000  -0.00000000  1
  C  C17  1  0.00000000  -0.00000000  0.50000000  1
  C  C18  1  0.00000000  0.50000000  0.50000000  1
  C  C19  1  0.50000000  -0.00000000  -0.00000000  1
  C  C20  1  0.50000000  0.25000000  0.18375898  1
  C  C21  1  0.00000000  0.75000000  0.31624102  1
  C  C22  1  0.50000000  0.75000000  0.81624102  1
  C  C23  1  0.00000000  0.25000000  0.68375898  1
  C  C24  1  0.26258502  0.50509137  0.36440942  1
  C  C25  1  0.23741498  0.00509137  0.13559058  1
  C  C26  1  0.76258502  0.49490863  0.13559058  1
  C  C27  1  0.73741498  0.99490863  0.36440942  1
  C  C28  1  0.73741498  0.49490863  0.63559058  1
  C  C29  1  0.76258502  0.99490863  0.86440942  1
  C  C30  1  0.23741498  0.50509137  0.86440942  1
  C  C31  1  0.26258502  0.00509137  0.63559058  1
  C  C32  1  0.11854628  0.49343692  0.05223654  1
  C  C33  1  0.38145372  0.99343692  0.44776346  1
  C  C34  1  0.61854628  0.50656308  0.44776346  1
  C  C35  1  0.88145372  0.00656308  0.05223654  1
  C  C36  1  0.88145372  0.50656308  0.94776346  1
  C  C37  1  0.61854628  0.00656308  0.55223654  1
  C  C38  1  0.38145372  0.49343692  0.55223654  1
  C  C39  1  0.11854628  0.99343692  0.94776346  1
  C  C40  1  0.20928335  0.25992479  0.18234167  1
  C  C41  1  0.29071665  0.75992479  0.31765833  1
  C  C42  1  0.70928335  0.74007521  0.31765833  1
  C  C43  1  0.79071665  0.24007521  0.18234167  1
  C  C44  1  0.79071665  0.74007521  0.81765833  1
  C  C45  1  0.70928335  0.24007521  0.68234167  1
  C  C46  1  0.29071665  0.25992479  0.68234167  1
  C  C47  1  0.20928335  0.75992479  0.81765833  1
  C  C48  1  0.70268108  0.37562725  0.31842682  1
  C  C49  1  0.79731892  0.87562725  0.18157318  1
  C  C50  1  0.20268108  0.62437275  0.18157318  1
  C  C51  1  0.29731892  0.12437275  0.31842682  1
  C  C52  1  0.29731892  0.62437275  0.68157318  1
  C  C53  1  0.20268108  0.12437275  0.81842682  1
  C  C54  1  0.79731892  0.37562725  0.81842682  1
  C  C55  1  0.70268108  0.87562725  0.68157318  1
  C  C56  1  0.54192517  0.64699445  0.15493206  1
  C  C57  1  0.95807483  0.14699445  0.34506794  1
  C  C58  1  0.04192517  0.35300555  0.34506794  1
  C  C59  1  0.45807483  0.85300555  0.15493206  1
  C  C60  1  0.45807483  0.35300555  0.84506794  1
  C  C61  1  0.04192517  0.85300555  0.65493206  1
  C  C62  1  0.95807483  0.64699445  0.65493206  1
  C  C63  1  0.54192517  0.14699445  0.84506794  1
  C  C64  1  0.65724876  0.36584887  0.02566736  1
  C  C65  1  0.84275124  0.86584887  0.47433264  1
  C  C66  1  0.15724876  0.63415113  0.47433264  1
  C  C67  1  0.34275124  0.13415113  0.02566736  1
  C  C68  1  0.34275124  0.63415113  0.97433264  1
  C  C69  1  0.15724876  0.13415113  0.52566736  1
  C  C70  1  0.84275124  0.36584887  0.52566736  1
  C  C71  1  0.65724876  0.86584887  0.97433264  1
  Ni  Ni72  1  0.33931550  0.50122332  0.32360891  1
  Ni  Ni73  1  0.16068450  0.00122332  0.17639109  1
  Ni  Ni74  1  0.83931550  0.49877668  0.17639109  1
  Ni  Ni75  1  0.66068450  0.99877668  0.32360891  1
  Ni  Ni76  1  0.66068450  0.49877668  0.67639109  1
  Ni  Ni77  1  0.83931550  0.99877668  0.82360891  1
  Ni  Ni78  1  0.16068450  0.50122332  0.82360891  1
  Ni  Ni79  1  0.33931550  0.00122332  0.67639109  1
  Ni  Ni80  1  0.22344100  0.48812166  0.06459324  1
  Ni  Ni81  1  0.27655900  0.98812166  0.43540676  1
  Ni  Ni82  1  0.72344100  0.51187834  0.43540676  1
  Ni  Ni83  1  0.77655900  0.01187834  0.06459324  1
  Ni  Ni84  1  0.77655900  0.51187834  0.93540676  1
  Ni  Ni85  1  0.72344100  0.01187834  0.56459324  1
  Ni  Ni86  1  0.27655900  0.48812166  0.56459324  1
  Ni  Ni87  1  0.22344100  0.98812166  0.93540676  1
  Ni  Ni88  1  0.23133859  0.31754778  0.18982975  1
  Ni  Ni89  1  0.26866141  0.81754778  0.31017025  1
  Ni  Ni90  1  0.73133859  0.68245222  0.31017025  1
  Ni  Ni91  1  0.76866141  0.18245222  0.18982975  1
  Ni  Ni92  1  0.76866141  0.68245222  0.81017025  1
  Ni  Ni93  1  0.73133859  0.18245222  0.68982975  1
  Ni  Ni94  1  0.26866141  0.31754778  0.68982975  1
  Ni  Ni95  1  0.23133859  0.81754778  0.81017025  1
  Ni  Ni96  1  0.62808951  0.36711614  0.27698261  1
  Ni  Ni97  1  0.87191049  0.86711614  0.22301739  1
  Ni  Ni98  1  0.12808951  0.63288386  0.22301739  1
  Ni  Ni99  1  0.37191049  0.13288386  0.27698261  1
  Ni  Ni100  1  0.37191049  0.63288386  0.72301739  1
  Ni  Ni101  1  0.12808951  0.13288386  0.77698261  1
  Ni  Ni102  1  0.87191049  0.36711614  0.77698261  1
  Ni  Ni103  1  0.62808951  0.86711614  0.72301739  1
  Ni  Ni104  1  0.52093673  0.59169258  0.13685574  1
  Ni  Ni105  1  0.97906327  0.09169258  0.36314426  1
  Ni  Ni106  1  0.02093673  0.40830742  0.36314426  1
  Ni  Ni107  1  0.47906327  0.90830742  0.13685574  1
  Ni  Ni108  1  0.47906327  0.40830742  0.86314426  1
  Ni  Ni109  1  0.02093673  0.90830742  0.63685574  1
  Ni  Ni110  1  0.97906327  0.59169258  0.63685574  1
  Ni  Ni111  1  0.52093673  0.09169258  0.86314426  1
  Ni  Ni112  1  0.59416281  0.36406692  0.07286804  1
  Ni  Ni113  1  0.90583719  0.86406692  0.42713196  1
  Ni  Ni114  1  0.09416281  0.63593308  0.42713196  1
  Ni  Ni115  1  0.40583719  0.13593308  0.07286804  1
  Ni  Ni116  1  0.40583719  0.63593308  0.92713196  1
  Ni  Ni117  1  0.09416281  0.13593308  0.57286804  1
  Ni  Ni118  1  0.90583719  0.36406692  0.57286804  1
  Ni  Ni119  1  0.59416281  0.86406692  0.92713196  1
  Ni  Ni120  1  0.89485827  0.21608996  0.96775638  1
  Ni  Ni121  1  0.60514173  0.71608996  0.53224362  1
  Ni  Ni122  1  0.39485827  0.78391004  0.53224362  1
  Ni  Ni123  1  0.10514173  0.28391004  0.96775638  1
  Ni  Ni124  1  0.10514173  0.78391004  0.03224362  1
  Ni  Ni125  1  0.39485827  0.28391004  0.46775638  1
  Ni  Ni126  1  0.60514173  0.21608996  0.46775638  1
  Ni  Ni127  1  0.89485827  0.71608996  0.03224362  1
  Cu  Cu128  1  0.00000000  0.25000000  0.97225942  1
  Cu  Cu129  1  0.50000000  0.75000000  0.52774058  1
  Cu  Cu130  1  0.00000000  0.75000000  0.02774058  1
  Cu  Cu131  1  0.50000000  0.25000000  0.47225942  1
  C  C132  1  0.30564508  0.47248147  0.26477819  1
  C  C133  1  0.19435492  0.97248147  0.23522181  1
  C  C134  1  0.80564508  0.52751853  0.23522181  1
  C  C135  1  0.69435492  0.02751853  0.26477819  1
  C  C136  1  0.69435492  0.52751853  0.73522181  1
  C  C137  1  0.80564508  0.02751853  0.76477819  1
  C  C138  1  0.19435492  0.47248147  0.76477819  1
  C  C139  1  0.30564508  0.97248147  0.73522181  1
  C  C140  1  0.45071158  0.52461328  0.33837728  1
  C  C141  1  0.04928842  0.02461328  0.16162272  1
  C  C142  1  0.95071158  0.47538672  0.16162272  1
  C  C143  1  0.54928842  0.97538672  0.33837728  1
  C  C144  1  0.54928842  0.47538672  0.66162272  1
  C  C145  1  0.95071158  0.97538672  0.83837728  1
  C  C146  1  0.04928842  0.52461328  0.83837728  1
  C  C147  1  0.45071158  0.02461328  0.66162272  1
  C  C148  1  0.35228410  0.33516322  0.18437171  1
  C  C149  1  0.14771590  0.83516322  0.31562829  1
  C  C150  1  0.85228410  0.66483678  0.31562829  1
  C  C151  1  0.64771590  0.16483678  0.18437171  1
  C  C152  1  0.64771590  0.66483678  0.81562829  1
  C  C153  1  0.85228410  0.16483678  0.68437171  1
  C  C154  1  0.14771590  0.33516322  0.68437171  1
  C  C155  1  0.35228410  0.83516322  0.81562829  1
  C  C156  1  0.13809328  0.35903027  0.20238938  1
  C  C157  1  0.36190672  0.85903027  0.29761062  1
  C  C158  1  0.63809328  0.64096973  0.29761062  1
  C  C159  1  0.86190672  0.14096973  0.20238938  1
  C  C160  1  0.86190672  0.64096973  0.79761062  1
  C  C161  1  0.63809328  0.14096973  0.70238938  1
  C  C162  1  0.36190672  0.35903027  0.70238938  1
  C  C163  1  0.13809328  0.85903027  0.79761062  1
  C  C164  1  0.51674697  0.54305167  0.18497751  1
  C  C165  1  0.98325303  0.04305167  0.31502249  1
  C  C166  1  0.01674697  0.45694833  0.31502249  1
  C  C167  1  0.48325303  0.95694833  0.18497751  1
  C  C168  1  0.48325303  0.45694833  0.81502249  1
  C  C169  1  0.01674697  0.95694833  0.68497751  1
  C  C170  1  0.98325303  0.54305167  0.68497751  1
  C  C171  1  0.51674697  0.04305167  0.81502249  1
  C  C172  1  0.57993553  0.42451424  0.24978413  1
  C  C173  1  0.92006447  0.92451424  0.25021587  1
  C  C174  1  0.07993553  0.57548576  0.25021587  1
  C  C175  1  0.42006447  0.07548576  0.24978413  1
  C  C176  1  0.42006447  0.57548576  0.75021587  1
  C  C177  1  0.07993553  0.07548576  0.74978413  1
  C  C178  1  0.92006447  0.42451424  0.74978413  1
  C  C179  1  0.57993553  0.92451424  0.75021587  1
  C  C180  1  0.52548871  0.42072565  0.08462181  1
  C  C181  1  0.97451129  0.92072565  0.41537819  1
  C  C182  1  0.02548871  0.57927435  0.41537819  1
  C  C183  1  0.47451129  0.07927435  0.08462181  1
  C  C184  1  0.47451129  0.57927435  0.91537819  1
  C  C185  1  0.02548871  0.07927435  0.58462181  1
  C  C186  1  0.97451129  0.42072565  0.58462181  1
  C  C187  1  0.52548871  0.92072565  0.91537819  1
  C  C188  1  0.25152116  0.47941656  0.13035278  1
  C  C189  1  0.24847884  0.97941656  0.36964722  1
  C  C190  1  0.75152116  0.52058344  0.36964722  1
  C  C191  1  0.74847884  0.02058344  0.13035278  1
  C  C192  1  0.74847884  0.52058344  0.86964722  1
  C  C193  1  0.75152116  0.02058344  0.63035278  1
  C  C194  1  0.24847884  0.47941656  0.63035278  1
  C  C195  1  0.25152116  0.97941656  0.86964722  1
  C  C196  1  0.59947372  0.30412022  0.26123198  1
  C  C197  1  0.90052628  0.80412022  0.23876802  1
  C  C198  1  0.09947372  0.69587978  0.23876802  1
  C  C199  1  0.40052628  0.19587978  0.26123198  1
  C  C200  1  0.40052628  0.69587978  0.73876802  1
  C  C201  1  0.09947372  0.19587978  0.76123198  1
  C  C202  1  0.90052628  0.30412022  0.76123198  1
  C  C203  1  0.59947372  0.80412022  0.73876802  1
  C  C204  1  0.59688807  0.30850128  0.10973528  1
  C  C205  1  0.90311193  0.80850128  0.39026472  1
  C  C206  1  0.09688807  0.69149872  0.39026472  1
  C  C207  1  0.40311193  0.19149872  0.10973528  1
  C  C208  1  0.40311193  0.69149872  0.89026472  1
  C  C209  1  0.09688807  0.19149872  0.60973528  1
  C  C210  1  0.90311193  0.30850128  0.60973528  1
  C  C211  1  0.59688807  0.80850128  0.89026472  1
  C  C212  1  0.30276193  0.49131453  0.01473682  1
  C  C213  1  0.19723807  0.99131453  0.48526318  1
  C  C214  1  0.80276193  0.50868547  0.48526318  1
  C  C215  1  0.69723807  0.00868547  0.01473682  1
  C  C216  1  0.69723807  0.50868547  0.98526318  1
  C  C217  1  0.80276193  0.00868547  0.51473682  1
  C  C218  1  0.19723807  0.49131453  0.51473682  1
  C  C219  1  0.30276193  0.99131453  0.98526318  1
  C  C220  1  0.50265981  0.58167347  0.07252969  1
  C  C221  1  0.99734019  0.08167347  0.42747031  1
  C  C222  1  0.00265981  0.41832653  0.42747031  1
  C  C223  1  0.49734019  0.91832653  0.07252969  1
  C  C224  1  0.49734019  0.41832653  0.92747031  1
  C  C225  1  0.00265981  0.91832653  0.57252969  1
  C  C226  1  0.99734019  0.58167347  0.57252969  1
  C  C227  1  0.50265981  0.08167347  0.92747031  1
