# generated using pymatgen
data_Cu3NiC2
_symmetry_space_group_name_H-M   'P 1'
_cell_length_a   3.22185228
_cell_length_b   3.22185228
_cell_length_c   36.39137200
_cell_angle_alpha   90.00000000
_cell_angle_beta   90.00000000
_cell_angle_gamma   120.00000570
_symmetry_Int_Tables_number   1
_chemical_formula_structural   Cu3NiC2
_chemical_formula_sum   'Cu6 Ni2 C4'
_cell_volume   327.14499791
_cell_formula_units_Z   2
loop_
 _symmetry_equiv_pos_site_id
 _symmetry_equiv_pos_as_xyz
  1  'x, y, z'
loop_
 _atom_site_type_symbol
 _atom_site_label
 _atom_site_symmetry_multiplicity
 _atom_site_fract_x
 _atom_site_fract_y
 _atom_site_fract_z
 _atom_site_occupancy
  C  C0  1  0.66666700  0.33333300  0.28178700  1
  C  C1  1  0.33333300  0.66666700  0.09392000  1
  C  C2  1  0.33333300  0.66666700  0.46965200  1
  C  C3  1  0.66666700  0.33333300  0.65755100  1
  Ni  Ni4  1  0.66666700  0.33333300  0.42239400  1
  Ni  Ni5  1  0.66666700  0.33333300  0.51692200  1
  Cu  Cu6  1  0.33333300  0.66666700  0.32452700  1
  Cu  Cu7  1  0.33333300  0.66666700  0.70046500  1
  Cu  Cu8  1  0.66666700  0.33333300  0.05100400  1
  Cu  Cu9  1  0.66666700  0.33333300  0.13683900  1
  Cu  Cu10  1  0.33333300  0.66666700  0.23904200  1
  Cu  Cu11  1  0.33333300  0.66666700  0.61464500  1
