# generated using pymatgen
data_CuNi2C13
_symmetry_space_group_name_H-M   'P 1'
_cell_length_a   11.98118841
_cell_length_b   11.98118841
_cell_length_c   9.17543683
_cell_angle_alpha   69.65477787
_cell_angle_beta   69.65477787
_cell_angle_gamma   27.81027228
_symmetry_Int_Tables_number   1
_chemical_formula_structural   CuNi2C13
_chemical_formula_sum   'Cu2 Ni4 C26'
_cell_volume   573.72926274
_cell_formula_units_Z   2
loop_
 _symmetry_equiv_pos_site_id
 _symmetry_equiv_pos_as_xyz
  1  'x, y, z'
loop_
 _atom_site_type_symbol
 _atom_site_label
 _atom_site_symmetry_multiplicity
 _atom_site_fract_x
 _atom_site_fract_y
 _atom_site_fract_z
 _atom_site_occupancy
  Ni  Ni0  1  0.49587100  0.49587100  0.25888900  1
  Ni  Ni1  1  0.50412900  0.50412900  0.74111100  1
  Ni  Ni2  1  0.17381000  0.17381000  0.45464300  1
  Ni  Ni3  1  0.82619000  0.82619000  0.54535700  1
  Cu  Cu4  1  0.68067300  0.68067300  0.11651600  1
  Cu  Cu5  1  0.31932700  0.31932700  0.88348400  1
  C  C6  1  0.92937900  0.92937900  0.07259600  1
  C  C7  1  0.07062100  0.07062100  0.92740400  1
  C  C8  1  0.22483100  0.77516900  0.00000000  1
  C  C9  1  0.77516900  0.22483100  0.00000000  1
  C  C10  1  0.17597300  0.56381000  0.17071900  1
  C  C11  1  0.43619000  0.82402700  0.82928100  1
  C  C12  1  0.82402700  0.43619000  0.82928100  1
  C  C13  1  0.56381000  0.17597300  0.17071900  1
  C  C14  1  0.90649300  0.90649300  0.90223200  1
  C  C15  1  0.09350700  0.09350700  0.09776800  1
  C  C16  1  0.07861700  0.07861700  0.71980200  1
  C  C17  1  0.92138300  0.92138300  0.28019800  1
  C  C18  1  0.77453500  0.77453500  0.89714300  1
  C  C19  1  0.22546500  0.22546500  0.10285700  1
  C  C20  1  0.60527200  0.60527200  0.45111200  1
  C  C21  1  0.39472800  0.39472800  0.54888800  1
  C  C22  1  0.86191900  0.64340500  0.28205900  1
  C  C23  1  0.35659500  0.13808100  0.71794100  1
  C  C24  1  0.13808100  0.35659500  0.71794100  1
  C  C25  1  0.64340500  0.86191900  0.28205900  1
  C  C26  1  0.80348000  0.41022600  0.36700100  1
  C  C27  1  0.58977400  0.19652000  0.63299900  1
  C  C28  1  0.19652000  0.58977400  0.63299900  1
  C  C29  1  0.41022600  0.80348000  0.36700100  1
  C  C30  1  0.62359200  0.62359200  0.92689900  1
  C  C31  1  0.37640800  0.37640800  0.07310100  1
