# generated using pymatgen
data_Cu2NiC8
_symmetry_space_group_name_H-M   'P 1'
_cell_length_a   7.73886910
_cell_length_b   7.73886910
_cell_length_c   7.73886910
_cell_angle_alpha   121.22107228
_cell_angle_beta   118.70633989
_cell_angle_gamma   90.07665529
_symmetry_Int_Tables_number   1
_chemical_formula_structural   Cu2NiC8
_chemical_formula_sum   'Cu4 Ni2 C16'
_cell_volume   327.71335916
_cell_formula_units_Z   2
loop_
 _symmetry_equiv_pos_site_id
 _symmetry_equiv_pos_as_xyz
  1  'x, y, z'
loop_
 _atom_site_type_symbol
 _atom_site_label
 _atom_site_symmetry_multiplicity
 _atom_site_fract_x
 _atom_site_fract_y
 _atom_site_fract_z
 _atom_site_occupancy
  Ni  Ni0  1  0.00000000  0.50000000  0.50000000  1
  Ni  Ni1  1  0.50000000  0.00000000  0.50000000  1
  C  C2  1  0.50000000  0.50000000  0.50000000  1
  C  C3  1  0.50000000  0.00000000  0.00000000  1
  Cu  Cu4  1  0.50000000  0.50000000  0.00000000  1
  Cu  Cu5  1  0.00000000  0.00000000  0.00000000  1
  Cu  Cu6  1  0.00000000  0.50000000  0.00000000  1
  Cu  Cu7  1  0.00000000  0.00000000  0.50000000  1
  C  C8  1  0.86906700  0.60041000  0.26865800  1
  C  C9  1  0.16824800  0.89959000  0.26865800  1
  C  C10  1  0.18869100  0.82484000  0.77486300  1
  C  C11  1  0.45002300  0.67516000  0.36385200  1
  C  C12  1  0.45002300  0.08617200  0.77486300  1
  C  C13  1  0.18869100  0.41382800  0.36385200  1
  C  C14  1  0.81130900  0.58617200  0.63614800  1
  C  C15  1  0.54997700  0.91382800  0.22513700  1
  C  C16  1  0.54997700  0.32484000  0.63614800  1
  C  C17  1  0.81130900  0.17516000  0.22513700  1
  C  C18  1  0.42172500  0.25000000  0.17172500  1
  C  C19  1  0.13093300  0.39959000  0.73134200  1
  C  C20  1  0.83175200  0.10041000  0.73134200  1
  C  C21  1  0.57827500  0.75000000  0.82827500  1
