# generated using pymatgen
data_Cu3NiC10
_symmetry_space_group_name_H-M   'P 1'
_cell_length_a   6.97332400
_cell_length_b   6.00381600
_cell_length_c   6.51599292
_cell_angle_alpha   88.81060379
_cell_angle_beta   90.00000000
_cell_angle_gamma   90.00000000
_symmetry_Int_Tables_number   1
_chemical_formula_structural   Cu3NiC10
_chemical_formula_sum   'Cu3 Ni1 C10'
_cell_volume   272.74339349
_cell_formula_units_Z   1
loop_
 _symmetry_equiv_pos_site_id
 _symmetry_equiv_pos_as_xyz
  1  'x, y, z'
loop_
 _atom_site_type_symbol
 _atom_site_label
 _atom_site_symmetry_multiplicity
 _atom_site_fract_x
 _atom_site_fract_y
 _atom_site_fract_z
 _atom_site_occupancy
  Ni  Ni0  1  0.00000000  0.50000000  0.50000000  1
  Cu  Cu1  1  0.50000000  0.50000000  0.50000000  1
  Cu  Cu2  1  0.25005300  0.00000000  0.50000000  1
  Cu  Cu3  1  0.74994700  0.00000000  0.50000000  1
  C  C4  1  0.25260400  0.00000000  0.00000000  1
  C  C5  1  0.74739600  0.00000000  0.00000000  1
  C  C6  1  0.25595200  0.32718200  0.71388000  1
  C  C7  1  0.74404800  0.32718200  0.71388000  1
  C  C8  1  0.50000000  0.82878900  0.70307000  1
  C  C9  1  0.00000000  0.83528400  0.71629400  1
  C  C10  1  0.50000000  0.17121100  0.29693000  1
  C  C11  1  0.00000000  0.16471600  0.28370600  1
  C  C12  1  0.74404800  0.67281800  0.28612000  1
  C  C13  1  0.25595200  0.67281800  0.28612000  1
