# generated using pymatgen
data_Cu4Ni44C31
_symmetry_space_group_name_H-M   'P 1'
_cell_length_a   7.82210821
_cell_length_b   8.08959250
_cell_length_c   18.03346926
_cell_angle_alpha   59.78071364
_cell_angle_beta   83.21522709
_cell_angle_gamma   76.20598770
_symmetry_Int_Tables_number   1
_chemical_formula_structural   Cu4Ni44C31
_chemical_formula_sum   'Cu4 Ni44 C31'
_cell_volume   957.60375549
_cell_formula_units_Z   1
loop_
 _symmetry_equiv_pos_site_id
 _symmetry_equiv_pos_as_xyz
  1  'x, y, z'
loop_
 _atom_site_type_symbol
 _atom_site_label
 _atom_site_symmetry_multiplicity
 _atom_site_fract_x
 _atom_site_fract_y
 _atom_site_fract_z
 _atom_site_occupancy
  C  C0  1  0.48593800  0.24552800  0.79969100  1
  C  C1  1  0.71413700  0.65069900  0.38518100  1
  C  C2  1  0.24869700  0.41101000  0.52137800  1
  C  C3  1  0.35775100  0.18467200  0.25583300  1
  C  C4  1  0.53739100  0.91663400  0.71743700  1
  C  C5  1  0.15560600  0.78825000  0.96078900  1
  C  C6  1  0.83231200  0.06406300  0.56059200  1
  C  C7  1  0.95319900  0.28791300  0.18062800  1
  C  C8  1  0.01294900  0.76550200  0.28331700  1
  C  C9  1  0.12623700  0.84813100  0.42650900  1
  C  C10  1  0.43175800  0.93731600  0.99962000  1
  C  C11  1  0.60843000  0.01253200  0.15807300  1
  C  C12  1  0.56357800  0.86902000  0.51551100  1
  C  C13  1  0.09592900  0.13458400  0.74830800  1
  C  C14  1  0.97143100  0.77079500  0.78467900  1
  C  C15  1  0.65033200  0.46238000  0.24391800  1
  C  C16  1  0.71680100  0.45929900  0.87821700  1
  C  C17  1  0.72870800  0.43195300  0.04563100  1
  C  C18  1  0.78934500  0.84663900  0.95447300  1
  C  C19  1  0.62232600  0.42002600  0.60120500  1
  C  C20  1  0.75306800  0.02574800  0.37968700  1
  C  C21  1  0.90502800  0.61464500  0.62875600  1
  C  C22  1  0.94165500  0.71477800  0.14120100  1
  C  C23  1  0.10889500  0.25119100  0.90196600  1
  C  C24  1  0.12017300  0.26000700  0.42056800  1
  C  C25  1  0.16035400  0.99708600  0.62878000  1
  C  C26  1  0.39789000  0.69600200  0.30817400  1
  C  C27  1  0.19745700  0.04381500  0.11513000  1
  C  C28  1  0.32582500  0.56577400  0.86012300  1
  C  C29  1  0.29022700  0.66297400  0.15115200  1
  C  C30  1  0.26910200  0.66053400  0.62378300  1
  Ni  Ni31  1  0.79765900  0.55169400  0.16854300  1
  Ni  Ni32  1  0.25057000  0.23496500  0.12127500  1
  Ni  Ni33  1  0.75878800  0.57068000  0.57852000  1
  Ni  Ni34  1  0.91267400  0.86124700  0.37230100  1
  Ni  Ni35  1  0.35248500  0.86855900  0.58741300  1
  Ni  Ni36  1  0.06485100  0.13319100  0.52717100  1
  Ni  Ni37  1  0.72873400  0.25694400  0.14132700  1
  Ni  Ni38  1  0.06668800  0.03036100  0.19868500  1
  Ni  Ni39  1  0.52376800  0.46125300  0.84260800  1
  Ni  Ni40  1  0.74435000  0.68126000  0.82033200  1
  Ni  Ni41  1  0.67191000  0.37648100  0.97877800  1
  Ni  Ni42  1  0.18194600  0.16333700  0.99849300  1
  Ni  Ni43  1  0.94522000  0.84238100  0.88447400  1
  Ni  Ni44  1  0.82598600  0.80929700  0.19824700  1
  Ni  Ni45  1  0.97249700  0.04456000  0.68197600  1
  Ni  Ni46  1  0.76986800  0.23710300  0.29411300  1
  Ni  Ni47  1  0.47379200  0.47600000  0.19884400  1
  Ni  Ni48  1  0.60650900  0.22125200  0.68561700  1
  Ni  Ni49  1  0.58450900  0.52606000  0.31768400  1
  Ni  Ni50  1  0.77382100  0.79737400  0.63795300  1
  Ni  Ni51  1  0.89818500  0.30444200  0.88076000  1
  Ni  Ni52  1  0.43310700  0.26090700  0.11363400  1
  Ni  Ni53  1  0.67311300  0.67054100  0.00111200  1
  Ni  Ni54  1  0.40369500  0.90385500  0.11786200  1
  Ni  Ni55  1  0.10574300  0.85936500  0.11733700  1
  Ni  Ni56  1  0.15088200  0.11955900  0.37868000  1
  Ni  Ni57  1  0.08878200  0.68603800  0.56193600  1
  Ni  Ni58  1  0.47631400  0.89181700  0.26603300  1
  Ni  Ni59  1  0.43552200  0.58058000  0.56300200  1
  Ni  Ni60  1  0.12760400  0.75677400  0.68061300  1
  Ni  Ni61  1  0.29841200  0.67330500  0.39620600  1
  Ni  Ni62  1  0.98885300  0.41023400  0.70711300  1
  Ni  Ni63  1  0.26282800  0.66160200  0.25598400  1
  Ni  Ni64  1  0.91687100  0.81232600  0.03191000  1
  Ni  Ni65  1  0.32768600  0.70995600  0.04804600  1
  Ni  Ni66  1  0.12113300  0.52325200  0.17895200  1
  Ni  Ni67  1  0.20605300  0.09489600  0.86888700  1
  Ni  Ni68  1  0.28758000  0.79952500  0.80442500  1
  Ni  Ni69  1  0.76608800  0.02897100  0.46927400  1
  Ni  Ni70  1  0.56309200  0.96814000  0.38953900  1
  Ni  Ni71  1  0.27908100  0.11624800  0.64759100  1
  Ni  Ni72  1  0.99648900  0.47206500  0.37941500  1
  Ni  Ni73  1  0.62789200  0.03393900  0.92340000  1
  Ni  Ni74  1  0.17412700  0.47018500  0.84704600  1
  Cu  Cu75  1  0.29556600  0.52820900  0.95755300  1
  Cu  Cu76  1  0.32153800  0.27074800  0.43649600  1
  Cu  Cu77  1  0.94809200  0.42469800  0.03609000  1
  Cu  Cu78  1  0.68562100  0.34872700  0.52644500  1
