# generated using pymatgen
data_CuNiC5
_symmetry_space_group_name_H-M   'P 1'
_cell_length_a   7.58106220
_cell_length_b   7.58106220
_cell_length_c   7.58106220
_cell_angle_alpha   120.44628554
_cell_angle_beta   119.41915702
_cell_angle_gamma   90.11886666
_symmetry_Int_Tables_number   1
_chemical_formula_structural   CuNiC5
_chemical_formula_sum   'Cu2 Ni2 C10'
_cell_volume   308.36997144
_cell_formula_units_Z   2
loop_
 _symmetry_equiv_pos_site_id
 _symmetry_equiv_pos_as_xyz
  1  'x, y, z'
loop_
 _atom_site_type_symbol
 _atom_site_label
 _atom_site_symmetry_multiplicity
 _atom_site_fract_x
 _atom_site_fract_y
 _atom_site_fract_z
 _atom_site_occupancy
  Ni  Ni0  1  0.00000000  0.50000000  0.00000000  1
  Ni  Ni1  1  0.00000000  0.00000000  0.50000000  1
  Cu  Cu2  1  0.50000000  0.50000000  0.00000000  1
  Cu  Cu3  1  0.00000000  0.50000000  0.50000000  1
  C  C4  1  0.62702800  0.87702800  0.75000000  1
  C  C5  1  0.37297200  0.12297200  0.25000000  1
  C  C6  1  0.23910700  0.74104500  0.49806200  1
  C  C7  1  0.74298300  0.74104500  0.00193800  1
  C  C8  1  0.75040500  0.73161300  0.48120900  1
  C  C9  1  0.75040500  0.26919600  0.01879100  1
  C  C10  1  0.76089300  0.25895500  0.50193800  1
  C  C11  1  0.25701700  0.25895500  0.99806200  1
  C  C12  1  0.24959500  0.26838700  0.51879100  1
  C  C13  1  0.24959500  0.73080400  0.98120900  1
