# generated using pymatgen
data_Cu(Ni4C3)4
_symmetry_space_group_name_H-M   'P 1'
_cell_length_a   6.93545500
_cell_length_b   11.52128632
_cell_length_c   11.53353942
_cell_angle_alpha   92.13656782
_cell_angle_beta   89.74344449
_cell_angle_gamma   99.55296864
_symmetry_Int_Tables_number   1
_chemical_formula_structural   Cu(Ni4C3)4
_chemical_formula_sum   'Cu2 Ni32 C24'
_cell_volume   908.17839983
_cell_formula_units_Z   2
loop_
 _symmetry_equiv_pos_site_id
 _symmetry_equiv_pos_as_xyz
  1  'x, y, z'
loop_
 _atom_site_type_symbol
 _atom_site_label
 _atom_site_symmetry_multiplicity
 _atom_site_fract_x
 _atom_site_fract_y
 _atom_site_fract_z
 _atom_site_occupancy
  C  C0  1  0.26622700  0.38634300  0.01658800  1
  C  C1  1  0.73377300  0.61365700  0.98341200  1
  C  C2  1  0.17124000  0.19406300  0.77617200  1
  C  C3  1  0.82876000  0.80593700  0.22382800  1
  C  C4  1  0.16287100  0.15489400  0.21408200  1
  C  C5  1  0.83712900  0.84510600  0.78591800  1
  C  C6  1  0.50000000  0.00000000  0.00000000  1
  C  C7  1  0.02197400  0.66931800  0.51067300  1
  C  C8  1  0.97802600  0.33068200  0.48932700  1
  C  C9  1  0.00000000  0.00000000  0.50000000  1
  C  C10  1  0.48834400  0.51077500  0.33702900  1
  C  C11  1  0.51165600  0.48922500  0.66297100  1
  C  C12  1  0.55786200  0.76745100  0.51044600  1
  C  C13  1  0.44213800  0.23254900  0.48955400  1
  C  C14  1  0.33738600  0.86485900  0.31083500  1
  C  C15  1  0.66261400  0.13514100  0.68916500  1
  C  C16  1  0.65605700  0.09120900  0.30347500  1
  C  C17  1  0.34394300  0.90879100  0.69652500  1
  C  C18  1  0.68964300  0.30538500  0.15937200  1
  C  C19  1  0.31035700  0.69461500  0.84062800  1
  C  C20  1  0.98584500  0.51265600  0.25820100  1
  C  C21  1  0.01415500  0.48734400  0.74179900  1
  C  C22  1  0.28703300  0.66688600  0.12098600  1
  C  C23  1  0.71296700  0.33311400  0.87901400  1
  Ni  Ni24  1  0.52964300  0.62430000  0.51463900  1
  Ni  Ni25  1  0.47035700  0.37570000  0.48536100  1
  Ni  Ni26  1  0.49090400  0.79242900  0.37488200  1
  Ni  Ni27  1  0.50909600  0.20757100  0.62511800  1
  Ni  Ni28  1  0.39021600  0.81440400  0.59482700  1
  Ni  Ni29  1  0.60978400  0.18559600  0.40517300  1
  Ni  Ni30  1  0.77384500  0.83718900  0.53899200  1
  Ni  Ni31  1  0.22615500  0.16281100  0.46100800  1
  Ni  Ni32  1  0.14510300  0.87682700  0.38355600  1
  Ni  Ni33  1  0.85489700  0.12317300  0.61644400  1
  Ni  Ni34  1  0.28014800  0.79765200  0.18318500  1
  Ni  Ni35  1  0.71985200  0.20234800  0.81681500  1
  Ni  Ni36  1  0.45797900  0.99422200  0.27316900  1
  Ni  Ni37  1  0.54202100  0.00577800  0.72683100  1
  Ni  Ni38  1  0.69179000  0.16424000  0.18163100  1
  Ni  Ni39  1  0.30821000  0.83576000  0.81836900  1
  Ni  Ni40  1  0.84340100  0.03404000  0.33413900  1
  Ni  Ni41  1  0.15659900  0.96596000  0.66586100  1
  Ni  Ni42  1  0.90394900  0.37425700  0.20970900  1
  Ni  Ni43  1  0.09605100  0.62574300  0.79029100  1
  Ni  Ni44  1  0.69844600  0.31521200  0.01847900  1
  Ni  Ni45  1  0.30155400  0.68478800  0.98152100  1
  Ni  Ni46  1  0.50364100  0.35321700  0.21460800  1
  Ni  Ni47  1  0.49635900  0.64678300  0.78539200  1
  Ni  Ni48  1  0.16416700  0.50767600  0.34624800  1
  Ni  Ni49  1  0.83583300  0.49232400  0.65375200  1
  Ni  Ni50  1  0.81085500  0.57181800  0.31444600  1
  Ni  Ni51  1  0.18914500  0.42818200  0.68555400  1
  Ni  Ni52  1  0.06764600  0.58513700  0.13895600  1
  Ni  Ni53  1  0.93235400  0.41486300  0.86104400  1
  Ni  Ni54  1  0.46129200  0.60450000  0.16554900  1
  Ni  Ni55  1  0.53870800  0.39550000  0.83445100  1
  Cu  Cu56  1  0.24675200  0.15894400  0.99529700  1
  Cu  Cu57  1  0.75324800  0.84105600  0.00470300  1
