# generated using pymatgen
data_Cu6Ni2C3
_symmetry_space_group_name_H-M   'P 1'
_cell_length_a   7.17333800
_cell_length_b   8.47132400
_cell_length_c   9.33732513
_cell_angle_alpha   84.04825503
_cell_angle_beta   90.00000000
_cell_angle_gamma   90.00000000
_symmetry_Int_Tables_number   1
_chemical_formula_structural   Cu6Ni2C3
_chemical_formula_sum   'Cu24 Ni8 C12'
_cell_volume   564.34892926
_cell_formula_units_Z   4
loop_
 _symmetry_equiv_pos_site_id
 _symmetry_equiv_pos_as_xyz
  1  'x, y, z'
loop_
 _atom_site_type_symbol
 _atom_site_label
 _atom_site_symmetry_multiplicity
 _atom_site_fract_x
 _atom_site_fract_y
 _atom_site_fract_z
 _atom_site_occupancy
  C  C0  1  0.50000000  0.50000000  0.50000000  1
  C  C1  1  0.00000000  0.50000000  0.00000000  1
  C  C2  1  0.00000000  0.00000000  0.50000000  1
  C  C3  1  0.50000000  0.00000000  0.00000000  1
  C  C4  1  0.70948800  0.41344200  0.77072700  1
  C  C5  1  0.20948800  0.58655800  0.72927300  1
  C  C6  1  0.29051200  0.58655800  0.22927300  1
  C  C7  1  0.79051200  0.41344200  0.27072700  1
  C  C8  1  0.50396700  0.82705400  0.63332600  1
  C  C9  1  0.00396700  0.17294600  0.86667400  1
  C  C10  1  0.49603300  0.17294600  0.36667400  1
  C  C11  1  0.99603300  0.82705400  0.13332600  1
  Ni  Ni12  1  0.76849100  0.52990100  0.73025200  1
  Ni  Ni13  1  0.26849100  0.47009900  0.76974800  1
  Ni  Ni14  1  0.23150900  0.47009900  0.26974800  1
  Ni  Ni15  1  0.73150900  0.52990100  0.23025200  1
  Ni  Ni16  1  0.37650100  0.82604000  0.56632400  1
  Ni  Ni17  1  0.87650100  0.17396000  0.93367600  1
  Ni  Ni18  1  0.62349900  0.17396000  0.43367600  1
  Ni  Ni19  1  0.12349900  0.82604000  0.06632400  1
  Cu  Cu20  1  0.70946200  0.59592400  0.61016900  1
  Cu  Cu21  1  0.20946200  0.40407600  0.88983100  1
  Cu  Cu22  1  0.29053800  0.40407600  0.38983100  1
  Cu  Cu23  1  0.79053800  0.59592400  0.11016900  1
  Cu  Cu24  1  0.89038200  0.59146300  0.80567900  1
  Cu  Cu25  1  0.39038200  0.40853700  0.69432100  1
  Cu  Cu26  1  0.10961800  0.40853700  0.19432100  1
  Cu  Cu27  1  0.60961800  0.59146300  0.30567900  1
  Cu  Cu28  1  0.34558000  0.70516700  0.49912500  1
  Cu  Cu29  1  0.84558000  0.29483300  0.00087500  1
  Cu  Cu30  1  0.65442000  0.29483300  0.50087500  1
  Cu  Cu31  1  0.15442000  0.70516700  0.99912500  1
  Cu  Cu32  1  0.27271400  0.94624200  0.56700500  1
  Cu  Cu33  1  0.77271400  0.05375800  0.93299500  1
  Cu  Cu34  1  0.72728600  0.05375800  0.43299500  1
  Cu  Cu35  1  0.22728600  0.94624200  0.06700500  1
  Cu  Cu36  1  0.00763200  0.81680500  0.40405700  1
  Cu  Cu37  1  0.50763200  0.18319500  0.09594300  1
  Cu  Cu38  1  0.99236800  0.18319500  0.59594300  1
  Cu  Cu39  1  0.49236800  0.81680500  0.90405700  1
  Cu  Cu40  1  0.08613500  0.04949100  0.31850600  1
  Cu  Cu41  1  0.58613500  0.95050900  0.18149400  1
  Cu  Cu42  1  0.91386500  0.95050900  0.68149400  1
  Cu  Cu43  1  0.41386500  0.04949100  0.81850600  1
