# generated using pymatgen
data_CuNiC8
_symmetry_space_group_name_H-M   'P 1'
_cell_length_a   5.72432999
_cell_length_b   5.72432999
_cell_length_c   8.34083023
_cell_angle_alpha   90.00000000
_cell_angle_beta   90.00000000
_cell_angle_gamma   90.00000000
_symmetry_Int_Tables_number   1
_chemical_formula_structural   CuNiC8
_chemical_formula_sum   'Cu2 Ni2 C16'
_cell_volume   273.31193992
_cell_formula_units_Z   2
loop_
 _symmetry_equiv_pos_site_id
 _symmetry_equiv_pos_as_xyz
  1  'x, y, z'
loop_
 _atom_site_type_symbol
 _atom_site_label
 _atom_site_symmetry_multiplicity
 _atom_site_fract_x
 _atom_site_fract_y
 _atom_site_fract_z
 _atom_site_occupancy
  C  C0  1  0.00000000  0.00000000  -0.00000000  1
  C  C1  1  0.50000000  0.50000000  0.50000000  1
  Ni  Ni2  1  0.50000000  0.00000000  0.25000000  1
  Ni  Ni3  1  0.00000000  0.50000000  0.75000000  1
  Cu  Cu4  1  0.00000000  0.50000000  0.25000000  1
  Cu  Cu5  1  0.50000000  0.00000000  0.75000000  1
  C  C6  1  0.00000000  0.00000000  0.50000000  1
  C  C7  1  0.50000000  0.50000000  -0.00000000  1
  C  C8  1  0.00000000  0.00000000  0.26455204  1
  C  C9  1  0.50000000  0.50000000  0.23544796  1
  C  C10  1  0.00000000  0.00000000  0.73544796  1
  C  C11  1  0.50000000  0.50000000  0.76455204  1
  C  C12  1  0.34786776  0.19587304  0.00976028  1
  C  C13  1  0.65213224  0.80412696  0.00976028  1
  C  C14  1  0.80412696  0.34786776  0.99023972  1
  C  C15  1  0.19587304  0.65213224  0.99023972  1
  C  C16  1  0.84786776  0.30412696  0.50976028  1
  C  C17  1  0.15213224  0.69587304  0.50976028  1
  C  C18  1  0.30412696  0.15213224  0.49023972  1
  C  C19  1  0.69587304  0.84786776  0.49023972  1
