# generated using pymatgen
data_Cu3NiC36
_symmetry_space_group_name_H-M   'P 1'
_cell_length_a   8.45886600
_cell_length_b   8.81164401
_cell_length_c   12.49078375
_cell_angle_alpha   90.69535106
_cell_angle_beta   92.37037994
_cell_angle_gamma   90.00282849
_symmetry_Int_Tables_number   1
_chemical_formula_structural   Cu3NiC36
_chemical_formula_sum   'Cu6 Ni2 C72'
_cell_volume   930.15422500
_cell_formula_units_Z   2
loop_
 _symmetry_equiv_pos_site_id
 _symmetry_equiv_pos_as_xyz
  1  'x, y, z'
loop_
 _atom_site_type_symbol
 _atom_site_label
 _atom_site_symmetry_multiplicity
 _atom_site_fract_x
 _atom_site_fract_y
 _atom_site_fract_z
 _atom_site_occupancy
  C  C0  1  0.99863400  0.99969300  0.99779700  1
  C  C1  1  0.99890300  0.90087500  0.75082000  1
  C  C2  1  0.99479000  0.99523500  0.50222800  1
  C  C3  1  0.99207300  0.10020700  0.24853300  1
  C  C4  1  0.29168300  0.19484700  0.95212500  1
  C  C5  1  0.29338400  0.80905500  0.45578600  1
  C  C6  1  0.50976600  0.49666300  0.99625900  1
  C  C7  1  0.50050100  0.59726000  0.74960700  1
  C  C8  1  0.50115700  0.49908900  0.50267600  1
  C  C9  1  0.50637400  0.39964200  0.24935300  1
  C  C10  1  0.70553500  0.18659600  0.54913500  1
  C  C11  1  0.70946400  0.80643200  0.04621400  1
  Ni  Ni12  1  0.71584800  0.99872100  0.35654300  1
  Ni  Ni13  1  0.78749300  0.50316400  0.14646800  1
  Cu  Cu14  1  0.21233700  0.50146200  0.85645300  1
  Cu  Cu15  1  0.21352300  0.49788000  0.35551100  1
  Cu  Cu16  1  0.28448500  0.00210800  0.64143000  1
  Cu  Cu17  1  0.28546300  0.99769000  0.14130800  1
  Cu  Cu18  1  0.71616000  0.00388300  0.85761200  1
  Cu  Cu19  1  0.78599600  0.49893400  0.64463200  1
  C  C20  1  0.00074000  0.20295600  0.75011300  1
  C  C21  1  0.00091200  0.79801400  0.25004900  1
  C  C22  1  0.15721500  0.64321900  0.60411700  1
  C  C23  1  0.15132800  0.35736600  0.10499300  1
  C  C24  1  0.34809100  0.85441500  0.89625600  1
  C  C25  1  0.35214400  0.14564600  0.39740200  1
  C  C26  1  0.49928700  0.29399700  0.75010700  1
  C  C27  1  0.50441700  0.70906500  0.25236700  1
  C  C28  1  0.65236000  0.85238900  0.60520800  1
  C  C29  1  0.65296000  0.15045400  0.10086600  1
  C  C30  1  0.84117900  0.64568200  0.89398600  1
  C  C31  1  0.83794800  0.35177700  0.39546200  1
  C  C32  1  0.00861700  0.58181500  0.89624200  1
  C  C33  1  0.00828400  0.40675100  0.39269800  1
  C  C34  1  0.06735300  0.09193600  0.66369200  1
  C  C35  1  0.07068600  0.90806300  0.16633800  1
  C  C36  1  0.12939300  0.29686600  0.81060600  1
  C  C37  1  0.12509300  0.70192000  0.30957900  1
  C  C38  1  0.14530000  0.82022900  0.58913800  1
  C  C39  1  0.14091300  0.18001500  0.09263400  1
  C  C40  1  0.25222700  0.59647600  0.70625300  1
  C  C41  1  0.24929400  0.93943200  0.98175700  1
  C  C42  1  0.25437000  0.58962800  0.50612600  1
  C  C43  1  0.24434400  0.40602900  0.20923700  1
  C  C44  1  0.25342100  0.05995200  0.48012400  1
  C  C45  1  0.27275000  0.90472800  0.78799200  1
  C  C46  1  0.24910800  0.40972600  0.00957800  1
  C  C47  1  0.28033100  0.09529700  0.28685900  1
  C  C48  1  0.34289500  0.67916100  0.91008700  1
  C  C49  1  0.34780200  0.32055100  0.41093700  1
  C  C50  1  0.37924500  0.19608100  0.68704300  1
  C  C51  1  0.38630000  0.80493800  0.18780500  1
  C  C52  1  0.42935800  0.40183900  0.83731700  1
  C  C53  1  0.43254100  0.59938000  0.33458900  1
  C  C54  1  0.47429900  0.89405800  0.59065600  1
  C  C55  1  0.47549300  0.10582700  0.09017300  1
  C  C56  1  0.52554400  0.89344700  0.90953400  1
  C  C57  1  0.53086400  0.10598600  0.41139600  1
  C  C58  1  0.56876400  0.40171800  0.66509000  1
  C  C59  1  0.58012000  0.60302600  0.16544500  1
  C  C60  1  0.62045700  0.19630700  0.81074200  1
  C  C61  1  0.62313200  0.80741700  0.31795600  1
  C  C62  1  0.65341200  0.67695700  0.58863800  1
  C  C63  1  0.64818500  0.32697900  0.08832600  1
  C  C64  1  0.72211900  0.89727600  0.71773000  1
  C  C65  1  0.73758100  0.59701600  0.98708100  1
  C  C66  1  0.73509800  0.10094900  0.20628500  1
  C  C67  1  0.75431000  0.94109600  0.52734400  1
  C  C68  1  0.75024600  0.59825200  0.78916600  1
  C  C69  1  0.74557500  0.40127200  0.49532100  1
  C  C70  1  0.74888300  0.06714700  0.01351400  1
  C  C71  1  0.73867300  0.39848000  0.29605300  1
  C  C72  1  0.86109800  0.82285700  0.90795200  1
  C  C73  1  0.85297500  0.17242000  0.40708400  1
  C  C74  1  0.87324800  0.29728900  0.69104000  1
  C  C75  1  0.87279400  0.70691700  0.18628300  1
  C  C76  1  0.93395000  0.09354800  0.83496300  1
  C  C77  1  0.93209300  0.90895300  0.33602500  1
  C  C78  1  0.98859900  0.58494200  0.60373900  1
  C  C79  1  0.98071400  0.41463400  0.10442000  1
