# generated using pymatgen
data_Cu4Ni3C14
_symmetry_space_group_name_H-M   'P 1'
_cell_length_a   10.64195851
_cell_length_b   12.95997838
_cell_length_c   10.64195851
_cell_angle_alpha   113.71927344
_cell_angle_beta   89.61404698
_cell_angle_gamma   66.28070723
_symmetry_Int_Tables_number   1
_chemical_formula_structural   Cu4Ni3C14
_chemical_formula_sum   'Cu16 Ni12 C56'
_cell_volume   1205.11166652
_cell_formula_units_Z   4
loop_
 _symmetry_equiv_pos_site_id
 _symmetry_equiv_pos_as_xyz
  1  'x, y, z'
loop_
 _atom_site_type_symbol
 _atom_site_label
 _atom_site_symmetry_multiplicity
 _atom_site_fract_x
 _atom_site_fract_y
 _atom_site_fract_z
 _atom_site_occupancy
  C  C0  1  0.74961500  0.99920200  0.75046600  1
  C  C1  1  0.99953600  0.49919400  0.00038500  1
  C  C2  1  0.24962100  0.99919200  0.25046000  1
  C  C3  1  0.49953400  0.49920700  0.50037500  1
  Ni  Ni4  1  0.37451800  0.75026200  0.37486500  1
  Ni  Ni5  1  0.87451800  0.75026200  0.87486600  1
  Ni  Ni6  1  0.12452000  0.25025800  0.12486600  1
  Ni  Ni7  1  0.62451800  0.25026400  0.62486400  1
  Ni  Ni8  1  0.12513600  0.75026400  0.12548200  1
  Ni  Ni9  1  0.62513400  0.75025900  0.62548100  1
  Ni  Ni10  1  0.87513400  0.25026100  0.87548200  1
  Ni  Ni11  1  0.37513500  0.25026200  0.37548200  1
  Ni  Ni12  1  0.00041400  0.99965600  0.49958600  1
  Ni  Ni13  1  0.50040900  0.99965500  0.99959100  1
  Ni  Ni14  1  0.75040900  0.49965400  0.24959100  1
  Ni  Ni15  1  0.25041400  0.49965600  0.74958600  1
  Cu  Cu16  1  0.24931900  0.99855100  0.75068200  1
  Cu  Cu17  1  0.74932000  0.99854700  0.25068000  1
  Cu  Cu18  1  0.99931900  0.49854900  0.50068000  1
  Cu  Cu19  1  0.49931900  0.49854900  0.00068100  1
  Cu  Cu20  1  0.37318200  0.75148900  0.87425100  1
  Cu  Cu21  1  0.87318300  0.75148900  0.37425100  1
  Cu  Cu22  1  0.12318500  0.25148600  0.62424900  1
  Cu  Cu23  1  0.62318200  0.25149000  0.12425500  1
  Cu  Cu24  1  0.12575100  0.75148500  0.62681500  1
  Cu  Cu25  1  0.62574500  0.75149000  0.12681700  1
  Cu  Cu26  1  0.87574900  0.25148900  0.37681800  1
  Cu  Cu27  1  0.37575000  0.25148800  0.87681800  1
  Cu  Cu28  1  0.00203900  0.99892700  0.99797100  1
  Cu  Cu29  1  0.50203400  0.99892600  0.49796500  1
  Cu  Cu30  1  0.75203100  0.49892700  0.74796300  1
  Cu  Cu31  1  0.25203500  0.49892700  0.24796600  1
  C  C32  1  0.56209800  0.62420200  0.93790200  1
  C  C33  1  0.06209900  0.62420200  0.43790100  1
  C  C34  1  0.31209800  0.12420300  0.68790300  1
  C  C35  1  0.81209800  0.12420300  0.18790300  1
  C  C36  1  0.36318200  0.62775400  0.43611900  1
  C  C37  1  0.86317200  0.62775800  0.93611800  1
  C  C38  1  0.11317200  0.12776100  0.18610900  1
  C  C39  1  0.61316300  0.12776400  0.68610600  1
  C  C40  1  0.56389100  0.62776200  0.63682800  1
  C  C41  1  0.06389300  0.62776400  0.13683700  1
  C  C42  1  0.31388100  0.12775300  0.38681800  1
  C  C43  1  0.81388200  0.12775800  0.88682800  1
  C  C44  1  0.66422600  0.42706100  0.33576700  1
  C  C45  1  0.16423300  0.42705300  0.83575900  1
  C  C46  1  0.41423300  0.92706000  0.08577400  1
  C  C47  1  0.91424100  0.92705300  0.58576600  1
  C  C48  1  0.01092300  0.12411100  0.68794400  1
  C  C49  1  0.51092300  0.12411100  0.18794500  1
  C  C50  1  0.76092400  0.62410700  0.43794600  1
  C  C51  1  0.26092500  0.62410700  0.93794600  1
  C  C52  1  0.56205600  0.62411100  0.23907700  1
  C  C53  1  0.06205600  0.62411100  0.73907700  1
  C  C54  1  0.31205400  0.12410700  0.98907600  1
  C  C55  1  0.81205400  0.12410700  0.48907500  1
  C  C56  1  0.46262200  0.82297300  0.53738000  1
  C  C57  1  0.96262100  0.82297400  0.03738100  1
  C  C58  1  0.21261900  0.32297300  0.28737900  1
  C  C59  1  0.71261900  0.32297400  0.78737900  1
  C  C60  1  0.38421900  0.87265700  0.31366700  1
  C  C61  1  0.88422900  0.87265300  0.81366800  1
  C  C62  1  0.13423700  0.37264700  0.06368000  1
  C  C63  1  0.63422700  0.37265000  0.56367800  1
  C  C64  1  0.18632200  0.87265000  0.11577200  1
  C  C65  1  0.68632000  0.87264700  0.61576400  1
  C  C66  1  0.93633300  0.37265300  0.86577000  1
  C  C67  1  0.43633400  0.37265700  0.36578100  1
  C  C68  1  0.08736600  0.07055800  0.41263700  1
  C  C69  1  0.58735800  0.07056600  0.91264500  1
  C  C70  1  0.83735400  0.57056600  0.16264100  1
  C  C71  1  0.33736300  0.57055800  0.66263400  1
  C  C72  1  0.74112500  0.37608600  0.06196600  1
  C  C73  1  0.24112600  0.37608600  0.56196400  1
  C  C74  1  0.49112200  0.87609000  0.81196600  1
  C  C75  1  0.99112400  0.87608900  0.31196500  1
  C  C76  1  0.18803500  0.87608600  0.50887400  1
  C  C77  1  0.68803400  0.87608600  0.00887500  1
  C  C78  1  0.93803500  0.37609000  0.25887800  1
  C  C79  1  0.43803400  0.37609000  0.75887600  1
  C  C80  1  0.28650400  0.67916400  0.21349500  1
  C  C81  1  0.78650400  0.67916200  0.71349400  1
  C  C82  1  0.03650600  0.17916300  0.96349600  1
  C  C83  1  0.53650600  0.17916300  0.46349600  1
