# generated using pymatgen
data_Cu7Ni2C
_symmetry_space_group_name_H-M   'P 1'
_cell_length_a   9.90472125
_cell_length_b   9.90472125
_cell_length_c   11.40648100
_cell_angle_alpha   90.00000000
_cell_angle_beta   90.00000000
_cell_angle_gamma   119.99999497
_symmetry_Int_Tables_number   1
_chemical_formula_structural   Cu7Ni2C
_chemical_formula_sum   'Cu42 Ni12 C6'
_cell_volume   969.09610961
_cell_formula_units_Z   6
loop_
 _symmetry_equiv_pos_site_id
 _symmetry_equiv_pos_as_xyz
  1  'x, y, z'
loop_
 _atom_site_type_symbol
 _atom_site_label
 _atom_site_symmetry_multiplicity
 _atom_site_fract_x
 _atom_site_fract_y
 _atom_site_fract_z
 _atom_site_occupancy
  C  C0  1  0.66666700  0.33333300  0.56060100  1
  C  C1  1  0.33333300  0.66666700  0.43939900  1
  C  C2  1  0.33333300  0.66666700  0.87789300  1
  C  C3  1  0.66666700  0.33333300  0.12210700  1
  C  C4  1  0.00000000  0.00000000  0.75747000  1
  C  C5  1  0.00000000  0.00000000  0.24253000  1
  Ni  Ni6  1  0.08188900  0.33428100  0.66030300  1
  Ni  Ni7  1  0.25239200  0.91811100  0.66030300  1
  Ni  Ni8  1  0.66571900  0.74760800  0.66030300  1
  Ni  Ni9  1  0.91811100  0.66571900  0.33969700  1
  Ni  Ni10  1  0.74760800  0.08188900  0.33969700  1
  Ni  Ni11  1  0.33428100  0.25239200  0.33969700  1
  Ni  Ni12  1  0.80445100  0.65595800  0.84597900  1
  Ni  Ni13  1  0.85150700  0.19554900  0.84597900  1
  Ni  Ni14  1  0.34404200  0.14849300  0.84597900  1
  Ni  Ni15  1  0.19554900  0.34404200  0.15402100  1
  Ni  Ni16  1  0.14849300  0.80445100  0.15402100  1
  Ni  Ni17  1  0.65595800  0.85150700  0.15402100  1
  Cu  Cu18  1  0.65994500  0.67837800  0.79483400  1
  Cu  Cu19  1  0.01843200  0.34005500  0.79483400  1
  Cu  Cu20  1  0.32162200  0.98156800  0.79483400  1
  Cu  Cu21  1  0.34005500  0.32162200  0.20516600  1
  Cu  Cu22  1  0.98156800  0.65994500  0.20516600  1
  Cu  Cu23  1  0.67837800  0.01843200  0.20516600  1
  Cu  Cu24  1  0.93701800  0.82507100  0.85891900  1
  Cu  Cu25  1  0.88805400  0.06298200  0.85891900  1
  Cu  Cu26  1  0.17492900  0.11194600  0.85891900  1
  Cu  Cu27  1  0.06298200  0.17492900  0.14108100  1
  Cu  Cu28  1  0.11194600  0.93701800  0.14108100  1
  Cu  Cu29  1  0.82507100  0.88805400  0.14108100  1
  Cu  Cu30  1  0.06115700  0.17164200  0.65278200  1
  Cu  Cu31  1  0.11048400  0.93884300  0.65278200  1
  Cu  Cu32  1  0.82835800  0.88951600  0.65278200  1
  Cu  Cu33  1  0.93884300  0.82835800  0.34721800  1
  Cu  Cu34  1  0.88951600  0.06115700  0.34721800  1
  Cu  Cu35  1  0.17164200  0.11048400  0.34721800  1
  Cu  Cu36  1  0.83910500  0.57115300  0.76088100  1
  Cu  Cu37  1  0.73204800  0.16089500  0.76088100  1
  Cu  Cu38  1  0.42884700  0.26795200  0.76088100  1
  Cu  Cu39  1  0.16089500  0.42884700  0.23911900  1
  Cu  Cu40  1  0.26795200  0.83910500  0.23911900  1
  Cu  Cu41  1  0.57115300  0.73204800  0.23911900  1
  Cu  Cu42  1  0.74964200  0.59136500  0.96004400  1
  Cu  Cu43  1  0.84172300  0.25035800  0.96004400  1
  Cu  Cu44  1  0.40863500  0.15827700  0.96004400  1
  Cu  Cu45  1  0.25035800  0.40863500  0.03995600  1
  Cu  Cu46  1  0.15827700  0.74964200  0.03995600  1
  Cu  Cu47  1  0.59136500  0.84172300  0.03995600  1
  Cu  Cu48  1  0.24293600  0.45303900  0.66836100  1
  Cu  Cu49  1  0.21010200  0.75706400  0.66836100  1
  Cu  Cu50  1  0.54696100  0.78989800  0.66836100  1
  Cu  Cu51  1  0.75706400  0.54696100  0.33163900  1
  Cu  Cu52  1  0.78989800  0.24293600  0.33163900  1
  Cu  Cu53  1  0.45303900  0.21010200  0.33163900  1
  Cu  Cu54  1  0.98484600  0.35197900  0.57579300  1
  Cu  Cu55  1  0.36713300  0.01515400  0.57579300  1
  Cu  Cu56  1  0.64802100  0.63286700  0.57579300  1
  Cu  Cu57  1  0.01515400  0.64802100  0.42420700  1
  Cu  Cu58  1  0.63286700  0.98484600  0.42420700  1
  Cu  Cu59  1  0.35197900  0.36713300  0.42420700  1
