# generated using pymatgen
data_Cu4NiC16
_symmetry_space_group_name_H-M   'P 1'
_cell_length_a   5.36580177
_cell_length_b   12.84649751
_cell_length_c   18.23494156
_cell_angle_alpha   90.00000000
_cell_angle_beta   90.00000000
_cell_angle_gamma   90.00000000
_symmetry_Int_Tables_number   1
_chemical_formula_structural   Cu4NiC16
_chemical_formula_sum   'Cu16 Ni4 C64'
_cell_volume   1256.96659841
_cell_formula_units_Z   4
loop_
 _symmetry_equiv_pos_site_id
 _symmetry_equiv_pos_as_xyz
  1  'x, y, z'
loop_
 _atom_site_type_symbol
 _atom_site_label
 _atom_site_symmetry_multiplicity
 _atom_site_fract_x
 _atom_site_fract_y
 _atom_site_fract_z
 _atom_site_occupancy
  C  C0  1  0.50000000  0.50000000  0.59626650  1
  C  C1  1  0.50000000  0.00000000  0.90373350  1
  C  C2  1  0.50000000  0.50000000  0.40373350  1
  C  C3  1  0.50000000  0.00000000  0.09626650  1
  Ni  Ni4  1  0.00000000  0.50000000  0.65689003  1
  Ni  Ni5  1  0.00000000  0.00000000  0.84310997  1
  Ni  Ni6  1  0.00000000  0.50000000  0.34310997  1
  Ni  Ni7  1  0.00000000  0.00000000  0.15689003  1
  Cu  Cu8  1  0.81030937  0.28480785  0.58630507  1
  Cu  Cu9  1  0.18969063  0.71519215  0.58630507  1
  Cu  Cu10  1  0.81030937  0.21519215  0.91369493  1
  Cu  Cu11  1  0.18969063  0.78480785  0.91369493  1
  Cu  Cu12  1  0.18969063  0.71519215  0.41369493  1
  Cu  Cu13  1  0.81030937  0.28480785  0.41369493  1
  Cu  Cu14  1  0.18969063  0.78480785  0.08630507  1
  Cu  Cu15  1  0.81030937  0.21519215  0.08630507  1
  Cu  Cu16  1  0.30098052  0.28383901  0.66537439  1
  Cu  Cu17  1  0.69901948  0.71616099  0.66537439  1
  Cu  Cu18  1  0.30098052  0.21616099  0.83462561  1
  Cu  Cu19  1  0.69901948  0.78383901  0.83462561  1
  Cu  Cu20  1  0.69901948  0.71616099  0.33462561  1
  Cu  Cu21  1  0.30098052  0.28383901  0.33462561  1
  Cu  Cu22  1  0.69901948  0.78383901  0.16537439  1
  Cu  Cu23  1  0.30098052  0.21616099  0.16537439  1
  C  C24  1  0.81795146  0.41198777  0.59660571  1
  C  C25  1  0.18204854  0.58801223  0.59660571  1
  C  C26  1  0.81795146  0.08801223  0.90339429  1
  C  C27  1  0.18204854  0.91198777  0.90339429  1
  C  C28  1  0.18204854  0.58801223  0.40339429  1
  C  C29  1  0.81795146  0.41198777  0.40339429  1
  C  C30  1  0.18204854  0.91198777  0.09660571  1
  C  C31  1  0.81795146  0.08801223  0.09660571  1
  C  C32  1  0.86265044  0.44239795  0.74804968  1
  C  C33  1  0.13734956  0.55760205  0.74804968  1
  C  C34  1  0.86265044  0.05760205  0.75195032  1
  C  C35  1  0.13734956  0.94239795  0.75195032  1
  C  C36  1  0.13734956  0.55760205  0.25195032  1
  C  C37  1  0.86265044  0.44239795  0.25195032  1
  C  C38  1  0.13734956  0.94239795  0.24804968  1
  C  C39  1  0.86265044  0.05760205  0.24804968  1
  C  C40  1  0.82839768  0.25133613  0.50000000  1
  C  C41  1  0.17160232  0.74866387  0.50000000  1
  C  C42  1  0.82839768  0.24866387  -0.00000000  1
  C  C43  1  0.17160232  0.75133613  -0.00000000  1
  C  C44  1  0.04649671  0.23306602  0.63022229  1
  C  C45  1  0.95350329  0.76693398  0.63022229  1
  C  C46  1  0.04649671  0.26693398  0.86977771  1
  C  C47  1  0.95350329  0.73306602  0.86977771  1
  C  C48  1  0.95350329  0.76693398  0.36977771  1
  C  C49  1  0.04649671  0.23306602  0.36977771  1
  C  C50  1  0.95350329  0.73306602  0.13022229  1
  C  C51  1  0.04649671  0.26693398  0.13022229  1
  C  C52  1  0.33262616  0.25000000  0.75000000  1
  C  C53  1  0.66737384  0.75000000  0.75000000  1
  C  C54  1  0.66737384  0.75000000  0.25000000  1
  C  C55  1  0.33262616  0.25000000  0.25000000  1
  C  C56  1  0.50000000  0.50000000  0.96640404  1
  C  C57  1  0.50000000  0.00000000  0.53359596  1
  C  C58  1  0.50000000  0.50000000  0.03359596  1
  C  C59  1  0.50000000  0.00000000  0.46640404  1
  C  C60  1  0.27736703  0.41120330  0.66047267  1
  C  C61  1  0.72263297  0.58879670  0.66047267  1
  C  C62  1  0.27736703  0.08879670  0.83952733  1
  C  C63  1  0.72263297  0.91120330  0.83952733  1
  C  C64  1  0.72263297  0.58879670  0.33952733  1
  C  C65  1  0.27736703  0.41120330  0.33952733  1
  C  C66  1  0.72263297  0.91120330  0.16047267  1
  C  C67  1  0.27736703  0.08879670  0.16047267  1
  C  C68  1  0.39570298  0.42586812  0.50000000  1
  C  C69  1  0.60429702  0.57413188  0.50000000  1
  C  C70  1  0.39570298  0.07413188  0.00000000  1
  C  C71  1  0.60429702  0.92586812  0.00000000  1
  C  C72  1  0.54424236  0.24302676  0.61918544  1
  C  C73  1  0.45575764  0.75697324  0.61918544  1
  C  C74  1  0.54424236  0.25697324  0.88081456  1
  C  C75  1  0.45575764  0.74302676  0.88081456  1
  C  C76  1  0.45575764  0.75697324  0.38081456  1
  C  C77  1  0.54424236  0.24302676  0.38081456  1
  C  C78  1  0.45575764  0.74302676  0.11918544  1
  C  C79  1  0.54424236  0.25697324  0.11918544  1
  C  C80  1  0.00000000  0.50000000  0.96648153  1
  C  C81  1  0.00000000  0.00000000  0.53351847  1
  C  C82  1  0.00000000  0.50000000  0.03351847  1
  C  C83  1  0.00000000  0.00000000  0.46648153  1
