# generated using pymatgen
data_Cu(NiC3)2
_symmetry_space_group_name_H-M   'P 1'
_cell_length_a   3.30486744
_cell_length_b   3.30486744
_cell_length_c   30.55469000
_cell_angle_alpha   90.00000000
_cell_angle_beta   90.00000000
_cell_angle_gamma   119.99998883
_symmetry_Int_Tables_number   1
_chemical_formula_structural   Cu(NiC3)2
_chemical_formula_sum   'Cu1 Ni2 C6'
_cell_volume   289.01251666
_cell_formula_units_Z   1
loop_
 _symmetry_equiv_pos_site_id
 _symmetry_equiv_pos_as_xyz
  1  'x, y, z'
loop_
 _atom_site_type_symbol
 _atom_site_label
 _atom_site_symmetry_multiplicity
 _atom_site_fract_x
 _atom_site_fract_y
 _atom_site_fract_z
 _atom_site_occupancy
  C  C0  1  0.33333300  0.66666700  0.06310000  1
  C  C1  1  0.33333300  0.66666700  0.93690000  1
  Ni  Ni2  1  0.33333300  0.66666700  0.76862300  1
  Ni  Ni3  1  0.33333300  0.66666700  0.23137700  1
  Cu  Cu4  1  0.66666700  0.33333300  0.00000000  1
  C  C5  1  0.66666700  0.33333300  0.71855200  1
  C  C6  1  0.66666700  0.33333300  0.18127200  1
  C  C7  1  0.66666700  0.33333300  0.81872800  1
  C  C8  1  0.66666700  0.33333300  0.28144800  1
