# generated using pymatgen
data_Cu8NiC3
_symmetry_space_group_name_H-M   'P 1'
_cell_length_a   7.39018200
_cell_length_b   8.60449100
_cell_length_c   9.92692600
_cell_angle_alpha   90.00000000
_cell_angle_beta   90.00000000
_cell_angle_gamma   90.00000000
_symmetry_Int_Tables_number   1
_chemical_formula_structural   Cu8NiC3
_chemical_formula_sum   'Cu32 Ni4 C12'
_cell_volume   631.24086043
_cell_formula_units_Z   4
loop_
 _symmetry_equiv_pos_site_id
 _symmetry_equiv_pos_as_xyz
  1  'x, y, z'
loop_
 _atom_site_type_symbol
 _atom_site_label
 _atom_site_symmetry_multiplicity
 _atom_site_fract_x
 _atom_site_fract_y
 _atom_site_fract_z
 _atom_site_occupancy
  C  C0  1  0.31907800  0.05001500  0.08714700  1
  C  C1  1  0.68092200  0.55001500  0.91285300  1
  C  C2  1  0.31907800  0.94998500  0.41285300  1
  C  C3  1  0.68092200  0.44998500  0.58714700  1
  C  C4  1  0.68092200  0.94998500  0.91285300  1
  C  C5  1  0.31907800  0.44998500  0.08714700  1
  C  C6  1  0.68092200  0.05001500  0.58714700  1
  C  C7  1  0.31907800  0.55001500  0.41285300  1
  C  C8  1  0.64757600  0.25000000  0.28119000  1
  C  C9  1  0.35242400  0.75000000  0.71881000  1
  C  C10  1  0.64757600  0.75000000  0.21881000  1
  C  C11  1  0.35242400  0.25000000  0.78119000  1
  Ni  Ni12  1  0.94568900  0.25000000  0.96908300  1
  Ni  Ni13  1  0.05431100  0.75000000  0.03091700  1
  Ni  Ni14  1  0.94568900  0.75000000  0.53091700  1
  Ni  Ni15  1  0.05431100  0.25000000  0.46908300  1
  Cu  Cu16  1  0.12631700  0.25000000  0.04240600  1
  Cu  Cu17  1  0.87368300  0.75000000  0.95759400  1
  Cu  Cu18  1  0.12631700  0.75000000  0.45759400  1
  Cu  Cu19  1  0.87368300  0.25000000  0.54240600  1
  Cu  Cu20  1  0.44311600  0.25000000  0.16301500  1
  Cu  Cu21  1  0.55688400  0.75000000  0.83698500  1
  Cu  Cu22  1  0.44311600  0.75000000  0.33698500  1
  Cu  Cu23  1  0.55688400  0.25000000  0.66301500  1
  Cu  Cu24  1  0.98134600  0.25000000  0.82563600  1
  Cu  Cu25  1  0.01865400  0.75000000  0.17436400  1
  Cu  Cu26  1  0.98134600  0.75000000  0.67436400  1
  Cu  Cu27  1  0.01865400  0.25000000  0.32563600  1
  Cu  Cu28  1  0.22272000  0.00000000  0.25000000  1
  Cu  Cu29  1  0.77728000  0.50000000  0.75000000  1
  Cu  Cu30  1  0.77728000  0.00000000  0.75000000  1
  Cu  Cu31  1  0.22272000  0.50000000  0.25000000  1
  Cu  Cu32  1  0.56819600  0.08492600  0.39801900  1
  Cu  Cu33  1  0.43180400  0.58492600  0.60198100  1
  Cu  Cu34  1  0.56819600  0.91507400  0.10198100  1
  Cu  Cu35  1  0.43180400  0.41507400  0.89801900  1
  Cu  Cu36  1  0.43180400  0.91507400  0.60198100  1
  Cu  Cu37  1  0.56819600  0.41507400  0.39801900  1
  Cu  Cu38  1  0.43180400  0.08492600  0.89801900  1
  Cu  Cu39  1  0.56819600  0.58492600  0.10198100  1
  Cu  Cu40  1  0.15824900  0.88971100  0.98343200  1
  Cu  Cu41  1  0.84175100  0.38971100  0.01656800  1
  Cu  Cu42  1  0.15824900  0.11028900  0.51656800  1
  Cu  Cu43  1  0.84175100  0.61028900  0.48343200  1
  Cu  Cu44  1  0.84175100  0.11028900  0.01656800  1
  Cu  Cu45  1  0.15824900  0.61028900  0.98343200  1
  Cu  Cu46  1  0.84175100  0.88971100  0.48343200  1
  Cu  Cu47  1  0.15824900  0.38971100  0.51656800  1
