# generated using pymatgen
data_CuNiC10
_symmetry_space_group_name_H-M   'P 1'
_cell_length_a   7.83600576
_cell_length_b   7.83600576
_cell_length_c   5.18390000
_cell_angle_alpha   90.00000000
_cell_angle_beta   90.00000000
_cell_angle_gamma   91.08048786
_symmetry_Int_Tables_number   1
_chemical_formula_structural   CuNiC10
_chemical_formula_sum   'Cu2 Ni2 C20'
_cell_volume   318.25034286
_cell_formula_units_Z   2
loop_
 _symmetry_equiv_pos_site_id
 _symmetry_equiv_pos_as_xyz
  1  'x, y, z'
loop_
 _atom_site_type_symbol
 _atom_site_label
 _atom_site_symmetry_multiplicity
 _atom_site_fract_x
 _atom_site_fract_y
 _atom_site_fract_z
 _atom_site_occupancy
  Ni  Ni0  1  0.65950500  0.65950500  0.48318600  1
  Ni  Ni1  1  0.34049500  0.34049500  0.48318600  1
  Cu  Cu2  1  0.83629200  0.16370800  0.50855000  1
  Cu  Cu3  1  0.16370800  0.83629200  0.50855000  1
  C  C4  1  0.85412200  0.85412200  0.03960600  1
  C  C5  1  0.64093500  0.35906500  0.95818900  1
  C  C6  1  0.14587800  0.14587800  0.03960600  1
  C  C7  1  0.35906500  0.64093500  0.95818900  1
  C  C8  1  0.50000000  0.00000000  0.00552500  1
  C  C9  1  0.00000000  0.50000000  0.00552500  1
  C  C10  1  0.86161900  0.86161900  0.70241800  1
  C  C11  1  0.64366400  0.35633600  0.29439500  1
  C  C12  1  0.13838100  0.13838100  0.70241800  1
  C  C13  1  0.35633600  0.64366400  0.29439500  1
  C  C14  1  0.50000000  0.50000000  0.81035300  1
  C  C15  1  0.00000000  0.00000000  0.18554100  1
  C  C16  1  0.66351700  0.91375000  0.19881700  1
  C  C17  1  0.83991500  0.40783300  0.80627500  1
  C  C18  1  0.33648300  0.08625000  0.19881700  1
  C  C19  1  0.16008500  0.59216700  0.80627500  1
  C  C20  1  0.40783300  0.83991500  0.80627500  1
  C  C21  1  0.08625000  0.33648300  0.19881700  1
  C  C22  1  0.59216700  0.16008500  0.80627500  1
  C  C23  1  0.91375000  0.66351700  0.19881700  1
