# generated using pymatgen
data_Cu13NiC13
_symmetry_space_group_name_H-M   'P 1'
_cell_length_a   10.40678740
_cell_length_b   14.38595217
_cell_length_c   17.25211137
_cell_angle_alpha   90.00000000
_cell_angle_beta   90.00000000
_cell_angle_gamma   90.00000000
_symmetry_Int_Tables_number   1
_chemical_formula_structural   Cu13NiC13
_chemical_formula_sum   'Cu104 Ni8 C104'
_cell_volume   2582.84026117
_cell_formula_units_Z   8
loop_
 _symmetry_equiv_pos_site_id
 _symmetry_equiv_pos_as_xyz
  1  'x, y, z'
loop_
 _atom_site_type_symbol
 _atom_site_label
 _atom_site_symmetry_multiplicity
 _atom_site_fract_x
 _atom_site_fract_y
 _atom_site_fract_z
 _atom_site_occupancy
  C  C0  1  0.38317651  0.74309197  0.80554166  1
  C  C1  1  0.88317651  0.25690803  0.69445834  1
  C  C2  1  0.61682349  0.75690803  0.30554166  1
  C  C3  1  0.11682349  0.24309197  0.19445834  1
  C  C4  1  0.61682349  0.25690803  0.19445834  1
  C  C5  1  0.11682349  0.74309197  0.30554166  1
  C  C6  1  0.38317651  0.24309197  0.69445834  1
  C  C7  1  0.88317651  0.75690803  0.80554166  1
  C  C8  1  0.37980680  0.56009985  0.10513482  1
  C  C9  1  0.87980680  0.43990015  0.39486518  1
  C  C10  1  0.62019320  0.93990015  0.60513482  1
  C  C11  1  0.12019320  0.06009985  0.89486518  1
  C  C12  1  0.62019320  0.43990015  0.89486518  1
  C  C13  1  0.12019320  0.56009985  0.60513482  1
  C  C14  1  0.37980680  0.06009985  0.39486518  1
  C  C15  1  0.87980680  0.93990015  0.10513482  1
  C  C16  1  0.15664434  0.97243959  0.69208222  1
  C  C17  1  0.65664434  0.02756041  0.80791778  1
  C  C18  1  0.84335566  0.52756041  0.19208222  1
  C  C19  1  0.34335566  0.47243959  0.30791778  1
  C  C20  1  0.84335566  0.02756041  0.30791778  1
  C  C21  1  0.34335566  0.97243959  0.19208222  1
  C  C22  1  0.15664434  0.47243959  0.80791778  1
  C  C23  1  0.65664434  0.52756041  0.69208222  1
  C  C24  1  0.13420718  0.75267051  0.69955296  1
  C  C25  1  0.63420718  0.24732949  0.80044704  1
  C  C26  1  0.86579282  0.74732949  0.19955296  1
  C  C27  1  0.36579282  0.25267051  0.30044704  1
  C  C28  1  0.86579282  0.24732949  0.30044704  1
  C  C29  1  0.36579282  0.75267051  0.19955296  1
  C  C30  1  0.13420718  0.25267051  0.80044704  1
  C  C31  1  0.63420718  0.74732949  0.69955296  1
  C  C32  1  0.36836003  0.56662652  0.91556911  1
  C  C33  1  0.86836003  0.43337348  0.58443089  1
  C  C34  1  0.63163997  0.93337348  0.41556911  1
  C  C35  1  0.13163997  0.06662652  0.08443089  1
  C  C36  1  0.63163997  0.43337348  0.08443089  1
  C  C37  1  0.13163997  0.56662652  0.41556911  1
  C  C38  1  0.36836003  0.06662652  0.58443089  1
  C  C39  1  0.86836003  0.93337348  0.91556911  1
  C  C40  1  0.36732189  0.95480029  0.84401275  1
  C  C41  1  0.86732189  0.04519971  0.65598725  1
  C  C42  1  0.63267811  0.54519971  0.34401275  1
  C  C43  1  0.13267811  0.45480029  0.15598725  1
  C  C44  1  0.63267811  0.04519971  0.15598725  1
  C  C45  1  0.13267811  0.95480029  0.34401275  1
  C  C46  1  0.36732189  0.45480029  0.65598725  1
  C  C47  1  0.86732189  0.54519971  0.84401275  1
  C  C48  1  0.47653701  0.63204055  0.46047254  1
  C  C49  1  0.97653701  0.36795945  0.03952746  1
  C  C50  1  0.52346299  0.86795945  0.96047254  1
  C  C51  1  0.02346299  0.13204055  0.53952746  1
  C  C52  1  0.52346299  0.36795945  0.53952746  1
  C  C53  1  0.02346299  0.63204055  0.96047254  1
  C  C54  1  0.47653701  0.13204055  0.03952746  1
  C  C55  1  0.97653701  0.86795945  0.46047254  1
  C  C56  1  0.49332563  0.62820314  0.55737688  1
  C  C57  1  0.99332563  0.37179686  0.94262312  1
  C  C58  1  0.50667437  0.87179686  0.05737688  1
  C  C59  1  0.00667437  0.12820314  0.44262312  1
  C  C60  1  0.50667437  0.37179686  0.44262312  1
  C  C61  1  0.00667437  0.62820314  0.05737688  1
  C  C62  1  0.49332563  0.12820314  0.94262312  1
  C  C63  1  0.99332563  0.87179686  0.55737688  1
  C  C64  1  0.35146697  0.60603572  0.51725141  1
  C  C65  1  0.85146697  0.39396428  0.98274859  1
  C  C66  1  0.64853303  0.89396428  0.01725141  1
  C  C67  1  0.14853303  0.10603572  0.48274859  1
  C  C68  1  0.64853303  0.39396428  0.48274859  1
  C  C69  1  0.14853303  0.60603572  0.01725141  1
  C  C70  1  0.35146697  0.10603572  0.98274859  1
  C  C71  1  0.85146697  0.89396428  0.51725141  1
  C  C72  1  0.48497004  0.78915442  0.51350698  1
  C  C73  1  0.98497004  0.21084558  0.98649302  1
  C  C74  1  0.51502996  0.71084558  0.01350698  1
  C  C75  1  0.01502996  0.28915442  0.48649302  1
  C  C76  1  0.51502996  0.21084558  0.48649302  1
  C  C77  1  0.01502996  0.78915442  0.01350698  1
  C  C78  1  0.48497004  0.28915442  0.98649302  1
  C  C79  1  0.98497004  0.71084558  0.51350698  1
  C  C80  1  0.33563911  0.76447463  0.46726532  1
  C  C81  1  0.83563911  0.23552537  0.03273468  1
  C  C82  1  0.66436089  0.73552537  0.96726532  1
  C  C83  1  0.16436089  0.26447463  0.53273468  1
  C  C84  1  0.66436089  0.23552537  0.53273468  1
  C  C85  1  0.16436089  0.76447463  0.96726532  1
  C  C86  1  0.33563911  0.26447463  0.03273468  1
  C  C87  1  0.83563911  0.73552537  0.46726532  1
  C  C88  1  0.34572076  0.76076863  0.57034850  1
  C  C89  1  0.84572076  0.23923137  0.92965150  1
  C  C90  1  0.65427924  0.73923137  0.07034850  1
  C  C91  1  0.15427924  0.26076863  0.42965150  1
  C  C92  1  0.65427924  0.23923137  0.42965150  1
  C  C93  1  0.15427924  0.76076863  0.07034850  1
  C  C94  1  0.34572076  0.26076863  0.92965150  1
  C  C95  1  0.84572076  0.73923137  0.57034850  1
  C  C96  1  0.39734910  0.74763717  0.51639140  1
  C  C97  1  0.89734910  0.25236283  0.98360860  1
  C  C98  1  0.60265090  0.75236283  0.01639140  1
  C  C99  1  0.10265090  0.24763717  0.48360860  1
  C  C100  1  0.60265090  0.25236283  0.48360860  1
  C  C101  1  0.10265090  0.74763717  0.01639140  1
  C  C102  1  0.39734910  0.24763717  0.98360860  1
  C  C103  1  0.89734910  0.75236283  0.51639140  1
  Ni  Ni104  1  0.43266418  0.64726177  0.51265538  1
  Ni  Ni105  1  0.93266418  0.35273823  0.98734462  1
  Ni  Ni106  1  0.56733582  0.85273823  0.01265538  1
  Ni  Ni107  1  0.06733582  0.14726177  0.48734462  1
  Ni  Ni108  1  0.56733582  0.35273823  0.48734462  1
  Ni  Ni109  1  0.06733582  0.64726177  0.01265538  1
  Ni  Ni110  1  0.43266418  0.14726177  0.98734462  1
  Ni  Ni111  1  0.93266418  0.85273823  0.51265538  1
  Cu  Cu112  1  0.35145503  0.60421554  0.99864361  1
  Cu  Cu113  1  0.85145503  0.39578446  0.50135639  1
  Cu  Cu114  1  0.64854497  0.89578446  0.49864361  1
  Cu  Cu115  1  0.14854497  0.10421554  0.00135639  1
  Cu  Cu116  1  0.64854497  0.39578446  0.00135639  1
  Cu  Cu117  1  0.14854497  0.60421554  0.49864361  1
  Cu  Cu118  1  0.35145503  0.10421554  0.50135639  1
  Cu  Cu119  1  0.85145503  0.89578446  0.99864361  1
  Cu  Cu120  1  0.40286763  0.85087901  0.86375540  1
  Cu  Cu121  1  0.90286763  0.14912099  0.63624460  1
  Cu  Cu122  1  0.59713237  0.64912099  0.36375540  1
  Cu  Cu123  1  0.09713237  0.35087901  0.13624460  1
  Cu  Cu124  1  0.59713237  0.14912099  0.13624460  1
  Cu  Cu125  1  0.09713237  0.85087901  0.36375540  1
  Cu  Cu126  1  0.40286763  0.35087901  0.63624460  1
  Cu  Cu127  1  0.90286763  0.64912099  0.86375540  1
  Cu  Cu128  1  0.31773733  0.96457638  0.75980811  1
  Cu  Cu129  1  0.81773733  0.03542362  0.74019189  1
  Cu  Cu130  1  0.68226267  0.53542362  0.25980811  1
  Cu  Cu131  1  0.18226267  0.46457638  0.24019189  1
  Cu  Cu132  1  0.68226267  0.03542362  0.24019189  1
  Cu  Cu133  1  0.18226267  0.96457638  0.25980811  1
  Cu  Cu134  1  0.31773733  0.46457638  0.74019189  1
  Cu  Cu135  1  0.81773733  0.53542362  0.75980811  1
  Cu  Cu136  1  0.23225135  0.54490961  0.88495095  1
  Cu  Cu137  1  0.73225135  0.45509039  0.61504905  1
  Cu  Cu138  1  0.76774865  0.95509039  0.38495095  1
  Cu  Cu139  1  0.26774865  0.04490961  0.11504905  1
  Cu  Cu140  1  0.76774865  0.45509039  0.11504905  1
  Cu  Cu141  1  0.26774865  0.54490961  0.38495095  1
  Cu  Cu142  1  0.23225135  0.04490961  0.61504905  1
  Cu  Cu143  1  0.73225135  0.95509039  0.88495095  1
  Cu  Cu144  1  0.26674674  0.98443760  0.90546091  1
  Cu  Cu145  1  0.76674674  0.01556240  0.59453909  1
  Cu  Cu146  1  0.73325326  0.51556240  0.40546091  1
  Cu  Cu147  1  0.23325326  0.48443760  0.09453909  1
  Cu  Cu148  1  0.73325326  0.01556240  0.09453909  1
  Cu  Cu149  1  0.23325326  0.98443760  0.40546091  1
  Cu  Cu150  1  0.26674674  0.48443760  0.59453909  1
  Cu  Cu151  1  0.76674674  0.51556240  0.90546091  1
  Cu  Cu152  1  0.16712605  0.84764805  0.66324394  1
  Cu  Cu153  1  0.66712605  0.15235195  0.83675606  1
  Cu  Cu154  1  0.83287395  0.65235195  0.16324394  1
  Cu  Cu155  1  0.33287395  0.34764805  0.33675606  1
  Cu  Cu156  1  0.83287395  0.15235195  0.33675606  1
  Cu  Cu157  1  0.33287395  0.84764805  0.16324394  1
  Cu  Cu158  1  0.16712605  0.34764805  0.83675606  1
  Cu  Cu159  1  0.66712605  0.65235195  0.66324394  1
  Cu  Cu160  1  0.16439609  0.68219810  0.63511485  1
  Cu  Cu161  1  0.66439609  0.31780190  0.86488515  1
  Cu  Cu162  1  0.83560391  0.81780190  0.13511485  1
  Cu  Cu163  1  0.33560391  0.18219810  0.36488515  1
  Cu  Cu164  1  0.83560391  0.31780190  0.36488515  1
  Cu  Cu165  1  0.33560391  0.68219810  0.13511485  1
  Cu  Cu166  1  0.16439609  0.18219810  0.86488515  1
  Cu  Cu167  1  0.66439609  0.81780190  0.63511485  1
  Cu  Cu168  1  0.43353808  0.64448695  0.86609500  1
  Cu  Cu169  1  0.93353808  0.35551305  0.63390500  1
  Cu  Cu170  1  0.56646192  0.85551305  0.36609500  1
  Cu  Cu171  1  0.06646192  0.14448695  0.13390500  1
  Cu  Cu172  1  0.56646192  0.35551305  0.13390500  1
  Cu  Cu173  1  0.06646192  0.64448695  0.36609500  1
  Cu  Cu174  1  0.43353808  0.14448695  0.63390500  1
  Cu  Cu175  1  0.93353808  0.85551305  0.86609500  1
  Cu  Cu176  1  0.48771766  0.01469823  0.85788363  1
  Cu  Cu177  1  0.98771766  0.98530177  0.64211637  1
  Cu  Cu178  1  0.51228234  0.48530177  0.35788363  1
  Cu  Cu179  1  0.01228234  0.51469823  0.14211637  1
  Cu  Cu180  1  0.51228234  0.98530177  0.14211637  1
  Cu  Cu181  1  0.01228234  0.01469823  0.35788363  1
  Cu  Cu182  1  0.48771766  0.51469823  0.64211637  1
  Cu  Cu183  1  0.98771766  0.48530177  0.85788363  1
  Cu  Cu184  1  0.10105535  0.02332093  0.78491452  1
  Cu  Cu185  1  0.60105535  0.97667907  0.71508548  1
  Cu  Cu186  1  0.89894465  0.47667907  0.28491452  1
  Cu  Cu187  1  0.39894465  0.52332093  0.21508548  1
  Cu  Cu188  1  0.89894465  0.97667907  0.21508548  1
  Cu  Cu189  1  0.39894465  0.02332093  0.28491452  1
  Cu  Cu190  1  0.10105535  0.52332093  0.71508548  1
  Cu  Cu191  1  0.60105535  0.47667907  0.78491452  1
  Cu  Cu192  1  0.45174615  0.47802660  0.91469739  1
  Cu  Cu193  1  0.95174615  0.52197340  0.58530261  1
  Cu  Cu194  1  0.54825385  0.02197340  0.41469739  1
  Cu  Cu195  1  0.04825385  0.97802660  0.08530261  1
  Cu  Cu196  1  0.54825385  0.52197340  0.08530261  1
  Cu  Cu197  1  0.04825385  0.47802660  0.41469739  1
  Cu  Cu198  1  0.45174615  0.97802660  0.58530261  1
  Cu  Cu199  1  0.95174615  0.02197340  0.91469739  1
  Cu  Cu200  1  0.21352718  0.73396256  0.77446836  1
  Cu  Cu201  1  0.71352718  0.26603744  0.72553164  1
  Cu  Cu202  1  0.78647282  0.76603744  0.27446836  1
  Cu  Cu203  1  0.28647282  0.23396256  0.22553164  1
  Cu  Cu204  1  0.78647282  0.26603744  0.22553164  1
  Cu  Cu205  1  0.28647282  0.73396256  0.27446836  1
  Cu  Cu206  1  0.21352718  0.23396256  0.72553164  1
  Cu  Cu207  1  0.71352718  0.76603744  0.77446836  1
  Cu  Cu208  1  0.98933605  0.74850126  0.72033369  1
  Cu  Cu209  1  0.48933605  0.25149874  0.77966631  1
  Cu  Cu210  1  0.01066395  0.75149874  0.22033369  1
  Cu  Cu211  1  0.51066395  0.24850126  0.27966631  1
  Cu  Cu212  1  0.01066395  0.25149874  0.27966631  1
  Cu  Cu213  1  0.51066395  0.74850126  0.22033369  1
  Cu  Cu214  1  0.98933605  0.24850126  0.77966631  1
  Cu  Cu215  1  0.48933605  0.75149874  0.72033369  1
