# generated using pymatgen
data_Cu2NiC4
_symmetry_space_group_name_H-M   'P 1'
_cell_length_a   5.99205913
_cell_length_b   5.99206196
_cell_length_c   5.99428988
_cell_angle_alpha   59.99483628
_cell_angle_beta   59.99485188
_cell_angle_gamma   89.96993917
_symmetry_Int_Tables_number   1
_chemical_formula_structural   Cu2NiC4
_chemical_formula_sum   'Cu4 Ni2 C8'
_cell_volume   152.20232100
_cell_formula_units_Z   2
loop_
 _symmetry_equiv_pos_site_id
 _symmetry_equiv_pos_as_xyz
  1  'x, y, z'
loop_
 _atom_site_type_symbol
 _atom_site_label
 _atom_site_symmetry_multiplicity
 _atom_site_fract_x
 _atom_site_fract_y
 _atom_site_fract_z
 _atom_site_occupancy
  Ni  Ni0  1  0.12499800  0.87500000  0.25000000  1
  Ni  Ni1  1  0.87500000  0.12499900  0.75000100  1
  Cu  Cu2  1  0.50000300  0.50000200  0.50000000  1
  Cu  Cu3  1  0.50000200  0.50000100  0.00000300  1
  Cu  Cu4  1  0.00000300  0.50000300  0.99999600  1
  Cu  Cu5  1  0.49999900  0.99999700  0.50000200  1
  C  C6  1  0.71791100  0.73889400  0.52166200  1
  C  C7  1  0.26055400  0.73957500  0.97833400  1
  C  C8  1  0.26110500  0.28208800  0.97833700  1
  C  C9  1  0.26042400  0.73944500  0.52166500  1
  C  C10  1  0.28208900  0.26110500  0.47833700  1
  C  C11  1  0.73944300  0.26042400  0.02166500  1
  C  C12  1  0.73889400  0.71791000  0.02166300  1
  C  C13  1  0.73957400  0.26055600  0.47833600  1
