# generated using pymatgen
data_CuNiC
_symmetry_space_group_name_H-M   'P 1'
_cell_length_a   4.06683500
_cell_length_b   4.38411847
_cell_length_c   4.38398292
_cell_angle_alpha   120.00197230
_cell_angle_beta   90.00000000
_cell_angle_gamma   90.00000000
_symmetry_Int_Tables_number   1
_chemical_formula_structural   CuNiC
_chemical_formula_sum   'Cu1 Ni1 C1'
_cell_volume   67.69080631
_cell_formula_units_Z   1
loop_
 _symmetry_equiv_pos_site_id
 _symmetry_equiv_pos_as_xyz
  1  'x, y, z'
loop_
 _atom_site_type_symbol
 _atom_site_label
 _atom_site_symmetry_multiplicity
 _atom_site_fract_x
 _atom_site_fract_y
 _atom_site_fract_z
 _atom_site_occupancy
  C  C0  1  0.00000000  0.99995800  0.99997900  1
  Ni  Ni1  1  0.50000000  0.66664900  0.33334700  1
  Cu  Cu2  1  0.50000000  0.33329300  0.66667400  1
