# generated using pymatgen
data_Cu3NiC
_symmetry_space_group_name_H-M   'P 1'
_cell_length_a   7.75592700
_cell_length_b   6.91199800
_cell_length_c   10.35507989
_cell_angle_alpha   88.99944142
_cell_angle_beta   90.00000000
_cell_angle_gamma   90.00000000
_symmetry_Int_Tables_number   1
_chemical_formula_structural   Cu3NiC
_chemical_formula_sum   'Cu12 Ni4 C4'
_cell_volume   555.04033723
_cell_formula_units_Z   4
loop_
 _symmetry_equiv_pos_site_id
 _symmetry_equiv_pos_as_xyz
  1  'x, y, z'
loop_
 _atom_site_type_symbol
 _atom_site_label
 _atom_site_symmetry_multiplicity
 _atom_site_fract_x
 _atom_site_fract_y
 _atom_site_fract_z
 _atom_site_occupancy
  C  C0  1  0.49783200  0.28654500  0.50244000  1
  C  C1  1  0.99783200  0.71345500  0.49756000  1
  C  C2  1  0.21648100  0.81231000  0.99349600  1
  C  C3  1  0.71648100  0.18769000  0.00650400  1
  Ni  Ni4  1  0.22420800  0.30806600  0.79817400  1
  Ni  Ni5  1  0.72420800  0.69193400  0.20182600  1
  Ni  Ni6  1  0.00682700  0.18844200  0.67714200  1
  Ni  Ni7  1  0.50682700  0.81155800  0.32285800  1
  Cu  Cu8  1  0.43128600  0.09703600  0.76955000  1
  Cu  Cu9  1  0.93128600  0.90296400  0.23045000  1
  Cu  Cu10  1  0.41101900  0.08847500  0.24309300  1
  Cu  Cu11  1  0.91101900  0.91152500  0.75690700  1
  Cu  Cu12  1  0.13251800  0.34381600  0.99309500  1
  Cu  Cu13  1  0.63251800  0.65618400  0.00690500  1
  Cu  Cu14  1  0.30597900  0.56789400  0.67820500  1
  Cu  Cu15  1  0.80597900  0.43210600  0.32179500  1
  Cu  Cu16  1  0.12662600  0.13641600  0.48349700  1
  Cu  Cu17  1  0.62662600  0.86358400  0.51650300  1
  Cu  Cu18  1  0.80913300  0.42352300  0.67462400  1
  Cu  Cu19  1  0.30913300  0.57647700  0.32537600  1
