# generated using pymatgen
data_Cu5Ni2C7
_symmetry_space_group_name_H-M   'P 1'
_cell_length_a   13.88033988
_cell_length_b   13.88033988
_cell_length_c   13.88033988
_cell_angle_alpha   163.72873281
_cell_angle_beta   163.72873281
_cell_angle_gamma   23.08972502
_symmetry_Int_Tables_number   1
_chemical_formula_structural   Cu5Ni2C7
_chemical_formula_sum   'Cu5 Ni2 C7'
_cell_volume   209.89419881
_cell_formula_units_Z   1
loop_
 _symmetry_equiv_pos_site_id
 _symmetry_equiv_pos_as_xyz
  1  'x, y, z'
loop_
 _atom_site_type_symbol
 _atom_site_label
 _atom_site_symmetry_multiplicity
 _atom_site_fract_x
 _atom_site_fract_y
 _atom_site_fract_z
 _atom_site_occupancy
  C  C0  1  0.50000000  0.50000000  0.00000000  1
  C  C1  1  0.63692100  0.63692100  0.00000000  1
  C  C2  1  0.36307900  0.36307900  0.00000000  1
  C  C3  1  0.07050800  0.07050800  0.00000000  1
  C  C4  1  0.92949200  0.92949200  0.00000000  1
  C  C5  1  0.75000000  0.25000000  0.50000000  1
  C  C6  1  0.25000000  0.75000000  0.50000000  1
  Ni  Ni7  1  0.19953000  0.19953000  0.00000000  1
  Ni  Ni8  1  0.80047000  0.80047000  0.00000000  1
  Cu  Cu9  1  0.58118000  0.08118000  0.50000000  1
  Cu  Cu10  1  0.08118000  0.58118000  0.50000000  1
  Cu  Cu11  1  0.41882000  0.91882000  0.50000000  1
  Cu  Cu12  1  0.91882000  0.41882000  0.50000000  1
  Cu  Cu13  1  0.00000000  0.00000000  0.00000000  1
