# generated using pymatgen
data_Cu2NiC6
_symmetry_space_group_name_H-M   'P 1'
_cell_length_a   12.37670600
_cell_length_b   5.76715800
_cell_length_c   7.33729400
_cell_angle_alpha   90.00000000
_cell_angle_beta   90.00000000
_cell_angle_gamma   90.00000000
_symmetry_Int_Tables_number   1
_chemical_formula_structural   Cu2NiC6
_chemical_formula_sum   'Cu8 Ni4 C24'
_cell_volume   523.72444562
_cell_formula_units_Z   4
loop_
 _symmetry_equiv_pos_site_id
 _symmetry_equiv_pos_as_xyz
  1  'x, y, z'
loop_
 _atom_site_type_symbol
 _atom_site_label
 _atom_site_symmetry_multiplicity
 _atom_site_fract_x
 _atom_site_fract_y
 _atom_site_fract_z
 _atom_site_occupancy
  Ni  Ni0  1  0.40617100  0.25000000  0.57217100  1
  Ni  Ni1  1  0.90617100  0.25000000  0.92782900  1
  Ni  Ni2  1  0.59382900  0.75000000  0.42782900  1
  Ni  Ni3  1  0.09382900  0.75000000  0.07217100  1
  Cu  Cu4  1  0.78764300  0.25000000  0.38513000  1
  Cu  Cu5  1  0.28764300  0.25000000  0.11487000  1
  Cu  Cu6  1  0.21235700  0.75000000  0.61487000  1
  Cu  Cu7  1  0.71235700  0.75000000  0.88513000  1
  Cu  Cu8  1  0.57411400  0.25000000  0.10380600  1
  Cu  Cu9  1  0.07411400  0.25000000  0.39619400  1
  Cu  Cu10  1  0.42588600  0.75000000  0.89619400  1
  Cu  Cu11  1  0.92588600  0.75000000  0.60380600  1
  C  C12  1  0.16095700  0.25000000  0.78349500  1
  C  C13  1  0.66095700  0.25000000  0.71650500  1
  C  C14  1  0.83904300  0.75000000  0.21650500  1
  C  C15  1  0.33904300  0.75000000  0.28349500  1
  C  C16  1  0.93267900  0.99209500  0.33384200  1
  C  C17  1  0.43267900  0.50790500  0.16615800  1
  C  C18  1  0.06732100  0.49209500  0.66615800  1
  C  C19  1  0.56732100  0.00790500  0.83384200  1
  C  C20  1  0.06732100  0.00790500  0.66615800  1
  C  C21  1  0.56732100  0.49209500  0.83384200  1
  C  C22  1  0.93267900  0.50790500  0.33384200  1
  C  C23  1  0.43267900  0.99209500  0.16615800  1
  C  C24  1  0.72756300  0.50594100  0.14545500  1
  C  C25  1  0.22756300  0.99405900  0.35454500  1
  C  C26  1  0.27243700  0.00594100  0.85454500  1
  C  C27  1  0.77243700  0.49405900  0.64545500  1
  C  C28  1  0.27243700  0.49405900  0.85454500  1
  C  C29  1  0.77243700  0.00594100  0.64545500  1
  C  C30  1  0.72756300  0.99405900  0.14545500  1
  C  C31  1  0.22756300  0.50594100  0.35454500  1
  C  C32  1  0.59989500  0.25000000  0.41750800  1
  C  C33  1  0.09989500  0.25000000  0.08249200  1
  C  C34  1  0.40010500  0.75000000  0.58249200  1
  C  C35  1  0.90010500  0.75000000  0.91750800  1
