# generated using pymatgen
data_Cu4Ni2C
_symmetry_space_group_name_H-M   'P 1'
_cell_length_a   4.92974100
_cell_length_b   8.72968500
_cell_length_c   16.14455241
_cell_angle_alpha   75.12603524
_cell_angle_beta   90.00000000
_cell_angle_gamma   90.00000000
_symmetry_Int_Tables_number   1
_chemical_formula_structural   Cu4Ni2C
_chemical_formula_sum   'Cu16 Ni8 C4'
_cell_volume   671.50201066
_cell_formula_units_Z   4
loop_
 _symmetry_equiv_pos_site_id
 _symmetry_equiv_pos_as_xyz
  1  'x, y, z'
loop_
 _atom_site_type_symbol
 _atom_site_label
 _atom_site_symmetry_multiplicity
 _atom_site_fract_x
 _atom_site_fract_y
 _atom_site_fract_z
 _atom_site_occupancy
  C  C0  1  0.50000000  0.00000000  0.50000000  1
  C  C1  1  0.00000000  0.50000000  0.50000000  1
  C  C2  1  0.50000000  0.50000000  0.00000000  1
  C  C3  1  0.00000000  0.00000000  0.00000000  1
  Ni  Ni4  1  0.76683200  0.87934700  0.56208700  1
  Ni  Ni5  1  0.26683200  0.62065300  0.43791300  1
  Ni  Ni6  1  0.23316800  0.12065300  0.43791300  1
  Ni  Ni7  1  0.73316800  0.37934700  0.56208700  1
  Ni  Ni8  1  0.23408900  0.55485400  0.06499300  1
  Ni  Ni9  1  0.73408900  0.94514600  0.93500700  1
  Ni  Ni10  1  0.76591100  0.44514600  0.93500700  1
  Ni  Ni11  1  0.26591100  0.05485400  0.06499300  1
  Cu  Cu12  1  0.44154500  0.69935700  0.39819600  1
  Cu  Cu13  1  0.94154500  0.80064300  0.60180400  1
  Cu  Cu14  1  0.55845500  0.30064300  0.60180400  1
  Cu  Cu15  1  0.05845500  0.19935700  0.39819600  1
  Cu  Cu16  1  0.56072300  0.90716900  0.89366900  1
  Cu  Cu17  1  0.06072300  0.59283100  0.10633100  1
  Cu  Cu18  1  0.43927700  0.09283100  0.10633100  1
  Cu  Cu19  1  0.93927700  0.40716900  0.89366900  1
  Cu  Cu20  1  0.89005000  0.87797200  0.26027000  1
  Cu  Cu21  1  0.39005000  0.62202800  0.73973000  1
  Cu  Cu22  1  0.10995000  0.12202800  0.73973000  1
  Cu  Cu23  1  0.60995000  0.37797200  0.26027000  1
  Cu  Cu24  1  0.25496700  0.71122300  0.77159100  1
  Cu  Cu25  1  0.75496700  0.78877700  0.22840900  1
  Cu  Cu26  1  0.74503300  0.28877700  0.22840900  1
  Cu  Cu27  1  0.24503300  0.21122300  0.77159100  1
