# generated using pymatgen
data_Cu(NiC4)2
_symmetry_space_group_name_H-M   'P 1'
_cell_length_a   8.16112729
_cell_length_b   8.16112729
_cell_length_c   8.16112729
_cell_angle_alpha   120.39944591
_cell_angle_beta   117.81636864
_cell_angle_gamma   91.56638916
_symmetry_Int_Tables_number   1
_chemical_formula_structural   Cu(NiC4)2
_chemical_formula_sum   'Cu2 Ni4 C16'
_cell_volume   389.14354797
_cell_formula_units_Z   2
loop_
 _symmetry_equiv_pos_site_id
 _symmetry_equiv_pos_as_xyz
  1  'x, y, z'
loop_
 _atom_site_type_symbol
 _atom_site_label
 _atom_site_symmetry_multiplicity
 _atom_site_fract_x
 _atom_site_fract_y
 _atom_site_fract_z
 _atom_site_occupancy
  Ni  Ni0  1  0.00000000  0.00000000  0.00000000  1
  Ni  Ni1  1  0.50000000  0.50000000  0.00000000  1
  Ni  Ni2  1  0.50000000  0.00000000  0.00000000  1
  Ni  Ni3  1  0.50000000  0.50000000  0.50000000  1
  Cu  Cu4  1  0.00000000  0.00000000  0.50000000  1
  Cu  Cu5  1  0.00000000  0.50000000  0.00000000  1
  C  C6  1  0.50000000  0.00000000  0.50000000  1
  C  C7  1  0.00000000  0.50000000  0.50000000  1
  C  C8  1  0.37916000  0.08392800  0.29523300  1
  C  C9  1  0.71130500  0.41607200  0.29523300  1
  C  C10  1  0.67951600  0.28748100  0.74404000  1
  C  C11  1  0.95655900  0.21251900  0.39203600  1
  C  C12  1  0.95655900  0.56452300  0.74404000  1
  C  C13  1  0.67951600  0.93547700  0.39203600  1
  C  C14  1  0.32048400  0.06452300  0.60796400  1
  C  C15  1  0.04344100  0.43547700  0.25596000  1
  C  C16  1  0.04344100  0.78748100  0.60796400  1
  C  C17  1  0.32048400  0.71251900  0.25596000  1
  C  C18  1  0.88627600  0.75000000  0.13627600  1
  C  C19  1  0.62084000  0.91607200  0.70476700  1
  C  C20  1  0.28869500  0.58392800  0.70476700  1
  C  C21  1  0.11372400  0.25000000  0.86372400  1
