# generated using pymatgen
data_Cu6NiC26
_symmetry_space_group_name_H-M   'P 1'
_cell_length_a   8.42498486
_cell_length_b   8.42498486
_cell_length_c   9.73868649
_cell_angle_alpha   64.51228842
_cell_angle_beta   64.51228842
_cell_angle_gamma   78.41391361
_symmetry_Int_Tables_number   1
_chemical_formula_structural   Cu6NiC26
_chemical_formula_sum   'Cu6 Ni1 C26'
_cell_volume   563.14947028
_cell_formula_units_Z   1
loop_
 _symmetry_equiv_pos_site_id
 _symmetry_equiv_pos_as_xyz
  1  'x, y, z'
loop_
 _atom_site_type_symbol
 _atom_site_label
 _atom_site_symmetry_multiplicity
 _atom_site_fract_x
 _atom_site_fract_y
 _atom_site_fract_z
 _atom_site_occupancy
  C  C0  1  0.15841600  0.15841600  0.57271800  1
  C  C1  1  0.84158400  0.84158400  0.42728200  1
  C  C2  1  0.78099900  0.21900100  0.00000000  1
  C  C3  1  0.21900100  0.78099900  0.00000000  1
  Ni  Ni4  1  0.50000000  0.50000000  0.50000000  1
  Cu  Cu5  1  0.25953200  0.25953200  0.90397600  1
  Cu  Cu6  1  0.74046800  0.74046800  0.09602400  1
  Cu  Cu7  1  0.98884300  0.70599100  0.78161100  1
  Cu  Cu8  1  0.70599100  0.98884300  0.78161100  1
  Cu  Cu9  1  0.01115700  0.29400900  0.21838900  1
  Cu  Cu10  1  0.29400900  0.01115700  0.21838900  1
  C  C11  1  0.15690200  0.15690200  0.87827800  1
  C  C12  1  0.84309800  0.84309800  0.12172200  1
  C  C13  1  0.39280600  0.39280600  0.76329400  1
  C  C14  1  0.60719400  0.60719400  0.23670600  1
  C  C15  1  0.15241500  0.79203400  0.73942400  1
  C  C16  1  0.79203400  0.15241500  0.73942400  1
  C  C17  1  0.84758500  0.20796600  0.26057600  1
  C  C18  1  0.20796600  0.84758500  0.26057600  1
  C  C19  1  0.99379100  0.55915200  0.73192500  1
  C  C20  1  0.55915200  0.99379100  0.73192500  1
  C  C21  1  0.00620900  0.44084800  0.26807500  1
  C  C22  1  0.44084800  0.00620900  0.26807500  1
  C  C23  1  0.12715400  0.36157300  0.02131500  1
  C  C24  1  0.36157300  0.12715400  0.02131500  1
  C  C25  1  0.87284600  0.63842700  0.97868500  1
  C  C26  1  0.63842700  0.87284600  0.97868500  1
  C  C27  1  0.86075500  0.86075500  0.70586800  1
  C  C28  1  0.13924500  0.13924500  0.29413200  1
  C  C29  1  0.72947200  0.51455700  0.50349200  1
  C  C30  1  0.51455700  0.72947200  0.50349200  1
  C  C31  1  0.27052800  0.48544300  0.49650800  1
  C  C32  1  0.48544300  0.27052800  0.49650800  1
