# generated using pymatgen
data_Cu9Ni5C6
_symmetry_space_group_name_H-M   'P 1'
_cell_length_a   13.31264716
_cell_length_b   13.31264716
_cell_length_c   13.31264716
_cell_angle_alpha   144.08883236
_cell_angle_beta   144.08883236
_cell_angle_gamma   51.69447767
_symmetry_Int_Tables_number   1
_chemical_formula_structural   Cu9Ni5C6
_chemical_formula_sum   'Cu18 Ni10 C12'
_cell_volume   807.17175185
_cell_formula_units_Z   2
loop_
 _symmetry_equiv_pos_site_id
 _symmetry_equiv_pos_as_xyz
  1  'x, y, z'
loop_
 _atom_site_type_symbol
 _atom_site_label
 _atom_site_symmetry_multiplicity
 _atom_site_fract_x
 _atom_site_fract_y
 _atom_site_fract_z
 _atom_site_occupancy
  C  C0  1  0.85724700  0.35724700  0.83634800  1
  C  C1  1  0.14275300  0.64275300  0.16365200  1
  C  C2  1  0.52089900  0.02089900  0.16365200  1
  C  C3  1  0.35724700  0.52089900  0.50000000  1
  C  C4  1  0.97910100  0.14275300  0.50000000  1
  C  C5  1  0.47910100  0.97910100  0.83634800  1
  C  C6  1  0.64275300  0.47910100  0.50000000  1
  C  C7  1  0.02089900  0.85724700  0.50000000  1
  C  C8  1  0.10655800  0.10655800  0.00000000  1
  C  C9  1  0.89344200  0.89344200  0.00000000  1
  C  C10  1  0.39344200  0.39344200  0.00000000  1
  C  C11  1  0.60655800  0.60655800  0.00000000  1
  Ni  Ni12  1  0.20960800  0.70960800  0.73698600  1
  Ni  Ni13  1  0.79039200  0.29039200  0.26301400  1
  Ni  Ni14  1  0.97262200  0.47262200  0.26301400  1
  Ni  Ni15  1  0.70960800  0.97262200  0.50000000  1
  Ni  Ni16  1  0.52737800  0.79039200  0.50000000  1
  Ni  Ni17  1  0.02737800  0.52737800  0.73698600  1
  Ni  Ni18  1  0.29039200  0.02737800  0.50000000  1
  Ni  Ni19  1  0.47262200  0.20960800  0.50000000  1
  Ni  Ni20  1  0.25000000  0.25000000  0.00000000  1
  Ni  Ni21  1  0.75000000  0.75000000  0.00000000  1
  Cu  Cu22  1  0.21044300  0.06809200  0.27853500  1
  Cu  Cu23  1  0.78955700  0.93190800  0.72146500  1
  Cu  Cu24  1  0.06809200  0.78955700  0.85765000  1
  Cu  Cu25  1  0.71044300  0.43190800  0.14235000  1
  Cu  Cu26  1  0.93190800  0.21044300  0.14235000  1
  Cu  Cu27  1  0.28955700  0.56809200  0.85765000  1
  Cu  Cu28  1  0.56809200  0.71044300  0.27853500  1
  Cu  Cu29  1  0.43190800  0.28955700  0.72146500  1
  Cu  Cu30  1  0.73143300  0.23143300  0.85235800  1
  Cu  Cu31  1  0.26856700  0.76856700  0.14764200  1
  Cu  Cu32  1  0.37907500  0.87907500  0.14764200  1
  Cu  Cu33  1  0.23143300  0.37907500  0.50000000  1
  Cu  Cu34  1  0.12092500  0.26856700  0.50000000  1
  Cu  Cu35  1  0.62092500  0.12092500  0.85235800  1
  Cu  Cu36  1  0.76856700  0.62092500  0.50000000  1
  Cu  Cu37  1  0.87907500  0.73143300  0.50000000  1
  Cu  Cu38  1  0.50000000  0.00000000  0.50000000  1
  Cu  Cu39  1  0.00000000  0.50000000  0.50000000  1
