# generated using pymatgen
data_Cu(Ni3C4)2
_symmetry_space_group_name_H-M   'P 1'
_cell_length_a   8.82667700
_cell_length_b   8.83476500
_cell_length_c   27.43303700
_cell_angle_alpha   90.00000000
_cell_angle_beta   90.00000000
_cell_angle_gamma   90.00000000
_symmetry_Int_Tables_number   1
_chemical_formula_structural   Cu(Ni3C4)2
_chemical_formula_sum   'Cu4 Ni24 C32'
_cell_volume   2139.27258519
_cell_formula_units_Z   4
loop_
 _symmetry_equiv_pos_site_id
 _symmetry_equiv_pos_as_xyz
  1  'x, y, z'
loop_
 _atom_site_type_symbol
 _atom_site_label
 _atom_site_symmetry_multiplicity
 _atom_site_fract_x
 _atom_site_fract_y
 _atom_site_fract_z
 _atom_site_occupancy
  C  C0  1  0.17958600  0.55025200  0.41384000  1
  C  C1  1  0.32041400  0.94974800  0.91384000  1
  C  C2  1  0.32041400  0.05025200  0.58616000  1
  C  C3  1  0.17958600  0.44974800  0.08616000  1
  C  C4  1  0.82041400  0.44974800  0.58616000  1
  C  C5  1  0.67958600  0.05025200  0.08616000  1
  C  C6  1  0.67958600  0.94974800  0.41384000  1
  C  C7  1  0.82041400  0.55025200  0.91384000  1
  C  C8  1  0.49151700  0.68536500  0.18586300  1
  C  C9  1  0.00848300  0.81463500  0.68586300  1
  C  C10  1  0.00848300  0.18536500  0.81413700  1
  C  C11  1  0.49151700  0.31463500  0.31413700  1
  C  C12  1  0.50848300  0.31463500  0.81413700  1
  C  C13  1  0.99151700  0.18536500  0.31413700  1
  C  C14  1  0.99151700  0.81463500  0.18586300  1
  C  C15  1  0.50848300  0.68536500  0.68586300  1
  C  C16  1  0.49319800  0.71178500  0.02183500  1
  C  C17  1  0.00680200  0.78821500  0.52183500  1
  C  C18  1  0.00680200  0.21178500  0.97816500  1
  C  C19  1  0.49319800  0.28821500  0.47816500  1
  C  C20  1  0.50680200  0.28821500  0.97816500  1
  C  C21  1  0.99319800  0.21178500  0.47816500  1
  C  C22  1  0.99319800  0.78821500  0.02183500  1
  C  C23  1  0.50680200  0.71178500  0.52183500  1
  C  C24  1  0.36956200  0.82526800  0.32482800  1
  C  C25  1  0.13043800  0.67473200  0.82482800  1
  C  C26  1  0.13043800  0.32526800  0.67517200  1
  C  C27  1  0.36956200  0.17473200  0.17517200  1
  C  C28  1  0.63043800  0.17473200  0.67517200  1
  C  C29  1  0.86956200  0.32526800  0.17517200  1
  C  C30  1  0.86956200  0.67473200  0.32482800  1
  C  C31  1  0.63043800  0.82526800  0.82482800  1
  Ni  Ni32  1  0.26754500  0.86863800  0.10766800  1
  Ni  Ni33  1  0.23245500  0.63136200  0.60766800  1
  Ni  Ni34  1  0.23245500  0.36863800  0.89233200  1
  Ni  Ni35  1  0.26754500  0.13136200  0.39233200  1
  Ni  Ni36  1  0.73245500  0.13136200  0.89233200  1
  Ni  Ni37  1  0.76754500  0.36863800  0.39233200  1
  Ni  Ni38  1  0.76754500  0.63136200  0.10766800  1
  Ni  Ni39  1  0.73245500  0.86863800  0.60766800  1
  Ni  Ni40  1  0.29286000  0.05991900  0.04596000  1
  Ni  Ni41  1  0.20714000  0.44008100  0.54596000  1
  Ni  Ni42  1  0.20714000  0.55991900  0.95404000  1
  Ni  Ni43  1  0.29286000  0.94008100  0.45404000  1
  Ni  Ni44  1  0.70714000  0.94008100  0.95404000  1
  Ni  Ni45  1  0.79286000  0.55991900  0.45404000  1
  Ni  Ni46  1  0.79286000  0.44008100  0.04596000  1
  Ni  Ni47  1  0.70714000  0.05991900  0.54596000  1
  Ni  Ni48  1  0.07648200  0.07006200  0.10060800  1
  Ni  Ni49  1  0.42351800  0.42993800  0.60060800  1
  Ni  Ni50  1  0.42351800  0.57006200  0.89939200  1
  Ni  Ni51  1  0.07648200  0.92993800  0.39939200  1
  Ni  Ni52  1  0.92351800  0.92993800  0.89939200  1
  Ni  Ni53  1  0.57648200  0.57006200  0.39939200  1
  Ni  Ni54  1  0.57648200  0.42993800  0.10060800  1
  Ni  Ni55  1  0.92351800  0.07006200  0.60060800  1
  Cu  Cu56  1  0.17402500  0.50000000  0.25000000  1
  Cu  Cu57  1  0.32597500  0.00000000  0.75000000  1
  Cu  Cu58  1  0.82597500  0.50000000  0.75000000  1
  Cu  Cu59  1  0.67402500  0.00000000  0.25000000  1
