# generated using pymatgen
data_CuNiC6
_symmetry_space_group_name_H-M   'P 1'
_cell_length_a   5.15408300
_cell_length_b   6.08367400
_cell_length_c   11.01110500
_cell_angle_alpha   90.00000000
_cell_angle_beta   90.00000000
_cell_angle_gamma   90.00000000
_symmetry_Int_Tables_number   1
_chemical_formula_structural   CuNiC6
_chemical_formula_sum   'Cu2 Ni2 C12'
_cell_volume   345.26157387
_cell_formula_units_Z   2
loop_
 _symmetry_equiv_pos_site_id
 _symmetry_equiv_pos_as_xyz
  1  'x, y, z'
loop_
 _atom_site_type_symbol
 _atom_site_label
 _atom_site_symmetry_multiplicity
 _atom_site_fract_x
 _atom_site_fract_y
 _atom_site_fract_z
 _atom_site_occupancy
  C  C0  1  0.00000000  0.74019500  0.09184900  1
  C  C1  1  0.00000000  0.25980500  0.09184900  1
  C  C2  1  0.00000000  0.00000000  0.33196200  1
  C  C3  1  0.50000000  0.24979200  0.41637700  1
  C  C4  1  0.50000000  0.75020800  0.41637700  1
  C  C5  1  0.50000000  0.00000000  0.16900000  1
  C  C6  1  0.00000000  0.24019500  0.59184900  1
  C  C7  1  0.00000000  0.75980500  0.59184900  1
  C  C8  1  0.00000000  0.50000000  0.83196200  1
  C  C9  1  0.50000000  0.74979200  0.91637700  1
  C  C10  1  0.50000000  0.25020800  0.91637700  1
  C  C11  1  0.50000000  0.50000000  0.66900000  1
  Ni  Ni12  1  0.50000000  0.50000000  0.14117700  1
  Ni  Ni13  1  0.50000000  0.00000000  0.64117700  1
  Cu  Cu14  1  0.00000000  0.50000000  0.34140700  1
  Cu  Cu15  1  0.00000000  0.00000000  0.84140700  1
