# generated using pymatgen
data_Cu2Ni9C13
_symmetry_space_group_name_H-M   'P 1'
_cell_length_a   5.64774700
_cell_length_b   10.08673200
_cell_length_c   18.73586900
_cell_angle_alpha   90.00000000
_cell_angle_beta   90.00000000
_cell_angle_gamma   90.00000000
_symmetry_Int_Tables_number   1
_chemical_formula_structural   Cu2Ni9C13
_chemical_formula_sum   'Cu8 Ni36 C52'
_cell_volume   1067.33206480
_cell_formula_units_Z   4
loop_
 _symmetry_equiv_pos_site_id
 _symmetry_equiv_pos_as_xyz
  1  'x, y, z'
loop_
 _atom_site_type_symbol
 _atom_site_label
 _atom_site_symmetry_multiplicity
 _atom_site_fract_x
 _atom_site_fract_y
 _atom_site_fract_z
 _atom_site_occupancy
  C  C0  1  0.00000000  0.00000000  0.00000000  1
  C  C1  1  0.50000000  0.50000000  0.00000000  1
  C  C2  1  0.00000000  0.00000000  0.50000000  1
  C  C3  1  0.50000000  0.50000000  0.50000000  1
  Ni  Ni4  1  0.55123200  0.49829800  0.25000000  1
  Ni  Ni5  1  0.44876800  0.50170200  0.75000000  1
  Ni  Ni6  1  0.05123200  0.00170200  0.75000000  1
  Ni  Ni7  1  0.94876800  0.99829800  0.25000000  1
  Ni  Ni8  1  0.65456600  0.09215600  0.10000000  1
  Ni  Ni9  1  0.34543400  0.90784400  0.90000000  1
  Ni  Ni10  1  0.15456600  0.40784400  0.90000000  1
  Ni  Ni11  1  0.34543400  0.90784400  0.60000000  1
  Ni  Ni12  1  0.84543400  0.59215600  0.10000000  1
  Ni  Ni13  1  0.65456600  0.09215600  0.40000000  1
  Ni  Ni14  1  0.84543400  0.59215600  0.40000000  1
  Ni  Ni15  1  0.15456600  0.40784400  0.60000000  1
  Ni  Ni16  1  0.35373800  0.06521200  0.59731200  1
  Ni  Ni17  1  0.64626200  0.93478800  0.40268800  1
  Ni  Ni18  1  0.85373800  0.43478800  0.40268800  1
  Ni  Ni19  1  0.64626200  0.93478800  0.09731200  1
  Ni  Ni20  1  0.14626200  0.56521200  0.59731200  1
  Ni  Ni21  1  0.35373800  0.06521200  0.90268800  1
  Ni  Ni22  1  0.14626200  0.56521200  0.90268800  1
  Ni  Ni23  1  0.85373800  0.43478800  0.09731200  1
  Ni  Ni24  1  0.52590100  0.65993000  0.20554300  1
  Ni  Ni25  1  0.47409900  0.34007000  0.79445700  1
  Ni  Ni26  1  0.02590100  0.84007000  0.79445700  1
  Ni  Ni27  1  0.47409900  0.34007000  0.70554300  1
  Ni  Ni28  1  0.97409900  0.15993000  0.20554300  1
  Ni  Ni29  1  0.52590100  0.65993000  0.29445700  1
  Ni  Ni30  1  0.97409900  0.15993000  0.29445700  1
  Ni  Ni31  1  0.02590100  0.84007000  0.70554300  1
  Ni  Ni32  1  0.50440300  0.31924200  0.20674900  1
  Ni  Ni33  1  0.49559700  0.68075800  0.79325100  1
  Ni  Ni34  1  0.00440300  0.18075800  0.79325100  1
  Ni  Ni35  1  0.49559700  0.68075800  0.70674900  1
  Ni  Ni36  1  0.99559700  0.81924200  0.20674900  1
  Ni  Ni37  1  0.50440300  0.31924200  0.29325100  1
  Ni  Ni38  1  0.99559700  0.81924200  0.29325100  1
  Ni  Ni39  1  0.00440300  0.18075800  0.70674900  1
  Cu  Cu40  1  0.22222200  0.25966600  0.09152100  1
  Cu  Cu41  1  0.77777800  0.74033400  0.90847900  1
  Cu  Cu42  1  0.72222200  0.24033400  0.90847900  1
  Cu  Cu43  1  0.77777800  0.74033400  0.59152100  1
  Cu  Cu44  1  0.27777800  0.75966600  0.09152100  1
  Cu  Cu45  1  0.22222200  0.25966600  0.40847900  1
  Cu  Cu46  1  0.27777800  0.75966600  0.40847900  1
  Cu  Cu47  1  0.72222200  0.24033400  0.59152100  1
  C  C48  1  0.24760900  0.40145500  0.06681600  1
  C  C49  1  0.75239100  0.59854500  0.93318400  1
  C  C50  1  0.74760900  0.09854500  0.93318400  1
  C  C51  1  0.75239100  0.59854500  0.56681600  1
  C  C52  1  0.25239100  0.90145500  0.06681600  1
  C  C53  1  0.24760900  0.40145500  0.43318400  1
  C  C54  1  0.25239100  0.90145500  0.43318400  1
  C  C55  1  0.74760900  0.09854500  0.56681600  1
  C  C56  1  0.19403700  0.17687400  0.02527100  1
  C  C57  1  0.80596300  0.82312600  0.97472900  1
  C  C58  1  0.69403700  0.32312600  0.97472900  1
  C  C59  1  0.80596300  0.82312600  0.52527100  1
  C  C60  1  0.30596300  0.67687400  0.02527100  1
  C  C61  1  0.19403700  0.17687400  0.47472900  1
  C  C62  1  0.30596300  0.67687400  0.47472900  1
  C  C63  1  0.69403700  0.32312600  0.52527100  1
  C  C64  1  0.43546100  0.21684600  0.13121200  1
  C  C65  1  0.56453900  0.78315400  0.86878800  1
  C  C66  1  0.93546100  0.28315400  0.86878800  1
  C  C67  1  0.56453900  0.78315400  0.63121200  1
  C  C68  1  0.06453900  0.71684600  0.13121200  1
  C  C69  1  0.43546100  0.21684600  0.36878800  1
  C  C70  1  0.06453900  0.71684600  0.36878800  1
  C  C71  1  0.93546100  0.28315400  0.63121200  1
  C  C72  1  0.75313000  0.01160800  0.09271600  1
  C  C73  1  0.24687000  0.98839200  0.90728400  1
  C  C74  1  0.25313000  0.48839200  0.90728400  1
  C  C75  1  0.24687000  0.98839200  0.59271600  1
  C  C76  1  0.74687000  0.51160800  0.09271600  1
  C  C77  1  0.75313000  0.01160800  0.40728400  1
  C  C78  1  0.74687000  0.51160800  0.40728400  1
  C  C79  1  0.25313000  0.48839200  0.59271600  1
  C  C80  1  0.55284600  0.36945000  0.25000000  1
  C  C81  1  0.44715400  0.63055000  0.75000000  1
  C  C82  1  0.05284600  0.13055000  0.75000000  1
  C  C83  1  0.94715400  0.86945000  0.25000000  1
  C  C84  1  0.56757600  0.60914400  0.25000000  1
  C  C85  1  0.43242400  0.39085600  0.75000000  1
  C  C86  1  0.06757600  0.89085600  0.75000000  1
  C  C87  1  0.93242400  0.10914400  0.25000000  1
  C  C88  1  0.00562600  0.25706800  0.13574600  1
  C  C89  1  0.99437400  0.74293200  0.86425400  1
  C  C90  1  0.50562600  0.24293200  0.86425400  1
  C  C91  1  0.99437400  0.74293200  0.63574600  1
  C  C92  1  0.49437400  0.75706800  0.13574600  1
  C  C93  1  0.00562600  0.25706800  0.36425400  1
  C  C94  1  0.49437400  0.75706800  0.36425400  1
  C  C95  1  0.50562600  0.24293200  0.63574600  1
