# generated using pymatgen
data_Cu8NiC3
_symmetry_space_group_name_H-M   'P 1'
_cell_length_a   4.93277795
_cell_length_b   4.93277795
_cell_length_c   8.55840400
_cell_angle_alpha   90.00000000
_cell_angle_beta   90.00000000
_cell_angle_gamma   119.99999931
_symmetry_Int_Tables_number   1
_chemical_formula_structural   Cu8NiC3
_chemical_formula_sum   'Cu8 Ni1 C3'
_cell_volume   180.34601487
_cell_formula_units_Z   1
loop_
 _symmetry_equiv_pos_site_id
 _symmetry_equiv_pos_as_xyz
  1  'x, y, z'
loop_
 _atom_site_type_symbol
 _atom_site_label
 _atom_site_symmetry_multiplicity
 _atom_site_fract_x
 _atom_site_fract_y
 _atom_site_fract_z
 _atom_site_occupancy
  C  C0  1  0.00000000  0.00000000  0.00000000  1
  C  C1  1  0.33333300  0.66666700  0.20649600  1
  C  C2  1  0.66666700  0.33333300  0.79350400  1
  Ni  Ni3  1  0.00000000  0.00000000  0.50000000  1
  Cu  Cu4  1  0.08436000  0.35737200  0.14528600  1
  Cu  Cu5  1  0.64262800  0.72698800  0.14528600  1
  Cu  Cu6  1  0.35737200  0.08436000  0.85471400  1
  Cu  Cu7  1  0.27301200  0.91564000  0.14528600  1
  Cu  Cu8  1  0.72698800  0.64262800  0.85471400  1
  Cu  Cu9  1  0.91564000  0.27301200  0.85471400  1
  Cu  Cu10  1  0.33333300  0.66666700  0.37627100  1
  Cu  Cu11  1  0.66666700  0.33333300  0.62372900  1
