# generated using pymatgen
data_Cu2Ni14C11
_symmetry_space_group_name_H-M   'P 1'
_cell_length_a   11.19177400
_cell_length_b   10.16989100
_cell_length_c   14.45377894
_cell_angle_alpha   66.08574264
_cell_angle_beta   90.00000000
_cell_angle_gamma   90.00000000
_symmetry_Int_Tables_number   1
_chemical_formula_structural   Cu2Ni14C11
_chemical_formula_sum   'Cu8 Ni56 C44'
_cell_volume   1503.88829868
_cell_formula_units_Z   4
loop_
 _symmetry_equiv_pos_site_id
 _symmetry_equiv_pos_as_xyz
  1  'x, y, z'
loop_
 _atom_site_type_symbol
 _atom_site_label
 _atom_site_symmetry_multiplicity
 _atom_site_fract_x
 _atom_site_fract_y
 _atom_site_fract_z
 _atom_site_occupancy
  C  C0  1  0.31110400  0.47084500  0.67312400  1
  C  C1  1  0.68889600  0.52915500  0.32687600  1
  C  C2  1  0.81110400  0.52915500  0.82687600  1
  C  C3  1  0.18889600  0.47084500  0.17312400  1
  Ni  Ni4  1  0.47141000  0.70063800  0.93676100  1
  Ni  Ni5  1  0.52859000  0.29936200  0.06323900  1
  Ni  Ni6  1  0.97141000  0.29936200  0.56323900  1
  Ni  Ni7  1  0.02859000  0.70063800  0.43676100  1
  Ni  Ni8  1  0.04278700  0.69956200  0.81133800  1
  Ni  Ni9  1  0.95721300  0.30043800  0.18866200  1
  Ni  Ni10  1  0.54278700  0.30043800  0.68866200  1
  Ni  Ni11  1  0.45721300  0.69956200  0.31133800  1
  Ni  Ni12  1  0.11446400  0.99639300  0.67014200  1
  Ni  Ni13  1  0.88553600  0.00360700  0.32985800  1
  Ni  Ni14  1  0.61446400  0.00360700  0.82985800  1
  Ni  Ni15  1  0.38553600  0.99639300  0.17014200  1
  Ni  Ni16  1  0.96420300  0.78805300  0.56401300  1
  Ni  Ni17  1  0.03579700  0.21194700  0.43598700  1
  Ni  Ni18  1  0.46420300  0.21194700  0.93598700  1
  Ni  Ni19  1  0.53579700  0.78805300  0.06401300  1
  Ni  Ni20  1  0.80627100  0.88080300  0.93725000  1
  Ni  Ni21  1  0.19372900  0.11919700  0.06275000  1
  Ni  Ni22  1  0.30627100  0.11919700  0.56275000  1
  Ni  Ni23  1  0.69372900  0.88080300  0.43725000  1
  Ni  Ni24  1  0.08488100  0.96751500  0.63559000  1
  Ni  Ni25  1  0.91511900  0.03248500  0.36441000  1
  Ni  Ni26  1  0.58488100  0.03248500  0.86441000  1
  Ni  Ni27  1  0.41511900  0.96751500  0.13559000  1
  Ni  Ni28  1  0.92779500  0.71864200  0.51861800  1
  Ni  Ni29  1  0.07220500  0.28135800  0.48138200  1
  Ni  Ni30  1  0.42779500  0.28135800  0.98138200  1
  Ni  Ni31  1  0.57220500  0.71864200  0.01861800  1
  Ni  Ni32  1  0.08760800  0.97489800  0.96795900  1
  Ni  Ni33  1  0.91239200  0.02510200  0.03204100  1
  Ni  Ni34  1  0.58760800  0.02510200  0.53204100  1
  Ni  Ni35  1  0.41239200  0.97489800  0.46795900  1
  Ni  Ni36  1  0.62880800  0.08211900  0.49768400  1
  Ni  Ni37  1  0.37119200  0.91788100  0.50231600  1
  Ni  Ni38  1  0.12880800  0.91788100  0.00231600  1
  Ni  Ni39  1  0.87119200  0.08211900  0.99768400  1
  Ni  Ni40  1  0.43128800  0.93864100  0.69286200  1
  Ni  Ni41  1  0.56871200  0.06135900  0.30713800  1
  Ni  Ni42  1  0.93128800  0.06135900  0.80713800  1
  Ni  Ni43  1  0.06871200  0.93864100  0.19286200  1
  Ni  Ni44  1  0.29448800  0.93570400  0.84441900  1
  Ni  Ni45  1  0.70551200  0.06429600  0.15558100  1
  Ni  Ni46  1  0.79448800  0.06429600  0.65558100  1
  Ni  Ni47  1  0.20551200  0.93570400  0.34441900  1
  Ni  Ni48  1  0.25016500  0.99609700  0.82968300  1
  Ni  Ni49  1  0.74983500  0.00390300  0.17031700  1
  Ni  Ni50  1  0.75016500  0.00390300  0.67031700  1
  Ni  Ni51  1  0.24983500  0.99609700  0.32968300  1
  Ni  Ni52  1  0.98614800  0.83324100  0.59521800  1
  Ni  Ni53  1  0.01385200  0.16675900  0.40478200  1
  Ni  Ni54  1  0.48614800  0.16675900  0.90478200  1
  Ni  Ni55  1  0.51385200  0.83324100  0.09521800  1
  Ni  Ni56  1  0.81607600  0.84928000  0.89899600  1
  Ni  Ni57  1  0.18392400  0.15072000  0.10100400  1
  Ni  Ni58  1  0.31607600  0.15072000  0.60100400  1
  Ni  Ni59  1  0.68392400  0.84928000  0.39899600  1
  Cu  Cu60  1  0.49307600  0.68733300  0.78405100  1
  Cu  Cu61  1  0.50692400  0.31266700  0.21594900  1
  Cu  Cu62  1  0.99307600  0.31266700  0.71594900  1
  Cu  Cu63  1  0.00692400  0.68733300  0.28405100  1
  Cu  Cu64  1  0.13213600  0.48737500  0.90332000  1
  Cu  Cu65  1  0.86786400  0.51262500  0.09668000  1
  Cu  Cu66  1  0.63213600  0.51262500  0.59668000  1
  Cu  Cu67  1  0.36786400  0.48737500  0.40332000  1
  C  C68  1  0.50621100  0.89885600  0.72906400  1
  C  C69  1  0.49378900  0.10114400  0.27093600  1
  C  C70  1  0.00621100  0.10114400  0.77093600  1
  C  C71  1  0.99378900  0.89885600  0.22906400  1
  C  C72  1  0.29033800  0.45672000  0.50691000  1
  C  C73  1  0.70966200  0.54328000  0.49309000  1
  C  C74  1  0.79033800  0.54328000  0.99309000  1
  C  C75  1  0.20966200  0.45672000  0.00691000  1
  C  C76  1  0.24332500  0.64629500  0.62321000  1
  C  C77  1  0.75667500  0.35370500  0.37679000  1
  C  C78  1  0.74332500  0.35370500  0.87679000  1
  C  C79  1  0.25667500  0.64629500  0.12321000  1
  C  C80  1  0.49174100  0.57275400  0.57263400  1
  C  C81  1  0.50825900  0.42724600  0.42736600  1
  C  C82  1  0.99174100  0.42724600  0.92736600  1
  C  C83  1  0.00825900  0.57275400  0.07263400  1
  C  C84  1  0.43664600  0.52876100  0.77676400  1
  C  C85  1  0.56335400  0.47123900  0.22323600  1
  C  C86  1  0.93664600  0.47123900  0.72323600  1
  C  C87  1  0.06335400  0.52876100  0.27676400  1
  C  C88  1  0.89289700  0.69916500  0.78369200  1
  C  C89  1  0.10710300  0.30083500  0.21630800  1
  C  C90  1  0.39289700  0.30083500  0.71630800  1
  C  C91  1  0.60710300  0.69916500  0.28369200  1
  C  C92  1  0.41811600  0.66095800  0.89918500  1
  C  C93  1  0.58188400  0.33904200  0.10081500  1
  C  C94  1  0.91811600  0.33904200  0.60081500  1
  C  C95  1  0.08188400  0.66095800  0.39918500  1
  C  C96  1  0.20055300  0.41494300  0.83389200  1
  C  C97  1  0.79944700  0.58505700  0.16610800  1
  C  C98  1  0.70055300  0.58505700  0.66610800  1
  C  C99  1  0.29944700  0.41494300  0.33389200  1
  C  C100  1  0.12794900  0.67497000  0.83570900  1
  C  C101  1  0.87205100  0.32503000  0.16429100  1
  C  C102  1  0.62794900  0.32503000  0.66429100  1
  C  C103  1  0.37205100  0.67497000  0.33570900  1
  C  C104  1  0.13548500  0.34481900  0.67497900  1
  C  C105  1  0.86451500  0.65518100  0.32502100  1
  C  C106  1  0.63548500  0.65518100  0.82502100  1
  C  C107  1  0.36451500  0.34481900  0.17497900  1
