# generated using pymatgen
data_Cu15NiC84
_symmetry_space_group_name_H-M   'P 1'
_cell_length_a   7.83550273
_cell_length_b   7.83550273
_cell_length_c   18.94498161
_cell_angle_alpha   87.67515651
_cell_angle_beta   87.67515651
_cell_angle_gamma   78.40665583
_symmetry_Int_Tables_number   1
_chemical_formula_structural   Cu15NiC84
_chemical_formula_sum   'Cu15 Ni1 C84'
_cell_volume   1137.83739655
_cell_formula_units_Z   1
loop_
 _symmetry_equiv_pos_site_id
 _symmetry_equiv_pos_as_xyz
  1  'x, y, z'
loop_
 _atom_site_type_symbol
 _atom_site_label
 _atom_site_symmetry_multiplicity
 _atom_site_fract_x
 _atom_site_fract_y
 _atom_site_fract_z
 _atom_site_occupancy
  C  C0  1  0.39987400  0.39988100  0.69971000  1
  C  C1  1  0.80003400  0.80000700  0.89997400  1
  C  C2  1  0.19999300  0.19996600  0.10002600  1
  C  C3  1  0.60011900  0.60012600  0.30029000  1
  Ni  Ni4  1  0.99998400  0.00001600  0.50000000  1
  Cu  Cu5  1  0.70960400  0.16156400  0.08078500  1
  Cu  Cu6  1  0.10956900  0.56167200  0.28083700  1
  Cu  Cu7  1  0.50955800  0.96182200  0.48091900  1
  Cu  Cu8  1  0.90967500  0.36136600  0.68070200  1
  Cu  Cu9  1  0.30961200  0.76152800  0.88077900  1
  Cu  Cu10  1  0.23847200  0.69038800  0.11922100  1
  Cu  Cu11  1  0.63863400  0.09032500  0.31929800  1
  Cu  Cu12  1  0.03817800  0.49044200  0.51908100  1
  Cu  Cu13  1  0.43832800  0.89043100  0.71916300  1
  Cu  Cu14  1  0.83843600  0.29039600  0.91921500  1
  Cu  Cu15  1  0.25195400  0.34805600  0.89999400  1
  Cu  Cu16  1  0.65194400  0.74804600  0.10000600  1
  Cu  Cu17  1  0.05186900  0.14761400  0.30053800  1
  Cu  Cu18  1  0.45190000  0.54810000  0.50000000  1
  Cu  Cu19  1  0.85238600  0.94813100  0.69946200  1
  C  C20  1  0.50001100  0.49998900  0.00000000  1
  C  C21  1  0.90005100  0.89998000  0.20000100  1
  C  C22  1  0.29979000  0.29980500  0.40007500  1
  C  C23  1  0.70019500  0.70021000  0.59992500  1
  C  C24  1  0.10002000  0.09994900  0.79999900  1
  C  C25  1  0.85078100  0.75190600  0.40046200  1
  C  C26  1  0.24809400  0.14921900  0.59953800  1
  C  C27  1  0.65000900  0.54996600  0.79998000  1
  C  C28  1  0.05004100  0.94995900  0.00000000  1
  C  C29  1  0.45003400  0.34999100  0.20002000  1
  C  C30  1  0.38996700  0.94000800  0.22003900  1
  C  C31  1  0.79084100  0.33766900  0.42044900  1
  C  C32  1  0.18934500  0.74139800  0.61912300  1
  C  C33  1  0.59005100  0.13999500  0.81995800  1
  C  C34  1  0.98999200  0.54001400  0.02002100  1
  C  C35  1  0.66233100  0.20915900  0.57955100  1
  C  C36  1  0.05999200  0.61003200  0.77996100  1
  C  C37  1  0.45998600  0.01000800  0.97997900  1
  C  C38  1  0.86000500  0.40994900  0.18004200  1
  C  C39  1  0.25860200  0.81065500  0.38087700  1
  C  C40  1  0.64033000  0.35967000  0.00000000  1
  C  C41  1  0.04027200  0.75958000  0.20001900  1
  C  C42  1  0.44032700  0.15971300  0.40016100  1
  C  C43  1  0.84028700  0.55967300  0.59983900  1
  C  C44  1  0.24042000  0.95972800  0.79998100  1
  C  C45  1  0.47195400  0.61220800  0.05613100  1
  C  C46  1  0.87222500  0.01211000  0.25617500  1
  C  C47  1  0.27166800  0.41241500  0.45607300  1
  C  C48  1  0.67199400  0.81210500  0.65614400  1
  C  C49  1  0.07193600  0.21218100  0.85612000  1
  C  C50  1  0.38779200  0.52804600  0.94386900  1
  C  C51  1  0.78781900  0.92806400  0.14388000  1
  C  C52  1  0.18789500  0.32800600  0.34385600  1
  C  C53  1  0.58758500  0.72833200  0.54392700  1
  C  C54  1  0.98789000  0.12777500  0.74382500  1
  C  C55  1  0.90981300  0.09018700  0.00000000  1
  C  C56  1  0.30977800  0.49023900  0.20003300  1
  C  C57  1  0.70857600  0.89009800  0.39980000  1
  C  C58  1  0.10990200  0.29142400  0.60020000  1
  C  C59  1  0.50976100  0.69022200  0.79996700  1
  C  C60  1  0.41799500  0.82789300  0.16391500  1
  C  C61  1  0.81757500  0.22828700  0.36347300  1
  C  C62  1  0.21864900  0.62632700  0.56402100  1
  C  C63  1  0.61819500  0.02783700  0.76382500  1
  C  C64  1  0.01804400  0.42782800  0.96392800  1
  C  C65  1  0.17210700  0.58200500  0.83608500  1
  C  C66  1  0.57217200  0.98195600  0.03607200  1
  C  C67  1  0.97216300  0.38180500  0.23617500  1
  C  C68  1  0.37367300  0.78135100  0.43597900  1
  C  C69  1  0.77171300  0.18242500  0.63652700  1
  C  C70  1  0.08287500  0.85044400  0.94053400  1
  C  C71  1  0.48282200  0.25047100  0.14053400  1
  C  C72  1  0.88373200  0.65045200  0.34141400  1
  C  C73  1  0.27652900  0.04948300  0.53968600  1
  C  C74  1  0.68275200  0.45051100  0.74051600  1
  C  C75  1  0.71279500  0.11726800  0.87170200  1
  C  C76  1  0.11282200  0.51728000  0.07171200  1
  C  C77  1  0.51286100  0.91724900  0.27168700  1
  C  C78  1  0.91468600  0.31019300  0.47225800  1
  C  C79  1  0.31071000  0.71858400  0.67153300  1
  C  C80  1  0.73138900  0.55931400  0.17879700  1
  C  C81  1  0.12852000  0.95986100  0.38162200  1
  C  C82  1  0.53204800  0.35734800  0.57821800  1
  C  C83  1  0.93146000  0.75948500  0.77858400  1
  C  C84  1  0.33134700  0.15929200  0.97874200  1
  C  C85  1  0.44068600  0.26861100  0.82120300  1
  C  C86  1  0.84070800  0.66865300  0.02125800  1
  C  C87  1  0.24051500  0.06854000  0.22141600  1
  C  C88  1  0.64265200  0.46795200  0.42178200  1
  C  C89  1  0.04013900  0.87148000  0.61837800  1
  C  C90  1  0.14955600  0.91712500  0.05946600  1
  C  C91  1  0.54948900  0.31724800  0.25948400  1
  C  C92  1  0.95051700  0.72347100  0.46031400  1
  C  C93  1  0.34954800  0.11626800  0.65858600  1
  C  C94  1  0.74952900  0.51717800  0.85946600  1
  C  C95  1  0.88273200  0.28720500  0.12829800  1
  C  C96  1  0.28141600  0.68929000  0.32846700  1
  C  C97  1  0.68980700  0.08531400  0.52774200  1
  C  C98  1  0.08275100  0.48713900  0.72831300  1
  C  C99  1  0.48272000  0.88717800  0.92828800  1
