# generated using pymatgen
data_Cu2Ni4C11
_symmetry_space_group_name_H-M   'P 1'
_cell_length_a   6.46877700
_cell_length_b   8.48613848
_cell_length_c   16.05381543
_cell_angle_alpha   100.53587948
_cell_angle_beta   90.00000000
_cell_angle_gamma   90.00000000
_symmetry_Int_Tables_number   1
_chemical_formula_structural   Cu2Ni4C11
_chemical_formula_sum   'Cu8 Ni16 C44'
_cell_volume   866.41545294
_cell_formula_units_Z   4
loop_
 _symmetry_equiv_pos_site_id
 _symmetry_equiv_pos_as_xyz
  1  'x, y, z'
loop_
 _atom_site_type_symbol
 _atom_site_label
 _atom_site_symmetry_multiplicity
 _atom_site_fract_x
 _atom_site_fract_y
 _atom_site_fract_z
 _atom_site_occupancy
  C  C0  1  0.00110600  0.98348300  0.32685000  1
  C  C1  1  0.50110600  0.51651700  0.17315000  1
  C  C2  1  0.99889400  0.01651700  0.67315000  1
  C  C3  1  0.49889400  0.48348300  0.82685000  1
  Ni  Ni4  1  0.00000000  0.00000000  0.00000000  1
  Ni  Ni5  1  0.50000000  0.50000000  0.50000000  1
  Ni  Ni6  1  0.50000000  0.00000000  0.00000000  1
  Ni  Ni7  1  0.00000000  0.50000000  0.50000000  1
  Ni  Ni8  1  0.76012000  0.44056900  0.33564200  1
  Ni  Ni9  1  0.26012000  0.05943100  0.16435800  1
  Ni  Ni10  1  0.23988000  0.55943100  0.66435800  1
  Ni  Ni11  1  0.73988000  0.94056900  0.83564200  1
  Ni  Ni12  1  0.74865500  0.77313200  0.44484200  1
  Ni  Ni13  1  0.24865500  0.72686800  0.05515800  1
  Ni  Ni14  1  0.25134500  0.22686800  0.55515800  1
  Ni  Ni15  1  0.75134500  0.27313200  0.94484200  1
  Ni  Ni16  1  0.99676500  0.45886500  0.15294300  1
  Ni  Ni17  1  0.49676500  0.04113500  0.34705700  1
  Ni  Ni18  1  0.00323500  0.54113500  0.84705700  1
  Ni  Ni19  1  0.50323500  0.95886500  0.65294300  1
  Cu  Cu20  1  0.24656100  0.34676700  0.30883400  1
  Cu  Cu21  1  0.74656100  0.15323300  0.19116600  1
  Cu  Cu22  1  0.75343900  0.65323300  0.69116600  1
  Cu  Cu23  1  0.25343900  0.84676700  0.80883400  1
  Cu  Cu24  1  0.26488900  0.86542500  0.48384400  1
  Cu  Cu25  1  0.76488900  0.63457500  0.01615600  1
  Cu  Cu26  1  0.73511100  0.13457500  0.51615600  1
  Cu  Cu27  1  0.23511100  0.36542500  0.98384400  1
  C  C28  1  0.28010700  0.79708700  0.20989600  1
  C  C29  1  0.78010700  0.70291300  0.29010400  1
  C  C30  1  0.71989300  0.20291300  0.79010400  1
  C  C31  1  0.21989300  0.29708700  0.70989600  1
  C  C32  1  0.05604100  0.38704400  0.36731200  1
  C  C33  1  0.55604100  0.11295600  0.13268800  1
  C  C34  1  0.94395900  0.61295600  0.63268800  1
  C  C35  1  0.44395900  0.88704400  0.86731200  1
  C  C36  1  0.44302800  0.41966800  0.35418500  1
  C  C37  1  0.94302800  0.08033200  0.14581500  1
  C  C38  1  0.55697200  0.58033200  0.64581500  1
  C  C39  1  0.05697200  0.91966800  0.85418500  1
  C  C40  1  0.75014700  0.54794700  0.45327100  1
  C  C41  1  0.25014700  0.95205300  0.04672900  1
  C  C42  1  0.24985300  0.45205300  0.54672900  1
  C  C43  1  0.74985300  0.04794700  0.95327100  1
  C  C44  1  0.77223000  0.34372900  0.21268000  1
  C  C45  1  0.27223000  0.15627100  0.28732000  1
  C  C46  1  0.22777000  0.65627100  0.78732000  1
  C  C47  1  0.72777000  0.84372900  0.71268000  1
  C  C48  1  0.21827500  0.39907600  0.22230800  1
  C  C49  1  0.71827500  0.10092400  0.27769200  1
  C  C50  1  0.78172500  0.60092400  0.77769200  1
  C  C51  1  0.28172500  0.89907600  0.72230800  1
  C  C52  1  0.44863200  0.74882900  0.48826800  1
  C  C53  1  0.94863200  0.75117100  0.01173200  1
  C  C54  1  0.55136800  0.25117100  0.51173200  1
  C  C55  1  0.05136800  0.24882900  0.98826800  1
  C  C56  1  0.05812900  0.77756600  0.48321600  1
  C  C57  1  0.55812900  0.72243400  0.01678400  1
  C  C58  1  0.94187100  0.22243400  0.51678400  1
  C  C59  1  0.44187100  0.27756600  0.98321600  1
  C  C60  1  0.21978900  0.49988600  0.06789600  1
  C  C61  1  0.71978900  0.00011400  0.43210400  1
  C  C62  1  0.78021100  0.50011400  0.93210400  1
  C  C63  1  0.28021100  0.99988600  0.56789600  1
  C  C64  1  0.27989600  0.95469400  0.40848600  1
  C  C65  1  0.77989600  0.54530600  0.09151400  1
  C  C66  1  0.72010400  0.04530600  0.59151400  1
  C  C67  1  0.22010400  0.45469400  0.90848600  1
