# generated using pymatgen
data_CuNi2C5
_symmetry_space_group_name_H-M   'P 1'
_cell_length_a   7.92654200
_cell_length_b   8.93420500
_cell_length_c   12.12185100
_cell_angle_alpha   90.00000000
_cell_angle_beta   90.00000000
_cell_angle_gamma   90.00000000
_symmetry_Int_Tables_number   1
_chemical_formula_structural   CuNi2C5
_chemical_formula_sum   'Cu4 Ni8 C20'
_cell_volume   858.43737909
_cell_formula_units_Z   4
loop_
 _symmetry_equiv_pos_site_id
 _symmetry_equiv_pos_as_xyz
  1  'x, y, z'
loop_
 _atom_site_type_symbol
 _atom_site_label
 _atom_site_symmetry_multiplicity
 _atom_site_fract_x
 _atom_site_fract_y
 _atom_site_fract_z
 _atom_site_occupancy
  C  C0  1  0.16816400  0.75000000  0.21447100  1
  C  C1  1  0.33183600  0.75000000  0.71447100  1
  C  C2  1  0.83183600  0.25000000  0.78552900  1
  C  C3  1  0.66816400  0.25000000  0.28552900  1
  C  C4  1  0.46108300  0.75000000  0.00089900  1
  C  C5  1  0.03891700  0.75000000  0.50089900  1
  C  C6  1  0.53891700  0.25000000  0.99910100  1
  C  C7  1  0.96108300  0.25000000  0.49910100  1
  C  C8  1  0.63782700  0.75000000  0.29789900  1
  C  C9  1  0.86217300  0.75000000  0.79789900  1
  C  C10  1  0.36217300  0.25000000  0.70210100  1
  C  C11  1  0.13782700  0.25000000  0.20210100  1
  C  C12  1  0.81818600  0.54859700  0.06705300  1
  C  C13  1  0.68181400  0.95140300  0.56705300  1
  C  C14  1  0.18181400  0.04859700  0.93294700  1
  C  C15  1  0.31818600  0.45140300  0.43294700  1
  C  C16  1  0.18181400  0.45140300  0.93294700  1
  C  C17  1  0.31818600  0.04859700  0.43294700  1
  C  C18  1  0.81818600  0.95140300  0.06705300  1
  C  C19  1  0.68181400  0.54859700  0.56705300  1
  Ni  Ni20  1  0.93450200  0.50800000  0.32653900  1
  Ni  Ni21  1  0.56549800  0.99200000  0.82653900  1
  Ni  Ni22  1  0.06549800  0.00800000  0.67346100  1
  Ni  Ni23  1  0.43450200  0.49200000  0.17346100  1
  Ni  Ni24  1  0.06549800  0.49200000  0.67346100  1
  Ni  Ni25  1  0.43450200  0.00800000  0.17346100  1
  Ni  Ni26  1  0.93450200  0.99200000  0.32653900  1
  Ni  Ni27  1  0.56549800  0.50800000  0.82653900  1
  Cu  Cu28  1  0.41494100  0.75000000  0.48367000  1
  Cu  Cu29  1  0.08505900  0.75000000  0.98367000  1
  Cu  Cu30  1  0.58505900  0.25000000  0.51633000  1
  Cu  Cu31  1  0.91494100  0.25000000  0.01633000  1
