# generated using pymatgen
data_Cu6Ni2C27
_symmetry_space_group_name_H-M   'P 1'
_cell_length_a   10.41009419
_cell_length_b   10.41009419
_cell_length_c   10.41009381
_cell_angle_alpha   102.56561966
_cell_angle_beta   102.56561966
_cell_angle_gamma   102.56562194
_symmetry_Int_Tables_number   1
_chemical_formula_structural   Cu6Ni2C27
_chemical_formula_sum   'Cu12 Ni4 C54'
_cell_volume   1032.36533930
_cell_formula_units_Z   2
loop_
 _symmetry_equiv_pos_site_id
 _symmetry_equiv_pos_as_xyz
  1  'x, y, z'
loop_
 _atom_site_type_symbol
 _atom_site_label
 _atom_site_symmetry_multiplicity
 _atom_site_fract_x
 _atom_site_fract_y
 _atom_site_fract_z
 _atom_site_occupancy
  C  C0  1  0.17033800  0.92615300  0.65862600  1
  C  C1  1  0.65862600  0.17033800  0.92615300  1
  C  C2  1  0.92615300  0.65862600  0.17033800  1
  C  C3  1  0.82966200  0.07384700  0.34137400  1
  C  C4  1  0.34137400  0.82966200  0.07384700  1
  C  C5  1  0.07384700  0.34137400  0.82966200  1
  Ni  Ni6  1  0.50000000  0.00000000  0.50000000  1
  Ni  Ni7  1  0.50000000  0.50000000  0.00000000  1
  Ni  Ni8  1  0.00000000  0.50000000  0.50000000  1
  Ni  Ni9  1  0.00000000  0.00000000  0.00000000  1
  Cu  Cu10  1  0.24670100  0.69575400  0.38888300  1
  Cu  Cu11  1  0.38888300  0.24670100  0.69575400  1
  Cu  Cu12  1  0.69575400  0.38888300  0.24670100  1
  Cu  Cu13  1  0.75329900  0.30424600  0.61111700  1
  Cu  Cu14  1  0.61111700  0.75329900  0.30424600  1
  Cu  Cu15  1  0.30424600  0.61111700  0.75329900  1
  Cu  Cu16  1  0.97267900  0.68516800  0.80493800  1
  Cu  Cu17  1  0.80493800  0.97267900  0.68516800  1
  Cu  Cu18  1  0.68516800  0.80493800  0.97267900  1
  Cu  Cu19  1  0.02732100  0.31483200  0.19506200  1
  Cu  Cu20  1  0.19506200  0.02732100  0.31483200  1
  Cu  Cu21  1  0.31483200  0.19506200  0.02732100  1
  C  C22  1  0.30247100  0.58380700  0.39300300  1
  C  C23  1  0.39300300  0.30247100  0.58380700  1
  C  C24  1  0.58380700  0.39300300  0.30247100  1
  C  C25  1  0.69752900  0.41619300  0.60699700  1
  C  C26  1  0.60699700  0.69752900  0.41619300  1
  C  C27  1  0.41619300  0.60699700  0.69752900  1
  C  C28  1  0.83401300  0.66310800  0.80569000  1
  C  C29  1  0.80569000  0.83401300  0.66310800  1
  C  C30  1  0.66310800  0.80569000  0.83401300  1
  C  C31  1  0.16598700  0.33689200  0.19431000  1
  C  C32  1  0.19431000  0.16598700  0.33689200  1
  C  C33  1  0.33689200  0.19431000  0.16598700  1
  C  C34  1  0.21542100  0.70761900  0.24302800  1
  C  C35  1  0.24302800  0.21542100  0.70761900  1
  C  C36  1  0.70761900  0.24302800  0.21542100  1
  C  C37  1  0.78457900  0.29238100  0.75697200  1
  C  C38  1  0.75697200  0.78457900  0.29238100  1
  C  C39  1  0.29238100  0.75697200  0.78457900  1
  C  C40  1  0.34956900  0.82022400  0.50160800  1
  C  C41  1  0.50160800  0.34956900  0.82022400  1
  C  C42  1  0.82022400  0.50160800  0.34956900  1
  C  C43  1  0.65043100  0.17977600  0.49839200  1
  C  C44  1  0.49839200  0.65043100  0.17977600  1
  C  C45  1  0.17977600  0.49839200  0.65043100  1
  C  C46  1  0.11110300  0.66556700  0.43297700  1
  C  C47  1  0.43297700  0.11110300  0.66556700  1
  C  C48  1  0.66556700  0.43297700  0.11110300  1
  C  C49  1  0.88889700  0.33443300  0.56702300  1
  C  C50  1  0.56702300  0.88889700  0.33443300  1
  C  C51  1  0.33443300  0.56702300  0.88889700  1
  C  C52  1  0.96877600  0.65254800  0.65212400  1
  C  C53  1  0.65212400  0.96877600  0.65254800  1
  C  C54  1  0.65254800  0.65212400  0.96877600  1
  C  C55  1  0.03122400  0.34745200  0.34787600  1
  C  C56  1  0.34787600  0.03122400  0.34745200  1
  C  C57  1  0.34745200  0.34787600  0.03122400  1
  C  C58  1  0.04512200  0.84193300  0.86247800  1
  C  C59  1  0.86247800  0.04512200  0.84193300  1
  C  C60  1  0.84193300  0.86247800  0.04512200  1
  C  C61  1  0.95487800  0.15806700  0.13752200  1
  C  C62  1  0.13752200  0.95487800  0.15806700  1
  C  C63  1  0.15806700  0.13752200  0.95487800  1
  C  C64  1  0.03446700  0.60371200  0.89440800  1
  C  C65  1  0.89440800  0.03446700  0.60371200  1
  C  C66  1  0.60371200  0.89440800  0.03446700  1
  C  C67  1  0.96553300  0.39628800  0.10559200  1
  C  C68  1  0.10559200  0.96553300  0.39628800  1
  C  C69  1  0.39628800  0.10559200  0.96553300  1
