# generated using pymatgen
data_Cu(NiC2)4
_symmetry_space_group_name_H-M   'P 1'
_cell_length_a   10.08026417
_cell_length_b   10.08026417
_cell_length_c   6.12628242
_cell_angle_alpha   74.06123934
_cell_angle_beta   74.06123934
_cell_angle_gamma   86.68149931
_symmetry_Int_Tables_number   1
_chemical_formula_structural   Cu(NiC2)4
_chemical_formula_sum   'Cu2 Ni8 C16'
_cell_volume   575.45552557
_cell_formula_units_Z   2
loop_
 _symmetry_equiv_pos_site_id
 _symmetry_equiv_pos_as_xyz
  1  'x, y, z'
loop_
 _atom_site_type_symbol
 _atom_site_label
 _atom_site_symmetry_multiplicity
 _atom_site_fract_x
 _atom_site_fract_y
 _atom_site_fract_z
 _atom_site_occupancy
  Ni  Ni0  1  0.00316800  0.26552700  0.87754200  1
  Ni  Ni1  1  0.73447300  0.99683200  0.12245800  1
  Ni  Ni2  1  0.37494600  0.62505400  0.50000000  1
  Ni  Ni3  1  0.99683200  0.73447300  0.12245800  1
  Ni  Ni4  1  0.26552700  0.00316800  0.87754200  1
  Ni  Ni5  1  0.62505400  0.37494600  0.50000000  1
  Ni  Ni6  1  0.62858300  0.62858300  0.87802900  1
  Ni  Ni7  1  0.37141700  0.37141700  0.12197100  1
  Cu  Cu8  1  0.00000000  0.00000000  0.00000000  1
  Cu  Cu9  1  0.00000000  0.00000000  0.50000000  1
  C  C10  1  0.84951300  0.84951300  0.88571300  1
  C  C11  1  0.15045600  0.15045600  0.61320300  1
  C  C12  1  0.84954400  0.84954400  0.38679700  1
  C  C13  1  0.14829200  0.85118000  0.74994200  1
  C  C14  1  0.15048700  0.15048700  0.11428700  1
  C  C15  1  0.85170800  0.14882000  0.25005800  1
  C  C16  1  0.85118000  0.14829200  0.74994200  1
  C  C17  1  0.14882000  0.85170800  0.25005800  1
  C  C18  1  0.50116100  0.75004300  0.13149400  1
  C  C19  1  0.50157000  0.75016500  0.63131600  1
  C  C20  1  0.24983500  0.49843000  0.36868400  1
  C  C21  1  0.24995700  0.49883900  0.86850600  1
  C  C22  1  0.75004300  0.50116100  0.13149400  1
  C  C23  1  0.49843000  0.24983500  0.36868400  1
  C  C24  1  0.49883900  0.24995700  0.86850600  1
  C  C25  1  0.75016500  0.50157000  0.63131600  1
