# generated using pymatgen
data_Cu2NiC9
_symmetry_space_group_name_H-M   'P 1'
_cell_length_a   7.58078414
_cell_length_b   7.58078414
_cell_length_c   10.10376819
_cell_angle_alpha   79.26887343
_cell_angle_beta   79.26887343
_cell_angle_gamma   120.20160336
_symmetry_Int_Tables_number   1
_chemical_formula_structural   Cu2NiC9
_chemical_formula_sum   'Cu4 Ni2 C18'
_cell_volume   465.50441861
_cell_formula_units_Z   2
loop_
 _symmetry_equiv_pos_site_id
 _symmetry_equiv_pos_as_xyz
  1  'x, y, z'
loop_
 _atom_site_type_symbol
 _atom_site_label
 _atom_site_symmetry_multiplicity
 _atom_site_fract_x
 _atom_site_fract_y
 _atom_site_fract_z
 _atom_site_occupancy
  C  C0  1  0.38154800  0.47030700  0.13130200  1
  C  C1  1  0.47030700  0.38154800  0.63130200  1
  C  C2  1  0.60069600  0.01920100  0.31193200  1
  C  C3  1  0.01920100  0.60069600  0.81193200  1
  Ni  Ni4  1  0.01375800  0.77836000  0.28903100  1
  Ni  Ni5  1  0.77836000  0.01375800  0.78903100  1
  Cu  Cu6  1  0.38646600  0.98534400  0.99816500  1
  Cu  Cu7  1  0.98534400  0.38646600  0.49816500  1
  Cu  Cu8  1  0.02428300  0.03613700  0.99325600  1
  Cu  Cu9  1  0.03613700  0.02428300  0.49325600  1
  C  C10  1  0.27220200  0.11401900  0.42282600  1
  C  C11  1  0.11401900  0.27220200  0.92282600  1
  C  C12  1  0.99095300  0.20834400  0.42836000  1
  C  C13  1  0.20834400  0.99095300  0.92836000  1
  C  C14  1  0.54613000  0.20773700  0.00113600  1
  C  C15  1  0.20773700  0.54613000  0.50113600  1
  C  C16  1  0.97759400  0.97321500  0.15643200  1
  C  C17  1  0.97321500  0.97759400  0.65643200  1
  C  C18  1  0.82655100  0.87958800  0.95524500  1
  C  C19  1  0.87958800  0.82655100  0.45524500  1
  C  C20  1  0.47913900  0.89766700  0.89969700  1
  C  C21  1  0.89766700  0.47913900  0.39969700  1
  C  C22  1  0.24917000  0.80837100  0.14756700  1
  C  C23  1  0.80837100  0.24917000  0.64756700  1
