# generated using pymatgen
data_Cu2Ni4C9
_symmetry_space_group_name_H-M   'P 1'
_cell_length_a   5.19174100
_cell_length_b   7.36002984
_cell_length_c   7.36002984
_cell_angle_alpha   69.61005150
_cell_angle_beta   69.34755582
_cell_angle_gamma   69.34755582
_symmetry_Int_Tables_number   1
_chemical_formula_structural   Cu2Ni4C9
_chemical_formula_sum   'Cu2 Ni4 C9'
_cell_volume   238.05679554
_cell_formula_units_Z   1
loop_
 _symmetry_equiv_pos_site_id
 _symmetry_equiv_pos_as_xyz
  1  'x, y, z'
loop_
 _atom_site_type_symbol
 _atom_site_label
 _atom_site_symmetry_multiplicity
 _atom_site_fract_x
 _atom_site_fract_y
 _atom_site_fract_z
 _atom_site_occupancy
  Ni  Ni0  1  0.83531400  0.36569900  0.95339000  1
  Ni  Ni1  1  0.15440300  0.63430100  0.04661000  1
  Ni  Ni2  1  0.83531400  0.95339000  0.36569900  1
  Ni  Ni3  1  0.15440300  0.04661000  0.63430100  1
  Cu  Cu4  1  0.33834500  0.14553900  0.14553900  1
  Cu  Cu5  1  0.62942300  0.85446100  0.85446100  1
  C  C6  1  0.15044100  0.36684000  0.04353800  1
  C  C7  1  0.56082000  0.63316000  0.95646200  1
  C  C8  1  0.15044100  0.04353800  0.36684000  1
  C  C9  1  0.56082000  0.95646200  0.63316000  1
  C  C10  1  0.63087500  0.16564300  0.16564300  1
  C  C11  1  0.96216000  0.83435700  0.83435700  1
  C  C12  1  0.94615000  0.29941000  0.70059000  1
  C  C13  1  0.94615000  0.70059000  0.29941000  1
  C  C14  1  0.40044100  0.00000000  0.00000000  1
