# generated using pymatgen
data_CuNi17C12
_symmetry_space_group_name_H-M   'P 1'
_cell_length_a   3.43781323
_cell_length_b   9.41592705
_cell_length_c   55.82141816
_cell_angle_alpha   89.84057532
_cell_angle_beta   90.00000000
_cell_angle_gamma   90.00000000
_symmetry_Int_Tables_number   1
_chemical_formula_structural   CuNi17C12
_chemical_formula_sum   'Cu4 Ni68 C48'
_cell_volume   1806.94339544
_cell_formula_units_Z   4
loop_
 _symmetry_equiv_pos_site_id
 _symmetry_equiv_pos_as_xyz
  1  'x, y, z'
loop_
 _atom_site_type_symbol
 _atom_site_label
 _atom_site_symmetry_multiplicity
 _atom_site_fract_x
 _atom_site_fract_y
 _atom_site_fract_z
 _atom_site_occupancy
  Ni  Ni0  1  0.50000000  0.85542768  0.02926267  1
  Ni  Ni1  1  0.50000000  0.85315249  0.36331532  1
  Ni  Ni2  1  0.50000000  0.85312768  0.69663754  1
  Ni  Ni3  1  0.50000000  0.14687232  0.30336246  1
  Ni  Ni4  1  0.50000000  0.14684751  0.63668468  1
  Ni  Ni5  1  0.50000000  0.14457232  0.97073733  1
  Ni  Ni6  1  0.50000000  0.64427017  0.19590853  1
  Ni  Ni7  1  0.50000000  0.64431013  0.52924658  1
  Ni  Ni8  1  0.50000000  0.64489213  0.86264173  1
  Ni  Ni9  1  0.50000000  0.35510787  0.13735827  1
  Ni  Ni10  1  0.50000000  0.35568987  0.47075342  1
  Ni  Ni11  1  0.50000000  0.35572983  0.80409147  1
  Ni  Ni12  1  0.00000000  0.60249300  0.04801500  1
  Ni  Ni13  1  -0.00000000  0.60230751  0.38152158  1
  Ni  Ni14  1  -0.00000000  0.60228928  0.71485546  1
  Ni  Ni15  1  0.00000000  0.39771072  0.28514454  1
  Ni  Ni16  1  0.00000000  0.39769249  0.61847842  1
  Ni  Ni17  1  0.00000000  0.39750700  0.95198500  1
  Ni  Ni18  1  0.00000000  0.89727440  0.21459691  1
  Ni  Ni19  1  -0.00000000  0.89702488  0.54796233  1
  Ni  Ni20  1  0.00000000  0.89734464  0.88129256  1
  Ni  Ni21  1  -0.00000000  0.10265536  0.11870744  1
  Ni  Ni22  1  -0.00000000  0.10297512  0.45203767  1
  Ni  Ni23  1  -0.00000000  0.10272560  0.78540309  1
  Ni  Ni24  1  -0.00000000  0.72716132  0.26702010  1
  Ni  Ni25  1  -0.00000000  0.72712166  0.60036024  1
  Ni  Ni26  1  0.00000000  0.72955446  0.93413813  1
  Ni  Ni27  1  0.00000000  0.27044554  0.06586187  1
  Ni  Ni28  1  -0.00000000  0.27287834  0.39963976  1
  Ni  Ni29  1  -0.00000000  0.27283868  0.73297990  1
  Ni  Ni30  1  0.00000000  0.77100925  0.10076158  1
  Ni  Ni31  1  0.00000000  0.77065962  0.43424033  1
  Ni  Ni32  1  0.00000000  0.77064426  0.76758687  1
  Ni  Ni33  1  -0.00000000  0.22935574  0.23241313  1
  Ni  Ni34  1  -0.00000000  0.22934038  0.56575967  1
  Ni  Ni35  1  0.00000000  0.22899075  0.89923842  1
  Ni  Ni36  1  0.50000000  0.99965972  0.16670674  1
  Ni  Ni37  1  0.50000000  -0.00000000  0.50000000  1
  Ni  Ni38  1  0.50000000  0.00034028  0.83329326  1
  Ni  Ni39  1  0.50000000  0.50000000  -0.00000000  1
  Ni  Ni40  1  0.50000000  0.49993830  0.33332894  1
  Ni  Ni41  1  0.50000000  0.50006170  0.66667106  1
  Ni  Ni42  1  0.50000000  0.00907719  0.07646590  1
  Ni  Ni43  1  0.50000000  0.00945705  0.41044870  1
  Ni  Ni44  1  0.50000000  0.00943104  0.74377482  1
  Ni  Ni45  1  0.50000000  0.99056896  0.25622518  1
  Ni  Ni46  1  0.50000000  0.99054295  0.58955130  1
  Ni  Ni47  1  0.50000000  0.99092281  0.92353410  1
  Ni  Ni48  1  0.50000000  0.49061332  0.24306675  1
  Ni  Ni49  1  0.50000000  0.49056118  0.57641074  1
  Ni  Ni50  1  0.50000000  0.49120215  0.90980134  1
  Ni  Ni51  1  0.50000000  0.50879785  0.09019866  1
  Ni  Ni52  1  0.50000000  0.50943882  0.42358926  1
  Ni  Ni53  1  0.50000000  0.50938668  0.75693325  1
  Ni  Ni54  1  -0.00000000  0.99991850  0.33333330  1
  Ni  Ni55  1  -0.00000000  0.00008150  0.66666670  1
  Ni  Ni56  1  0.50000000  0.80931962  0.30920202  1
  Ni  Ni57  1  0.50000000  0.80931875  0.64254831  1
  Ni  Ni58  1  0.50000000  0.81170532  0.97717044  1
  Ni  Ni59  1  0.50000000  0.18829468  0.02282956  1
  Ni  Ni60  1  0.50000000  0.19068125  0.35745169  1
  Ni  Ni61  1  0.50000000  0.19068038  0.69079798  1
  Ni  Ni62  1  0.50000000  0.68813562  0.14387132  1
  Ni  Ni63  1  0.50000000  0.68834850  0.47727522  1
  Ni  Ni64  1  0.50000000  0.68796510  0.81059728  1
  Ni  Ni65  1  0.50000000  0.31203490  0.18940272  1
  Ni  Ni66  1  0.50000000  0.31165150  0.52272478  1
  Ni  Ni67  1  0.50000000  0.31186438  0.85612868  1
  Cu  Cu68  1  -0.00000000  0.49999159  0.16663390  1
  Cu  Cu69  1  -0.00000000  0.50000000  0.50000000  1
  Cu  Cu70  1  0.00000000  0.50000841  0.83336610  1
  Cu  Cu71  1  0.00000000  -0.00000000  -0.00000000  1
  C  C72  1  0.50000000  0.74764513  0.06894164  1
  C  C73  1  0.50000000  0.74697422  0.40263309  1
  C  C74  1  0.50000000  0.74695857  0.73596837  1
  C  C75  1  0.50000000  0.25304143  0.26403163  1
  C  C76  1  0.50000000  0.25302578  0.59736691  1
  C  C77  1  0.50000000  0.25235487  0.93105836  1
  C  C78  1  0.50000000  0.75163227  0.23543083  1
  C  C79  1  0.50000000  0.75151088  0.56878044  1
  C  C80  1  0.50000000  0.75224301  0.90229974  1
  C  C81  1  0.50000000  0.24775699  0.09770026  1
  C  C82  1  0.50000000  0.24848912  0.43121956  1
  C  C83  1  0.50000000  0.24836773  0.76456917  1
  C  C84  1  0.00000000  0.70705208  0.00649242  1
  C  C85  1  -0.00000000  0.71225576  0.33990496  1
  C  C86  1  -0.00000000  0.71226227  0.67324680  1
  C  C87  1  0.00000000  0.28773773  0.32675320  1
  C  C88  1  0.00000000  0.28774424  0.66009504  1
  C  C89  1  -0.00000000  0.29294792  0.99350758  1
  C  C90  1  -0.00000000  0.79303608  0.17314037  1
  C  C91  1  0.00000000  0.79278654  0.50653497  1
  C  C92  1  0.00000000  0.79291195  0.83980441  1
  C  C93  1  -0.00000000  0.20708805  0.16019559  1
  C  C94  1  0.00000000  0.20721346  0.49346503  1
  C  C95  1  -0.00000000  0.20696392  0.82685963  1
  C  C96  1  0.50000000  0.58225461  0.28895460  1
  C  C97  1  0.50000000  0.58230189  0.62227586  1
  C  C98  1  0.50000000  0.58408638  0.95598626  1
  C  C99  1  0.50000000  0.41591362  0.04401374  1
  C  C100  1  0.50000000  0.41769811  0.37772414  1
  C  C101  1  0.50000000  0.41774539  0.71104540  1
  C  C102  1  0.50000000  0.91594236  0.12260650  1
  C  C103  1  0.50000000  0.91590925  0.45604296  1
  C  C104  1  0.50000000  0.91577057  0.78940127  1
  C  C105  1  0.50000000  0.08422943  0.21059873  1
  C  C106  1  0.50000000  0.08409075  0.54395704  1
  C  C107  1  0.50000000  0.08405764  0.87739350  1
  C  C108  1  -0.00000000  0.96109855  0.28857609  1
  C  C109  1  0.00000000  0.96108747  0.62192231  1
  C  C110  1  -0.00000000  0.96071427  0.95605549  1
  C  C111  1  -0.00000000  0.03928573  0.04394451  1
  C  C112  1  -0.00000000  0.03891253  0.37807769  1
  C  C113  1  0.00000000  0.03890145  0.71142391  1
  C  C114  1  0.00000000  0.53947388  0.12278481  1
  C  C115  1  -0.00000000  0.53925504  0.45613354  1
  C  C116  1  -0.00000000  0.53919993  0.78944088  1
  C  C117  1  0.00000000  0.46080007  0.21055912  1
  C  C118  1  0.00000000  0.46074496  0.54386646  1
  C  C119  1  0.00000000  0.46052612  0.87721519  1
