# generated using pymatgen
data_Cu4Ni2C23
_symmetry_space_group_name_H-M   'P 1'
_cell_length_a   7.38081243
_cell_length_b   7.38081243
_cell_length_c   7.38081243
_cell_angle_alpha   90.24073139
_cell_angle_beta   59.86362734
_cell_angle_gamma   120.14179445
_symmetry_Int_Tables_number   1
_chemical_formula_structural   Cu4Ni2C23
_chemical_formula_sum   'Cu4 Ni2 C23'
_cell_volume   283.71310551
_cell_formula_units_Z   1
loop_
 _symmetry_equiv_pos_site_id
 _symmetry_equiv_pos_as_xyz
  1  'x, y, z'
loop_
 _atom_site_type_symbol
 _atom_site_label
 _atom_site_symmetry_multiplicity
 _atom_site_fract_x
 _atom_site_fract_y
 _atom_site_fract_z
 _atom_site_occupancy
  C  C0  1  0.00252100  0.00646000  0.65636700  1
  C  C1  1  0.33717300  0.34111200  0.65636700  1
  C  C2  1  0.34781600  0.00000000  0.65218400  1
  C  C3  1  0.00188900  0.33694400  0.99877400  1
  C  C4  1  0.66428300  0.99933800  0.99877400  1
  C  C5  1  0.66637800  0.00000000  0.33362200  1
  C  C6  1  0.00252100  0.65888800  0.00393900  1
  C  C7  1  0.66428300  0.66305600  0.33505500  1
  C  C8  1  0.65367600  0.65930500  0.00562900  1
  C  C9  1  0.00188900  0.00066200  0.33505500  1
  C  C10  1  0.33717300  0.99354000  0.00393900  1
  C  C11  1  0.33506500  0.34069500  0.00562900  1
  C  C12  1  0.76146500  0.37934900  0.85918600  1
  C  C13  1  0.23495200  0.38281500  0.38223300  1
  C  C14  1  0.23794700  0.85526300  0.38011000  1
  C  C15  1  0.76462700  0.38194300  0.38011000  1
  C  C16  1  0.23495200  0.61718500  0.14786300  1
  C  C17  1  0.76146500  0.62065100  0.61788400  1
  C  C18  1  0.76462700  0.14473700  0.61731600  1
  C  C19  1  0.23794700  0.61805700  0.61731600  1
  C  C20  1  0.01427000  0.00000000  0.98573000  1
  C  C21  1  0.49642500  0.25001900  0.25355700  1
  C  C22  1  0.49642500  0.74998100  0.75359400  1
  Ni  Ni23  1  0.54304800  0.27274500  0.72969600  1
  Ni  Ni24  1  0.99755900  0.72725500  0.72969600  1
  Cu  Cu25  1  0.99767200  0.27730700  0.72502100  1
  Cu  Cu26  1  0.44657500  0.72443500  0.27786000  1
  Cu  Cu27  1  0.99770600  0.27556500  0.27786000  1
  Cu  Cu28  1  0.99767200  0.72269300  0.27963400  1
