# generated using pymatgen
data_Cu6Ni2C13
_symmetry_space_group_name_H-M   'P 1'
_cell_length_a   2.83089700
_cell_length_b   8.83321030
_cell_length_c   8.83322423
_cell_angle_alpha   120.00021921
_cell_angle_beta   90.00000000
_cell_angle_gamma   90.00000000
_symmetry_Int_Tables_number   1
_chemical_formula_structural   Cu6Ni2C13
_chemical_formula_sum   'Cu6 Ni2 C13'
_cell_volume   191.28969121
_cell_formula_units_Z   1
loop_
 _symmetry_equiv_pos_site_id
 _symmetry_equiv_pos_as_xyz
  1  'x, y, z'
loop_
 _atom_site_type_symbol
 _atom_site_label
 _atom_site_symmetry_multiplicity
 _atom_site_fract_x
 _atom_site_fract_y
 _atom_site_fract_z
 _atom_site_occupancy
  C  C0  1  0.75000000  0.99999900  0.99999900  1
  Ni  Ni1  1  0.75000000  0.33333700  0.66667000  1
  Ni  Ni2  1  0.25000000  0.66666200  0.33332900  1
  Cu  Cu3  1  0.75000000  0.64341200  0.65603900  1
  Cu  Cu4  1  0.75000000  0.34396000  0.98737300  1
  Cu  Cu5  1  0.75000000  0.01262600  0.35658600  1
  Cu  Cu6  1  0.25000000  0.35440900  0.34528000  1
  Cu  Cu7  1  0.25000000  0.65472100  0.00912700  1
  Cu  Cu8  1  0.25000000  0.99087200  0.64559400  1
  C  C9  1  0.75000000  0.10884600  0.79932200  1
  C  C10  1  0.75000000  0.20067300  0.30952300  1
  C  C11  1  0.75000000  0.69047600  0.89115300  1
  C  C12  1  0.25000000  0.89843100  0.18994100  1
  C  C13  1  0.25000000  0.81006500  0.70849500  1
  C  C14  1  0.25000000  0.29151000  0.10157000  1
  C  C15  1  0.75000000  0.53324000  0.40156300  1
  C  C16  1  0.75000000  0.59843700  0.13167500  1
  C  C17  1  0.75000000  0.86832400  0.46676000  1
  C  C18  1  0.25000000  0.46875300  0.59835900  1
  C  C19  1  0.25000000  0.40164200  0.87039400  1
  C  C20  1  0.25000000  0.12960600  0.53124800  1
