# generated using pymatgen
data_CuNi2C17
_symmetry_space_group_name_H-M   'P 1'
_cell_length_a   7.49013600
_cell_length_b   10.26967100
_cell_length_c   10.27875203
_cell_angle_alpha   60.21932109
_cell_angle_beta   90.00000000
_cell_angle_gamma   90.00000000
_symmetry_Int_Tables_number   1
_chemical_formula_structural   CuNi2C17
_chemical_formula_sum   'Cu2 Ni4 C34'
_cell_volume   686.23492971
_cell_formula_units_Z   2
loop_
 _symmetry_equiv_pos_site_id
 _symmetry_equiv_pos_as_xyz
  1  'x, y, z'
loop_
 _atom_site_type_symbol
 _atom_site_label
 _atom_site_symmetry_multiplicity
 _atom_site_fract_x
 _atom_site_fract_y
 _atom_site_fract_z
 _atom_site_occupancy
  Ni  Ni0  1  0.50000000  0.37805800  0.60049100  1
  Ni  Ni1  1  0.00000000  0.98025300  0.62389800  1
  Ni  Ni2  1  0.00000000  0.39478900  0.98538000  1
  Ni  Ni3  1  0.00000000  0.62540100  0.39422700  1
  C  C4  1  0.50000000  0.74789900  0.26212800  1
  C  C5  1  0.50000000  0.01581000  0.74161400  1
  C  C6  1  0.50000000  0.28131500  0.96486100  1
  C  C7  1  0.00000000  0.26281800  0.74604500  1
  C  C8  1  0.00000000  0.97296400  0.27319300  1
  C  C9  1  0.00000000  0.76458600  0.96611900  1
  C  C10  1  0.76865800  0.33266300  0.34423900  1
  C  C11  1  0.23809900  0.65057800  0.67728200  1
  C  C12  1  0.76190100  0.65057800  0.67728200  1
  C  C13  1  0.23134200  0.33266300  0.34423900  1
  Cu  Cu14  1  0.50000000  0.01903700  0.37783900  1
  Cu  Cu15  1  0.50000000  0.60079300  0.01930300  1
  C  C16  1  0.66169400  0.07421800  0.28185500  1
  C  C17  1  0.66146000  0.64479200  0.07299600  1
  C  C18  1  0.68490900  0.25374400  0.64739000  1
  C  C19  1  0.18438600  0.91018100  0.75056500  1
  C  C20  1  0.18748000  0.35418700  0.90433400  1
  C  C21  1  0.18538900  0.74997300  0.34153500  1
  C  C22  1  0.81561400  0.91018100  0.75056500  1
  C  C23  1  0.81252000  0.35418700  0.90433400  1
  C  C24  1  0.81461100  0.74997300  0.34153500  1
  C  C25  1  0.33830600  0.07421800  0.28185500  1
  C  C26  1  0.33854000  0.64479200  0.07299600  1
  C  C27  1  0.31509100  0.25374400  0.64739000  1
  C  C28  1  0.50000000  0.08365300  0.48216100  1
  C  C29  1  0.50000000  0.43230400  0.08535400  1
  C  C30  1  0.50000000  0.50138400  0.40370000  1
  C  C31  1  0.00000000  0.88113300  0.52139300  1
  C  C32  1  0.00000000  0.59909100  0.88089600  1
  C  C33  1  0.00000000  0.52115400  0.59742300  1
  C  C34  1  0.50000000  0.85115200  0.46921200  1
  C  C35  1  0.50000000  0.67297500  0.85237100  1
  C  C36  1  0.50000000  0.47805500  0.70212500  1
  C  C37  1  0.00000000  0.17773700  0.50810600  1
  C  C38  1  0.00000000  0.31398200  0.18115400  1
  C  C39  1  0.00000000  0.50298500  0.32061300  1
