# generated using pymatgen
data_Cu3NiC34
_symmetry_space_group_name_H-M   'P 1'
_cell_length_a   8.26368600
_cell_length_b   8.43302200
_cell_length_c   8.43029739
_cell_angle_alpha   59.98930828
_cell_angle_beta   90.00000000
_cell_angle_gamma   90.00000000
_symmetry_Int_Tables_number   1
_chemical_formula_structural   Cu3NiC34
_chemical_formula_sum   'Cu3 Ni1 C34'
_cell_volume   508.72580434
_cell_formula_units_Z   1
loop_
 _symmetry_equiv_pos_site_id
 _symmetry_equiv_pos_as_xyz
  1  'x, y, z'
loop_
 _atom_site_type_symbol
 _atom_site_label
 _atom_site_symmetry_multiplicity
 _atom_site_fract_x
 _atom_site_fract_y
 _atom_site_fract_z
 _atom_site_occupancy
  Ni  Ni0  1  0.25000000  0.66672400  0.66655100  1
  Cu  Cu1  1  0.75000000  0.33330000  0.33340000  1
  Cu  Cu2  1  0.75000000  0.99994200  0.00011700  1
  Cu  Cu3  1  0.25000000  0.99992000  0.00016100  1
  C  C4  1  0.60860800  0.66669000  0.66662000  1
  C  C5  1  0.39243400  0.33332100  0.33335800  1
  C  C6  1  0.10756600  0.33332100  0.33335800  1
  C  C7  1  0.89139200  0.66669000  0.66662000  1
  C  C8  1  0.48872000  0.83490300  0.83487400  1
  C  C9  1  0.48876700  0.83493000  0.33013900  1
  C  C10  1  0.48872000  0.33022300  0.83487400  1
  C  C11  1  0.51282200  0.16599800  0.16599800  1
  C  C12  1  0.51289400  0.16598400  0.66803100  1
  C  C13  1  0.51282200  0.66800400  0.16599800  1
  C  C14  1  0.98717800  0.16599800  0.16599800  1
  C  C15  1  0.98710600  0.16598400  0.66803100  1
  C  C16  1  0.98717800  0.66800400  0.16599800  1
  C  C17  1  0.01128000  0.83490300  0.83487400  1
  C  C18  1  0.01123300  0.83493000  0.33013900  1
  C  C19  1  0.01128000  0.33022300  0.83487400  1
  C  C20  1  0.50087900  0.49933100  0.49930000  1
  C  C21  1  0.50086400  0.49931700  0.00136700  1
  C  C22  1  0.50087900  0.00136900  0.49930000  1
  C  C23  1  0.99912100  0.49933100  0.49930000  1
  C  C24  1  0.99913600  0.49931700  0.00136700  1
  C  C25  1  0.99912100  0.00136900  0.49930000  1
  C  C26  1  0.75000000  0.67037200  0.36339800  1
  C  C27  1  0.75000000  0.36340000  0.96625100  1
  C  C28  1  0.75000000  0.96621200  0.67035900  1
  C  C29  1  0.75000000  0.36342900  0.67035900  1
  C  C30  1  0.75000000  0.96623000  0.36339800  1
  C  C31  1  0.75000000  0.67034900  0.96625100  1
  C  C32  1  0.25000000  0.32854200  0.63542500  1
  C  C33  1  0.25000000  0.63543300  0.03602200  1
  C  C34  1  0.25000000  0.03592200  0.32857100  1
  C  C35  1  0.25000000  0.63550700  0.32857100  1
  C  C36  1  0.25000000  0.03603300  0.63542500  1
  C  C37  1  0.25000000  0.32854500  0.03602200  1
