# generated using pymatgen
data_Cu(NiC4)2
_symmetry_space_group_name_H-M   'P 1'
_cell_length_a   7.46889738
_cell_length_b   7.46889738
_cell_length_c   7.46889738
_cell_angle_alpha   120.50279469
_cell_angle_beta   119.41743244
_cell_angle_gamma   90.07166613
_symmetry_Int_Tables_number   1
_chemical_formula_structural   Cu(NiC4)2
_chemical_formula_sum   'Cu2 Ni4 C16'
_cell_volume   294.75910719
_cell_formula_units_Z   2
loop_
 _symmetry_equiv_pos_site_id
 _symmetry_equiv_pos_as_xyz
  1  'x, y, z'
loop_
 _atom_site_type_symbol
 _atom_site_label
 _atom_site_symmetry_multiplicity
 _atom_site_fract_x
 _atom_site_fract_y
 _atom_site_fract_z
 _atom_site_occupancy
  Ni  Ni0  1  0.50000000  0.50000000  0.50000000  1
  Ni  Ni1  1  0.50000000  0.00000000  0.00000000  1
  Ni  Ni2  1  0.50000000  0.50000000  0.00000000  1
  Ni  Ni3  1  0.00000000  0.50000000  0.50000000  1
  Cu  Cu4  1  0.00000000  0.00000000  0.50000000  1
  Cu  Cu5  1  0.00000000  0.50000000  0.00000000  1
  C  C6  1  0.00000000  0.00000000  0.00000000  1
  C  C7  1  0.50000000  0.00000000  0.50000000  1
  C  C8  1  0.62173300  0.37173300  0.25000000  1
  C  C9  1  0.37826700  0.62826700  0.75000000  1
  C  C10  1  0.34202000  0.07318800  0.66574800  1
  C  C11  1  0.90744000  0.07318800  0.23116800  1
  C  C12  1  0.90273500  0.65273500  0.25000000  1
  C  C13  1  0.90744000  0.67627200  0.83425200  1
  C  C14  1  0.34202000  0.67627200  0.26883200  1
  C  C15  1  0.31651100  0.06651100  0.25000000  1
  C  C16  1  0.65798000  0.92681200  0.33425200  1
  C  C17  1  0.09256000  0.92681200  0.76883200  1
  C  C18  1  0.09726500  0.34726500  0.75000000  1
  C  C19  1  0.09256000  0.32372800  0.16574800  1
  C  C20  1  0.65798000  0.32372800  0.73116800  1
  C  C21  1  0.68348900  0.93348900  0.75000000  1
