# generated using pymatgen
data_Cu2Ni2C9
_symmetry_space_group_name_H-M   'P 1'
_cell_length_a   10.19962400
_cell_length_b   8.96503000
_cell_length_c   9.58739320
_cell_angle_alpha   88.58146770
_cell_angle_beta   90.00000000
_cell_angle_gamma   90.00000000
_symmetry_Int_Tables_number   1
_chemical_formula_structural   Cu2Ni2C9
_chemical_formula_sum   'Cu8 Ni8 C36'
_cell_volume   876.40194364
_cell_formula_units_Z   4
loop_
 _symmetry_equiv_pos_site_id
 _symmetry_equiv_pos_as_xyz
  1  'x, y, z'
loop_
 _atom_site_type_symbol
 _atom_site_label
 _atom_site_symmetry_multiplicity
 _atom_site_fract_x
 _atom_site_fract_y
 _atom_site_fract_z
 _atom_site_occupancy
  C  C0  1  0.91593400  0.25067600  0.60899700  1
  C  C1  1  0.41593400  0.74932400  0.89100300  1
  C  C2  1  0.08406600  0.74932400  0.39100300  1
  C  C3  1  0.58406600  0.25067600  0.10899700  1
  Ni  Ni4  1  0.68565500  0.57954200  0.44172600  1
  Ni  Ni5  1  0.18565500  0.42045800  0.05827400  1
  Ni  Ni6  1  0.31434500  0.42045800  0.55827400  1
  Ni  Ni7  1  0.81434500  0.57954200  0.94172600  1
  Ni  Ni8  1  0.92340100  0.07198600  0.21683600  1
  Ni  Ni9  1  0.42340100  0.92801400  0.28316400  1
  Ni  Ni10  1  0.07659900  0.92801400  0.78316400  1
  Ni  Ni11  1  0.57659900  0.07198600  0.71683600  1
  Cu  Cu12  1  0.41338800  0.55950300  0.25816100  1
  Cu  Cu13  1  0.91338800  0.44049700  0.24183900  1
  Cu  Cu14  1  0.58661200  0.44049700  0.74183900  1
  Cu  Cu15  1  0.08661200  0.55950300  0.75816100  1
  Cu  Cu16  1  0.20119600  0.05256300  0.06820800  1
  Cu  Cu17  1  0.70119600  0.94743700  0.43179200  1
  Cu  Cu18  1  0.79880400  0.94743700  0.93179200  1
  Cu  Cu19  1  0.29880400  0.05256300  0.56820800  1
  C  C20  1  0.41988500  0.73639700  0.18271900  1
  C  C21  1  0.91988500  0.26360300  0.31728100  1
  C  C22  1  0.58011500  0.26360300  0.81728100  1
  C  C23  1  0.08011500  0.73639700  0.68271900  1
  C  C24  1  0.64291500  0.78108000  0.49679700  1
  C  C25  1  0.14291500  0.21892000  0.00320300  1
  C  C26  1  0.35708500  0.21892000  0.50320300  1
  C  C27  1  0.85708500  0.78108000  0.99679700  1
  C  C28  1  0.69684300  0.43912600  0.60680300  1
  C  C29  1  0.19684300  0.56087400  0.89319700  1
  C  C30  1  0.30315700  0.56087400  0.39319700  1
  C  C31  1  0.80315700  0.43912600  0.10680300  1
  C  C32  1  0.69763000  0.07968400  0.55970400  1
  C  C33  1  0.19763000  0.92031600  0.94029600  1
  C  C34  1  0.30237000  0.92031600  0.44029600  1
  C  C35  1  0.80237000  0.07968400  0.05970400  1
  C  C36  1  0.86914900  0.55581500  0.37616800  1
  C  C37  1  0.36914900  0.44418500  0.12383200  1
  C  C38  1  0.13085100  0.44418500  0.62383200  1
  C  C39  1  0.63085100  0.55581500  0.87616800  1
  C  C40  1  0.89890400  0.01207400  0.79731200  1
  C  C41  1  0.39890400  0.98792600  0.70268800  1
  C  C42  1  0.10109600  0.98792600  0.20268800  1
  C  C43  1  0.60109600  0.01207400  0.29731200  1
  C  C44  1  0.93661800  0.48827300  0.80782100  1
  C  C45  1  0.43661800  0.51172700  0.69217900  1
  C  C46  1  0.06338200  0.51172700  0.19217900  1
  C  C47  1  0.56338200  0.48827300  0.30782100  1
  C  C48  1  0.63777000  0.93847000  0.87641300  1
  C  C49  1  0.13777000  0.06153000  0.62358700  1
  C  C50  1  0.36223000  0.06153000  0.12358700  1
  C  C51  1  0.86223000  0.93847000  0.37641300  1
