# generated using pymatgen
data_CuNi4C13
_symmetry_space_group_name_H-M   'P 1'
_cell_length_a   5.17789700
_cell_length_b   10.78738100
_cell_length_c   16.94246000
_cell_angle_alpha   90.00000000
_cell_angle_beta   90.00000000
_cell_angle_gamma   90.00000000
_symmetry_Int_Tables_number   1
_chemical_formula_structural   CuNi4C13
_chemical_formula_sum   'Cu4 Ni16 C52'
_cell_volume   946.33715997
_cell_formula_units_Z   4
loop_
 _symmetry_equiv_pos_site_id
 _symmetry_equiv_pos_as_xyz
  1  'x, y, z'
loop_
 _atom_site_type_symbol
 _atom_site_label
 _atom_site_symmetry_multiplicity
 _atom_site_fract_x
 _atom_site_fract_y
 _atom_site_fract_z
 _atom_site_occupancy
  C  C0  1  0.29514200  0.34395500  0.60706900  1
  C  C1  1  0.70485800  0.84395500  0.39293100  1
  C  C2  1  0.29514200  0.84395500  0.89293100  1
  C  C3  1  0.70485800  0.34395500  0.10706900  1
  C  C4  1  0.29924700  0.99146700  0.61016500  1
  C  C5  1  0.70075300  0.49146700  0.38983500  1
  C  C6  1  0.29924700  0.49146700  0.88983500  1
  C  C7  1  0.70075300  0.99146700  0.11016500  1
  C  C8  1  0.72179400  0.18228800  0.29091300  1
  C  C9  1  0.27820600  0.68228800  0.70908700  1
  C  C10  1  0.72179400  0.68228800  0.20908700  1
  C  C11  1  0.27820600  0.18228800  0.79091300  1
  Ni  Ni12  1  0.63440700  0.16887400  0.47011500  1
  Ni  Ni13  1  0.36559300  0.66887400  0.52988500  1
  Ni  Ni14  1  0.63440700  0.66887400  0.02988500  1
  Ni  Ni15  1  0.36559300  0.16887400  0.97011500  1
  Ni  Ni16  1  0.74429300  0.17227000  0.66402400  1
  Ni  Ni17  1  0.25570700  0.67227000  0.33597600  1
  Ni  Ni18  1  0.74429300  0.67227000  0.83597600  1
  Ni  Ni19  1  0.25570700  0.17227000  0.16402400  1
  Ni  Ni20  1  0.19453800  0.42412600  0.24815900  1
  Ni  Ni21  1  0.80546200  0.92412600  0.75184100  1
  Ni  Ni22  1  0.19453800  0.92412600  0.25184100  1
  Ni  Ni23  1  0.80546200  0.42412600  0.74815900  1
  Ni  Ni24  1  0.13240300  0.02253200  0.42378400  1
  Ni  Ni25  1  0.86759700  0.52253200  0.57621600  1
  Ni  Ni26  1  0.13240300  0.52253200  0.07621600  1
  Ni  Ni27  1  0.86759700  0.02253200  0.92378400  1
  Cu  Cu28  1  0.14041400  0.32089800  0.42111600  1
  Cu  Cu29  1  0.85958600  0.82089800  0.57888400  1
  Cu  Cu30  1  0.14041400  0.82089800  0.07888400  1
  Cu  Cu31  1  0.85958600  0.32089800  0.92111600  1
  C  C32  1  0.08087100  0.67168900  0.83375100  1
  C  C33  1  0.91912900  0.17168900  0.16624900  1
  C  C34  1  0.08087100  0.17168900  0.66624900  1
  C  C35  1  0.91912900  0.67168900  0.33375100  1
  C  C36  1  0.42619600  0.17049700  0.07186900  1
  C  C37  1  0.57380400  0.67049700  0.92813100  1
  C  C38  1  0.42619600  0.67049700  0.42813100  1
  C  C39  1  0.57380400  0.17049700  0.57186900  1
  C  C40  1  0.96518900  0.66177100  0.05601100  1
  C  C41  1  0.03481100  0.16177100  0.94398900  1
  C  C42  1  0.96518900  0.16177100  0.44398900  1
  C  C43  1  0.03481100  0.66177100  0.55601100  1
  C  C44  1  0.40041400  0.30428200  0.21091500  1
  C  C45  1  0.59958600  0.80428200  0.78908500  1
  C  C46  1  0.40041400  0.80428200  0.28908500  1
  C  C47  1  0.59958600  0.30428200  0.71091500  1
  C  C48  1  0.01476700  0.41629200  0.00725100  1
  C  C49  1  0.98523300  0.91629200  0.99274900  1
  C  C50  1  0.01476700  0.91629200  0.49274900  1
  C  C51  1  0.98523300  0.41629200  0.50725100  1
  C  C52  1  0.00051600  0.48485400  0.17032500  1
  C  C53  1  0.99948400  0.98485400  0.82967500  1
  C  C54  1  0.00051600  0.98485400  0.32967500  1
  C  C55  1  0.99948400  0.48485400  0.67032500  1
  C  C56  1  0.47371900  0.53703200  0.07315100  1
  C  C57  1  0.52628100  0.03703200  0.92684900  1
  C  C58  1  0.47371900  0.03703200  0.42684900  1
  C  C59  1  0.52628100  0.53703200  0.57315100  1
  C  C60  1  0.39970400  0.04290400  0.21367000  1
  C  C61  1  0.60029600  0.54290400  0.78633000  1
  C  C62  1  0.39970400  0.54290400  0.28633000  1
  C  C63  1  0.60029600  0.04290400  0.71367000  1
  C  C64  1  0.97841500  0.86339800  0.18102700  1
  C  C65  1  0.02158500  0.36339800  0.81897300  1
  C  C66  1  0.97841500  0.36339800  0.31897300  1
  C  C67  1  0.02158500  0.86339800  0.68102700  1
  C  C68  1  0.51147400  0.79737000  0.08375800  1
  C  C69  1  0.48852600  0.29737000  0.91624200  1
  C  C70  1  0.51147400  0.29737000  0.41624200  1
  C  C71  1  0.48852600  0.79737000  0.58375800  1
