# generated using pymatgen
data_Cu(NiC6)2
_symmetry_space_group_name_H-M   'P 1'
_cell_length_a   8.50740827
_cell_length_b   8.50740827
_cell_length_c   10.58764589
_cell_angle_alpha   65.73780508
_cell_angle_beta   65.73780508
_cell_angle_gamma   39.42665521
_symmetry_Int_Tables_number   1
_chemical_formula_structural   Cu(NiC6)2
_chemical_formula_sum   'Cu2 Ni4 C24'
_cell_volume   437.85483120
_cell_formula_units_Z   2
loop_
 _symmetry_equiv_pos_site_id
 _symmetry_equiv_pos_as_xyz
  1  'x, y, z'
loop_
 _atom_site_type_symbol
 _atom_site_label
 _atom_site_symmetry_multiplicity
 _atom_site_fract_x
 _atom_site_fract_y
 _atom_site_fract_z
 _atom_site_occupancy
  Ni  Ni0  1  0.01119100  0.62793000  0.04595900  1
  Ni  Ni1  1  0.37207000  0.98880900  0.45404100  1
  Ni  Ni2  1  0.98880900  0.37207000  0.95404100  1
  Ni  Ni3  1  0.62793000  0.01119100  0.54595900  1
  C  C4  1  0.02437100  0.67170900  0.24044900  1
  C  C5  1  0.32829100  0.97562900  0.25955100  1
  C  C6  1  0.97562900  0.32829100  0.75955100  1
  C  C7  1  0.67170900  0.02437100  0.74044900  1
  C  C8  1  0.99045100  0.07648900  0.07430400  1
  C  C9  1  0.92351100  0.00954900  0.42569600  1
  C  C10  1  0.00954900  0.92351100  0.92569600  1
  C  C11  1  0.07648900  0.99045100  0.57430400  1
  C  C12  1  0.66831800  0.56401500  0.49680800  1
  C  C13  1  0.43598500  0.33168200  0.00319200  1
  C  C14  1  0.33168200  0.43598500  0.50319200  1
  C  C15  1  0.56401500  0.66831800  0.99680800  1
  C  C16  1  0.00240900  0.35335900  0.16427800  1
  C  C17  1  0.64664100  0.99759100  0.33572200  1
  C  C18  1  0.99759100  0.64664100  0.83572200  1
  C  C19  1  0.35335900  0.00240900  0.66427800  1
  C  C20  1  0.70181200  0.42032700  0.33356500  1
  C  C21  1  0.57967300  0.29818800  0.16643500  1
  C  C22  1  0.29818800  0.57967300  0.66643500  1
  C  C23  1  0.42032700  0.70181200  0.83356500  1
  C  C24  1  0.05155200  0.40286500  0.42440100  1
  C  C25  1  0.59713500  0.94844800  0.07559900  1
  C  C26  1  0.94844800  0.59713500  0.57559900  1
  C  C27  1  0.40286500  0.05155200  0.92440100  1
  Cu  Cu28  1  0.30456100  0.69543900  0.25000000  1
  Cu  Cu29  1  0.69543900  0.30456100  0.75000000  1
