# generated using pymatgen
data_Cu4NiC15
_symmetry_space_group_name_H-M   'P 1'
_cell_length_a   9.49722000
_cell_length_b   7.02004000
_cell_length_c   16.29024086
_cell_angle_alpha   81.94900197
_cell_angle_beta   90.00000000
_cell_angle_gamma   90.00000000
_symmetry_Int_Tables_number   1
_chemical_formula_structural   Cu4NiC15
_chemical_formula_sum   'Cu16 Ni4 C60'
_cell_volume   1075.37977297
_cell_formula_units_Z   4
loop_
 _symmetry_equiv_pos_site_id
 _symmetry_equiv_pos_as_xyz
  1  'x, y, z'
loop_
 _atom_site_type_symbol
 _atom_site_label
 _atom_site_symmetry_multiplicity
 _atom_site_fract_x
 _atom_site_fract_y
 _atom_site_fract_z
 _atom_site_occupancy
  Ni  Ni0  1  0.20249800  0.59475800  0.86802200  1
  Ni  Ni1  1  0.70249800  0.40524200  0.63197800  1
  Ni  Ni2  1  0.79750200  0.40524200  0.13197800  1
  Ni  Ni3  1  0.29750200  0.59475800  0.36802200  1
  Cu  Cu4  1  0.72252700  0.96116300  0.81982400  1
  Cu  Cu5  1  0.22252700  0.03883700  0.68017600  1
  Cu  Cu6  1  0.27747300  0.03883700  0.18017600  1
  Cu  Cu7  1  0.77747300  0.96116300  0.31982400  1
  Cu  Cu8  1  0.14455900  0.04879100  0.03167000  1
  Cu  Cu9  1  0.64455900  0.95120900  0.46833000  1
  Cu  Cu10  1  0.85544100  0.95120900  0.96833000  1
  Cu  Cu11  1  0.35544100  0.04879100  0.53167000  1
  Cu  Cu12  1  0.41989600  0.00241200  0.92739400  1
  Cu  Cu13  1  0.91989600  0.99758800  0.57260600  1
  Cu  Cu14  1  0.58010400  0.99758800  0.07260600  1
  Cu  Cu15  1  0.08010400  0.00241200  0.42739400  1
  Cu  Cu16  1  0.59257700  0.72305300  0.94389900  1
  Cu  Cu17  1  0.09257700  0.27694700  0.55610100  1
  Cu  Cu18  1  0.40742300  0.27694700  0.05610100  1
  Cu  Cu19  1  0.90742300  0.72305300  0.44389900  1
  C  C20  1  0.80112500  0.57038800  0.89466100  1
  C  C21  1  0.30112500  0.42961200  0.60533900  1
  C  C22  1  0.19887500  0.42961200  0.10533900  1
  C  C23  1  0.69887500  0.57038800  0.39466100  1
  C  C24  1  0.37419700  0.74784900  0.64412800  1
  C  C25  1  0.87419700  0.25215100  0.85587200  1
  C  C26  1  0.62580300  0.25215100  0.35587200  1
  C  C27  1  0.12580300  0.74784900  0.14412800  1
  C  C28  1  0.11459400  0.09156100  0.87378600  1
  C  C29  1  0.61459400  0.90843900  0.62621400  1
  C  C30  1  0.88540600  0.90843900  0.12621400  1
  C  C31  1  0.38540600  0.09156100  0.37378600  1
  C  C32  1  0.35563600  0.71891700  0.06528600  1
  C  C33  1  0.85563600  0.28108300  0.43471400  1
  C  C34  1  0.64436400  0.28108300  0.93471400  1
  C  C35  1  0.14436400  0.71891700  0.56528600  1
  C  C36  1  0.49910500  0.85685800  0.76541400  1
  C  C37  1  0.99910500  0.14314200  0.73458600  1
  C  C38  1  0.50089500  0.14314200  0.23458600  1
  C  C39  1  0.00089500  0.85685800  0.26541400  1
  C  C40  1  0.81420000  0.75836100  0.89947000  1
  C  C41  1  0.31420000  0.24163900  0.60053000  1
  C  C42  1  0.18580000  0.24163900  0.10053000  1
  C  C43  1  0.68580000  0.75836100  0.39947000  1
  C  C44  1  0.22113200  0.02770600  0.92290800  1
  C  C45  1  0.72113200  0.97229400  0.57709200  1
  C  C46  1  0.77886800  0.97229400  0.07709200  1
  C  C47  1  0.27886800  0.02770600  0.42290800  1
  C  C48  1  0.37558100  0.80660000  0.72798400  1
  C  C49  1  0.87558100  0.19340000  0.77201600  1
  C  C50  1  0.62441900  0.19340000  0.27201600  1
  C  C51  1  0.12441900  0.80660000  0.22798400  1
  C  C52  1  0.31636700  0.52506300  0.06129900  1
  C  C53  1  0.81636700  0.47493700  0.43870100  1
  C  C54  1  0.68363300  0.47493700  0.93870100  1
  C  C55  1  0.18363300  0.52506300  0.56129900  1
  C  C56  1  0.47372200  0.79213600  0.02971200  1
  C  C57  1  0.97372200  0.20786400  0.47028800  1
  C  C58  1  0.52627800  0.20786400  0.97028800  1
  C  C59  1  0.02627800  0.79213600  0.52971200  1
  C  C60  1  0.26065600  0.82476000  0.10653900  1
  C  C61  1  0.76065600  0.17524000  0.39346100  1
  C  C62  1  0.73934400  0.17524000  0.89346100  1
  C  C63  1  0.23934400  0.82476000  0.60653900  1
  C  C64  1  0.88743600  0.46166800  0.85127800  1
  C  C65  1  0.38743600  0.53833200  0.64872200  1
  C  C66  1  0.11256400  0.53833200  0.14872200  1
  C  C67  1  0.61256400  0.46166800  0.35127800  1
  C  C68  1  0.98966300  0.15445000  0.90783600  1
  C  C69  1  0.48966300  0.84555000  0.59216400  1
  C  C70  1  0.01033700  0.84555000  0.09216400  1
  C  C71  1  0.51033700  0.15445000  0.40783600  1
  C  C72  1  0.61980600  0.90074900  0.71377700  1
  C  C73  1  0.11980600  0.09925100  0.78622300  1
  C  C74  1  0.38019400  0.09925100  0.28622300  1
  C  C75  1  0.88019400  0.90074900  0.21377700  1
  C  C76  1  0.51345600  0.86818700  0.84596200  1
  C  C77  1  0.01345600  0.13181300  0.65403800  1
  C  C78  1  0.48654400  0.13181300  0.15403800  1
  C  C79  1  0.98654400  0.86818700  0.34596200  1
