# generated using pymatgen
data_CuNiC61
_symmetry_space_group_name_H-M   'P 1'
_cell_length_a   8.55303400
_cell_length_b   8.75299200
_cell_length_c   8.75741400
_cell_angle_alpha   90.00000000
_cell_angle_beta   90.00000000
_cell_angle_gamma   90.00000000
_symmetry_Int_Tables_number   1
_chemical_formula_structural   CuNiC61
_chemical_formula_sum   'Cu1 Ni1 C61'
_cell_volume   655.62063048
_cell_formula_units_Z   1
loop_
 _symmetry_equiv_pos_site_id
 _symmetry_equiv_pos_as_xyz
  1  'x, y, z'
loop_
 _atom_site_type_symbol
 _atom_site_label
 _atom_site_symmetry_multiplicity
 _atom_site_fract_x
 _atom_site_fract_y
 _atom_site_fract_z
 _atom_site_occupancy
  Ni  Ni0  1  0.12648700  0.00000000  0.50000000  1
  Cu  Cu1  1  0.99421800  0.00000000  0.00000000  1
  C  C2  1  0.99509900  0.50000000  0.00000000  1
  C  C3  1  0.98813500  0.50000000  0.50000000  1
  C  C4  1  0.50166600  0.00000000  0.00000000  1
  C  C5  1  0.51609900  0.00000000  0.50000000  1
  C  C6  1  0.50146100  0.50000000  0.00000000  1
  C  C7  1  0.50576400  0.50000000  0.50000000  1
  C  C8  1  0.99508500  0.25387800  0.24913100  1
  C  C9  1  0.99508500  0.25387800  0.75086900  1
  C  C10  1  0.99508500  0.74612200  0.24913100  1
  C  C11  1  0.99508500  0.74612200  0.75086900  1
  C  C12  1  0.49830100  0.24917600  0.25107200  1
  C  C13  1  0.49830100  0.24917600  0.74892800  1
  C  C14  1  0.49830100  0.75082400  0.25107200  1
  C  C15  1  0.49830100  0.75082400  0.74892800  1
  C  C16  1  0.25138900  0.00000000  0.21770900  1
  C  C17  1  0.25138900  0.00000000  0.78229100  1
  C  C18  1  0.24763500  0.50000000  0.24350600  1
  C  C19  1  0.24763500  0.50000000  0.75649400  1
  C  C20  1  0.75293800  0.00000000  0.25608400  1
  C  C21  1  0.75293800  0.00000000  0.74391600  1
  C  C22  1  0.74726900  0.50000000  0.24931900  1
  C  C23  1  0.74726900  0.50000000  0.75068100  1
  C  C24  1  0.24896500  0.25948600  0.00000000  1
  C  C25  1  0.25092200  0.28310600  0.50000000  1
  C  C26  1  0.24896500  0.74051400  0.00000000  1
  C  C27  1  0.25092200  0.71689400  0.50000000  1
  C  C28  1  0.74640000  0.25032600  0.00000000  1
  C  C29  1  0.75686200  0.24392600  0.50000000  1
  C  C30  1  0.74640000  0.74967400  0.00000000  1
  C  C31  1  0.75686200  0.75607400  0.50000000  1
  C  C32  1  0.27466100  0.00000000  0.00000000  1
  C  C33  1  0.25514300  0.50000000  0.00000000  1
  C  C34  1  0.25691300  0.50000000  0.50000000  1
  C  C35  1  0.72293600  0.00000000  0.00000000  1
  C  C36  1  0.74222300  0.00000000  0.50000000  1
  C  C37  1  0.74374600  0.50000000  0.00000000  1
  C  C38  1  0.74297600  0.50000000  0.50000000  1
  C  C39  1  0.24719200  0.24766700  0.25214200  1
  C  C40  1  0.24719200  0.24766700  0.74785800  1
  C  C41  1  0.24719200  0.75233300  0.25214200  1
  C  C42  1  0.24719200  0.75233300  0.74785800  1
  C  C43  1  0.74622200  0.25089600  0.25055800  1
  C  C44  1  0.74622200  0.25089600  0.74944200  1
  C  C45  1  0.74622200  0.74910400  0.25055800  1
  C  C46  1  0.74622200  0.74910400  0.74944200  1
  C  C47  1  0.99316200  0.00000000  0.25946500  1
  C  C48  1  0.99316200  0.00000000  0.74053500  1
  C  C49  1  0.99942500  0.50000000  0.25092900  1
  C  C50  1  0.99942500  0.50000000  0.74907100  1
  C  C51  1  0.48927500  0.00000000  0.26105400  1
  C  C52  1  0.48927500  0.00000000  0.73894600  1
  C  C53  1  0.49613100  0.50000000  0.25241000  1
  C  C54  1  0.49613100  0.50000000  0.74759000  1
  C  C55  1  0.00078300  0.27462900  0.00000000  1
  C  C56  1  0.00001900  0.27385800  0.50000000  1
  C  C57  1  0.00078300  0.72537100  0.00000000  1
  C  C58  1  0.00001900  0.72614200  0.50000000  1
  C  C59  1  0.49612700  0.25384500  0.00000000  1
  C  C60  1  0.49033600  0.24537800  0.50000000  1
  C  C61  1  0.49612700  0.74615500  0.00000000  1
  C  C62  1  0.49033600  0.75462200  0.50000000  1
