# generated using pymatgen
data_Cu6Ni4C
_symmetry_space_group_name_H-M   'P 1'
_cell_length_a   7.22828437
_cell_length_b   7.22828437
_cell_length_c   3.88624100
_cell_angle_alpha   90.00000000
_cell_angle_beta   90.00000000
_cell_angle_gamma   120.00000341
_symmetry_Int_Tables_number   1
_chemical_formula_structural   Cu6Ni4C
_chemical_formula_sum   'Cu6 Ni4 C1'
_cell_volume   175.84531671
_cell_formula_units_Z   1
loop_
 _symmetry_equiv_pos_site_id
 _symmetry_equiv_pos_as_xyz
  1  'x, y, z'
loop_
 _atom_site_type_symbol
 _atom_site_label
 _atom_site_symmetry_multiplicity
 _atom_site_fract_x
 _atom_site_fract_y
 _atom_site_fract_z
 _atom_site_occupancy
  C  C0  1  0.00000000  0.00000000  0.00000000  1
  Ni  Ni1  1  0.66666700  0.33333300  0.00000000  1
  Ni  Ni2  1  0.19817800  0.80182200  0.50000000  1
  Ni  Ni3  1  0.19817800  0.39635600  0.50000000  1
  Ni  Ni4  1  0.60364400  0.80182200  0.50000000  1
  Cu  Cu5  1  0.46678400  0.53321600  0.00000000  1
  Cu  Cu6  1  0.46678400  0.93356700  0.00000000  1
  Cu  Cu7  1  0.06643300  0.53321600  0.00000000  1
  Cu  Cu8  1  0.80048200  0.19951800  0.50000000  1
  Cu  Cu9  1  0.80048200  0.60096400  0.50000000  1
  Cu  Cu10  1  0.39903600  0.19951800  0.50000000  1
