# generated using pymatgen
data_Cu4NiC11
_symmetry_space_group_name_H-M   'P 1'
_cell_length_a   5.55483300
_cell_length_b   5.55483300
_cell_length_c   11.01042800
_cell_angle_alpha   90.00000000
_cell_angle_beta   90.00000000
_cell_angle_gamma   90.00000000
_symmetry_Int_Tables_number   1
_chemical_formula_structural   Cu4NiC11
_chemical_formula_sum   'Cu4 Ni1 C11'
_cell_volume   339.73963437
_cell_formula_units_Z   1
loop_
 _symmetry_equiv_pos_site_id
 _symmetry_equiv_pos_as_xyz
  1  'x, y, z'
loop_
 _atom_site_type_symbol
 _atom_site_label
 _atom_site_symmetry_multiplicity
 _atom_site_fract_x
 _atom_site_fract_y
 _atom_site_fract_z
 _atom_site_occupancy
  Ni  Ni0  1  0.50000000  0.50000000  0.50000000  1
  C  C1  1  0.00000000  0.00000000  0.00000000  1
  Cu  Cu2  1  0.50000000  0.00000000  0.25281500  1
  Cu  Cu3  1  0.00000000  0.50000000  0.74718500  1
  Cu  Cu4  1  0.00000000  0.50000000  0.25281500  1
  Cu  Cu5  1  0.50000000  0.00000000  0.74718500  1
  C  C6  1  0.50000000  0.50000000  0.00000000  1
  C  C7  1  0.00000000  0.00000000  0.50000000  1
  C  C8  1  0.74406100  0.74406100  0.14201300  1
  C  C9  1  0.25633200  0.25633200  0.63224900  1
  C  C10  1  0.25593900  0.25593900  0.14201300  1
  C  C11  1  0.74366800  0.74366800  0.63224900  1
  C  C12  1  0.74366800  0.25633200  0.36775100  1
  C  C13  1  0.25593900  0.74406100  0.85798700  1
  C  C14  1  0.25633200  0.74366800  0.36775100  1
  C  C15  1  0.74406100  0.25593900  0.85798700  1
