# generated using pymatgen
data_CuNi
_symmetry_space_group_name_H-M   'P 1'
_cell_length_a   6.14587200
_cell_length_b   6.27737200
_cell_length_c   7.00386700
_cell_angle_alpha   90.00000000
_cell_angle_beta   90.00000000
_cell_angle_gamma   90.00000000
_symmetry_Int_Tables_number   1
_chemical_formula_structural   CuNi
_chemical_formula_sum   'Cu4 Ni4'
_cell_volume   270.20866223
_cell_formula_units_Z   4
loop_
 _symmetry_equiv_pos_site_id
 _symmetry_equiv_pos_as_xyz
  1  'x, y, z'
loop_
 _atom_site_type_symbol
 _atom_site_label
 _atom_site_symmetry_multiplicity
 _atom_site_fract_x
 _atom_site_fract_y
 _atom_site_fract_z
 _atom_site_occupancy
  Ni  Ni0  1  0.30537200  0.00089900  0.25000000  1
  Ni  Ni1  1  0.69462800  0.00089900  0.75000000  1
  Ni  Ni2  1  0.16440000  0.54653400  0.75000000  1
  Ni  Ni3  1  0.83560000  0.54653400  0.25000000  1
  Cu  Cu4  1  0.00000000  0.86038300  0.00000000  1
  Cu  Cu5  1  0.00000000  0.86038300  0.50000000  1
  Cu  Cu6  1  0.24686800  0.41208300  0.25000000  1
  Cu  Cu7  1  0.75313200  0.41208300  0.75000000  1
