# generated using pymatgen
data_CuNiC4
_symmetry_space_group_name_H-M   'P 1'
_cell_length_a   9.74130487
_cell_length_b   13.47565744
_cell_length_c   16.98038409
_cell_angle_alpha   90.00000000
_cell_angle_beta   90.00000000
_cell_angle_gamma   90.00000000
_symmetry_Int_Tables_number   1
_chemical_formula_structural   CuNiC4
_chemical_formula_sum   'Cu24 Ni24 C96'
_cell_volume   2229.02329653
_cell_formula_units_Z   24
loop_
 _symmetry_equiv_pos_site_id
 _symmetry_equiv_pos_as_xyz
  1  'x, y, z'
loop_
 _atom_site_type_symbol
 _atom_site_label
 _atom_site_symmetry_multiplicity
 _atom_site_fract_x
 _atom_site_fract_y
 _atom_site_fract_z
 _atom_site_occupancy
  C  C0  1  0.48932190  0.25000000  0.70913159  1
  C  C1  1  0.01067810  0.25000000  0.20913159  1
  C  C2  1  0.51067810  0.75000000  0.29086841  1
  C  C3  1  0.98932190  0.75000000  0.79086841  1
  C  C4  1  0.05404147  0.25000000  0.93696101  1
  C  C5  1  0.44595853  0.25000000  0.43696101  1
  C  C6  1  0.94595853  0.75000000  0.06303899  1
  C  C7  1  0.55404147  0.75000000  0.56303899  1
  C  C8  1  0.67792567  0.50023033  0.87380138  1
  C  C9  1  0.82207433  0.99976967  0.37380138  1
  C  C10  1  0.32207433  0.00023033  0.12619862  1
  C  C11  1  0.17792567  0.49976967  0.62619862  1
  C  C12  1  0.32207433  0.49976967  0.12619862  1
  C  C13  1  0.17792567  0.00023033  0.62619862  1
  C  C14  1  0.67792567  0.99976967  0.87380138  1
  C  C15  1  0.82207433  0.50023033  0.37380138  1
  Ni  Ni16  1  0.90831767  0.39930629  0.02377954  1
  Ni  Ni17  1  0.59168233  0.10069371  0.52377954  1
  Ni  Ni18  1  0.09168233  0.89930629  0.97622046  1
  Ni  Ni19  1  0.40831767  0.60069371  0.47622046  1
  Ni  Ni20  1  0.09168233  0.60069371  0.97622046  1
  Ni  Ni21  1  0.40831767  0.89930629  0.47622046  1
  Ni  Ni22  1  0.90831767  0.10069371  0.02377954  1
  Ni  Ni23  1  0.59168233  0.39930629  0.52377954  1
  Ni  Ni24  1  0.06852809  0.41460626  0.03718551  1
  Ni  Ni25  1  0.43147191  0.08539374  0.53718551  1
  Ni  Ni26  1  0.93147191  0.91460626  0.96281449  1
  Ni  Ni27  1  0.56852809  0.58539374  0.46281449  1
  Ni  Ni28  1  0.93147191  0.58539374  0.96281449  1
  Ni  Ni29  1  0.56852809  0.91460626  0.46281449  1
  Ni  Ni30  1  0.06852809  0.08539374  0.03718551  1
  Ni  Ni31  1  0.43147191  0.41460626  0.53718551  1
  Ni  Ni32  1  0.80956219  0.46199209  0.18564870  1
  Ni  Ni33  1  0.69043781  0.03800791  0.68564870  1
  Ni  Ni34  1  0.19043781  0.96199209  0.81435130  1
  Ni  Ni35  1  0.30956219  0.53800791  0.31435130  1
  Ni  Ni36  1  0.19043781  0.53800791  0.81435130  1
  Ni  Ni37  1  0.30956219  0.96199209  0.31435130  1
  Ni  Ni38  1  0.80956219  0.03800791  0.18564870  1
  Ni  Ni39  1  0.69043781  0.46199209  0.68564870  1
  Cu  Cu40  1  0.98644076  0.40632118  0.78504860  1
  Cu  Cu41  1  0.51355924  0.09367882  0.28504860  1
  Cu  Cu42  1  0.01355924  0.90632118  0.21495140  1
  Cu  Cu43  1  0.48644076  0.59367882  0.71495140  1
  Cu  Cu44  1  0.01355924  0.59367882  0.21495140  1
  Cu  Cu45  1  0.48644076  0.90632118  0.71495140  1
  Cu  Cu46  1  0.98644076  0.09367882  0.78504860  1
  Cu  Cu47  1  0.51355924  0.40632118  0.28504860  1
  Cu  Cu48  1  0.67633062  0.25000000  0.92411352  1
  Cu  Cu49  1  0.82366938  0.25000000  0.42411352  1
  Cu  Cu50  1  0.32366938  0.75000000  0.07588648  1
  Cu  Cu51  1  0.17633062  0.75000000  0.57588648  1
  Cu  Cu52  1  0.66825836  0.51058014  0.08155946  1
  Cu  Cu53  1  0.83174164  0.98941986  0.58155946  1
  Cu  Cu54  1  0.33174164  0.01058014  0.91844054  1
  Cu  Cu55  1  0.16825836  0.48941986  0.41844054  1
  Cu  Cu56  1  0.33174164  0.48941986  0.91844054  1
  Cu  Cu57  1  0.16825836  0.01058014  0.41844054  1
  Cu  Cu58  1  0.66825836  0.98941986  0.08155946  1
  Cu  Cu59  1  0.83174164  0.51058014  0.58155946  1
  Cu  Cu60  1  0.65529895  0.75000000  0.93024432  1
  Cu  Cu61  1  0.84470105  0.75000000  0.43024432  1
  Cu  Cu62  1  0.34470105  0.25000000  0.06975568  1
  Cu  Cu63  1  0.15529895  0.25000000  0.56975568  1
  C  C64  1  0.72687722  0.65257280  0.87891346  1
  C  C65  1  0.77312278  0.84742720  0.37891346  1
  C  C66  1  0.27312278  0.15257280  0.12108654  1
  C  C67  1  0.22687722  0.34742720  0.62108654  1
  C  C68  1  0.27312278  0.34742720  0.12108654  1
  C  C69  1  0.22687722  0.15257280  0.62108654  1
  C  C70  1  0.72687722  0.84742720  0.87891346  1
  C  C71  1  0.77312278  0.65257280  0.37891346  1
  C  C72  1  0.51382976  0.45161512  0.07895807  1
  C  C73  1  0.98617024  0.04838488  0.57895807  1
  C  C74  1  0.48617024  0.95161512  0.92104193  1
  C  C75  1  0.01382976  0.54838488  0.42104193  1
  C  C76  1  0.48617024  0.54838488  0.92104193  1
  C  C77  1  0.01382976  0.95161512  0.42104193  1
  C  C78  1  0.51382976  0.04838488  0.07895807  1
  C  C79  1  0.98617024  0.45161512  0.57895807  1
  C  C80  1  0.74838786  0.47515099  0.99501862  1
  C  C81  1  0.75161214  0.02484901  0.49501862  1
  C  C82  1  0.25161214  0.97515099  0.00498138  1
  C  C83  1  0.24838786  0.52484901  0.50498138  1
  C  C84  1  0.25161214  0.52484901  0.00498138  1
  C  C85  1  0.24838786  0.97515099  0.50498138  1
  C  C86  1  0.74838786  0.02484901  0.99501862  1
  C  C87  1  0.75161214  0.47515099  0.49501862  1
  C  C88  1  0.09390783  0.36510807  0.85918338  1
  C  C89  1  0.40609217  0.13489193  0.35918338  1
  C  C90  1  0.90609217  0.86510807  0.14081662  1
  C  C91  1  0.59390783  0.63489193  0.64081662  1
  C  C92  1  0.90609217  0.63489193  0.14081662  1
  C  C93  1  0.59390783  0.86510807  0.64081662  1
  C  C94  1  0.09390783  0.13489193  0.85918338  1
  C  C95  1  0.40609217  0.36510807  0.35918338  1
  C  C96  1  0.85103627  0.25000000  0.90642541  1
  C  C97  1  0.64896373  0.25000000  0.40642541  1
  C  C98  1  0.14896373  0.75000000  0.09357459  1
  C  C99  1  0.35103627  0.75000000  0.59357459  1
  C  C100  1  0.09723728  0.49286172  0.74298377  1
  C  C101  1  0.40276272  0.00713828  0.24298377  1
  C  C102  1  0.90276272  0.99286172  0.25701623  1
  C  C103  1  0.59723728  0.50713828  0.75701623  1
  C  C104  1  0.90276272  0.50713828  0.25701623  1
  C  C105  1  0.59723728  0.99286172  0.75701623  1
  C  C106  1  0.09723728  0.00713828  0.74298377  1
  C  C107  1  0.40276272  0.49286172  0.24298377  1
  C  C108  1  0.99733827  0.36399604  0.02854148  1
  C  C109  1  0.50266173  0.13600396  0.52854148  1
  C  C110  1  0.00266173  0.86399604  0.97145852  1
  C  C111  1  0.49733827  0.63600396  0.47145852  1
  C  C112  1  0.00266173  0.63600396  0.97145852  1
  C  C113  1  0.49733827  0.86399604  0.47145852  1
  C  C114  1  0.99733827  0.13600396  0.02854148  1
  C  C115  1  0.50266173  0.36399604  0.52854148  1
  C  C116  1  0.75227642  0.75000000  0.01594482  1
  C  C117  1  0.74772358  0.75000000  0.51594482  1
  C  C118  1  0.24772358  0.25000000  0.98405518  1
  C  C119  1  0.25227642  0.25000000  0.48405518  1
  C  C120  1  0.62396813  0.34844441  0.86655457  1
  C  C121  1  0.87603187  0.15155559  0.36655457  1
  C  C122  1  0.37603187  0.84844441  0.13344543  1
  C  C123  1  0.12396813  0.65155559  0.63344543  1
  C  C124  1  0.37603187  0.65155559  0.13344543  1
  C  C125  1  0.12396813  0.84844441  0.63344543  1
  C  C126  1  0.62396813  0.15155559  0.86655457  1
  C  C127  1  0.87603187  0.34844441  0.36655457  1
  C  C128  1  0.87832959  0.48530188  0.83407130  1
  C  C129  1  0.62167041  0.01469812  0.33407130  1
  C  C130  1  0.12167041  0.98530188  0.16592870  1
  C  C131  1  0.37832959  0.51469812  0.66592870  1
  C  C132  1  0.12167041  0.51469812  0.16592870  1
  C  C133  1  0.37832959  0.98530188  0.66592870  1
  C  C134  1  0.87832959  0.01469812  0.83407130  1
  C  C135  1  0.62167041  0.48530188  0.33407130  1
  C  C136  1  0.75254673  0.42371222  0.14543511  1
  C  C137  1  0.74745327  0.07628778  0.64543511  1
  C  C138  1  0.24745327  0.92371222  0.85456489  1
  C  C139  1  0.25254673  0.57628778  0.35456489  1
  C  C140  1  0.24745327  0.57628778  0.85456489  1
  C  C141  1  0.25254673  0.92371222  0.35456489  1
  C  C142  1  0.75254673  0.07628778  0.14543511  1
  C  C143  1  0.74745327  0.42371222  0.64543511  1
