# generated using pymatgen
data_Cu3Ni3C25
_symmetry_space_group_name_H-M   'P 1'
_cell_length_a   11.36246300
_cell_length_b   16.10165609
_cell_length_c   20.51387606
_cell_angle_alpha   90.00000000
_cell_angle_beta   90.00000000
_cell_angle_gamma   90.00000000
_symmetry_Int_Tables_number   1
_chemical_formula_structural   Cu3Ni3C25
_chemical_formula_sum   'Cu24 Ni24 C200'
_cell_volume   3753.10535423
_cell_formula_units_Z   8
loop_
 _symmetry_equiv_pos_site_id
 _symmetry_equiv_pos_as_xyz
  1  'x, y, z'
loop_
 _atom_site_type_symbol
 _atom_site_label
 _atom_site_symmetry_multiplicity
 _atom_site_fract_x
 _atom_site_fract_y
 _atom_site_fract_z
 _atom_site_occupancy
  C  C0  1  0.69734063  0.15841237  0.38619482  1
  C  C1  1  0.19734063  0.34158763  0.61380518  1
  C  C2  1  0.30265937  0.65841237  0.11380518  1
  C  C3  1  0.80265937  0.84158763  0.88619482  1
  C  C4  1  0.30265937  0.84158763  0.61380518  1
  C  C5  1  0.80265937  0.65841237  0.38619482  1
  C  C6  1  0.69734063  0.34158763  0.88619482  1
  C  C7  1  0.19734063  0.15841237  0.11380518  1
  C  C8  1  0.56073862  0.38932106  0.29635157  1
  C  C9  1  0.06073862  0.11067894  0.70364843  1
  C  C10  1  0.43926138  0.88932106  0.20364843  1
  C  C11  1  0.93926138  0.61067894  0.79635157  1
  C  C12  1  0.43926138  0.61067894  0.70364843  1
  C  C13  1  0.93926138  0.88932106  0.29635157  1
  C  C14  1  0.56073862  0.11067894  0.79635157  1
  C  C15  1  0.06073862  0.38932106  0.20364843  1
  C  C16  1  0.66386475  0.32242171  0.25900955  1
  C  C17  1  0.16386475  0.17757829  0.74099045  1
  C  C18  1  0.33613525  0.82242171  0.24099045  1
  C  C19  1  0.83613525  0.67757829  0.75900955  1
  C  C20  1  0.33613525  0.67757829  0.74099045  1
  C  C21  1  0.83613525  0.82242171  0.25900955  1
  C  C22  1  0.66386475  0.17757829  0.75900955  1
  C  C23  1  0.16386475  0.32242171  0.24099045  1
  C  C24  1  0.44089212  0.47246653  0.23661482  1
  C  C25  1  0.94089212  0.02753347  0.76338518  1
  C  C26  1  0.55910788  0.97246653  0.26338518  1
  C  C27  1  0.05910788  0.52753347  0.73661482  1
  C  C28  1  0.55910788  0.52753347  0.76338518  1
  C  C29  1  0.05910788  0.97246653  0.23661482  1
  C  C30  1  0.44089212  0.02753347  0.73661482  1
  C  C31  1  0.94089212  0.47246653  0.26338518  1
  C  C32  1  0.45008732  0.47453050  0.15060004  1
  C  C33  1  0.95008732  0.02546950  0.84939996  1
  C  C34  1  0.54991268  0.97453050  0.34939996  1
  C  C35  1  0.04991268  0.52546950  0.65060004  1
  C  C36  1  0.54991268  0.52546950  0.84939996  1
  C  C37  1  0.04991268  0.97453050  0.15060004  1
  C  C38  1  0.45008732  0.02546950  0.65060004  1
  C  C39  1  0.95008732  0.47453050  0.34939996  1
  C  C40  1  0.55215059  0.10480346  0.13359770  1
  C  C41  1  0.05215059  0.39519654  0.86640230  1
  C  C42  1  0.44784941  0.60480346  0.36640230  1
  C  C43  1  0.94784941  0.89519654  0.63359770  1
  C  C44  1  0.44784941  0.89519654  0.86640230  1
  C  C45  1  0.94784941  0.60480346  0.13359770  1
  C  C46  1  0.55215059  0.39519654  0.63359770  1
  C  C47  1  0.05215059  0.10480346  0.36640230  1
  C  C48  1  0.52418371  0.21133070  0.12000191  1
  C  C49  1  0.02418371  0.28866930  0.87999809  1
  C  C50  1  0.47581629  0.71133070  0.37999809  1
  C  C51  1  0.97581629  0.78866930  0.62000191  1
  C  C52  1  0.47581629  0.78866930  0.87999809  1
  C  C53  1  0.97581629  0.71133070  0.12000191  1
  C  C54  1  0.52418371  0.28866930  0.62000191  1
  C  C55  1  0.02418371  0.21133070  0.37999809  1
  C  C56  1  0.73765948  0.06168117  0.16230743  1
  C  C57  1  0.23765948  0.43831883  0.83769257  1
  C  C58  1  0.26234052  0.56168117  0.33769257  1
  C  C59  1  0.76234052  0.93831883  0.66230743  1
  C  C60  1  0.26234052  0.93831883  0.83769257  1
  C  C61  1  0.76234052  0.56168117  0.16230743  1
  C  C62  1  0.73765948  0.43831883  0.66230743  1
  C  C63  1  0.23765948  0.06168117  0.33769257  1
  C  C64  1  0.85444622  0.13510899  0.17155312  1
  C  C65  1  0.35444622  0.36489101  0.82844688  1
  C  C66  1  0.14555378  0.63510899  0.32844688  1
  C  C67  1  0.64555378  0.86489101  0.67155312  1
  C  C68  1  0.14555378  0.86489101  0.82844688  1
  C  C69  1  0.64555378  0.63510899  0.17155312  1
  C  C70  1  0.85444622  0.36489101  0.67155312  1
  C  C71  1  0.35444622  0.13510899  0.32844688  1
  C  C72  1  0.84274268  0.39826212  0.49303461  1
  C  C73  1  0.34274268  0.10173788  0.50696539  1
  C  C74  1  0.15725732  0.89826212  0.00696539  1
  C  C75  1  0.65725732  0.60173788  0.99303461  1
  C  C76  1  0.15725732  0.60173788  0.50696539  1
  C  C77  1  0.65725732  0.89826212  0.49303461  1
  C  C78  1  0.84274268  0.10173788  0.99303461  1
  C  C79  1  0.34274268  0.39826212  0.00696539  1
  C  C80  1  0.83070318  0.28974988  0.48761709  1
  C  C81  1  0.33070318  0.21025012  0.51238291  1
  C  C82  1  0.16929682  0.78974988  0.01238291  1
  C  C83  1  0.66929682  0.71025012  0.98761709  1
  C  C84  1  0.16929682  0.71025012  0.51238291  1
  C  C85  1  0.66929682  0.78974988  0.48761709  1
  C  C86  1  0.83070318  0.21025012  0.98761709  1
  C  C87  1  0.33070318  0.28974988  0.01238291  1
  C  C88  1  0.67279623  0.48095023  0.47072803  1
  C  C89  1  0.17279623  0.01904977  0.52927197  1
  C  C90  1  0.32720377  0.98095023  0.02927197  1
  C  C91  1  0.82720377  0.51904977  0.97072803  1
  C  C92  1  0.32720377  0.51904977  0.52927197  1
  C  C93  1  0.82720377  0.98095023  0.47072803  1
  C  C94  1  0.67279623  0.01904977  0.97072803  1
  C  C95  1  0.17279623  0.48095023  0.02927197  1
  C  C96  1  0.54578369  0.43178384  0.44281903  1
  C  C97  1  0.04578369  0.06821616  0.55718097  1
  C  C98  1  0.45421631  0.93178384  0.05718097  1
  C  C99  1  0.95421631  0.56821616  0.94281903  1
  C  C100  1  0.45421631  0.56821616  0.55718097  1
  C  C101  1  0.95421631  0.93178384  0.44281903  1
  C  C102  1  0.54578369  0.06821616  0.94281903  1
  C  C103  1  0.04578369  0.43178384  0.05718097  1
  Ni  Ni104  1  0.56108360  0.39330023  0.19813007  1
  Ni  Ni105  1  0.06108360  0.10669977  0.80186993  1
  Ni  Ni106  1  0.43891640  0.89330023  0.30186993  1
  Ni  Ni107  1  0.93891640  0.60669977  0.69813007  1
  Ni  Ni108  1  0.43891640  0.60669977  0.80186993  1
  Ni  Ni109  1  0.93891640  0.89330023  0.19813007  1
  Ni  Ni110  1  0.56108360  0.10669977  0.69813007  1
  Ni  Ni111  1  0.06108360  0.39330023  0.30186993  1
  Ni  Ni112  1  0.69261638  0.18123987  0.14525685  1
  Ni  Ni113  1  0.19261638  0.31876013  0.85474315  1
  Ni  Ni114  1  0.30738362  0.68123987  0.35474315  1
  Ni  Ni115  1  0.80738362  0.81876013  0.64525685  1
  Ni  Ni116  1  0.30738362  0.81876013  0.85474315  1
  Ni  Ni117  1  0.80738362  0.68123987  0.14525685  1
  Ni  Ni118  1  0.69261638  0.31876013  0.64525685  1
  Ni  Ni119  1  0.19261638  0.18123987  0.35474315  1
  Ni  Ni120  1  0.68112461  0.35314147  0.46447395  1
  Ni  Ni121  1  0.18112461  0.14685853  0.53552605  1
  Ni  Ni122  1  0.31887539  0.85314147  0.03552605  1
  Ni  Ni123  1  0.81887539  0.64685853  0.96447395  1
  Ni  Ni124  1  0.31887539  0.64685853  0.53552605  1
  Ni  Ni125  1  0.81887539  0.85314147  0.46447395  1
  Ni  Ni126  1  0.68112461  0.14685853  0.96447395  1
  Ni  Ni127  1  0.18112461  0.35314147  0.03552605  1
  Cu  Cu128  1  0.61530163  0.35712856  0.12149440  1
  Cu  Cu129  1  0.11530163  0.14287144  0.87850560  1
  Cu  Cu130  1  0.38469837  0.85712856  0.37850560  1
  Cu  Cu131  1  0.88469837  0.64287144  0.62149440  1
  Cu  Cu132  1  0.38469837  0.64287144  0.87850560  1
  Cu  Cu133  1  0.88469837  0.85712856  0.12149440  1
  Cu  Cu134  1  0.61530163  0.14287144  0.62149440  1
  Cu  Cu135  1  0.11530163  0.35712856  0.37850560  1
  Cu  Cu136  1  0.75415681  0.28360389  0.14486208  1
  Cu  Cu137  1  0.25415681  0.21639611  0.85513792  1
  Cu  Cu138  1  0.24584319  0.78360389  0.35513792  1
  Cu  Cu139  1  0.74584319  0.71639611  0.64486208  1
  Cu  Cu140  1  0.24584319  0.71639611  0.85513792  1
  Cu  Cu141  1  0.74584319  0.78360389  0.14486208  1
  Cu  Cu142  1  0.75415681  0.21639611  0.64486208  1
  Cu  Cu143  1  0.25415681  0.28360389  0.35513792  1
  Cu  Cu144  1  0.59389782  0.26728705  0.44592222  1
  Cu  Cu145  1  0.09389782  0.23271295  0.55407778  1
  Cu  Cu146  1  0.40610218  0.76728705  0.05407778  1
  Cu  Cu147  1  0.90610218  0.73271295  0.94592222  1
  Cu  Cu148  1  0.40610218  0.73271295  0.55407778  1
  Cu  Cu149  1  0.90610218  0.76728705  0.44592222  1
  Cu  Cu150  1  0.59389782  0.23271295  0.94592222  1
  Cu  Cu151  1  0.09389782  0.26728705  0.05407778  1
  C  C152  1  0.59960831  0.36633559  0.25477495  1
  C  C153  1  0.09960831  0.13366441  0.74522505  1
  C  C154  1  0.40039169  0.86633559  0.24522505  1
  C  C155  1  0.90039169  0.63366441  0.75477495  1
  C  C156  1  0.40039169  0.63366441  0.74522505  1
  C  C157  1  0.90039169  0.86633559  0.25477495  1
  C  C158  1  0.59960831  0.13366441  0.75477495  1
  C  C159  1  0.09960831  0.36633559  0.24522505  1
  C  C160  1  0.47802445  0.45053769  0.19411179  1
  C  C161  1  0.97802445  0.04946231  0.80588821  1
  C  C162  1  0.52197555  0.95053769  0.30588821  1
  C  C163  1  0.02197555  0.54946231  0.69411179  1
  C  C164  1  0.52197555  0.54946231  0.80588821  1
  C  C165  1  0.02197555  0.95053769  0.19411179  1
  C  C166  1  0.47802445  0.04946231  0.69411179  1
  C  C167  1  0.97802445  0.45053769  0.30588821  1
  C  C168  1  0.58223522  0.16514228  0.13074662  1
  C  C169  1  0.08223522  0.33485772  0.86925338  1
  C  C170  1  0.41776478  0.66514228  0.36925338  1
  C  C171  1  0.91776478  0.83485772  0.63074662  1
  C  C172  1  0.41776478  0.83485772  0.86925338  1
  C  C173  1  0.91776478  0.66514228  0.13074662  1
  C  C174  1  0.58223522  0.33485772  0.63074662  1
  C  C175  1  0.08223522  0.16514228  0.36925338  1
  C  C176  1  0.76882526  0.12191290  0.15971720  1
  C  C177  1  0.26882526  0.37808710  0.84028280  1
  C  C178  1  0.23117474  0.62191290  0.34028280  1
  C  C179  1  0.73117474  0.87808710  0.65971720  1
  C  C180  1  0.23117474  0.87808710  0.84028280  1
  C  C181  1  0.73117474  0.62191290  0.15971720  1
  C  C182  1  0.76882526  0.37808710  0.65971720  1
  C  C183  1  0.26882526  0.12191290  0.34028280  1
  C  C184  1  0.79272261  0.34696610  0.48346348  1
  C  C185  1  0.29272261  0.15303390  0.51653652  1
  C  C186  1  0.20727739  0.84696610  0.01653652  1
  C  C187  1  0.70727739  0.65303390  0.98346348  1
  C  C188  1  0.20727739  0.65303390  0.51653652  1
  C  C189  1  0.70727739  0.84696610  0.48346348  1
  C  C190  1  0.79272261  0.15303390  0.98346348  1
  C  C191  1  0.29272261  0.34696610  0.01653652  1
  C  C192  1  0.62836448  0.42688630  0.46218595  1
  C  C193  1  0.12836448  0.07311370  0.53781405  1
  C  C194  1  0.37163552  0.92688630  0.03781405  1
  C  C195  1  0.87163552  0.57311370  0.96218595  1
  C  C196  1  0.37163552  0.57311370  0.53781405  1
  C  C197  1  0.87163552  0.92688630  0.46218595  1
  C  C198  1  0.62836448  0.07311370  0.96218595  1
  C  C199  1  0.12836448  0.42688630  0.03781405  1
  C  C200  1  0.54946604  0.16864123  0.30406928  1
  C  C201  1  0.04946604  0.33135877  0.69593072  1
  C  C202  1  0.45053396  0.66864123  0.19593072  1
  C  C203  1  0.95053396  0.83135877  0.80406928  1
  C  C204  1  0.45053396  0.83135877  0.69593072  1
  C  C205  1  0.95053396  0.66864123  0.30406928  1
  C  C206  1  0.54946604  0.33135877  0.80406928  1
  C  C207  1  0.04946604  0.16864123  0.19593072  1
  C  C208  1  0.81486003  0.25690804  0.33096604  1
  C  C209  1  0.31486003  0.24309196  0.66903396  1
  C  C210  1  0.18513997  0.75690804  0.16903396  1
  C  C211  1  0.68513997  0.74309196  0.83096604  1
  C  C212  1  0.18513997  0.74309196  0.66903396  1
  C  C213  1  0.68513997  0.75690804  0.33096604  1
  C  C214  1  0.81486003  0.24309196  0.83096604  1
  C  C215  1  0.31486003  0.25690804  0.16903396  1
  C  C216  1  0.84062210  0.14415256  0.46989382  1
  C  C217  1  0.34062210  0.35584744  0.53010618  1
  C  C218  1  0.15937790  0.64415256  0.03010618  1
  C  C219  1  0.65937790  0.85584744  0.96989382  1
  C  C220  1  0.15937790  0.85584744  0.53010618  1
  C  C221  1  0.65937790  0.64415256  0.46989382  1
  C  C222  1  0.84062210  0.35584744  0.96989382  1
  C  C223  1  0.34062210  0.14415256  0.03010618  1
  C  C224  1  0.78659757  0.04979451  0.32678868  1
  C  C225  1  0.28659757  0.45020549  0.67321132  1
  C  C226  1  0.21340243  0.54979451  0.17321132  1
  C  C227  1  0.71340243  0.95020549  0.82678868  1
  C  C228  1  0.21340243  0.95020549  0.67321132  1
  C  C229  1  0.71340243  0.54979451  0.32678868  1
  C  C230  1  0.78659757  0.45020549  0.82678868  1
  C  C231  1  0.28659757  0.04979451  0.17321132  1
  C  C232  1  0.57464307  0.06064052  0.44277594  1
  C  C233  1  0.07464307  0.43935948  0.55722406  1
  C  C234  1  0.42535693  0.56064052  0.05722406  1
  C  C235  1  0.92535693  0.93935948  0.94277594  1
  C  C236  1  0.42535693  0.93935948  0.55722406  1
  C  C237  1  0.92535693  0.56064052  0.44277594  1
  C  C238  1  0.57464307  0.43935948  0.94277594  1
  C  C239  1  0.07464307  0.06064052  0.05722406  1
  C  C240  1  0.90407646  0.46369766  0.14984091  1
  C  C241  1  0.40407646  0.03630234  0.85015909  1
  C  C242  1  0.09592354  0.96369766  0.35015909  1
  C  C243  1  0.59592354  0.53630234  0.64984091  1
  C  C244  1  0.09592354  0.53630234  0.85015909  1
  C  C245  1  0.59592354  0.96369766  0.14984091  1
  C  C246  1  0.90407646  0.03630234  0.64984091  1
  C  C247  1  0.40407646  0.46369766  0.35015909  1
