# generated using pymatgen
data_CuNiC5
_symmetry_space_group_name_H-M   'P 1'
_cell_length_a   6.89680549
_cell_length_b   6.89680549
_cell_length_c   6.89680549
_cell_angle_alpha   127.91225861
_cell_angle_beta   127.91225861
_cell_angle_gamma   76.76720879
_symmetry_Int_Tables_number   1
_chemical_formula_structural   CuNiC5
_chemical_formula_sum   'Cu1 Ni1 C5'
_cell_volume   198.28725897
_cell_formula_units_Z   1
loop_
 _symmetry_equiv_pos_site_id
 _symmetry_equiv_pos_as_xyz
  1  'x, y, z'
loop_
 _atom_site_type_symbol
 _atom_site_label
 _atom_site_symmetry_multiplicity
 _atom_site_fract_x
 _atom_site_fract_y
 _atom_site_fract_z
 _atom_site_occupancy
  C  C0  1  0.50000000  0.50000000  0.00000000  1
  Ni  Ni1  1  0.75000000  0.25000000  0.50000000  1
  Cu  Cu2  1  0.25000000  0.75000000  0.50000000  1
  C  C3  1  0.86267300  0.36719100  0.01415900  1
  C  C4  1  0.35303200  0.84851400  0.98584100  1
  C  C5  1  0.63280900  0.64696800  0.49548200  1
  C  C6  1  0.15148600  0.13732700  0.50451800  1
