# generated using pymatgen
data_Cu2NiC4
_symmetry_space_group_name_H-M   'P 1'
_cell_length_a   2.94625200
_cell_length_b   9.00905900
_cell_length_c   10.57362600
_cell_angle_alpha   90.00000000
_cell_angle_beta   90.00000000
_cell_angle_gamma   90.00000000
_symmetry_Int_Tables_number   1
_chemical_formula_structural   Cu2NiC4
_chemical_formula_sum   'Cu8 Ni4 C16'
_cell_volume   280.65531185
_cell_formula_units_Z   4
loop_
 _symmetry_equiv_pos_site_id
 _symmetry_equiv_pos_as_xyz
  1  'x, y, z'
loop_
 _atom_site_type_symbol
 _atom_site_label
 _atom_site_symmetry_multiplicity
 _atom_site_fract_x
 _atom_site_fract_y
 _atom_site_fract_z
 _atom_site_occupancy
  Ni  Ni0  1  0.25000000  0.24031500  0.84645100  1
  Ni  Ni1  1  0.75000000  0.75968500  0.15354900  1
  Ni  Ni2  1  0.25000000  0.74031500  0.65354900  1
  Ni  Ni3  1  0.75000000  0.25968500  0.34645100  1
  Cu  Cu4  1  0.75000000  0.41220900  0.60137600  1
  Cu  Cu5  1  0.25000000  0.08779100  0.10137600  1
  Cu  Cu6  1  0.75000000  0.91220900  0.89862400  1
  Cu  Cu7  1  0.25000000  0.58779100  0.39862400  1
  Cu  Cu8  1  0.25000000  0.55839800  0.88167900  1
  Cu  Cu9  1  0.75000000  0.44160200  0.11832100  1
  Cu  Cu10  1  0.25000000  0.05839800  0.61832100  1
  Cu  Cu11  1  0.75000000  0.94160200  0.38167900  1
  C  C12  1  0.75000000  0.91019200  0.57297500  1
  C  C13  1  0.25000000  0.08980800  0.42702500  1
  C  C14  1  0.75000000  0.41019200  0.92702500  1
  C  C15  1  0.25000000  0.58980800  0.07297500  1
  C  C16  1  0.75000000  0.03268500  0.21340900  1
  C  C17  1  0.25000000  0.96731500  0.78659100  1
  C  C18  1  0.75000000  0.53268500  0.28659100  1
  C  C19  1  0.25000000  0.46731500  0.71340900  1
  C  C20  1  0.75000000  0.62218000  0.53289100  1
  C  C21  1  0.25000000  0.37782000  0.46710900  1
  C  C22  1  0.75000000  0.12218000  0.96710900  1
  C  C23  1  0.25000000  0.87782000  0.03289100  1
  C  C24  1  0.25000000  0.79742200  0.32589600  1
  C  C25  1  0.75000000  0.20257800  0.67410400  1
  C  C26  1  0.75000000  0.70257800  0.82589600  1
  C  C27  1  0.25000000  0.29742200  0.17410400  1
