# generated using pymatgen
data_Cu(NiC4)5
_symmetry_space_group_name_H-M   'P 1'
_cell_length_a   9.95461011
_cell_length_b   9.95461011
_cell_length_c   9.95461011
_cell_angle_alpha   109.44048048
_cell_angle_beta   109.44048048
_cell_angle_gamma   109.53271845
_symmetry_Int_Tables_number   1
_chemical_formula_structural   Cu(NiC4)5
_chemical_formula_sum   'Cu2 Ni10 C40'
_cell_volume   759.36486428
_cell_formula_units_Z   2
loop_
 _symmetry_equiv_pos_site_id
 _symmetry_equiv_pos_as_xyz
  1  'x, y, z'
loop_
 _atom_site_type_symbol
 _atom_site_label
 _atom_site_symmetry_multiplicity
 _atom_site_fract_x
 _atom_site_fract_y
 _atom_site_fract_z
 _atom_site_occupancy
  Ni  Ni0  1  0.34964400  0.76511700  0.17638800  1
  Ni  Ni1  1  0.01511700  0.33872900  0.91547300  1
  Ni  Ni2  1  0.42325600  0.09964400  0.08452700  1
  Ni  Ni3  1  0.58872900  0.17325600  0.82361200  1
  Ni  Ni4  1  0.90035600  0.98488300  0.32361200  1
  Ni  Ni5  1  0.23488300  0.41127100  0.58452700  1
  Ni  Ni6  1  0.82674400  0.65035600  0.41547300  1
  Ni  Ni7  1  0.66127100  0.57674400  0.67638800  1
  Ni  Ni8  1  0.75000000  0.25000000  0.50000000  1
  Ni  Ni9  1  0.50000000  0.50000000  0.00000000  1
  Cu  Cu10  1  0.00000000  0.00000000  0.00000000  1
  Cu  Cu11  1  0.25000000  0.75000000  0.50000000  1
  C  C12  1  0.55719100  0.83139100  0.91014600  1
  C  C13  1  0.08139100  0.67124500  0.77420000  1
  C  C14  1  0.32875500  0.10295500  0.41014600  1
  C  C15  1  0.35295500  0.44280900  0.27420000  1
  C  C16  1  0.16860900  0.07875500  0.72580000  1
  C  C17  1  0.69280900  0.91860900  0.58985400  1
  C  C18  1  0.92124500  0.64704500  0.08985400  1
  C  C19  1  0.89704500  0.30719100  0.22580000  1
  C  C20  1  0.11423800  0.01905600  0.25709100  1
  C  C21  1  0.26905600  0.51196500  0.40481800  1
  C  C22  1  0.10714700  0.86423800  0.59518200  1
  C  C23  1  0.76196500  0.85714700  0.74290900  1
  C  C24  1  0.13576200  0.73094400  0.24290900  1
  C  C25  1  0.98094400  0.23803500  0.09518200  1
  C  C26  1  0.14285300  0.88576200  0.90481800  1
  C  C27  1  0.48803500  0.89285300  0.75709100  1
  C  C28  1  0.34967100  0.01986700  0.54788800  1
  C  C29  1  0.26986700  0.22197900  0.17019600  1
  C  C30  1  0.05178300  0.09967100  0.82980400  1
  C  C31  1  0.47197900  0.80178300  0.45211200  1
  C  C32  1  0.90032900  0.73013300  0.95211200  1
  C  C33  1  0.98013300  0.52802100  0.32980400  1
  C  C34  1  0.19821700  0.65032900  0.67019600  1
  C  C35  1  0.77802100  0.94821700  0.04788800  1
  C  C36  1  0.45343900  0.07044700  0.32174800  1
  C  C37  1  0.32044700  0.49869900  0.11700800  1
  C  C38  1  0.38169100  0.20343900  0.88299200  1
  C  C39  1  0.74869900  0.13169100  0.67825200  1
  C  C40  1  0.47018800  0.86417800  0.03889000  1
  C  C41  1  0.11417800  0.57528800  0.89399100  1
  C  C42  1  0.68129800  0.22018800  0.10600900  1
  C  C43  1  0.82528800  0.43129800  0.96111000  1
  C  C44  1  0.77981200  0.88582200  0.46111000  1
  C  C45  1  0.13582200  0.17471200  0.60600900  1
  C  C46  1  0.56870200  0.52981200  0.39399100  1
  C  C47  1  0.42471200  0.31870200  0.53889000  1
  C  C48  1  0.50130100  0.61830900  0.82174800  1
  C  C49  1  0.86830900  0.54656100  0.61700800  1
  C  C50  1  0.92955300  0.25130100  0.38299200  1
  C  C51  1  0.79656100  0.67955300  0.17825200  1
