# generated using pymatgen
data_Cu3Ni9C8
_symmetry_space_group_name_H-M   'P 1'
_cell_length_a   5.67063827
_cell_length_b   10.92772466
_cell_length_c   11.02465400
_cell_angle_alpha   90.00000000
_cell_angle_beta   90.00000000
_cell_angle_gamma   95.08712494
_symmetry_Int_Tables_number   1
_chemical_formula_structural   Cu3Ni9C8
_chemical_formula_sum   'Cu12 Ni36 C32'
_cell_volume   680.47566671
_cell_formula_units_Z   4
loop_
 _symmetry_equiv_pos_site_id
 _symmetry_equiv_pos_as_xyz
  1  'x, y, z'
loop_
 _atom_site_type_symbol
 _atom_site_label
 _atom_site_symmetry_multiplicity
 _atom_site_fract_x
 _atom_site_fract_y
 _atom_site_fract_z
 _atom_site_occupancy
  C  C0  1  0.05466700  0.62663900  0.79297900  1
  C  C1  1  0.94533300  0.37336100  0.29297900  1
  C  C2  1  0.00471300  0.86171000  0.59315100  1
  C  C3  1  0.99528700  0.13829000  0.09315100  1
  Ni  Ni4  1  0.00386300  0.79811800  0.30931400  1
  Ni  Ni5  1  0.99613700  0.20188200  0.80931400  1
  Ni  Ni6  1  0.73882600  0.75102400  0.22172000  1
  Ni  Ni7  1  0.26117400  0.24897600  0.72172000  1
  Ni  Ni8  1  0.95351900  0.65218300  0.26564300  1
  Ni  Ni9  1  0.04648100  0.34781700  0.76564300  1
  Ni  Ni10  1  0.06768800  0.85784500  0.10539100  1
  Ni  Ni11  1  0.93231200  0.14215500  0.60539100  1
  Ni  Ni12  1  0.00048600  0.71202100  0.06012100  1
  Ni  Ni13  1  0.99951400  0.28797900  0.56012100  1
  Ni  Ni14  1  0.25710300  0.75119900  0.15216800  1
  Ni  Ni15  1  0.74289700  0.24880100  0.65216800  1
  Ni  Ni16  1  0.50197100  0.44052800  0.84636000  1
  Ni  Ni17  1  0.49802900  0.55947200  0.34636000  1
  Ni  Ni18  1  0.75288900  0.42207400  0.93222600  1
  Ni  Ni19  1  0.24711100  0.57792600  0.43222600  1
  Ni  Ni20  1  0.50280100  0.31645300  0.94209500  1
  Ni  Ni21  1  0.49719900  0.68354700  0.44209500  1
  Ni  Ni22  1  0.28260800  0.45785700  0.02565700  1
  Ni  Ni23  1  0.71739200  0.54214300  0.52565700  1
  Ni  Ni24  1  0.54167500  0.46264900  0.11076600  1
  Ni  Ni25  1  0.45832500  0.53735100  0.61076600  1
  Ni  Ni26  1  0.49097000  0.57161800  0.00155800  1
  Ni  Ni27  1  0.50903000  0.42838200  0.50155700  1
  Ni  Ni28  1  0.56640300  0.01029000  0.26596900  1
  Ni  Ni29  1  0.43359700  0.98971000  0.76596900  1
  Ni  Ni30  1  0.42058100  0.92337500  0.37905900  1
  Ni  Ni31  1  0.57941900  0.07662500  0.87905900  1
  Ni  Ni32  1  0.70005700  0.00156000  0.40647800  1
  Ni  Ni33  1  0.29994300  0.99844000  0.90647800  1
  Ni  Ni34  1  0.53542600  0.18730600  0.40441100  1
  Ni  Ni35  1  0.46457400  0.81269400  0.90441100  1
  Ni  Ni36  1  0.27647200  0.11564500  0.34599100  1
  Ni  Ni37  1  0.72352800  0.88435500  0.84599100  1
  Ni  Ni38  1  0.35929600  0.08168500  0.49134600  1
  Ni  Ni39  1  0.64070400  0.91831500  0.99134600  1
  Cu  Cu40  1  0.93247700  0.74195000  0.23928500  1
  Cu  Cu41  1  0.06752300  0.25805000  0.73928500  1
  Cu  Cu42  1  0.07312800  0.76621500  0.13158800  1
  Cu  Cu43  1  0.92687200  0.23378500  0.63158800  1
  Cu  Cu44  1  0.56492700  0.40869500  0.92933900  1
  Cu  Cu45  1  0.43507300  0.59130500  0.42933900  1
  Cu  Cu46  1  0.46565000  0.47867600  0.02476300  1
  Cu  Cu47  1  0.53435000  0.52132400  0.52476300  1
  Cu  Cu48  1  0.53588300  0.00220300  0.35928800  1
  Cu  Cu49  1  0.46411700  0.99779700  0.85928800  1
  Cu  Cu50  1  0.41894300  0.10555200  0.40327400  1
  Cu  Cu51  1  0.58105700  0.89444800  0.90327400  1
  C  C52  1  0.78004000  0.72867400  0.70567700  1
  C  C53  1  0.21996000  0.27132600  0.20567700  1
  C  C54  1  0.16272300  0.82242800  0.77290700  1
  C  C55  1  0.83727700  0.17757200  0.27290700  1
  C  C56  1  0.15251600  0.68218300  0.60511500  1
  C  C57  1  0.84748400  0.31781700  0.10511500  1
  C  C58  1  0.83115900  0.66792000  0.93451300  1
  C  C59  1  0.16884100  0.33208000  0.43451300  1
  C  C60  1  0.31252300  0.68189300  0.92800400  1
  C  C61  1  0.68747700  0.31810700  0.42800400  1
  C  C62  1  0.86079700  0.48877300  0.70216100  1
  C  C63  1  0.13920300  0.51122700  0.20216100  1
  C  C64  1  0.34612900  0.52579800  0.74372600  1
  C  C65  1  0.65387100  0.47420200  0.24372600  1
  C  C66  1  0.03374000  0.46627800  0.91164500  1
  C  C67  1  0.96626000  0.53372200  0.41164500  1
  C  C68  1  0.84181800  0.97481600  0.70880600  1
  C  C69  1  0.15818200  0.02518400  0.20880600  1
  C  C70  1  0.30861200  0.98782600  0.61479300  1
  C  C71  1  0.69138800  0.01217400  0.11479300  1
  C  C72  1  0.73484000  0.79256300  0.47920300  1
  C  C73  1  0.26516000  0.20743700  0.97920300  1
  C  C74  1  0.19552900  0.83760100  0.42786900  1
  C  C75  1  0.80447100  0.16239900  0.92786900  1
  C  C76  1  0.92897200  0.02051600  0.48747400  1
  C  C77  1  0.07102800  0.97948400  0.98747400  1
  C  C78  1  0.49886700  0.75133900  0.20218700  1
  C  C79  1  0.50113300  0.24866100  0.70218700  1
