# generated using pymatgen
data_Cu5(NiC8)2
_symmetry_space_group_name_H-M   'P 1'
_cell_length_a   11.15799900
_cell_length_b   11.15799900
_cell_length_c   7.83892000
_cell_angle_alpha   90.00000000
_cell_angle_beta   90.00000000
_cell_angle_gamma   90.00000000
_symmetry_Int_Tables_number   1
_chemical_formula_structural   Cu5(NiC8)2
_chemical_formula_sum   'Cu20 Ni8 C64'
_cell_volume   975.95292179
_cell_formula_units_Z   4
loop_
 _symmetry_equiv_pos_site_id
 _symmetry_equiv_pos_as_xyz
  1  'x, y, z'
loop_
 _atom_site_type_symbol
 _atom_site_label
 _atom_site_symmetry_multiplicity
 _atom_site_fract_x
 _atom_site_fract_y
 _atom_site_fract_z
 _atom_site_occupancy
  C  C0  1  0.25000000  0.75000000  0.00000000  1
  C  C1  1  0.25000000  0.25000000  0.00000000  1
  C  C2  1  0.75000000  0.75000000  0.00000000  1
  C  C3  1  0.75000000  0.25000000  0.00000000  1
  C  C4  1  0.00000000  0.00000000  0.50000000  1
  C  C5  1  0.50000000  0.50000000  0.50000000  1
  C  C6  1  0.33831200  0.67461500  0.33697500  1
  C  C7  1  0.27349100  0.00000000  0.52568900  1
  C  C8  1  0.50000000  0.77349100  0.52568900  1
  C  C9  1  0.50000000  0.22650900  0.52568900  1
  C  C10  1  0.83573800  0.50000000  0.97109500  1
  C  C11  1  0.00000000  0.66426200  0.97109500  1
  C  C12  1  0.00000000  0.33573800  0.97109500  1
  C  C13  1  0.16426200  0.50000000  0.97109500  1
  C  C14  1  0.66426200  0.00000000  0.02890500  1
  C  C15  1  0.33573800  0.00000000  0.02890500  1
  C  C16  1  0.50000000  0.83573800  0.02890500  1
  C  C17  1  0.50000000  0.16426200  0.02890500  1
  C  C18  1  0.88547800  0.38547800  0.25133000  1
  C  C19  1  0.88547800  0.61452200  0.25133000  1
  C  C20  1  0.11452200  0.38547800  0.25133000  1
  C  C21  1  0.11452200  0.61452200  0.25133000  1
  C  C22  1  0.61452200  0.88547800  0.74867000  1
  C  C23  1  0.38547800  0.11452200  0.74867000  1
  C  C24  1  0.38547800  0.88547800  0.74867000  1
  C  C25  1  0.61452200  0.11452200  0.74867000  1
  C  C26  1  0.89030600  0.39030600  0.69827700  1
  C  C27  1  0.89030600  0.60969400  0.69827700  1
  C  C28  1  0.10969400  0.39030600  0.69827700  1
  C  C29  1  0.10969400  0.60969400  0.69827700  1
  C  C30  1  0.60969400  0.89030600  0.30172300  1
  C  C31  1  0.39030600  0.10969400  0.30172300  1
  C  C32  1  0.39030600  0.89030600  0.30172300  1
  C  C33  1  0.60969400  0.10969400  0.30172300  1
  C  C34  1  0.33831200  0.32538500  0.33697500  1
  C  C35  1  0.82538500  0.16168800  0.33697500  1
  C  C36  1  0.17461500  0.83831200  0.33697500  1
  C  C37  1  0.66168800  0.67461500  0.33697500  1
  C  C38  1  0.16168800  0.82538500  0.66302500  1
  C  C39  1  0.83831200  0.17461500  0.66302500  1
  C  C40  1  0.32538500  0.33831200  0.66302500  1
  C  C41  1  0.61012200  0.50000000  0.88872800  1
  C  C42  1  0.16168800  0.17461500  0.66302500  1
  C  C43  1  0.67461500  0.33831200  0.66302500  1
  C  C44  1  0.32538500  0.66168800  0.66302500  1
  C  C45  1  0.83831200  0.82538500  0.66302500  1
  C  C46  1  0.72650900  0.00000000  0.52568900  1
  C  C47  1  0.00000000  0.88987800  0.88872800  1
  C  C48  1  0.17461500  0.16168800  0.33697500  1
  C  C49  1  0.82538500  0.83831200  0.33697500  1
  C  C50  1  0.00000000  0.11012200  0.88872800  1
  C  C51  1  0.38987800  0.50000000  0.88872800  1
  C  C52  1  0.50000000  0.00000000  0.53214000  1
  C  C53  1  0.00000000  0.50000000  0.46786000  1
  C  C54  1  0.11012200  0.00000000  0.11127200  1
  C  C55  1  0.22650900  0.50000000  0.47431100  1
  C  C56  1  0.00000000  0.27349100  0.47431100  1
  C  C57  1  0.00000000  0.72650900  0.47431100  1
  C  C58  1  0.77349100  0.50000000  0.47431100  1
  C  C59  1  0.50000000  0.61012200  0.11127200  1
  C  C60  1  0.50000000  0.38987800  0.11127200  1
  C  C61  1  0.88987800  0.00000000  0.11127200  1
  C  C62  1  0.67461500  0.66168800  0.66302500  1
  C  C63  1  0.66168800  0.32538500  0.33697500  1
  Ni  Ni64  1  0.50000000  0.68178000  0.82448900  1
  Ni  Ni65  1  0.31822000  0.50000000  0.17551100  1
  Ni  Ni66  1  0.00000000  0.18178000  0.17551100  1
  Ni  Ni67  1  0.00000000  0.81822000  0.17551100  1
  Ni  Ni68  1  0.68178000  0.50000000  0.17551100  1
  Ni  Ni69  1  0.18178000  0.00000000  0.82448900  1
  Ni  Ni70  1  0.81822000  0.00000000  0.82448900  1
  Ni  Ni71  1  0.50000000  0.31822000  0.82448900  1
  Cu  Cu72  1  0.68603900  0.18603900  0.51777700  1
  Cu  Cu73  1  0.31396100  0.81396100  0.51777700  1
  Cu  Cu74  1  0.31396100  0.18603900  0.51777700  1
  Cu  Cu75  1  0.68603900  0.81396100  0.51777700  1
  Cu  Cu76  1  0.18603900  0.68603900  0.48222300  1
  Cu  Cu77  1  0.18603900  0.31396100  0.48222300  1
  Cu  Cu78  1  0.50000000  0.25602100  0.26250100  1
  Cu  Cu79  1  0.50000000  0.74397900  0.26250100  1
  Cu  Cu80  1  0.24397900  0.00000000  0.26250100  1
  Cu  Cu81  1  0.75602100  0.00000000  0.26250100  1
  Cu  Cu82  1  0.25602100  0.50000000  0.73749900  1
  Cu  Cu83  1  0.00000000  0.24397900  0.73749900  1
  Cu  Cu84  1  0.00000000  0.75602100  0.73749900  1
  Cu  Cu85  1  0.74397900  0.50000000  0.73749900  1
  Cu  Cu86  1  0.50000000  0.00000000  0.14818700  1
  Cu  Cu87  1  0.00000000  0.50000000  0.85181300  1
  Cu  Cu88  1  0.50000000  0.00000000  0.89298900  1
  Cu  Cu89  1  0.00000000  0.50000000  0.10701100  1
  Cu  Cu90  1  0.81396100  0.68603900  0.48222300  1
  Cu  Cu91  1  0.81396100  0.31396100  0.48222300  1
