# generated using pymatgen
data_CuNiC5
_symmetry_space_group_name_H-M   'P 1'
_cell_length_a   5.35667110
_cell_length_b   5.35667110
_cell_length_c   8.05512266
_cell_angle_alpha   67.12669538
_cell_angle_beta   67.12669538
_cell_angle_gamma   69.24966732
_symmetry_Int_Tables_number   1
_chemical_formula_structural   CuNiC5
_chemical_formula_sum   'Cu2 Ni2 C10'
_cell_volume   190.50802006
_cell_formula_units_Z   2
loop_
 _symmetry_equiv_pos_site_id
 _symmetry_equiv_pos_as_xyz
  1  'x, y, z'
loop_
 _atom_site_type_symbol
 _atom_site_label
 _atom_site_symmetry_multiplicity
 _atom_site_fract_x
 _atom_site_fract_y
 _atom_site_fract_z
 _atom_site_occupancy
  Ni  Ni0  1  0.00000000  0.00000000  0.50000000  1
  Ni  Ni1  1  0.00000000  0.00000000  0.00000000  1
  Cu  Cu2  1  0.52168800  0.47831200  0.75000000  1
  Cu  Cu3  1  0.47831200  0.52168800  0.25000000  1
  C  C4  1  0.14607300  0.85392700  0.25000000  1
  C  C5  1  0.85392700  0.14607300  0.75000000  1
  C  C6  1  0.73755600  0.77889400  0.12527600  1
  C  C7  1  0.22110600  0.26244400  0.37472400  1
  C  C8  1  0.68321100  0.28343400  0.44046000  1
  C  C9  1  0.71656600  0.31678900  0.05954000  1
  C  C10  1  0.31678900  0.71656600  0.55954000  1
  C  C11  1  0.28343400  0.68321100  0.94046000  1
  C  C12  1  0.77889400  0.73755600  0.62527600  1
  C  C13  1  0.26244400  0.22110600  0.87472400  1
