# generated using pymatgen
data_CuNiC5
_symmetry_space_group_name_H-M   'P 1'
_cell_length_a   5.36062400
_cell_length_b   6.60326500
_cell_length_c   11.63851900
_cell_angle_alpha   90.00000000
_cell_angle_beta   90.00000000
_cell_angle_gamma   90.00000000
_symmetry_Int_Tables_number   1
_chemical_formula_structural   CuNiC5
_chemical_formula_sum   'Cu4 Ni4 C20'
_cell_volume   411.97588267
_cell_formula_units_Z   4
loop_
 _symmetry_equiv_pos_site_id
 _symmetry_equiv_pos_as_xyz
  1  'x, y, z'
loop_
 _atom_site_type_symbol
 _atom_site_label
 _atom_site_symmetry_multiplicity
 _atom_site_fract_x
 _atom_site_fract_y
 _atom_site_fract_z
 _atom_site_occupancy
  Ni  Ni0  1  0.00000000  0.00000000  0.00000000  1
  Ni  Ni1  1  0.00000000  0.50000000  0.00000000  1
  Ni  Ni2  1  0.50000000  0.00000000  0.50000000  1
  Ni  Ni3  1  0.50000000  0.50000000  0.50000000  1
  Cu  Cu4  1  0.00211600  0.75000000  0.27825800  1
  Cu  Cu5  1  0.99788400  0.25000000  0.72174200  1
  Cu  Cu6  1  0.49788400  0.75000000  0.77825800  1
  Cu  Cu7  1  0.50211600  0.25000000  0.22174200  1
  C  C8  1  0.94327300  0.25000000  0.40357200  1
  C  C9  1  0.55672700  0.25000000  0.90357200  1
  C  C10  1  0.05672700  0.75000000  0.59642800  1
  C  C11  1  0.44327300  0.75000000  0.09642800  1
  C  C12  1  0.79197800  0.45571400  0.32778300  1
  C  C13  1  0.29197800  0.54428600  0.17221700  1
  C  C14  1  0.20802200  0.95571400  0.67221700  1
  C  C15  1  0.70802200  0.04428600  0.82778300  1
  C  C16  1  0.20802200  0.54428600  0.67221700  1
  C  C17  1  0.70802200  0.45571400  0.82778300  1
  C  C18  1  0.79197800  0.04428600  0.32778300  1
  C  C19  1  0.29197800  0.95571400  0.17221700  1
  C  C20  1  0.17781800  0.75000000  0.45538100  1
  C  C21  1  0.67781800  0.25000000  0.04461900  1
  C  C22  1  0.82218200  0.25000000  0.54461900  1
  C  C23  1  0.32218200  0.75000000  0.95538100  1
  C  C24  1  0.73162600  0.75000000  0.60935400  1
  C  C25  1  0.23162600  0.25000000  0.89064600  1
  C  C26  1  0.26837400  0.25000000  0.39064600  1
  C  C27  1  0.76837400  0.75000000  0.10935400  1
