# generated using pymatgen
data_Cu6Ni2C25
_symmetry_space_group_name_H-M   'P 1'
_cell_length_a   9.03902190
_cell_length_b   8.98891900
_cell_length_c   9.69095379
_cell_angle_alpha   90.00000000
_cell_angle_beta   105.32569487
_cell_angle_gamma   90.00000000
_symmetry_Int_Tables_number   1
_chemical_formula_structural   Cu6Ni2C25
_chemical_formula_sum   'Cu12 Ni4 C50'
_cell_volume   759.39928837
_cell_formula_units_Z   2
loop_
 _symmetry_equiv_pos_site_id
 _symmetry_equiv_pos_as_xyz
  1  'x, y, z'
loop_
 _atom_site_type_symbol
 _atom_site_label
 _atom_site_symmetry_multiplicity
 _atom_site_fract_x
 _atom_site_fract_y
 _atom_site_fract_z
 _atom_site_occupancy
  C  C0  1  0.50000000  0.50000000  0.00000000  1
  C  C1  1  0.50000000  0.00000000  0.50000000  1
  C  C2  1  0.26751500  0.60885000  0.26777900  1
  C  C3  1  0.73248500  0.10885000  0.23222100  1
  C  C4  1  0.73248500  0.39115000  0.73222100  1
  C  C5  1  0.26751500  0.89115000  0.76777900  1
  C  C6  1  0.26993400  0.44262100  0.35096100  1
  C  C7  1  0.73006600  0.94262100  0.14903900  1
  C  C8  1  0.73006600  0.55737900  0.64903900  1
  C  C9  1  0.26993400  0.05737900  0.85096100  1
  C  C10  1  0.24964100  0.60110200  0.43516000  1
  C  C11  1  0.75035900  0.10110200  0.06484000  1
  C  C12  1  0.75035900  0.39889800  0.56484000  1
  C  C13  1  0.24964100  0.89889800  0.93516000  1
  C  C14  1  0.02606500  0.48451300  0.17236400  1
  C  C15  1  0.97393500  0.98451300  0.32763600  1
  C  C16  1  0.97393500  0.51548700  0.82763600  1
  C  C17  1  0.02606500  0.01548700  0.67236400  1
  C  C18  1  0.00527500  0.46917800  0.35048500  1
  C  C19  1  0.99472500  0.96917800  0.14951500  1
  C  C20  1  0.99472500  0.53082200  0.64951500  1
  C  C21  1  0.00527500  0.03082200  0.85048500  1
  C  C22  1  0.00111500  0.64848100  0.26909400  1
  C  C23  1  0.99888500  0.14848100  0.23090600  1
  C  C24  1  0.99888500  0.35151900  0.73090600  1
  C  C25  1  0.00111500  0.85151900  0.76909400  1
  Ni  Ni26  1  0.05114500  0.53709300  0.27781400  1
  Ni  Ni27  1  0.94885500  0.03709300  0.22218600  1
  Ni  Ni28  1  0.94885500  0.46290700  0.72218600  1
  Ni  Ni29  1  0.05114500  0.96290700  0.77781400  1
  Cu  Cu30  1  0.22061700  0.54834500  0.33613300  1
  Cu  Cu31  1  0.77938300  0.04834500  0.16386700  1
  Cu  Cu32  1  0.77938300  0.45165500  0.66386700  1
  Cu  Cu33  1  0.22061700  0.95165500  0.83613300  1
  Cu  Cu34  1  0.26333600  0.30926600  0.99763500  1
  Cu  Cu35  1  0.73666400  0.80926600  0.50236500  1
  Cu  Cu36  1  0.73666400  0.69073400  0.00236500  1
  Cu  Cu37  1  0.26333600  0.19073400  0.49763500  1
  Cu  Cu38  1  0.64303100  0.39913600  0.27980800  1
  Cu  Cu39  1  0.35696900  0.89913600  0.22019200  1
  Cu  Cu40  1  0.35696900  0.60086400  0.72019200  1
  Cu  Cu41  1  0.64303100  0.10086400  0.77980800  1
  C  C42  1  0.31662500  0.43507800  0.05893500  1
  C  C43  1  0.68337500  0.93507800  0.44106500  1
  C  C44  1  0.68337500  0.56492200  0.94106500  1
  C  C45  1  0.31662500  0.06492200  0.55893500  1
  C  C46  1  0.14854800  0.25458000  0.02553700  1
  C  C47  1  0.85145200  0.75458000  0.47446300  1
  C  C48  1  0.85145200  0.74542000  0.97446300  1
  C  C49  1  0.14854800  0.24542000  0.52553700  1
  C  C50  1  0.33134500  0.25155800  0.91264500  1
  C  C51  1  0.66865500  0.75155800  0.58735500  1
  C  C52  1  0.66865500  0.74844200  0.08735500  1
  C  C53  1  0.33134500  0.24844200  0.41264500  1
  C  C54  1  0.63781800  0.37355900  0.14557500  1
  C  C55  1  0.36218200  0.87355900  0.35442500  1
  C  C56  1  0.36218200  0.62644100  0.85442500  1
  C  C57  1  0.63781800  0.12644100  0.64557500  1
  C  C58  1  0.57108000  0.50403800  0.31355100  1
  C  C59  1  0.42892000  0.00403800  0.18644900  1
  C  C60  1  0.42892000  0.49596200  0.68644900  1
  C  C61  1  0.57108000  0.99596200  0.81355100  1
  C  C62  1  0.72642200  0.31141800  0.36970500  1
  C  C63  1  0.27357800  0.81141800  0.13029500  1
  C  C64  1  0.27357800  0.68858200  0.63029500  1
  C  C65  1  0.72642200  0.18858200  0.86970500  1
