# generated using pymatgen
data_Cu5(Ni3C4)2
_symmetry_space_group_name_H-M   'P 1'
_cell_length_a   4.86024900
_cell_length_b   12.93046100
_cell_length_c   15.45954900
_cell_angle_alpha   90.00000000
_cell_angle_beta   90.00000000
_cell_angle_gamma   90.00000000
_symmetry_Int_Tables_number   1
_chemical_formula_structural   Cu5(Ni3C4)2
_chemical_formula_sum   'Cu20 Ni24 C32'
_cell_volume   971.55937863
_cell_formula_units_Z   4
loop_
 _symmetry_equiv_pos_site_id
 _symmetry_equiv_pos_as_xyz
  1  'x, y, z'
loop_
 _atom_site_type_symbol
 _atom_site_label
 _atom_site_symmetry_multiplicity
 _atom_site_fract_x
 _atom_site_fract_y
 _atom_site_fract_z
 _atom_site_occupancy
  Ni  Ni0  1  0.99068600  0.63747700  0.82238700  1
  Ni  Ni1  1  0.00931400  0.36252300  0.17761300  1
  Ni  Ni2  1  0.00931400  0.86252300  0.32238700  1
  Ni  Ni3  1  0.49068600  0.36252300  0.17761300  1
  Ni  Ni4  1  0.99068600  0.13747700  0.67761300  1
  Ni  Ni5  1  0.50931400  0.63747700  0.82238700  1
  Ni  Ni6  1  0.50931400  0.13747700  0.67761300  1
  Ni  Ni7  1  0.49068600  0.86252300  0.32238700  1
  Ni  Ni8  1  0.75000000  0.63329500  0.65568000  1
  Ni  Ni9  1  0.25000000  0.36670500  0.34432000  1
  Ni  Ni10  1  0.25000000  0.86670500  0.15568000  1
  Ni  Ni11  1  0.75000000  0.13329500  0.84432000  1
  Ni  Ni12  1  0.75000000  0.81110400  0.74927000  1
  Ni  Ni13  1  0.25000000  0.18889600  0.25072900  1
  Ni  Ni14  1  0.25000000  0.68889600  0.24927100  1
  Ni  Ni15  1  0.75000000  0.31110400  0.75073000  1
  Ni  Ni16  1  0.49600900  0.94010500  0.87949900  1
  Ni  Ni17  1  0.50399100  0.05989500  0.12050100  1
  Ni  Ni18  1  0.50399100  0.55989500  0.37949900  1
  Ni  Ni19  1  0.99600900  0.05989500  0.12050100  1
  Ni  Ni20  1  0.49600900  0.44010500  0.62050100  1
  Ni  Ni21  1  0.00399100  0.94010500  0.87949900  1
  Ni  Ni22  1  0.00399100  0.44010500  0.62050100  1
  Ni  Ni23  1  0.99600900  0.55989500  0.37949900  1
  C  C24  1  0.75000000  0.91483300  0.19818400  1
  C  C25  1  0.25000000  0.08516700  0.80181600  1
  C  C26  1  0.25000000  0.58516700  0.69818400  1
  C  C27  1  0.75000000  0.41483300  0.30181600  1
  C  C28  1  0.75000000  0.99550300  0.75157800  1
  C  C29  1  0.25000000  0.00449700  0.24842200  1
  C  C30  1  0.25000000  0.50449700  0.25157800  1
  C  C31  1  0.75000000  0.49550300  0.74842200  1
  C  C32  1  0.75000000  0.70709400  0.30665000  1
  C  C33  1  0.25000000  0.29290600  0.69335000  1
  C  C34  1  0.25000000  0.79290600  0.80665000  1
  C  C35  1  0.75000000  0.20709400  0.19335000  1
  C  C36  1  0.75000000  0.94518000  0.43300200  1
  C  C37  1  0.25000000  0.05482000  0.56699800  1
  C  C38  1  0.25000000  0.55482000  0.93300200  1
  C  C39  1  0.75000000  0.44518000  0.06699800  1
  C  C40  1  0.00230900  0.78000800  0.62235000  1
  C  C41  1  0.99769100  0.21999200  0.37765000  1
  C  C42  1  0.99769100  0.71999200  0.12235000  1
  C  C43  1  0.50230900  0.21999200  0.37765000  1
  C  C44  1  0.00230900  0.28000800  0.87765000  1
  C  C45  1  0.49769100  0.78000800  0.62235000  1
  C  C46  1  0.49769100  0.28000800  0.87765000  1
  C  C47  1  0.50230900  0.71999200  0.12235000  1
  C  C48  1  0.75000000  0.77841700  0.89585000  1
  C  C49  1  0.25000000  0.22158300  0.10415000  1
  C  C50  1  0.25000000  0.72158300  0.39585000  1
  C  C51  1  0.75000000  0.27841700  0.60415000  1
  C  C52  1  0.75000000  0.55115400  0.51804400  1
  C  C53  1  0.25000000  0.44884600  0.48195600  1
  C  C54  1  0.25000000  0.94884600  0.01804400  1
  C  C55  1  0.75000000  0.05115400  0.98195600  1
  Cu  Cu56  1  0.75000000  0.62582500  0.99623100  1
  Cu  Cu57  1  0.25000000  0.37417500  0.00376900  1
  Cu  Cu58  1  0.25000000  0.87417500  0.49623100  1
  Cu  Cu59  1  0.75000000  0.12582500  0.50376900  1
  Cu  Cu60  1  0.75000000  0.36802400  0.45690900  1
  Cu  Cu61  1  0.25000000  0.63197600  0.54309100  1
  Cu  Cu62  1  0.25000000  0.13197600  0.95690900  1
  Cu  Cu63  1  0.75000000  0.86802400  0.04309100  1
  Cu  Cu64  1  0.75000000  0.74660000  0.47304200  1
  Cu  Cu65  1  0.25000000  0.25340000  0.52695800  1
  Cu  Cu66  1  0.25000000  0.75340000  0.97304200  1
  Cu  Cu67  1  0.75000000  0.24660000  0.02695800  1
  Cu  Cu68  1  0.75000000  0.95399600  0.59420300  1
  Cu  Cu69  1  0.25000000  0.04600400  0.40579700  1
  Cu  Cu70  1  0.25000000  0.54600400  0.09420300  1
  Cu  Cu71  1  0.75000000  0.45399600  0.90579700  1
  Cu  Cu72  1  0.75000000  0.56818800  0.19686400  1
  Cu  Cu73  1  0.25000000  0.43181200  0.80313600  1
  Cu  Cu74  1  0.25000000  0.93181200  0.69686400  1
  Cu  Cu75  1  0.75000000  0.06818800  0.30313600  1
