# generated using pymatgen
data_Cu4NiC5
_symmetry_space_group_name_H-M   'P 1'
_cell_length_a   11.75845351
_cell_length_b   11.75845351
_cell_length_c   12.91850824
_cell_angle_alpha   90.00000000
_cell_angle_beta   90.00000000
_cell_angle_gamma   90.00000000
_symmetry_Int_Tables_number   1
_chemical_formula_structural   Cu4NiC5
_chemical_formula_sum   'Cu80 Ni20 C100'
_cell_volume   1786.12882542
_cell_formula_units_Z   20
loop_
 _symmetry_equiv_pos_site_id
 _symmetry_equiv_pos_as_xyz
  1  'x, y, z'
loop_
 _atom_site_type_symbol
 _atom_site_label
 _atom_site_symmetry_multiplicity
 _atom_site_fract_x
 _atom_site_fract_y
 _atom_site_fract_z
 _atom_site_occupancy
  C  C0  1  0.25000000  0.25000000  0.74646938  1
  C  C1  1  0.25000000  0.25000000  0.24646938  1
  C  C2  1  0.75000000  0.75000000  0.25353062  1
  C  C3  1  0.75000000  0.75000000  0.75353062  1
  C  C4  1  0.17450913  0.54279981  0.75326647  1
  C  C5  1  0.17450913  0.95720019  0.25326647  1
  C  C6  1  0.32549087  0.54279981  0.25326647  1
  C  C7  1  0.32549087  0.95720019  0.75326647  1
  C  C8  1  0.54279981  0.17450913  0.75326647  1
  C  C9  1  0.95720019  0.17450913  0.25326647  1
  C  C10  1  0.54279981  0.32549087  0.25326647  1
  C  C11  1  0.95720019  0.32549087  0.75326647  1
  C  C12  1  0.82549087  0.45720019  0.24673353  1
  C  C13  1  0.82549087  0.04279981  0.74673353  1
  C  C14  1  0.67450913  0.45720019  0.74673353  1
  C  C15  1  0.67450913  0.04279981  0.24673353  1
  C  C16  1  0.45720019  0.82549087  0.24673353  1
  C  C17  1  0.04279981  0.82549087  0.74673353  1
  C  C18  1  0.45720019  0.67450913  0.74673353  1
  C  C19  1  0.04279981  0.67450913  0.24673353  1
  C  C20  1  0.13412459  0.46713947  0.99740414  1
  C  C21  1  0.13412459  0.03286053  0.49740414  1
  C  C22  1  0.36587541  0.46713947  0.49740414  1
  C  C23  1  0.36587541  0.03286053  0.99740414  1
  C  C24  1  0.46713947  0.13412459  0.99740414  1
  C  C25  1  0.03286053  0.13412459  0.49740414  1
  C  C26  1  0.46713947  0.36587541  0.49740414  1
  C  C27  1  0.03286053  0.36587541  0.99740414  1
  C  C28  1  0.86587541  0.53286053  0.00259586  1
  C  C29  1  0.86587541  0.96713947  0.50259586  1
  C  C30  1  0.63412459  0.53286053  0.50259586  1
  C  C31  1  0.63412459  0.96713947  0.00259586  1
  C  C32  1  0.53286053  0.86587541  0.00259586  1
  C  C33  1  0.96713947  0.86587541  0.50259586  1
  C  C34  1  0.53286053  0.63412459  0.50259586  1
  C  C35  1  0.96713947  0.63412459  0.00259586  1
  C  C36  1  0.05826130  0.44173870  0.10796780  1
  C  C37  1  0.05826130  0.05826130  0.60796780  1
  C  C38  1  0.44173870  0.44173870  0.60796780  1
  C  C39  1  0.44173870  0.05826130  0.10796780  1
  C  C40  1  0.94173870  0.55826130  0.89203220  1
  C  C41  1  0.94173870  0.94173870  0.39203220  1
  C  C42  1  0.55826130  0.55826130  0.39203220  1
  C  C43  1  0.55826130  0.94173870  0.89203220  1
  C  C44  1  0.15436867  0.34563133  0.06553365  1
  C  C45  1  0.15436867  0.15436867  0.56553365  1
  C  C46  1  0.34563133  0.34563133  0.56553365  1
  C  C47  1  0.34563133  0.15436867  0.06553365  1
  C  C48  1  0.84563133  0.65436867  0.93446635  1
  C  C49  1  0.84563133  0.84563133  0.43446635  1
  C  C50  1  0.65436867  0.65436867  0.43446635  1
  C  C51  1  0.65436867  0.84563133  0.93446635  1
  C  C52  1  0.11158897  0.01065273  0.91616127  1
  C  C53  1  0.11158897  0.48934727  0.41616127  1
  C  C54  1  0.38841103  0.01065273  0.41616127  1
  C  C55  1  0.38841103  0.48934727  0.91616127  1
  C  C56  1  0.01065273  0.11158897  0.91616127  1
  C  C57  1  0.48934727  0.11158897  0.41616127  1
  C  C58  1  0.01065273  0.38841103  0.41616127  1
  C  C59  1  0.48934727  0.38841103  0.91616127  1
  C  C60  1  0.88841103  0.98934727  0.08383873  1
  C  C61  1  0.88841103  0.51065273  0.58383873  1
  C  C62  1  0.61158897  0.98934727  0.58383873  1
  C  C63  1  0.61158897  0.51065273  0.08383873  1
  C  C64  1  0.98934727  0.88841103  0.08383873  1
  C  C65  1  0.51065273  0.88841103  0.58383873  1
  C  C66  1  0.98934727  0.61158897  0.58383873  1
  C  C67  1  0.51065273  0.61158897  0.08383873  1
  C  C68  1  0.15002285  0.15002285  0.92218707  1
  C  C69  1  0.15002285  0.34997715  0.42218707  1
  C  C70  1  0.34997715  0.15002285  0.42218707  1
  C  C71  1  0.34997715  0.34997715  0.92218707  1
  C  C72  1  0.84997715  0.84997715  0.07781293  1
  C  C73  1  0.84997715  0.65002285  0.57781293  1
  C  C74  1  0.65002285  0.84997715  0.57781293  1
  C  C75  1  0.65002285  0.65002285  0.07781293  1
  C  C76  1  0.08577928  0.08577928  0.02394678  1
  C  C77  1  0.08577928  0.41422072  0.52394678  1
  C  C78  1  0.41422072  0.08577928  0.52394678  1
  C  C79  1  0.41422072  0.41422072  0.02394678  1
  C  C80  1  0.91422072  0.91422072  0.97605322  1
  C  C81  1  0.91422072  0.58577928  0.47605322  1
  C  C82  1  0.58577928  0.91422072  0.47605322  1
  C  C83  1  0.58577928  0.58577928  0.97605322  1
  C  C84  1  0.24887585  0.67773190  0.95428282  1
  C  C85  1  0.24887585  0.82226810  0.45428282  1
  C  C86  1  0.25112415  0.67773190  0.45428282  1
  C  C87  1  0.25112415  0.82226810  0.95428282  1
  C  C88  1  0.67773190  0.24887585  0.95428282  1
  C  C89  1  0.82226810  0.24887585  0.45428282  1
  C  C90  1  0.67773190  0.25112415  0.45428282  1
  C  C91  1  0.82226810  0.25112415  0.95428282  1
  C  C92  1  0.75112415  0.32226810  0.04571718  1
  C  C93  1  0.75112415  0.17773190  0.54571718  1
  C  C94  1  0.74887585  0.32226810  0.54571718  1
  C  C95  1  0.74887585  0.17773190  0.04571718  1
  C  C96  1  0.32226810  0.75112415  0.04571718  1
  C  C97  1  0.17773190  0.75112415  0.54571718  1
  C  C98  1  0.32226810  0.74887585  0.54571718  1
  C  C99  1  0.17773190  0.74887585  0.04571718  1
  Ni  Ni100  1  0.09403000  0.40597000  0.04285346  1
  Ni  Ni101  1  0.09403000  0.09403000  0.54285346  1
  Ni  Ni102  1  0.40597000  0.40597000  0.54285346  1
  Ni  Ni103  1  0.40597000  0.09403000  0.04285346  1
  Ni  Ni104  1  0.90597000  0.59403000  0.95714654  1
  Ni  Ni105  1  0.90597000  0.90597000  0.45714654  1
  Ni  Ni106  1  0.59403000  0.59403000  0.45714654  1
  Ni  Ni107  1  0.59403000  0.90597000  0.95714654  1
  Ni  Ni108  1  0.08985697  0.08985697  0.94408917  1
  Ni  Ni109  1  0.08985697  0.41014303  0.44408917  1
  Ni  Ni110  1  0.41014303  0.08985697  0.44408917  1
  Ni  Ni111  1  0.41014303  0.41014303  0.94408917  1
  Ni  Ni112  1  0.91014303  0.91014303  0.05591083  1
  Ni  Ni113  1  0.91014303  0.58985697  0.55591083  1
  Ni  Ni114  1  0.58985697  0.91014303  0.55591083  1
  Ni  Ni115  1  0.58985697  0.58985697  0.05591083  1
  Ni  Ni116  1  0.25000000  0.75000000  -0.00000000  1
  Ni  Ni117  1  0.25000000  0.75000000  0.50000000  1
  Ni  Ni118  1  0.75000000  0.25000000  -0.00000000  1
  Ni  Ni119  1  0.75000000  0.25000000  0.50000000  1
  Cu  Cu120  1  0.25000000  0.25000000  0.60698681  1
  Cu  Cu121  1  0.25000000  0.25000000  0.10698681  1
  Cu  Cu122  1  0.75000000  0.75000000  0.39301319  1
  Cu  Cu123  1  0.75000000  0.75000000  0.89301319  1
  Cu  Cu124  1  0.25000000  0.25000000  0.88530687  1
  Cu  Cu125  1  0.25000000  0.25000000  0.38530687  1
  Cu  Cu126  1  0.75000000  0.75000000  0.11469313  1
  Cu  Cu127  1  0.75000000  0.75000000  0.61469313  1
  Cu  Cu128  1  0.03372370  0.46627630  0.77570066  1
  Cu  Cu129  1  0.03372370  0.03372370  0.27570066  1
  Cu  Cu130  1  0.46627630  0.46627630  0.27570066  1
  Cu  Cu131  1  0.46627630  0.03372370  0.77570066  1
  Cu  Cu132  1  0.96627630  0.53372370  0.22429934  1
  Cu  Cu133  1  0.96627630  0.96627630  0.72429934  1
  Cu  Cu134  1  0.53372370  0.53372370  0.72429934  1
  Cu  Cu135  1  0.53372370  0.96627630  0.22429934  1
  Cu  Cu136  1  0.14910326  0.54289426  0.61855478  1
  Cu  Cu137  1  0.14910326  0.95710574  0.11855478  1
  Cu  Cu138  1  0.35089674  0.54289426  0.11855478  1
  Cu  Cu139  1  0.35089674  0.95710574  0.61855478  1
  Cu  Cu140  1  0.54289426  0.14910326  0.61855478  1
  Cu  Cu141  1  0.95710574  0.14910326  0.11855478  1
  Cu  Cu142  1  0.54289426  0.35089674  0.11855478  1
  Cu  Cu143  1  0.95710574  0.35089674  0.61855478  1
  Cu  Cu144  1  0.85089674  0.45710574  0.38144522  1
  Cu  Cu145  1  0.85089674  0.04289426  0.88144522  1
  Cu  Cu146  1  0.64910326  0.45710574  0.88144522  1
  Cu  Cu147  1  0.64910326  0.04289426  0.38144522  1
  Cu  Cu148  1  0.45710574  0.85089674  0.38144522  1
  Cu  Cu149  1  0.04289426  0.85089674  0.88144522  1
  Cu  Cu150  1  0.45710574  0.64910326  0.88144522  1
  Cu  Cu151  1  0.04289426  0.64910326  0.38144522  1
  Cu  Cu152  1  0.10821327  0.68340904  0.76498184  1
  Cu  Cu153  1  0.10821327  0.81659096  0.26498184  1
  Cu  Cu154  1  0.39178673  0.68340904  0.26498184  1
  Cu  Cu155  1  0.39178673  0.81659096  0.76498184  1
  Cu  Cu156  1  0.68340904  0.10821327  0.76498184  1
  Cu  Cu157  1  0.81659096  0.10821327  0.26498184  1
  Cu  Cu158  1  0.68340904  0.39178673  0.26498184  1
  Cu  Cu159  1  0.81659096  0.39178673  0.76498184  1
  Cu  Cu160  1  0.89178673  0.31659096  0.23501816  1
  Cu  Cu161  1  0.89178673  0.18340904  0.73501816  1
  Cu  Cu162  1  0.60821327  0.31659096  0.73501816  1
  Cu  Cu163  1  0.60821327  0.18340904  0.23501816  1
  Cu  Cu164  1  0.31659096  0.89178673  0.23501816  1
  Cu  Cu165  1  0.18340904  0.89178673  0.73501816  1
  Cu  Cu166  1  0.31659096  0.60821327  0.73501816  1
  Cu  Cu167  1  0.18340904  0.60821327  0.23501816  1
  Cu  Cu168  1  0.25114336  0.40542487  0.74575118  1
  Cu  Cu169  1  0.25114336  0.09457513  0.24575118  1
  Cu  Cu170  1  0.24885664  0.40542487  0.24575118  1
  Cu  Cu171  1  0.24885664  0.09457513  0.74575118  1
  Cu  Cu172  1  0.40542487  0.25114336  0.74575118  1
  Cu  Cu173  1  0.09457513  0.25114336  0.24575118  1
  Cu  Cu174  1  0.40542487  0.24885664  0.24575118  1
  Cu  Cu175  1  0.09457513  0.24885664  0.74575118  1
  Cu  Cu176  1  0.74885664  0.59457513  0.25424882  1
  Cu  Cu177  1  0.74885664  0.90542487  0.75424882  1
  Cu  Cu178  1  0.75114336  0.59457513  0.75424882  1
  Cu  Cu179  1  0.75114336  0.90542487  0.25424882  1
  Cu  Cu180  1  0.59457513  0.74885664  0.25424882  1
  Cu  Cu181  1  0.90542487  0.74885664  0.75424882  1
  Cu  Cu182  1  0.59457513  0.75114336  0.75424882  1
  Cu  Cu183  1  0.90542487  0.75114336  0.25424882  1
  Cu  Cu184  1  0.19423508  0.54372005  0.89215480  1
  Cu  Cu185  1  0.19423508  0.95627995  0.39215480  1
  Cu  Cu186  1  0.30576492  0.54372005  0.39215480  1
  Cu  Cu187  1  0.30576492  0.95627995  0.89215480  1
  Cu  Cu188  1  0.54372005  0.19423508  0.89215480  1
  Cu  Cu189  1  0.95627995  0.19423508  0.39215480  1
  Cu  Cu190  1  0.54372005  0.30576492  0.39215480  1
  Cu  Cu191  1  0.95627995  0.30576492  0.89215480  1
  Cu  Cu192  1  0.80576492  0.45627995  0.10784520  1
  Cu  Cu193  1  0.80576492  0.04372005  0.60784520  1
  Cu  Cu194  1  0.69423508  0.45627995  0.60784520  1
  Cu  Cu195  1  0.69423508  0.04372005  0.10784520  1
  Cu  Cu196  1  0.45627995  0.80576492  0.10784520  1
  Cu  Cu197  1  0.04372005  0.80576492  0.60784520  1
  Cu  Cu198  1  0.45627995  0.69423508  0.60784520  1
  Cu  Cu199  1  0.04372005  0.69423508  0.10784520  1
