# generated using pymatgen
data_Cu2(NiC6)5
_symmetry_space_group_name_H-M   'P 1'
_cell_length_a   9.03836300
_cell_length_b   9.35350800
_cell_length_c   13.85284397
_cell_angle_alpha   67.53869156
_cell_angle_beta   90.00000000
_cell_angle_gamma   90.00000000
_symmetry_Int_Tables_number   1
_chemical_formula_structural   Cu2(NiC6)5
_chemical_formula_sum   'Cu4 Ni10 C60'
_cell_volume   1082.28079825
_cell_formula_units_Z   2
loop_
 _symmetry_equiv_pos_site_id
 _symmetry_equiv_pos_as_xyz
  1  'x, y, z'
loop_
 _atom_site_type_symbol
 _atom_site_label
 _atom_site_symmetry_multiplicity
 _atom_site_fract_x
 _atom_site_fract_y
 _atom_site_fract_z
 _atom_site_occupancy
  Ni  Ni0  1  0.84574100  0.56860700  0.65741200  1
  Ni  Ni1  1  0.65425900  0.56860700  0.15741200  1
  Ni  Ni2  1  0.15425900  0.43139300  0.34258800  1
  Ni  Ni3  1  0.34574100  0.43139300  0.84258800  1
  Ni  Ni4  1  0.92714300  0.91415800  0.21902200  1
  Ni  Ni5  1  0.57285700  0.91415800  0.71902200  1
  Ni  Ni6  1  0.07285700  0.08584200  0.78097800  1
  Ni  Ni7  1  0.42714300  0.08584200  0.28097800  1
  Ni  Ni8  1  0.50000000  0.50000000  0.50000000  1
  Ni  Ni9  1  0.00000000  0.50000000  0.00000000  1
  Cu  Cu10  1  0.79373000  0.23764600  0.61648000  1
  Cu  Cu11  1  0.70627000  0.23764600  0.11648000  1
  Cu  Cu12  1  0.20627000  0.76235400  0.38352000  1
  Cu  Cu13  1  0.29373000  0.76235400  0.88352000  1
  C  C14  1  0.83328200  0.58919100  0.39536200  1
  C  C15  1  0.66671800  0.58919100  0.89536200  1
  C  C16  1  0.16671800  0.41080900  0.60463800  1
  C  C17  1  0.33328200  0.41080900  0.10463800  1
  C  C18  1  0.42241500  0.18157900  0.72973000  1
  C  C19  1  0.07758500  0.18157900  0.22973000  1
  C  C20  1  0.57758500  0.81842100  0.27027000  1
  C  C21  1  0.92241500  0.81842100  0.77027000  1
  C  C22  1  0.83863600  0.29359800  0.34628900  1
  C  C23  1  0.66136400  0.29359800  0.84628900  1
  C  C24  1  0.16136400  0.70640200  0.65371100  1
  C  C25  1  0.33863600  0.70640200  0.15371100  1
  C  C26  1  0.78204600  0.18998800  0.46449300  1
  C  C27  1  0.71795400  0.18998800  0.96449300  1
  C  C28  1  0.21795400  0.81001200  0.53550700  1
  C  C29  1  0.28204600  0.81001200  0.03550700  1
  C  C30  1  0.99825200  0.22265900  0.32501300  1
  C  C31  1  0.50174800  0.22265900  0.82501300  1
  C  C32  1  0.00174800  0.77734100  0.67498700  1
  C  C33  1  0.49825200  0.77734100  0.17498700  1
  C  C34  1  0.54412500  0.70474400  0.59610900  1
  C  C35  1  0.95587500  0.70474400  0.09610900  1
  C  C36  1  0.45587500  0.29525600  0.40389100  1
  C  C37  1  0.04412500  0.29525600  0.90389100  1
  C  C38  1  0.89697100  0.46293800  0.34670400  1
  C  C39  1  0.60302900  0.46293800  0.84670400  1
  C  C40  1  0.10302900  0.53706200  0.65329600  1
  C  C41  1  0.39697100  0.53706200  0.15329600  1
  C  C42  1  0.72233300  0.31641900  0.25355800  1
  C  C43  1  0.77766700  0.31641900  0.75355800  1
  C  C44  1  0.27766700  0.68358100  0.74644200  1
  C  C45  1  0.22233300  0.68358100  0.24644200  1
  C  C46  1  0.69981700  0.67545400  0.30962000  1
  C  C47  1  0.80018300  0.67545400  0.80962000  1
  C  C48  1  0.30018300  0.32454600  0.69038000  1
  C  C49  1  0.19981700  0.32454600  0.19038000  1
  C  C50  1  0.75965600  0.49928100  0.51028200  1
  C  C51  1  0.74034400  0.49928100  0.01028200  1
  C  C52  1  0.24034400  0.50071900  0.48971800  1
  C  C53  1  0.25965600  0.50071900  0.98971800  1
  C  C54  1  0.96242700  0.71373700  0.38396800  1
  C  C55  1  0.53757300  0.71373700  0.88396800  1
  C  C56  1  0.03757300  0.28626300  0.61603200  1
  C  C57  1  0.46242700  0.28626300  0.11603200  1
  C  C58  1  0.54545900  0.19491000  0.64147400  1
  C  C59  1  0.95454100  0.19491000  0.14147400  1
  C  C60  1  0.45454100  0.80509000  0.35852600  1
  C  C61  1  0.04545900  0.80509000  0.85852600  1
  C  C62  1  0.02968700  0.97560700  0.47048000  1
  C  C63  1  0.47031300  0.97560700  0.97048000  1
  C  C64  1  0.97031300  0.02439300  0.52952000  1
  C  C65  1  0.52968700  0.02439300  0.02952000  1
  C  C66  1  0.33955200  0.01483500  0.77700700  1
  C  C67  1  0.16044800  0.01483500  0.27700700  1
  C  C68  1  0.66044800  0.98516500  0.22299300  1
  C  C69  1  0.83955200  0.98516500  0.72299300  1
  C  C70  1  0.61962900  0.82338400  0.55449000  1
  C  C71  1  0.88037100  0.82338400  0.05449000  1
  C  C72  1  0.38037100  0.17661600  0.44551000  1
  C  C73  1  0.11962900  0.17661600  0.94551000  1
