# generated using pymatgen
data_Cu3NiC16
_symmetry_space_group_name_H-M   'P 1'
_cell_length_a   7.10661486
_cell_length_b   7.10661486
_cell_length_c   7.10661486
_cell_angle_alpha   109.47122063
_cell_angle_beta   109.47122063
_cell_angle_gamma   109.47122063
_symmetry_Int_Tables_number   1
_chemical_formula_structural   Cu3NiC16
_chemical_formula_sum   'Cu3 Ni1 C16'
_cell_volume   276.29081500
_cell_formula_units_Z   1
loop_
 _symmetry_equiv_pos_site_id
 _symmetry_equiv_pos_as_xyz
  1  'x, y, z'
loop_
 _atom_site_type_symbol
 _atom_site_label
 _atom_site_symmetry_multiplicity
 _atom_site_fract_x
 _atom_site_fract_y
 _atom_site_fract_z
 _atom_site_occupancy
  Ni  Ni0  1  0.00000000  0.00000000  0.00000000  1
  Cu  Cu1  1  0.00000000  0.50000000  0.50000000  1
  Cu  Cu2  1  0.50000000  0.50000000  0.00000000  1
  Cu  Cu3  1  0.50000000  0.00000000  0.50000000  1
  C  C4  1  0.50000000  0.00000000  0.00000000  1
  C  C5  1  0.50000000  0.50000000  0.50000000  1
  C  C6  1  0.00000000  0.50000000  0.00000000  1
  C  C7  1  0.00000000  0.00000000  0.50000000  1
  C  C8  1  0.32594900  0.84407800  0.17002700  1
  C  C9  1  0.67405100  0.15592200  0.82997300  1
  C  C10  1  0.67405100  0.84407800  0.51812900  1
  C  C11  1  0.82997300  0.67405100  0.15592200  1
  C  C12  1  0.84407800  0.17002700  0.32594900  1
  C  C13  1  0.15592200  0.48187100  0.32594900  1
  C  C14  1  0.48187100  0.32594900  0.15592200  1
  C  C15  1  0.15592200  0.82997300  0.67405100  1
  C  C16  1  0.32594900  0.15592200  0.48187100  1
  C  C17  1  0.17002700  0.32594900  0.84407800  1
  C  C18  1  0.84407800  0.51812900  0.67405100  1
  C  C19  1  0.51812900  0.67405100  0.84407800  1
