# generated using pymatgen
data_Cu5(NiC5)4
_symmetry_space_group_name_H-M   'P 1'
_cell_length_a   10.03890181
_cell_length_b   10.03890181
_cell_length_c   9.40853800
_cell_angle_alpha   90.00000000
_cell_angle_beta   90.00000000
_cell_angle_gamma   120.72560159
_symmetry_Int_Tables_number   1
_chemical_formula_structural   Cu5(NiC5)4
_chemical_formula_sum   'Cu10 Ni8 C40'
_cell_volume   815.08540835
_cell_formula_units_Z   2
loop_
 _symmetry_equiv_pos_site_id
 _symmetry_equiv_pos_as_xyz
  1  'x, y, z'
loop_
 _atom_site_type_symbol
 _atom_site_label
 _atom_site_symmetry_multiplicity
 _atom_site_fract_x
 _atom_site_fract_y
 _atom_site_fract_z
 _atom_site_occupancy
  Ni  Ni0  1  0.25720600  0.35602300  0.50000000  1
  Ni  Ni1  1  0.74279400  0.64397700  0.50000000  1
  Ni  Ni2  1  0.35602300  0.25720600  0.00000000  1
  Ni  Ni3  1  0.64397700  0.74279400  0.00000000  1
  Ni  Ni4  1  0.50000000  0.00000000  0.24959100  1
  Ni  Ni5  1  0.00000000  0.50000000  0.25040900  1
  Ni  Ni6  1  0.50000000  0.00000000  0.75040900  1
  Ni  Ni7  1  0.00000000  0.50000000  0.74959100  1
  C  C8  1  0.33715600  0.66284400  0.25000000  1
  C  C9  1  0.66284400  0.33715600  0.25000000  1
  C  C10  1  0.66284400  0.33715600  0.75000000  1
  C  C11  1  0.33715600  0.66284400  0.75000000  1
  Cu  Cu12  1  0.63188800  0.90124500  0.50000000  1
  Cu  Cu13  1  0.36811200  0.09875500  0.50000000  1
  Cu  Cu14  1  0.90124500  0.63188800  0.00000000  1
  Cu  Cu15  1  0.09875500  0.36811200  0.00000000  1
  Cu  Cu16  1  0.73010300  0.11024100  0.00000000  1
  Cu  Cu17  1  0.26989700  0.88975900  0.00000000  1
  Cu  Cu18  1  0.11024100  0.73010300  0.50000000  1
  Cu  Cu19  1  0.88975900  0.26989700  0.50000000  1
  Cu  Cu20  1  0.50000000  0.50000000  0.25000000  1
  Cu  Cu21  1  0.50000000  0.50000000  0.75000000  1
  C  C22  1  0.65063400  0.13935500  0.14169900  1
  C  C23  1  0.34936600  0.86064500  0.14169900  1
  C  C24  1  0.13935500  0.65063400  0.35830100  1
  C  C25  1  0.86064500  0.34936600  0.35830100  1
  C  C26  1  0.34936600  0.86064500  0.85830100  1
  C  C27  1  0.65063400  0.13935500  0.85830100  1
  C  C28  1  0.86064500  0.34936600  0.64169900  1
  C  C29  1  0.13935500  0.65063400  0.64169900  1
  C  C30  1  0.52202800  0.86877400  0.35776400  1
  C  C31  1  0.47797200  0.13122600  0.35776400  1
  C  C32  1  0.86877400  0.52202800  0.14223600  1
  C  C33  1  0.13122600  0.47797200  0.14223600  1
  C  C34  1  0.47797200  0.13122600  0.64223600  1
  C  C35  1  0.52202800  0.86877400  0.64223600  1
  C  C36  1  0.13122600  0.47797200  0.85776400  1
  C  C37  1  0.86877400  0.52202800  0.85776400  1
  C  C38  1  0.35344900  0.47466600  0.34838100  1
  C  C39  1  0.64655100  0.52533400  0.34838100  1
  C  C40  1  0.47466600  0.35344900  0.15161900  1
  C  C41  1  0.52533400  0.64655100  0.15161900  1
  C  C42  1  0.64655100  0.52533400  0.65161900  1
  C  C43  1  0.35344900  0.47466600  0.65161900  1
  C  C44  1  0.52533400  0.64655100  0.84838100  1
  C  C45  1  0.47466600  0.35344900  0.84838100  1
  C  C46  1  0.70817700  0.79569300  0.50000000  1
  C  C47  1  0.29182300  0.20430700  0.50000000  1
  C  C48  1  0.79569300  0.70817700  0.00000000  1
  C  C49  1  0.20430700  0.29182300  0.00000000  1
  C  C50  1  0.76188700  0.08592500  0.50000000  1
  C  C51  1  0.23811300  0.91407500  0.50000000  1
  C  C52  1  0.08592500  0.76188700  0.00000000  1
  C  C53  1  0.91407500  0.23811300  0.00000000  1
  C  C54  1  0.69169800  0.93425900  0.00000000  1
  C  C55  1  0.30830200  0.06574100  0.00000000  1
  C  C56  1  0.93425900  0.69169800  0.50000000  1
  C  C57  1  0.06574100  0.30830200  0.50000000  1
