# generated using pymatgen
data_Cu6Ni2C29
_symmetry_space_group_name_H-M   'P 1'
_cell_length_a   8.45598987
_cell_length_b   8.45598987
_cell_length_c   18.19295400
_cell_angle_alpha   90.00000000
_cell_angle_beta   90.00000000
_cell_angle_gamma   119.99999896
_symmetry_Int_Tables_number   1
_chemical_formula_structural   Cu6Ni2C29
_chemical_formula_sum   'Cu12 Ni4 C58'
_cell_volume   1126.58188947
_cell_formula_units_Z   2
loop_
 _symmetry_equiv_pos_site_id
 _symmetry_equiv_pos_as_xyz
  1  'x, y, z'
loop_
 _atom_site_type_symbol
 _atom_site_label
 _atom_site_symmetry_multiplicity
 _atom_site_fract_x
 _atom_site_fract_y
 _atom_site_fract_z
 _atom_site_occupancy
  C  C0  1  0.66666700  0.33333300  0.75000000  1
  C  C1  1  0.33333300  0.66666700  0.25000000  1
  Ni  Ni2  1  0.00000000  0.00000000  0.58781000  1
  Ni  Ni3  1  0.00000000  0.00000000  0.41219000  1
  Ni  Ni4  1  0.00000000  0.00000000  0.91219000  1
  Ni  Ni5  1  0.00000000  0.00000000  0.08781000  1
  C  C6  1  0.66666700  0.33333300  0.52112000  1
  C  C7  1  0.33333300  0.66666700  0.47888000  1
  C  C8  1  0.66666700  0.33333300  0.97888000  1
  C  C9  1  0.33333300  0.66666700  0.02112000  1
  C  C10  1  0.33333300  0.66666700  0.75000000  1
  C  C11  1  0.66666700  0.33333300  0.25000000  1
  Cu  Cu12  1  0.32963600  0.37833200  0.60917200  1
  Cu  Cu13  1  0.67036400  0.62166800  0.39082800  1
  Cu  Cu14  1  0.62166800  0.95130400  0.60917200  1
  Cu  Cu15  1  0.32963600  0.95130400  0.89082800  1
  Cu  Cu16  1  0.37833200  0.04869600  0.39082800  1
  Cu  Cu17  1  0.67036400  0.04869600  0.10917200  1
  Cu  Cu18  1  0.04869600  0.67036400  0.60917200  1
  Cu  Cu19  1  0.62166800  0.67036400  0.89082800  1
  Cu  Cu20  1  0.95130400  0.32963600  0.39082800  1
  Cu  Cu21  1  0.37833200  0.32963600  0.10917200  1
  Cu  Cu22  1  0.04869600  0.37833200  0.89082800  1
  Cu  Cu23  1  0.95130400  0.62166800  0.10917200  1
  C  C24  1  0.25317200  0.44307200  0.54640700  1
  C  C25  1  0.74682800  0.55692800  0.45359300  1
  C  C26  1  0.55692800  0.81010000  0.54640700  1
  C  C27  1  0.25317200  0.81010000  0.95359300  1
  C  C28  1  0.44307200  0.18990000  0.45359300  1
  C  C29  1  0.74682800  0.18990000  0.04640700  1
  C  C30  1  0.18990000  0.74682800  0.54640700  1
  C  C31  1  0.55692800  0.74682800  0.95359300  1
  C  C32  1  0.81010000  0.25317200  0.45359300  1
  C  C33  1  0.44307200  0.25317200  0.04640700  1
  C  C34  1  0.18990000  0.44307200  0.95359300  1
  C  C35  1  0.81010000  0.55692800  0.04640700  1
  C  C36  1  0.33780900  0.46069200  0.68369700  1
  C  C37  1  0.66219100  0.53930800  0.31630300  1
  C  C38  1  0.53930800  0.87711700  0.68369700  1
  C  C39  1  0.33780900  0.87711700  0.81630300  1
  C  C40  1  0.46069200  0.12288300  0.31630300  1
  C  C41  1  0.66219100  0.12288300  0.18369700  1
  C  C42  1  0.12288300  0.66219100  0.68369700  1
  C  C43  1  0.53930800  0.66219100  0.81630300  1
  C  C44  1  0.87711700  0.33780900  0.31630300  1
  C  C45  1  0.46069200  0.33780900  0.18369700  1
  C  C46  1  0.12288300  0.46069200  0.81630300  1
  C  C47  1  0.87711700  0.53930800  0.18369700  1
  C  C48  1  0.00000000  0.00000000  0.50000000  1
  C  C49  1  0.00000000  0.00000000  0.00000000  1
  C  C50  1  0.59767500  0.11532900  0.58971800  1
  C  C51  1  0.40232500  0.88467100  0.41028200  1
  C  C52  1  0.88467100  0.48234600  0.58971800  1
  C  C53  1  0.59767500  0.48234600  0.91028200  1
  C  C54  1  0.11532900  0.51765400  0.41028200  1
  C  C55  1  0.40232500  0.51765400  0.08971800  1
  C  C56  1  0.51765400  0.40232500  0.58971800  1
  C  C57  1  0.88467100  0.40232500  0.91028200  1
  C  C58  1  0.48234600  0.59767500  0.41028200  1
  C  C59  1  0.11532900  0.59767500  0.08971800  1
  C  C60  1  0.51765400  0.11532900  0.91028200  1
  C  C61  1  0.48234600  0.88467100  0.08971800  1
  C  C62  1  0.83561000  0.02854100  0.61917200  1
  C  C63  1  0.16439000  0.97145900  0.38082800  1
  C  C64  1  0.97145900  0.80706900  0.61917200  1
  C  C65  1  0.83561000  0.80706900  0.88082800  1
  C  C66  1  0.02854100  0.19293100  0.38082800  1
  C  C67  1  0.16439000  0.19293100  0.11917200  1
  C  C68  1  0.19293100  0.16439000  0.61917200  1
  C  C69  1  0.97145900  0.16439000  0.88082800  1
  C  C70  1  0.80706900  0.83561000  0.38082800  1
  C  C71  1  0.02854100  0.83561000  0.11917200  1
  C  C72  1  0.19293100  0.02854100  0.88082800  1
  C  C73  1  0.80706900  0.97145900  0.11917200  1
