# generated using pymatgen
data_Cu8NiC5
_symmetry_space_group_name_H-M   'P 1'
_cell_length_a   7.19088300
_cell_length_b   8.16955486
_cell_length_c   10.31618213
_cell_angle_alpha   89.77716516
_cell_angle_beta   89.96401026
_cell_angle_gamma   87.58517793
_symmetry_Int_Tables_number   1
_chemical_formula_structural   Cu8NiC5
_chemical_formula_sum   'Cu16 Ni2 C10'
_cell_volume   605.49483821
_cell_formula_units_Z   2
loop_
 _symmetry_equiv_pos_site_id
 _symmetry_equiv_pos_as_xyz
  1  'x, y, z'
loop_
 _atom_site_type_symbol
 _atom_site_label
 _atom_site_symmetry_multiplicity
 _atom_site_fract_x
 _atom_site_fract_y
 _atom_site_fract_z
 _atom_site_occupancy
  C  C0  1  0.49777200  0.99911300  0.00050100  1
  C  C1  1  0.50243700  0.00075600  0.50052600  1
  C  C2  1  0.99752200  0.99962100  0.99924500  1
  C  C3  1  0.28099100  0.80292000  0.75068400  1
  C  C4  1  0.71881800  0.19712100  0.24888600  1
  C  C5  1  0.00270200  0.00055800  0.49913900  1
  C  C6  1  0.25415600  0.64140200  0.05247400  1
  C  C7  1  0.73901800  0.35753200  0.94668300  1
  C  C8  1  0.26090000  0.64230500  0.44948100  1
  C  C9  1  0.74580200  0.35888800  0.54967500  1
  Ni  Ni10  1  0.61240400  0.88503200  0.75551000  1
  Ni  Ni11  1  0.38754100  0.11447100  0.25019000  1
  Cu  Cu12  1  0.75464200  0.02304000  0.09648500  1
  Cu  Cu13  1  0.73630400  0.38712900  0.11341900  1
  Cu  Cu14  1  0.26196500  0.61298300  0.61612200  1
  Cu  Cu15  1  0.43749800  0.76706800  0.07827300  1
  Cu  Cu16  1  0.56225000  0.23273300  0.57597500  1
  Cu  Cu17  1  0.94679800  0.23552600  0.57087700  1
  Cu  Cu18  1  0.24120200  0.97606000  0.90332200  1
  Cu  Cu19  1  0.05286300  0.76441900  0.07249000  1
  Cu  Cu20  1  0.06079100  0.76643100  0.42640700  1
  Cu  Cu21  1  0.94000900  0.23414400  0.92537700  1
  Cu  Cu22  1  0.75840500  0.02417800  0.40338800  1
  Cu  Cu23  1  0.24601400  0.97681800  0.59633300  1
  Cu  Cu24  1  0.55500400  0.23218700  0.92348200  1
  Cu  Cu25  1  0.44573600  0.76753100  0.42626100  1
  Cu  Cu26  1  0.26027100  0.61268000  0.88572700  1
  Cu  Cu27  1  0.74019100  0.38735200  0.38306700  1
