# generated using pymatgen
data_CuNiC5
_symmetry_space_group_name_H-M   'P 1'
_cell_length_a   9.89740015
_cell_length_b   9.89740015
_cell_length_c   7.42564300
_cell_angle_alpha   90.00000000
_cell_angle_beta   90.00000000
_cell_angle_gamma   120.00000098
_symmetry_Int_Tables_number   1
_chemical_formula_structural   CuNiC5
_chemical_formula_sum   'Cu6 Ni6 C30'
_cell_volume   629.95126325
_cell_formula_units_Z   6
loop_
 _symmetry_equiv_pos_site_id
 _symmetry_equiv_pos_as_xyz
  1  'x, y, z'
loop_
 _atom_site_type_symbol
 _atom_site_label
 _atom_site_symmetry_multiplicity
 _atom_site_fract_x
 _atom_site_fract_y
 _atom_site_fract_z
 _atom_site_occupancy
  C  C0  1  0.33333300  0.66666700  0.50459300  1
  C  C1  1  0.66666700  0.33333300  0.49540700  1
  C  C2  1  0.66666700  0.33333300  0.00459300  1
  C  C3  1  0.33333300  0.66666700  0.99540700  1
  Ni  Ni4  1  0.41068300  0.03435600  0.75000000  1
  Ni  Ni5  1  0.58931700  0.96564400  0.25000000  1
  Ni  Ni6  1  0.96564400  0.37632700  0.75000000  1
  Ni  Ni7  1  0.03435600  0.62367300  0.25000000  1
  Ni  Ni8  1  0.62367300  0.58931700  0.75000000  1
  Ni  Ni9  1  0.37632700  0.41068300  0.25000000  1
  Cu  Cu10  1  0.23970800  0.23378200  0.75000000  1
  Cu  Cu11  1  0.76029200  0.76621800  0.25000000  1
  Cu  Cu12  1  0.76621800  0.00592600  0.75000000  1
  Cu  Cu13  1  0.23378200  0.99407400  0.25000000  1
  Cu  Cu14  1  0.99407400  0.76029200  0.75000000  1
  Cu  Cu15  1  0.00592600  0.23970800  0.25000000  1
  C  C16  1  0.14280000  0.49294500  0.75000000  1
  C  C17  1  0.85720000  0.50705500  0.25000000  1
  C  C18  1  0.50705500  0.64985500  0.75000000  1
  C  C19  1  0.49294500  0.35014500  0.25000000  1
  C  C20  1  0.35014500  0.85720000  0.75000000  1
  C  C21  1  0.64985500  0.14280000  0.25000000  1
  C  C22  1  0.59343500  0.12836000  0.75000000  1
  C  C23  1  0.40656500  0.87164000  0.25000000  1
  C  C24  1  0.87164000  0.46507600  0.75000000  1
  C  C25  1  0.12836000  0.53492400  0.25000000  1
  C  C26  1  0.53492400  0.40656500  0.75000000  1
  C  C27  1  0.46507600  0.59343500  0.25000000  1
  C  C28  1  0.00000000  0.00000000  0.75000000  1
  C  C29  1  0.00000000  0.00000000  0.25000000  1
  C  C30  1  0.35466500  0.08820600  0.58097700  1
  C  C31  1  0.64533500  0.91179400  0.41902300  1
  C  C32  1  0.91179400  0.26645900  0.58097700  1
  C  C33  1  0.64533500  0.91179400  0.08097700  1
  C  C34  1  0.08820600  0.73354100  0.41902300  1
  C  C35  1  0.35466500  0.08820600  0.91902300  1
  C  C36  1  0.73354100  0.64533500  0.58097700  1
  C  C37  1  0.08820600  0.73354100  0.08097700  1
  C  C38  1  0.26645900  0.35466500  0.41902300  1
  C  C39  1  0.91179400  0.26645900  0.91902300  1
  C  C40  1  0.26645900  0.35466500  0.08097700  1
  C  C41  1  0.73354100  0.64533500  0.91902300  1
