# generated using pymatgen
data_Cu3(Ni6C)2
_symmetry_space_group_name_H-M   'P 1'
_cell_length_a   6.05032619
_cell_length_b   6.05032619
_cell_length_c   6.05032690
_cell_angle_alpha   108.44712973
_cell_angle_beta   108.44712973
_cell_angle_gamma   108.44713411
_symmetry_Int_Tables_number   1
_chemical_formula_structural   Cu3(Ni6C)2
_chemical_formula_sum   'Cu3 Ni12 C2'
_cell_volume   176.66499035
_cell_formula_units_Z   1
loop_
 _symmetry_equiv_pos_site_id
 _symmetry_equiv_pos_as_xyz
  1  'x, y, z'
loop_
 _atom_site_type_symbol
 _atom_site_label
 _atom_site_symmetry_multiplicity
 _atom_site_fract_x
 _atom_site_fract_y
 _atom_site_fract_z
 _atom_site_occupancy
  C  C0  1  0.90052200  0.90052200  0.90052200  1
  Ni  Ni1  1  0.30757200  0.55274100  0.30757200  1
  Ni  Ni2  1  0.30757200  0.30757200  0.55274100  1
  Ni  Ni3  1  0.55274100  0.30757200  0.30757200  1
  Ni  Ni4  1  0.41685700  0.84442200  0.59949000  1
  Ni  Ni5  1  0.59949000  0.41685700  0.84442200  1
  Ni  Ni6  1  0.84442200  0.59949000  0.41685700  1
  Ni  Ni7  1  0.59949000  0.84442200  0.41685700  1
  Ni  Ni8  1  0.41685700  0.59949000  0.84442200  1
  Ni  Ni9  1  0.84442200  0.41685700  0.59949000  1
  Ni  Ni10  1  0.02524600  0.02524600  0.81898700  1
  Ni  Ni11  1  0.81898700  0.02524600  0.02524600  1
  Ni  Ni12  1  0.02524600  0.81898700  0.02524600  1
  Cu  Cu13  1  0.47987600  0.72626300  0.47987600  1
  Cu  Cu14  1  0.47987600  0.47987600  0.72626300  1
  Cu  Cu15  1  0.72626300  0.47987600  0.47987600  1
  C  C16  1  0.64367800  0.64367800  0.64367800  1
