# generated using pymatgen
data_CuNi10C3
_symmetry_space_group_name_H-M   'P 1'
_cell_length_a   9.21208931
_cell_length_b   9.21208931
_cell_length_c   10.42073984
_cell_angle_alpha   87.84087835
_cell_angle_beta   87.84087835
_cell_angle_gamma   73.38677853
_symmetry_Int_Tables_number   1
_chemical_formula_structural   CuNi10C3
_chemical_formula_sum   'Cu2 Ni20 C6'
_cell_volume   846.48010697
_cell_formula_units_Z   2
loop_
 _symmetry_equiv_pos_site_id
 _symmetry_equiv_pos_as_xyz
  1  'x, y, z'
loop_
 _atom_site_type_symbol
 _atom_site_label
 _atom_site_symmetry_multiplicity
 _atom_site_fract_x
 _atom_site_fract_y
 _atom_site_fract_z
 _atom_site_occupancy
  C  C0  1  0.23676300  0.23676300  0.18762600  1
  C  C1  1  0.76323700  0.76323700  0.81237400  1
  C  C2  1  0.41432300  0.18879100  0.37045200  1
  C  C3  1  0.18879100  0.41432300  0.37045200  1
  C  C4  1  0.58567700  0.81120900  0.62954800  1
  C  C5  1  0.81120900  0.58567700  0.62954800  1
  Ni  Ni6  1  0.61169200  0.29759700  0.28986000  1
  Ni  Ni7  1  0.29759700  0.61169200  0.28986000  1
  Ni  Ni8  1  0.38830800  0.70240300  0.71014000  1
  Ni  Ni9  1  0.70240300  0.38830800  0.71014000  1
  Ni  Ni10  1  0.67939900  0.00196900  0.49360100  1
  Ni  Ni11  1  0.00196900  0.67939900  0.49360100  1
  Ni  Ni12  1  0.32060100  0.99803100  0.50639900  1
  Ni  Ni13  1  0.99803100  0.32060100  0.50639900  1
  Ni  Ni14  1  0.37088000  0.37088000  0.03622600  1
  Ni  Ni15  1  0.62912000  0.62912000  0.96377400  1
  Ni  Ni16  1  0.07556700  0.07556700  0.25837600  1
  Ni  Ni17  1  0.92443300  0.92443300  0.74162400  1
  Ni  Ni18  1  0.46906300  0.00419800  0.18691400  1
  Ni  Ni19  1  0.00419800  0.46906300  0.18691400  1
  Ni  Ni20  1  0.53093700  0.99580200  0.81308600  1
  Ni  Ni21  1  0.99580200  0.53093700  0.81308600  1
  Ni  Ni22  1  0.63960300  0.63960300  0.43686000  1
  Ni  Ni23  1  0.36039700  0.36039700  0.56314000  1
  Ni  Ni24  1  0.15592100  0.15592100  0.95986100  1
  Ni  Ni25  1  0.84407900  0.84407900  0.04013900  1
  Cu  Cu26  1  0.79142900  0.20857100  0.00000000  1
  Cu  Cu27  1  0.20857100  0.79142900  0.00000000  1
