# generated using pymatgen
data_Cu6Ni2C5
_symmetry_space_group_name_H-M   'P 1'
_cell_length_a   12.90879291
_cell_length_b   12.90879291
_cell_length_c   14.38775719
_cell_angle_alpha   79.56461841
_cell_angle_beta   79.56461841
_cell_angle_gamma   24.69582389
_symmetry_Int_Tables_number   1
_chemical_formula_structural   Cu6Ni2C5
_chemical_formula_sum   'Cu24 Ni8 C20'
_cell_volume   984.32167119
_cell_formula_units_Z   4
loop_
 _symmetry_equiv_pos_site_id
 _symmetry_equiv_pos_as_xyz
  1  'x, y, z'
loop_
 _atom_site_type_symbol
 _atom_site_label
 _atom_site_symmetry_multiplicity
 _atom_site_fract_x
 _atom_site_fract_y
 _atom_site_fract_z
 _atom_site_occupancy
  C  C0  1  0.50000000  0.50000000  0.50000000  1
  C  C1  1  0.50000000  0.50000000  0.00000000  1
  C  C2  1  0.94827200  0.83003800  0.17628600  1
  C  C3  1  0.16996200  0.05172800  0.32371400  1
  C  C4  1  0.05172800  0.16996200  0.82371400  1
  C  C5  1  0.83003800  0.94827200  0.67628600  1
  C  C6  1  0.74571800  0.71641600  0.36917100  1
  C  C7  1  0.28358400  0.25428200  0.13082900  1
  C  C8  1  0.25428200  0.28358400  0.63082900  1
  C  C9  1  0.71641600  0.74571800  0.86917100  1
  C  C10  1  0.56475700  0.43524300  0.25000000  1
  C  C11  1  0.43524300  0.56475700  0.75000000  1
  C  C12  1  0.34000700  0.33470800  0.32297900  1
  C  C13  1  0.66529200  0.65999300  0.17702100  1
  C  C14  1  0.65999300  0.66529200  0.67702100  1
  C  C15  1  0.33470800  0.34000700  0.82297900  1
  C  C16  1  0.96578100  0.94420700  0.41747200  1
  C  C17  1  0.05579300  0.03421900  0.08252800  1
  C  C18  1  0.03421900  0.05579300  0.58252800  1
  C  C19  1  0.94420700  0.96578100  0.91747200  1
  Ni  Ni20  1  0.19708800  0.21972800  0.45846300  1
  Ni  Ni21  1  0.78027200  0.80291200  0.04153700  1
  Ni  Ni22  1  0.80291200  0.78027200  0.54153700  1
  Ni  Ni23  1  0.21972800  0.19708800  0.95846300  1
  Ni  Ni24  1  0.41869800  0.35544100  0.53807200  1
  Ni  Ni25  1  0.64455900  0.58130200  0.96192800  1
  Ni  Ni26  1  0.58130200  0.64455900  0.46192800  1
  Ni  Ni27  1  0.35544100  0.41869800  0.03807200  1
  Cu  Cu28  1  0.55324900  0.07582800  0.26097300  1
  Cu  Cu29  1  0.92417200  0.44675100  0.23902700  1
  Cu  Cu30  1  0.44675100  0.92417200  0.73902700  1
  Cu  Cu31  1  0.07582800  0.55324900  0.76097300  1
  Cu  Cu32  1  0.88217900  0.99051000  0.31210700  1
  Cu  Cu33  1  0.00949000  0.11782100  0.18789300  1
  Cu  Cu34  1  0.11782100  0.00949000  0.68789300  1
  Cu  Cu35  1  0.99051000  0.88217900  0.81210700  1
  Cu  Cu36  1  0.06665600  0.54534400  0.27463500  1
  Cu  Cu37  1  0.45465600  0.93334400  0.22536500  1
  Cu  Cu38  1  0.93334400  0.45465600  0.72536500  1
  Cu  Cu39  1  0.54534400  0.06665600  0.77463500  1
  Cu  Cu40  1  0.26229000  0.73484700  0.39294300  1
  Cu  Cu41  1  0.26515300  0.73771000  0.10705700  1
  Cu  Cu42  1  0.73771000  0.26515300  0.60705700  1
  Cu  Cu43  1  0.73484700  0.26229000  0.89294300  1
  Cu  Cu44  1  0.79755300  0.21553100  0.41388700  1
  Cu  Cu45  1  0.78446900  0.20244700  0.08611300  1
  Cu  Cu46  1  0.20244700  0.78446900  0.58611300  1
  Cu  Cu47  1  0.21553100  0.79755300  0.91388700  1
  Cu  Cu48  1  0.34357400  0.45860100  0.26065500  1
  Cu  Cu49  1  0.54139900  0.65642600  0.23934500  1
  Cu  Cu50  1  0.65642600  0.54139900  0.73934500  1
  Cu  Cu51  1  0.45860100  0.34357400  0.76065500  1
