# generated using pymatgen
data_Cu(NiC)2
_symmetry_space_group_name_H-M   'P 1'
_cell_length_a   8.57487400
_cell_length_b   9.84769300
_cell_length_c   16.14565000
_cell_angle_alpha   90.00000000
_cell_angle_beta   90.00000000
_cell_angle_gamma   90.00000000
_symmetry_Int_Tables_number   1
_chemical_formula_structural   Cu(NiC)2
_chemical_formula_sum   'Cu8 Ni16 C16'
_cell_volume   1363.38270979
_cell_formula_units_Z   8
loop_
 _symmetry_equiv_pos_site_id
 _symmetry_equiv_pos_as_xyz
  1  'x, y, z'
loop_
 _atom_site_type_symbol
 _atom_site_label
 _atom_site_symmetry_multiplicity
 _atom_site_fract_x
 _atom_site_fract_y
 _atom_site_fract_z
 _atom_site_occupancy
  C  C0  1  0.84986300  0.00000000  0.50000000  1
  C  C1  1  0.15013700  0.50000000  0.00000000  1
  Ni  Ni2  1  0.11532200  0.31357600  0.63493900  1
  Ni  Ni3  1  0.11532200  0.68642400  0.36506100  1
  Ni  Ni4  1  0.88467800  0.81357600  0.86506100  1
  Ni  Ni5  1  0.88467800  0.18642400  0.13493900  1
  Ni  Ni6  1  0.86981200  0.41191500  0.69625600  1
  Ni  Ni7  1  0.86981200  0.58808500  0.30374400  1
  Ni  Ni8  1  0.13018800  0.91191500  0.80374400  1
  Ni  Ni9  1  0.13018800  0.08808500  0.19625600  1
  Ni  Ni10  1  0.56649900  0.18678400  0.95748500  1
  Ni  Ni11  1  0.56649900  0.81321600  0.04251500  1
  Ni  Ni12  1  0.43350100  0.68678400  0.54251500  1
  Ni  Ni13  1  0.43350100  0.31321600  0.45748500  1
  Ni  Ni14  1  0.36163300  0.22537500  0.85054400  1
  Ni  Ni15  1  0.36163300  0.77462500  0.14945600  1
  Ni  Ni16  1  0.63836700  0.72537500  0.64945600  1
  Ni  Ni17  1  0.63836700  0.27462500  0.35054400  1
  Cu  Cu18  1  0.98218600  0.35070400  0.67117100  1
  Cu  Cu19  1  0.98218600  0.64929600  0.32882900  1
  Cu  Cu20  1  0.01781400  0.85070400  0.82882900  1
  Cu  Cu21  1  0.01781400  0.14929600  0.17117100  1
  Cu  Cu22  1  0.45112800  0.20147500  0.91166800  1
  Cu  Cu23  1  0.45112800  0.79852500  0.08833200  1
  Cu  Cu24  1  0.54887200  0.70147500  0.58833200  1
  Cu  Cu25  1  0.54887200  0.29852500  0.41166800  1
  C  C26  1  0.84197500  0.77641000  0.60583600  1
  C  C27  1  0.84197500  0.22359000  0.39416400  1
  C  C28  1  0.15802500  0.27641000  0.89416400  1
  C  C29  1  0.15802500  0.72359000  0.10583600  1
  C  C30  1  0.15389900  0.14391900  0.65134800  1
  C  C31  1  0.15389900  0.85608100  0.34865200  1
  C  C32  1  0.84610100  0.64391900  0.84865200  1
  C  C33  1  0.84610100  0.35608100  0.15134800  1
  C  C34  1  0.66763700  0.89313400  0.40303000  1
  C  C35  1  0.66763700  0.10686600  0.59697000  1
  C  C36  1  0.33236300  0.39313400  0.09697000  1
  C  C37  1  0.33236300  0.60686600  0.90303000  1
  C  C38  1  0.39585700  0.50000000  0.50000000  1
  C  C39  1  0.60414300  0.00000000  0.00000000  1
