# generated using pymatgen
data_Cu11(NiC4)2
_symmetry_space_group_name_H-M   'P 1'
_cell_length_a   7.45205137
_cell_length_b   20.53139495
_cell_length_c   7.57572252
_cell_angle_alpha   108.25466517
_cell_angle_beta   106.36498210
_cell_angle_gamma   93.99333214
_symmetry_Int_Tables_number   1
_chemical_formula_structural   Cu11(NiC4)2
_chemical_formula_sum   'Cu22 Ni4 C16'
_cell_volume   1040.18636322
_cell_formula_units_Z   2
loop_
 _symmetry_equiv_pos_site_id
 _symmetry_equiv_pos_as_xyz
  1  'x, y, z'
loop_
 _atom_site_type_symbol
 _atom_site_label
 _atom_site_symmetry_multiplicity
 _atom_site_fract_x
 _atom_site_fract_y
 _atom_site_fract_z
 _atom_site_occupancy
  C  C0  1  0.11943800  0.58162100  0.02247900  1
  C  C1  1  0.24854900  0.80404600  0.05743200  1
  C  C2  1  0.39697200  0.77840500  0.64099700  1
  C  C3  1  0.16254600  0.06958200  0.10826400  1
  C  C4  1  0.56815300  0.98121300  0.24358500  1
  C  C5  1  0.27366600  0.31484500  0.09726400  1
  C  C6  1  0.50275700  0.31358900  0.75581200  1
  C  C7  1  0.60307000  0.49489200  0.26806800  1
  C  C8  1  0.39693000  0.50510800  0.73193200  1
  C  C9  1  0.49724300  0.68641100  0.24418800  1
  C  C10  1  0.72633400  0.68515500  0.90273600  1
  C  C11  1  0.43184700  0.01878700  0.75641500  1
  C  C12  1  0.83745400  0.93041800  0.89173600  1
  C  C13  1  0.60302800  0.22159500  0.35900300  1
  C  C14  1  0.75145100  0.19595400  0.94256800  1
  C  C15  1  0.88056200  0.41837900  0.97752100  1
  Ni  Ni16  1  0.13579000  0.67680500  0.43773200  1
  Ni  Ni17  1  0.87849400  0.15142200  0.35567800  1
  Ni  Ni18  1  0.12150600  0.84857800  0.64432200  1
  Ni  Ni19  1  0.86421000  0.32319500  0.56226800  1
  Cu  Cu20  1  0.96832500  0.64375600  0.92632400  1
  Cu  Cu21  1  0.40464100  0.75829200  0.88781300  1
  Cu  Cu22  1  0.41628900  0.77782700  0.27886300  1
  Cu  Cu23  1  0.16059100  0.53640900  0.76785800  1
  Cu  Cu24  1  0.35282700  0.90208900  0.15767900  1
  Cu  Cu25  1  0.25356500  0.08520300  0.90900500  1
  Cu  Cu26  1  0.27036200  0.30170800  0.82184000  1
  Cu  Cu27  1  0.42210600  0.29984000  0.48009900  1
  Cu  Cu28  1  0.45696200  0.40373400  0.21452900  1
  Cu  Cu29  1  0.35880300  0.04924000  0.30019300  1
  Cu  Cu30  1  0.50000000  0.50000000  0.00000000  1
  Cu  Cu31  1  0.64119700  0.95076000  0.69980700  1
  Cu  Cu32  1  0.54303800  0.59626600  0.78547100  1
  Cu  Cu33  1  0.57789400  0.70016000  0.51990100  1
  Cu  Cu34  1  0.72963800  0.69829200  0.17816000  1
  Cu  Cu35  1  0.50000000  0.00000000  0.00000000  1
  Cu  Cu36  1  0.74643500  0.91479700  0.09099500  1
  Cu  Cu37  1  0.64717300  0.09791100  0.84232100  1
  Cu  Cu38  1  0.83940900  0.46359100  0.23214200  1
  Cu  Cu39  1  0.58371100  0.22217300  0.72113700  1
  Cu  Cu40  1  0.59535900  0.24170800  0.11218700  1
  Cu  Cu41  1  0.03167500  0.35624400  0.07367600  1
