# generated using pymatgen
data_CuNi4C5
_symmetry_space_group_name_H-M   'P 1'
_cell_length_a   7.42403900
_cell_length_b   9.21521007
_cell_length_c   10.09497532
_cell_angle_alpha   116.83135572
_cell_angle_beta   91.98131827
_cell_angle_gamma   99.09078281
_symmetry_Int_Tables_number   1
_chemical_formula_structural   CuNi4C5
_chemical_formula_sum   'Cu2 Ni8 C10'
_cell_volume   604.13236487
_cell_formula_units_Z   2
loop_
 _symmetry_equiv_pos_site_id
 _symmetry_equiv_pos_as_xyz
  1  'x, y, z'
loop_
 _atom_site_type_symbol
 _atom_site_label
 _atom_site_symmetry_multiplicity
 _atom_site_fract_x
 _atom_site_fract_y
 _atom_site_fract_z
 _atom_site_occupancy
  C  C0  1  0.23505500  0.83283100  0.56224200  1
  C  C1  1  0.76494500  0.16716900  0.43775800  1
  Ni  Ni2  1  0.11099500  0.79242500  0.97983600  1
  Ni  Ni3  1  0.88900500  0.20757500  0.02016400  1
  Ni  Ni4  1  0.98661300  0.73093100  0.06823300  1
  Ni  Ni5  1  0.01338700  0.26906900  0.93176700  1
  Ni  Ni6  1  0.24524800  0.86073600  0.90212500  1
  Ni  Ni7  1  0.75475200  0.13926400  0.09787500  1
  Ni  Ni8  1  0.75179200  0.64359800  0.24040500  1
  Ni  Ni9  1  0.24820800  0.35640200  0.75959500  1
  C  C10  1  0.58844000  0.05571800  0.19218900  1
  C  C11  1  0.41156000  0.94428200  0.80781100  1
  C  C12  1  0.64775400  0.82051100  0.62858200  1
  C  C13  1  0.35224600  0.17948900  0.37141800  1
  C  C14  1  0.64871500  0.62265900  0.37112300  1
  C  C15  1  0.35128500  0.37734100  0.62887700  1
  C  C16  1  0.79662100  0.66996900  0.60893600  1
  C  C17  1  0.20337900  0.33003100  0.39106400  1
  Cu  Cu18  1  0.87360900  0.67994100  0.15810000  1
  Cu  Cu19  1  0.12639100  0.32005900  0.84190000  1
