# generated using pymatgen
data_Cu4NiC
_symmetry_space_group_name_H-M   'P 1'
_cell_length_a   5.40190200
_cell_length_b   14.21454800
_cell_length_c   16.26499418
_cell_angle_alpha   65.41358510
_cell_angle_beta   90.00000000
_cell_angle_gamma   90.00000000
_symmetry_Int_Tables_number   1
_chemical_formula_structural   Cu4NiC
_chemical_formula_sum   'Cu32 Ni8 C8'
_cell_volume   1135.68390937
_cell_formula_units_Z   8
loop_
 _symmetry_equiv_pos_site_id
 _symmetry_equiv_pos_as_xyz
  1  'x, y, z'
loop_
 _atom_site_type_symbol
 _atom_site_label
 _atom_site_symmetry_multiplicity
 _atom_site_fract_x
 _atom_site_fract_y
 _atom_site_fract_z
 _atom_site_occupancy
  C  C0  1  0.78551800  0.00948900  0.22078100  1
  C  C1  1  0.28551800  0.49051100  0.77921900  1
  C  C2  1  0.21448200  0.99051100  0.77921900  1
  C  C3  1  0.71448200  0.50948900  0.22078100  1
  C  C4  1  0.13154100  0.15637200  0.44459000  1
  C  C5  1  0.63154100  0.34362800  0.55541000  1
  C  C6  1  0.86845900  0.84362800  0.55541000  1
  C  C7  1  0.36845900  0.65637200  0.44459000  1
  Ni  Ni8  1  0.56330700  0.33814300  0.04606100  1
  Ni  Ni9  1  0.06330700  0.16185700  0.95393900  1
  Ni  Ni10  1  0.43669300  0.66185700  0.95393900  1
  Ni  Ni11  1  0.93669300  0.83814300  0.04606100  1
  Ni  Ni12  1  0.19780100  0.45571600  0.36811200  1
  Ni  Ni13  1  0.69780100  0.04428400  0.63188800  1
  Ni  Ni14  1  0.80219900  0.54428400  0.63188800  1
  Ni  Ni15  1  0.30219900  0.95571600  0.36811200  1
  Cu  Cu16  1  0.19822600  0.43317800  0.28576700  1
  Cu  Cu17  1  0.69822600  0.06682200  0.71423300  1
  Cu  Cu18  1  0.80177400  0.56682200  0.71423300  1
  Cu  Cu19  1  0.30177400  0.93317800  0.28576700  1
  Cu  Cu20  1  0.12095000  0.36173200  0.44922100  1
  Cu  Cu21  1  0.62095000  0.13826800  0.55077900  1
  Cu  Cu22  1  0.87905000  0.63826800  0.55077900  1
  Cu  Cu23  1  0.37905000  0.86173200  0.44922100  1
  Cu  Cu24  1  0.01917400  0.54158700  0.35456100  1
  Cu  Cu25  1  0.51917400  0.95841300  0.64543900  1
  Cu  Cu26  1  0.98082600  0.45841300  0.64543900  1
  Cu  Cu27  1  0.48082600  0.04158700  0.35456100  1
  Cu  Cu28  1  0.45160400  0.48839400  0.38190400  1
  Cu  Cu29  1  0.95160400  0.01160600  0.61809600  1
  Cu  Cu30  1  0.54839600  0.51160600  0.61809600  1
  Cu  Cu31  1  0.04839600  0.98839400  0.38190400  1
  Cu  Cu32  1  0.76745100  0.40891100  0.03538900  1
  Cu  Cu33  1  0.26745100  0.09108900  0.96461100  1
  Cu  Cu34  1  0.23254900  0.59108900  0.96461100  1
  Cu  Cu35  1  0.73254900  0.90891100  0.03538900  1
  Cu  Cu36  1  0.48301000  0.28873900  0.21545400  1
  Cu  Cu37  1  0.98301000  0.21126100  0.78454600  1
  Cu  Cu38  1  0.51699000  0.71126100  0.78454600  1
  Cu  Cu39  1  0.01699000  0.78873900  0.21545400  1
  Cu  Cu40  1  0.62421700  0.23097100  0.06664600  1
  Cu  Cu41  1  0.12421700  0.26902900  0.93335400  1
  Cu  Cu42  1  0.37578300  0.76902900  0.93335400  1
  Cu  Cu43  1  0.87578300  0.73097100  0.06664600  1
  Cu  Cu44  1  0.31268400  0.22400800  0.24127400  1
  Cu  Cu45  1  0.81268400  0.27599200  0.75872600  1
  Cu  Cu46  1  0.68731600  0.77599200  0.75872600  1
  Cu  Cu47  1  0.18731600  0.72400800  0.24127400  1
