# generated using pymatgen
data_Cu2NiC11
_symmetry_space_group_name_H-M   'P 1'
_cell_length_a   6.49083200
_cell_length_b   7.31408200
_cell_length_c   14.56698300
_cell_angle_alpha   90.00000000
_cell_angle_beta   90.00000000
_cell_angle_gamma   90.00000000
_symmetry_Int_Tables_number   1
_chemical_formula_structural   Cu2NiC11
_chemical_formula_sum   'Cu8 Ni4 C44'
_cell_volume   691.55990662
_cell_formula_units_Z   4
loop_
 _symmetry_equiv_pos_site_id
 _symmetry_equiv_pos_as_xyz
  1  'x, y, z'
loop_
 _atom_site_type_symbol
 _atom_site_label
 _atom_site_symmetry_multiplicity
 _atom_site_fract_x
 _atom_site_fract_y
 _atom_site_fract_z
 _atom_site_occupancy
  C  C0  1  0.25000000  0.44478000  0.30360200  1
  C  C1  1  0.25000000  0.05522000  0.80360200  1
  C  C2  1  0.75000000  0.55522000  0.69639800  1
  C  C3  1  0.75000000  0.94478000  0.19639800  1
  C  C4  1  0.00000000  0.50000000  0.50000000  1
  C  C5  1  0.00000000  0.00000000  0.00000000  1
  C  C6  1  0.50000000  0.00000000  0.00000000  1
  C  C7  1  0.50000000  0.50000000  0.50000000  1
  Ni  Ni8  1  0.25000000  0.86635900  0.38142600  1
  Ni  Ni9  1  0.75000000  0.13364100  0.61857400  1
  Ni  Ni10  1  0.75000000  0.36635900  0.11857400  1
  Ni  Ni11  1  0.25000000  0.63364100  0.88142600  1
  Cu  Cu12  1  0.75000000  0.86432200  0.41879300  1
  Cu  Cu13  1  0.25000000  0.13567800  0.58120700  1
  Cu  Cu14  1  0.25000000  0.36432200  0.08120700  1
  Cu  Cu15  1  0.75000000  0.63567800  0.91879300  1
  Cu  Cu16  1  0.25000000  0.88104100  0.18769300  1
  Cu  Cu17  1  0.75000000  0.11895900  0.81230700  1
  Cu  Cu18  1  0.75000000  0.38104100  0.31230700  1
  Cu  Cu19  1  0.25000000  0.61895900  0.68769300  1
  C  C20  1  0.54641100  0.11920700  0.86881300  1
  C  C21  1  0.04641100  0.88079300  0.13118700  1
  C  C22  1  0.45358900  0.61920700  0.63118700  1
  C  C23  1  0.95358900  0.38079300  0.36881300  1
  C  C24  1  0.45358900  0.88079300  0.13118700  1
  C  C25  1  0.95358900  0.11920700  0.86881300  1
  C  C26  1  0.54641100  0.38079300  0.36881300  1
  C  C27  1  0.04641100  0.61920700  0.63118700  1
  C  C28  1  0.75000000  0.81451000  0.97490000  1
  C  C29  1  0.25000000  0.18549000  0.02510000  1
  C  C30  1  0.25000000  0.31451000  0.52510000  1
  C  C31  1  0.75000000  0.68549000  0.47490000  1
  C  C32  1  0.25000000  0.61281200  0.43086000  1
  C  C33  1  0.75000000  0.38718800  0.56914000  1
  C  C34  1  0.75000000  0.11281200  0.06914000  1
  C  C35  1  0.25000000  0.88718800  0.93086000  1
  C  C36  1  0.25000000  0.70834800  0.25375500  1
  C  C37  1  0.75000000  0.29165200  0.74624500  1
  C  C38  1  0.75000000  0.20834800  0.24624500  1
  C  C39  1  0.25000000  0.79165200  0.75375500  1
  C  C40  1  0.93199500  0.62997500  0.84832900  1
  C  C41  1  0.43199500  0.37002500  0.15167100  1
  C  C42  1  0.06800500  0.12997500  0.65167100  1
  C  C43  1  0.56800500  0.87002500  0.34832900  1
  C  C44  1  0.06800500  0.37002500  0.15167100  1
  C  C45  1  0.56800500  0.62997500  0.84832900  1
  C  C46  1  0.93199500  0.87002500  0.34832900  1
  C  C47  1  0.43199500  0.12997500  0.65167100  1
  C  C48  1  0.25000000  0.45713200  0.75755000  1
  C  C49  1  0.75000000  0.54286800  0.24245000  1
  C  C50  1  0.75000000  0.95713200  0.74245000  1
  C  C51  1  0.25000000  0.04286800  0.25755000  1
  C  C52  1  0.25000000  0.53754700  0.02308600  1
  C  C53  1  0.75000000  0.46245300  0.97691400  1
  C  C54  1  0.75000000  0.03754700  0.47691400  1
  C  C55  1  0.25000000  0.96245300  0.52308600  1
