# generated using pymatgen
data_Cu5Ni3C32
_symmetry_space_group_name_H-M   'P 1'
_cell_length_a   10.86515120
_cell_length_b   15.22945251
_cell_length_c   10.70820318
_cell_angle_alpha   90.00000000
_cell_angle_beta   90.01640191
_cell_angle_gamma   90.00000000
_symmetry_Int_Tables_number   1
_chemical_formula_structural   Cu5Ni3C32
_chemical_formula_sum   'Cu20 Ni12 C128'
_cell_volume   1771.88956534
_cell_formula_units_Z   4
loop_
 _symmetry_equiv_pos_site_id
 _symmetry_equiv_pos_as_xyz
  1  'x, y, z'
loop_
 _atom_site_type_symbol
 _atom_site_label
 _atom_site_symmetry_multiplicity
 _atom_site_fract_x
 _atom_site_fract_y
 _atom_site_fract_z
 _atom_site_occupancy
  C  C0  1  0.01942132  0.12500000  0.49622752  1
  C  C1  1  0.01943532  0.12500000  0.99594300  1
  C  C2  1  0.02257051  0.62500000  0.49743019  1
  C  C3  1  0.01942025  0.62500000  0.99478448  1
  C  C4  1  0.52428522  0.12500000  0.49557234  1
  C  C5  1  0.52431062  0.12500000  0.99524256  1
  C  C6  1  0.52355404  0.62500000  0.49570384  1
  C  C7  1  0.52398635  0.62500000  0.99514603  1
  C  C8  1  0.48045378  0.37470623  0.00425620  1
  C  C9  1  0.47937971  0.37611252  0.50561345  1
  C  C10  1  0.48045378  0.87529377  0.00425620  1
  C  C11  1  0.47937971  0.87388748  0.50561345  1
  C  C12  1  0.97602591  0.37577730  0.00279792  1
  C  C13  1  0.97625089  0.37581658  0.50512777  1
  C  C14  1  0.97602591  0.87422270  0.00279792  1
  C  C15  1  0.97625089  0.87418342  0.50512777  1
  C  C16  1  0.23034041  0.37530358  0.24690642  1
  C  C17  1  0.22921684  0.37653110  0.74464243  1
  C  C18  1  0.23034041  0.87469642  0.24690642  1
  C  C19  1  0.22921684  0.87346890  0.74464343  1
  C  C20  1  0.72591229  0.37483036  0.24584425  1
  C  C21  1  0.72641687  0.37517019  0.74498672  1
  C  C22  1  0.72591229  0.87516964  0.24584425  1
  C  C23  1  0.72641687  0.87482981  0.74498772  1
  C  C24  1  0.27421462  0.12500000  0.25398176  1
  C  C25  1  0.27439472  0.12500000  0.75378795  1
  C  C26  1  0.27416100  0.62500000  0.25554446  1
  C  C27  1  0.27288364  0.62500000  0.75184658  1
  C  C28  1  0.76925682  0.12500000  0.25517948  1
  C  C29  1  0.76920984  0.12500000  0.75477203  1
  C  C30  1  0.76906292  0.62500000  0.25460418  1
  C  C31  1  0.77295170  0.62500000  0.75512442  1
  Ni  Ni32  1  0.99866502  0.99990523  0.25007273  1
  Ni  Ni33  1  0.99843574  0.99924550  0.74977350  1
  Ni  Ni34  1  0.99888417  0.49976575  0.25040739  1
  Ni  Ni35  1  0.25122621  0.99983239  0.00005715  1
  Ni  Ni36  1  0.25106343  0.99930825  0.50076795  1
  Ni  Ni37  1  0.25074366  0.49997788  0.99921692  1
  Ni  Ni38  1  0.25122621  0.25016761  0.00005715  1
  Ni  Ni39  1  0.25106343  0.25069175  0.50076795  1
  Ni  Ni40  1  0.25074366  0.75002212  0.99921692  1
  Ni  Ni41  1  0.99866502  0.25009477  0.25007273  1
  Ni  Ni42  1  0.99843574  0.25075450  0.74977350  1
  Ni  Ni43  1  0.99888417  0.75023425  0.25040739  1
  Cu  Cu44  1  0.00079037  0.50136133  0.74964544  1
  Cu  Cu45  1  0.50151655  0.00025510  0.25171332  1
  Cu  Cu46  1  0.50168798  0.00007442  0.75160828  1
  Cu  Cu47  1  0.50036575  0.49951938  0.25148273  1
  Cu  Cu48  1  0.50155238  0.50072326  0.75000925  1
  Cu  Cu49  1  0.25180454  0.50128722  0.49888878  1
  Cu  Cu50  1  0.74835337  0.99984193  0.00172979  1
  Cu  Cu51  1  0.74831203  0.99964959  0.50161364  1
  Cu  Cu52  1  0.74852161  0.49931256  0.00020243  1
  Cu  Cu53  1  0.75009665  0.50054584  0.50188033  1
  Cu  Cu54  1  0.25180454  0.74871278  0.49888878  1
  Cu  Cu55  1  0.74835337  0.25015807  0.00172979  1
  Cu  Cu56  1  0.74831203  0.25035041  0.50161364  1
  Cu  Cu57  1  0.74852161  0.75068744  0.00020243  1
  Cu  Cu58  1  0.75009665  0.74945416  0.50188033  1
  Cu  Cu59  1  0.00079037  0.74863867  0.74964544  1
  Cu  Cu60  1  0.50151655  0.24974490  0.25171332  1
  Cu  Cu61  1  0.50168798  0.24992558  0.75160828  1
  Cu  Cu62  1  0.50036575  0.75048062  0.25148273  1
  Cu  Cu63  1  0.50155238  0.74927674  0.75000925  1
  C  C64  1  0.10506353  0.27028324  0.10389347  1
  C  C65  1  0.10498147  0.26961456  0.60368766  1
  C  C66  1  0.10561228  0.77023463  0.10491663  1
  C  C67  1  0.10423492  0.77024589  0.60255283  1
  C  C68  1  0.60289023  0.27043017  0.10245515  1
  C  C69  1  0.60273239  0.27050436  0.60234866  1
  C  C70  1  0.60289126  0.77029678  0.10263351  1
  C  C71  1  0.60388981  0.77030016  0.60293951  1
  C  C72  1  0.39720713  0.23086699  0.39397665  1
  C  C73  1  0.39762143  0.23022413  0.89394538  1
  C  C74  1  0.39707453  0.72888124  0.39726408  1
  C  C75  1  0.39666062  0.73025043  0.89313565  1
  C  C76  1  0.89271485  0.23078838  0.39751116  1
  C  C77  1  0.89303894  0.23129155  0.89753858  1
  C  C78  1  0.89252492  0.73050440  0.39734146  1
  C  C79  1  0.89629817  0.72967169  0.89747241  1
  C  C80  1  0.14520953  0.23023414  0.35405252  1
  C  C81  1  0.14422496  0.23034963  0.85370303  1
  C  C82  1  0.14671919  0.73002823  0.35556280  1
  C  C83  1  0.14353210  0.72973279  0.85266607  1
  C  C84  1  0.64703535  0.22962362  0.35240519  1
  C  C85  1  0.64713241  0.22957998  0.85258241  1
  C  C86  1  0.64628491  0.72966753  0.35280420  1
  C  C87  1  0.64672967  0.72945500  0.85266939  1
  C  C88  1  0.35723328  0.26916253  0.14764078  1
  C  C89  1  0.35696280  0.26882428  0.64766381  1
  C  C90  1  0.35672200  0.76948891  0.14726503  1
  C  C91  1  0.35426627  0.77015130  0.64689906  1
  C  C92  1  0.85230111  0.26977533  0.14386157  1
  C  C93  1  0.85242696  0.26944105  0.64388004  1
  C  C94  1  0.85288658  0.76971035  0.14396026  1
  C  C95  1  0.85385582  0.77078414  0.64734236  1
  C  C96  1  0.35672200  0.48051009  0.14726503  1
  C  C97  1  0.35426627  0.47984770  0.64689906  1
  C  C98  1  0.35723328  0.98083647  0.14764078  1
  C  C99  1  0.35696280  0.98117472  0.64766381  1
  C  C100  1  0.85288758  0.48028865  0.14396026  1
  C  C101  1  0.85385682  0.47921486  0.64734136  1
  C  C102  1  0.85230111  0.98022367  0.14386157  1
  C  C103  1  0.85242696  0.98055795  0.64388004  1
  C  C104  1  0.14520953  0.01976486  0.35405252  1
  C  C105  1  0.14422496  0.01964937  0.85370303  1
  C  C106  1  0.14671919  0.51997077  0.35556280  1
  C  C107  1  0.14353210  0.52026621  0.85266607  1
  C  C108  1  0.64703435  0.02037538  0.35240519  1
  C  C109  1  0.64713141  0.02041902  0.85258241  1
  C  C110  1  0.64628391  0.52033147  0.35280420  1
  C  C111  1  0.64672867  0.52054400  0.85266939  1
  C  C112  1  0.39720713  0.01913201  0.39397665  1
  C  C113  1  0.39762143  0.01977487  0.89394538  1
  C  C114  1  0.39707453  0.52111776  0.39726408  1
  C  C115  1  0.39666062  0.51974857  0.89313565  1
  C  C116  1  0.89271385  0.01921062  0.39751216  1
  C  C117  1  0.89303794  0.01870745  0.89753858  1
  C  C118  1  0.89252492  0.51949460  0.39734146  1
  C  C119  1  0.89629817  0.52032731  0.89747241  1
  C  C120  1  0.10561228  0.47976437  0.10491763  1
  C  C121  1  0.10423492  0.47975311  0.60255283  1
  C  C122  1  0.10506353  0.97971576  0.10389347  1
  C  C123  1  0.10498147  0.98038444  0.60368766  1
  C  C124  1  0.60289126  0.47970222  0.10263251  1
  C  C125  1  0.60388981  0.47969884  0.60293851  1
  C  C126  1  0.60289023  0.97956883  0.10245615  1
  C  C127  1  0.60273239  0.97949464  0.60234866  1
  C  C128  1  0.00869061  0.37503769  0.28733489  1
  C  C129  1  0.00899881  0.37738629  0.78630230  1
  C  C130  1  0.00869161  0.87496231  0.28733489  1
  C  C131  1  0.00899981  0.87261371  0.78630230  1
  C  C132  1  0.51064652  0.37494227  0.29067546  1
  C  C133  1  0.51028405  0.37525837  0.79021366  1
  C  C134  1  0.51064652  0.87505773  0.29067546  1
  C  C135  1  0.51028405  0.87474163  0.79021366  1
  C  C136  1  0.49009675  0.12500000  0.21040249  1
  C  C137  1  0.49028791  0.12500000  0.71032377  1
  C  C138  1  0.48975060  0.62500000  0.21080241  1
  C  C139  1  0.49020732  0.62500000  0.70985930  1
  C  C140  1  0.99085578  0.12500000  0.21250412  1
  C  C141  1  0.99058710  0.12500000  0.71276502  1
  C  C142  1  0.99220940  0.62500000  0.21325769  1
  C  C143  1  0.98879602  0.62500000  0.70956382  1
  C  C144  1  0.24079632  0.12500000  0.03704034  1
  C  C145  1  0.24109713  0.12500000  0.53693375  1
  C  C146  1  0.24089834  0.62500000  0.03672686  1
  C  C147  1  0.24026986  0.62500000  0.53976149  1
  C  C148  1  0.73941219  0.12500000  0.04083118  1
  C  C149  1  0.73919814  0.12500000  0.54072616  1
  C  C150  1  0.74034076  0.62500000  0.03969749  1
  C  C151  1  0.73891842  0.62500000  0.54053813  1
  C  C152  1  0.25894174  0.37745683  0.46299742  1
  C  C153  1  0.25935252  0.37499513  0.96258544  1
  C  C154  1  0.25894274  0.87254317  0.46299842  1
  C  C155  1  0.25935352  0.87500487  0.96258644  1
  C  C156  1  0.76013741  0.37523069  0.46064936  1
  C  C157  1  0.75953830  0.37499263  0.96012194  1
  C  C158  1  0.76013741  0.87476931  0.46064936  1
  C  C159  1  0.75953830  0.87500737  0.96012294  1
