# generated using pymatgen
data_Cu(Ni3C2)2
_symmetry_space_group_name_H-M   'P 1'
_cell_length_a   7.31100317
_cell_length_b   7.31100317
_cell_length_c   7.31100317
_cell_angle_alpha   121.64887860
_cell_angle_beta   117.97829370
_cell_angle_gamma   90.35240881
_symmetry_Int_Tables_number   1
_chemical_formula_structural   Cu(Ni3C2)2
_chemical_formula_sum   'Cu2 Ni12 C8'
_cell_volume   276.74239154
_cell_formula_units_Z   2
loop_
 _symmetry_equiv_pos_site_id
 _symmetry_equiv_pos_as_xyz
  1  'x, y, z'
loop_
 _atom_site_type_symbol
 _atom_site_label
 _atom_site_symmetry_multiplicity
 _atom_site_fract_x
 _atom_site_fract_y
 _atom_site_fract_z
 _atom_site_occupancy
  C  C0  1  0.50000000  0.00000000  0.00000000  1
  C  C1  1  0.50000000  0.50000000  0.50000000  1
  C  C2  1  0.50000000  0.00000000  0.50000000  1
  C  C3  1  0.00000000  0.00000000  0.00000000  1
  C  C4  1  0.00000000  0.50000000  0.00000000  1
  C  C5  1  0.00000000  0.00000000  0.50000000  1
  C  C6  1  0.00000000  0.50000000  0.50000000  1
  C  C7  1  0.50000000  0.50000000  0.00000000  1
  Ni  Ni8  1  0.92067500  0.17067500  0.75000000  1
  Ni  Ni9  1  0.31866700  0.56866700  0.75000000  1
  Ni  Ni10  1  0.93575800  0.58834900  0.76786100  1
  Ni  Ni11  1  0.32048800  0.16789600  0.73213900  1
  Ni  Ni12  1  0.93575800  0.16789600  0.34740800  1
  Ni  Ni13  1  0.32048800  0.58834900  0.15259200  1
  Ni  Ni14  1  0.07932500  0.82932500  0.25000000  1
  Ni  Ni15  1  0.68133300  0.43133300  0.25000000  1
  Ni  Ni16  1  0.06424200  0.41165100  0.23213900  1
  Ni  Ni17  1  0.67951200  0.83210400  0.26786100  1
  Ni  Ni18  1  0.06424200  0.83210400  0.65259200  1
  Ni  Ni19  1  0.67951200  0.41165100  0.84740800  1
  Cu  Cu20  1  0.63276900  0.88276900  0.75000000  1
  Cu  Cu21  1  0.36723100  0.11723100  0.25000000  1
