# generated using pymatgen
data_Cu10Ni2C3
_symmetry_space_group_name_H-M   'P 1'
_cell_length_a   8.63581041
_cell_length_b   8.63581041
_cell_length_c   17.37381700
_cell_angle_alpha   90.00000000
_cell_angle_beta   90.00000000
_cell_angle_gamma   118.94482952
_symmetry_Int_Tables_number   1
_chemical_formula_structural   Cu10Ni2C3
_chemical_formula_sum   'Cu40 Ni8 C12'
_cell_volume   1133.84121843
_cell_formula_units_Z   4
loop_
 _symmetry_equiv_pos_site_id
 _symmetry_equiv_pos_as_xyz
  1  'x, y, z'
loop_
 _atom_site_type_symbol
 _atom_site_label
 _atom_site_symmetry_multiplicity
 _atom_site_fract_x
 _atom_site_fract_y
 _atom_site_fract_z
 _atom_site_occupancy
  C  C0  1  0.14047100  0.60400400  0.91599700  1
  C  C1  1  0.39599600  0.85952900  0.08400300  1
  C  C2  1  0.89599600  0.35952900  0.41599700  1
  C  C3  1  0.64047100  0.10400400  0.58400300  1
  C  C4  1  0.85952900  0.39599600  0.08400300  1
  C  C5  1  0.60400400  0.14047100  0.91599700  1
  C  C6  1  0.10400400  0.64047100  0.58400300  1
  C  C7  1  0.35952900  0.89599600  0.41599700  1
  C  C8  1  0.87363400  0.37363400  0.75000000  1
  C  C9  1  0.62636600  0.12636600  0.25000000  1
  C  C10  1  0.12636600  0.62636600  0.25000000  1
  C  C11  1  0.37363400  0.87363400  0.75000000  1
  Ni  Ni12  1  0.36591000  0.36591000  0.75090300  1
  Ni  Ni13  1  0.63409000  0.63409000  0.24909700  1
  Ni  Ni14  1  0.13409000  0.13409000  0.25090300  1
  Ni  Ni15  1  0.86591000  0.86591000  0.74909700  1
  Ni  Ni16  1  0.66407900  0.66407900  0.90384400  1
  Ni  Ni17  1  0.33592100  0.33592100  0.09615600  1
  Ni  Ni18  1  0.83592100  0.83592100  0.40384400  1
  Ni  Ni19  1  0.16407900  0.16407900  0.59615600  1
  Cu  Cu20  1  0.87739400  0.37307200  0.95768000  1
  Cu  Cu21  1  0.62692800  0.12260600  0.04232000  1
  Cu  Cu22  1  0.12692800  0.62260600  0.45768000  1
  Cu  Cu23  1  0.37739400  0.87307200  0.54232000  1
  Cu  Cu24  1  0.12260600  0.62692800  0.04232000  1
  Cu  Cu25  1  0.37307200  0.87739400  0.95768000  1
  Cu  Cu26  1  0.87307200  0.37739400  0.54232000  1
  Cu  Cu27  1  0.62260600  0.12692800  0.45768000  1
  Cu  Cu28  1  0.72108000  0.33454000  0.80120400  1
  Cu  Cu29  1  0.66546000  0.27892000  0.19879600  1
  Cu  Cu30  1  0.16546000  0.77892000  0.30120400  1
  Cu  Cu31  1  0.22108000  0.83454000  0.69879600  1
  Cu  Cu32  1  0.27892000  0.66546000  0.19879600  1
  Cu  Cu33  1  0.33454000  0.72108000  0.80120400  1
  Cu  Cu34  1  0.83454000  0.22108000  0.69879600  1
  Cu  Cu35  1  0.77892000  0.16546000  0.30120400  1
  Cu  Cu36  1  0.02792400  0.41096600  0.79977400  1
  Cu  Cu37  1  0.58903400  0.97207600  0.20022600  1
  Cu  Cu38  1  0.08903400  0.47207600  0.29977400  1
  Cu  Cu39  1  0.52792400  0.91096600  0.70022600  1
  Cu  Cu40  1  0.97207600  0.58903400  0.20022600  1
  Cu  Cu41  1  0.41096600  0.02792400  0.79977400  1
  Cu  Cu42  1  0.91096600  0.52792400  0.70022600  1
  Cu  Cu43  1  0.47207600  0.08903400  0.29977400  1
  Cu  Cu44  1  0.26239600  0.48680300  0.93201900  1
  Cu  Cu45  1  0.51319700  0.73760400  0.06798100  1
  Cu  Cu46  1  0.01319700  0.23760400  0.43201900  1
  Cu  Cu47  1  0.76239600  0.98680300  0.56798100  1
  Cu  Cu48  1  0.73760400  0.51319700  0.06798100  1
  Cu  Cu49  1  0.48680300  0.26239600  0.93201900  1
  Cu  Cu50  1  0.98680300  0.76239600  0.56798100  1
  Cu  Cu51  1  0.23760400  0.01319700  0.43201900  1
  Cu  Cu52  1  0.02307800  0.71975600  0.88611700  1
  Cu  Cu53  1  0.28024400  0.97692200  0.11388300  1
  Cu  Cu54  1  0.78024400  0.47692200  0.38611700  1
  Cu  Cu55  1  0.52307800  0.21975600  0.61388300  1
  Cu  Cu56  1  0.97692200  0.28024400  0.11388300  1
  Cu  Cu57  1  0.71975600  0.02307800  0.88611700  1
  Cu  Cu58  1  0.21975600  0.52307800  0.61388300  1
  Cu  Cu59  1  0.47692200  0.78024400  0.38611700  1
