# generated using pymatgen
data_Cu(NiC)8
_symmetry_space_group_name_H-M   'P 1'
_cell_length_a   9.52358851
_cell_length_b   9.52358851
_cell_length_c   7.32230800
_cell_angle_alpha   90.00000000
_cell_angle_beta   90.00000000
_cell_angle_gamma   112.93483557
_symmetry_Int_Tables_number   1
_chemical_formula_structural   Cu(NiC)8
_chemical_formula_sum   'Cu2 Ni16 C16'
_cell_volume   611.62418955
_cell_formula_units_Z   2
loop_
 _symmetry_equiv_pos_site_id
 _symmetry_equiv_pos_as_xyz
  1  'x, y, z'
loop_
 _atom_site_type_symbol
 _atom_site_label
 _atom_site_symmetry_multiplicity
 _atom_site_fract_x
 _atom_site_fract_y
 _atom_site_fract_z
 _atom_site_occupancy
  C  C0  1  0.00000000  0.00000000  0.00000000  1
  C  C1  1  0.00000000  0.00000000  0.50000000  1
  C  C2  1  0.73029000  0.00009800  0.75000000  1
  C  C3  1  0.00009800  0.73029000  0.25000000  1
  C  C4  1  0.26971000  0.99990200  0.25000000  1
  C  C5  1  0.99990200  0.26971000  0.75000000  1
  C  C6  1  0.60032800  0.39967200  0.75000000  1
  C  C7  1  0.39967200  0.60032800  0.25000000  1
  C  C8  1  0.48655200  0.26632300  0.75000000  1
  C  C9  1  0.26632300  0.48655200  0.25000000  1
  C  C10  1  0.51344800  0.73367700  0.25000000  1
  C  C11  1  0.73367700  0.51344800  0.75000000  1
  C  C12  1  0.38385100  0.14293400  0.75000000  1
  C  C13  1  0.14293400  0.38385100  0.25000000  1
  C  C14  1  0.61614900  0.85706600  0.25000000  1
  C  C15  1  0.85706600  0.61614900  0.75000000  1
  Ni  Ni16  1  0.78560300  0.94367400  0.57771900  1
  Ni  Ni17  1  0.94367400  0.78560300  0.42228100  1
  Ni  Ni18  1  0.78560300  0.94367400  0.92228100  1
  Ni  Ni19  1  0.94367400  0.78560300  0.07771900  1
  Ni  Ni20  1  0.21439700  0.05632600  0.42228100  1
  Ni  Ni21  1  0.05632600  0.21439700  0.57771900  1
  Ni  Ni22  1  0.21439700  0.05632600  0.07771900  1
  Ni  Ni23  1  0.05632600  0.21439700  0.92228100  1
  Ni  Ni24  1  0.55952100  0.95516000  0.75000000  1
  Ni  Ni25  1  0.95516000  0.55952100  0.25000000  1
  Ni  Ni26  1  0.44047900  0.04484000  0.25000000  1
  Ni  Ni27  1  0.04484000  0.44047900  0.75000000  1
  Ni  Ni28  1  0.81414200  0.18585800  0.75000000  1
  Ni  Ni29  1  0.18585800  0.81414200  0.25000000  1
  Ni  Ni30  1  0.21844400  0.78155600  0.75000000  1
  Ni  Ni31  1  0.78155600  0.21844400  0.25000000  1
  Cu  Cu32  1  0.04768500  0.95231500  0.75000000  1
  Cu  Cu33  1  0.95231500  0.04768500  0.25000000  1
