# generated using pymatgen
data_Cu3Ni8C41
_symmetry_space_group_name_H-M   'P 1'
_cell_length_a   3.85647700
_cell_length_b   3.93759600
_cell_length_c   47.28324300
_cell_angle_alpha   90.00000000
_cell_angle_beta   90.00000000
_cell_angle_gamma   90.00000000
_symmetry_Int_Tables_number   1
_chemical_formula_structural   Cu3Ni8C41
_chemical_formula_sum   'Cu3 Ni8 C41'
_cell_volume   718.00779055
_cell_formula_units_Z   1
loop_
 _symmetry_equiv_pos_site_id
 _symmetry_equiv_pos_as_xyz
  1  'x, y, z'
loop_
 _atom_site_type_symbol
 _atom_site_label
 _atom_site_symmetry_multiplicity
 _atom_site_fract_x
 _atom_site_fract_y
 _atom_site_fract_z
 _atom_site_occupancy
  Ni  Ni0  1  0.50000000  0.50000000  0.17023700  1
  Ni  Ni1  1  0.50000000  0.50000000  0.92031000  1
  Ni  Ni2  1  0.50000000  0.50000000  0.67035100  1
  Ni  Ni3  1  0.50000000  0.50000000  0.41959700  1
  Ni  Ni4  1  0.50000000  0.50000000  0.32964900  1
  Ni  Ni5  1  0.50000000  0.50000000  0.07969000  1
  Ni  Ni6  1  0.50000000  0.50000000  0.82976300  1
  Ni  Ni7  1  0.50000000  0.50000000  0.58040300  1
  C  C8  1  0.50000000  0.50000000  0.50000000  1
  Cu  Cu9  1  0.50000000  0.50000000  0.24998800  1
  Cu  Cu10  1  0.50000000  0.50000000  0.00000000  1
  Cu  Cu11  1  0.50000000  0.50000000  0.75001200  1
  C  C12  1  0.00000000  0.00000000  0.37472900  1
  C  C13  1  0.00000000  0.00000000  0.12500100  1
  C  C14  1  0.00000000  0.00000000  0.87499900  1
  C  C15  1  0.00000000  0.00000000  0.62527100  1
  C  C16  1  0.00000000  0.00000000  0.21300200  1
  C  C17  1  0.00000000  0.00000000  0.96302100  1
  C  C18  1  0.00000000  0.00000000  0.71303300  1
  C  C19  1  0.00000000  0.00000000  0.46109400  1
  C  C20  1  0.00000000  0.00000000  0.28696700  1
  C  C21  1  0.00000000  0.00000000  0.03697900  1
  C  C22  1  0.00000000  0.00000000  0.78699800  1
  C  C23  1  0.00000000  0.00000000  0.53890600  1
  C  C24  1  0.50000000  0.00000000  0.21978800  1
  C  C25  1  0.50000000  0.00000000  0.96979200  1
  C  C26  1  0.50000000  0.00000000  0.71981200  1
  C  C27  1  0.50000000  0.00000000  0.46749600  1
  C  C28  1  0.50000000  0.00000000  0.28018800  1
  C  C29  1  0.50000000  0.00000000  0.03020800  1
  C  C30  1  0.50000000  0.00000000  0.78021200  1
  C  C31  1  0.50000000  0.00000000  0.53250400  1
  C  C32  1  0.00000000  0.00000000  0.16476100  1
  C  C33  1  0.00000000  0.00000000  0.91473000  1
  C  C34  1  0.00000000  0.00000000  0.66496900  1
  C  C35  1  0.00000000  0.00000000  0.41430000  1
  C  C36  1  0.00000000  0.00000000  0.33503100  1
  C  C37  1  0.00000000  0.00000000  0.08527000  1
  C  C38  1  0.00000000  0.00000000  0.83523900  1
  C  C39  1  0.00000000  0.00000000  0.58570000  1
  C  C40  1  0.00000000  0.50000000  0.37458400  1
  C  C41  1  0.00000000  0.50000000  0.12495000  1
  C  C42  1  0.00000000  0.50000000  0.87505000  1
  C  C43  1  0.00000000  0.50000000  0.62541600  1
  C  C44  1  0.00000000  0.50000000  0.21951000  1
  C  C45  1  0.00000000  0.50000000  0.96953000  1
  C  C46  1  0.00000000  0.50000000  0.71954300  1
  C  C47  1  0.00000000  0.50000000  0.46718000  1
  C  C48  1  0.00000000  0.50000000  0.28045700  1
  C  C49  1  0.00000000  0.50000000  0.03047000  1
  C  C50  1  0.00000000  0.50000000  0.78049000  1
  C  C51  1  0.00000000  0.50000000  0.53282000  1
