# generated using pymatgen
data_Cu8Ni7C23
_symmetry_space_group_name_H-M   'P 1'
_cell_length_a   6.54873200
_cell_length_b   6.56930100
_cell_length_c   19.39497711
_cell_angle_alpha   87.56710975
_cell_angle_beta   90.00000000
_cell_angle_gamma   90.00000000
_symmetry_Int_Tables_number   1
_chemical_formula_structural   Cu8Ni7C23
_chemical_formula_sum   'Cu16 Ni14 C46'
_cell_volume   833.63130011
_cell_formula_units_Z   2
loop_
 _symmetry_equiv_pos_site_id
 _symmetry_equiv_pos_as_xyz
  1  'x, y, z'
loop_
 _atom_site_type_symbol
 _atom_site_label
 _atom_site_symmetry_multiplicity
 _atom_site_fract_x
 _atom_site_fract_y
 _atom_site_fract_z
 _atom_site_occupancy
  C  C0  1  0.16423700  0.71384200  0.98379700  1
  C  C1  1  0.16423700  0.28615800  0.51620300  1
  C  C2  1  0.83576300  0.28615800  0.01620300  1
  C  C3  1  0.83576300  0.71384200  0.48379700  1
  C  C4  1  0.29309400  0.80265700  0.05038800  1
  C  C5  1  0.29309400  0.19734300  0.44961200  1
  C  C6  1  0.70690600  0.19734300  0.94961200  1
  C  C7  1  0.70690600  0.80265700  0.55038800  1
  C  C8  1  0.15240700  0.59014900  0.05906100  1
  C  C9  1  0.15240700  0.40985100  0.44093900  1
  C  C10  1  0.84759300  0.40985100  0.94093900  1
  C  C11  1  0.84759300  0.59014900  0.55906100  1
  C  C12  1  0.04261400  0.08626500  0.64378200  1
  C  C13  1  0.04261400  0.91373500  0.85621800  1
  C  C14  1  0.95738600  0.91373500  0.35621800  1
  C  C15  1  0.95738600  0.08626500  0.14378200  1
  C  C16  1  0.24019200  0.92294100  0.67926200  1
  C  C17  1  0.24019200  0.07705900  0.82073800  1
  C  C18  1  0.75980800  0.07705900  0.32073800  1
  C  C19  1  0.75980800  0.92294100  0.17926200  1
  C  C20  1  0.23234400  0.18764800  0.69961600  1
  C  C21  1  0.23234400  0.81235200  0.80038400  1
  C  C22  1  0.76765600  0.81235200  0.30038400  1
  C  C23  1  0.76765600  0.18764800  0.19961600  1
  C  C24  1  0.77833400  0.78350700  0.77814800  1
  C  C25  1  0.77833400  0.21649300  0.72185200  1
  C  C26  1  0.22166600  0.21649300  0.22185200  1
  C  C27  1  0.22166600  0.78350700  0.27814800  1
  C  C28  1  0.97442800  0.69416400  0.72150500  1
  C  C29  1  0.97442800  0.30583600  0.77849500  1
  C  C30  1  0.02557200  0.30583600  0.27849500  1
  C  C31  1  0.02557200  0.69416400  0.22150500  1
  C  C32  1  0.78134500  0.86544400  0.68865600  1
  C  C33  1  0.78134500  0.13455600  0.81134400  1
  C  C34  1  0.21865500  0.13455600  0.31134400  1
  C  C35  1  0.21865500  0.86544400  0.18865600  1
  C  C36  1  0.50000000  0.50000000  0.00000000  1
  C  C37  1  0.50000000  0.50000000  0.50000000  1
  C  C38  1  0.14109800  0.05329800  0.68856300  1
  C  C39  1  0.14109800  0.94670200  0.81143700  1
  C  C40  1  0.85890200  0.94670200  0.31143700  1
  C  C41  1  0.85890200  0.05329800  0.18856300  1
  C  C42  1  0.87565000  0.82231200  0.73357000  1
  C  C43  1  0.87565000  0.17768800  0.76643000  1
  C  C44  1  0.12435000  0.17768800  0.26643000  1
  C  C45  1  0.12435000  0.82231200  0.23357000  1
  Ni  Ni46  1  0.37056900  0.44721100  0.90451200  1
  Ni  Ni47  1  0.37056900  0.55278900  0.59548800  1
  Ni  Ni48  1  0.62943100  0.55278900  0.09548800  1
  Ni  Ni49  1  0.62943100  0.44721100  0.40451200  1
  Ni  Ni50  1  0.63093800  0.75980300  0.95427200  1
  Ni  Ni51  1  0.63093800  0.24019700  0.54572800  1
  Ni  Ni52  1  0.36906200  0.24019700  0.04572800  1
  Ni  Ni53  1  0.36906200  0.75980300  0.45427200  1
  Ni  Ni54  1  0.24753500  0.67332600  0.02684300  1
  Ni  Ni55  1  0.24753500  0.32667400  0.47315700  1
  Ni  Ni56  1  0.75246500  0.32667400  0.97315700  1
  Ni  Ni57  1  0.75246500  0.67332600  0.52684300  1
  Ni  Ni58  1  0.00844500  0.00000000  0.75000000  1
  Ni  Ni59  1  0.99155500  0.00000000  0.25000000  1
  Cu  Cu60  1  0.18146000  0.46282200  0.89591100  1
  Cu  Cu61  1  0.18146000  0.53717800  0.60408900  1
  Cu  Cu62  1  0.81854000  0.53717800  0.10408900  1
  Cu  Cu63  1  0.81854000  0.46282200  0.39591100  1
  Cu  Cu64  1  0.48443900  0.40442400  0.85534600  1
  Cu  Cu65  1  0.48443900  0.59557600  0.64465400  1
  Cu  Cu66  1  0.51556100  0.59557600  0.14465400  1
  Cu  Cu67  1  0.51556100  0.40442400  0.35534600  1
  Cu  Cu68  1  0.51840700  0.89414700  0.92635500  1
  Cu  Cu69  1  0.51840700  0.10585300  0.57364500  1
  Cu  Cu70  1  0.48159300  0.10585300  0.07364500  1
  Cu  Cu71  1  0.48159300  0.89414700  0.42635500  1
  Cu  Cu72  1  0.82080000  0.78075900  0.95356300  1
  Cu  Cu73  1  0.82080000  0.21924100  0.54643700  1
  Cu  Cu74  1  0.17920000  0.21924100  0.04643700  1
  Cu  Cu75  1  0.17920000  0.78075900  0.45356300  1
