# generated using pymatgen
data_Cu8NiC
_symmetry_space_group_name_H-M   'P 1'
_cell_length_a   13.13064500
_cell_length_b   5.29745600
_cell_length_c   10.10055276
_cell_angle_alpha   59.37000081
_cell_angle_beta   90.00000000
_cell_angle_gamma   90.00000000
_symmetry_Int_Tables_number   1
_chemical_formula_structural   Cu8NiC
_chemical_formula_sum   'Cu32 Ni4 C4'
_cell_volume   604.55665973
_cell_formula_units_Z   4
loop_
 _symmetry_equiv_pos_site_id
 _symmetry_equiv_pos_as_xyz
  1  'x, y, z'
loop_
 _atom_site_type_symbol
 _atom_site_label
 _atom_site_symmetry_multiplicity
 _atom_site_fract_x
 _atom_site_fract_y
 _atom_site_fract_z
 _atom_site_occupancy
  C  C0  1  0.40745200  0.99888200  0.19142800  1
  C  C1  1  0.59254800  0.00111800  0.80857200  1
  C  C2  1  0.90745200  0.00111800  0.30857200  1
  C  C3  1  0.09254800  0.99888200  0.69142800  1
  Ni  Ni4  1  0.60379700  0.60845800  0.18988600  1
  Ni  Ni5  1  0.39620300  0.39154200  0.81011400  1
  Ni  Ni6  1  0.10379700  0.39154200  0.31011400  1
  Ni  Ni7  1  0.89620300  0.60845800  0.68988600  1
  Cu  Cu8  1  0.83388300  0.66665000  0.05015000  1
  Cu  Cu9  1  0.16611700  0.33335000  0.94985000  1
  Cu  Cu10  1  0.33388300  0.33335000  0.44985000  1
  Cu  Cu11  1  0.66611700  0.66665000  0.55015000  1
  Cu  Cu12  1  0.35922600  0.58778700  0.18854000  1
  Cu  Cu13  1  0.64077400  0.41221300  0.81146000  1
  Cu  Cu14  1  0.85922600  0.41221300  0.31146000  1
  Cu  Cu15  1  0.14077400  0.58778700  0.68854000  1
  Cu  Cu16  1  0.59056800  0.29000900  0.28997000  1
  Cu  Cu17  1  0.40943200  0.70999100  0.71003000  1
  Cu  Cu18  1  0.09056800  0.70999100  0.21003000  1
  Cu  Cu19  1  0.90943200  0.29000900  0.78997000  1
  Cu  Cu20  1  0.28212100  0.78326700  0.32227900  1
  Cu  Cu21  1  0.71787900  0.21673300  0.67772100  1
  Cu  Cu22  1  0.78212100  0.21673300  0.17772100  1
  Cu  Cu23  1  0.21787900  0.78326700  0.82227900  1
  Cu  Cu24  1  0.91850400  0.83552300  0.16346700  1
  Cu  Cu25  1  0.08149600  0.16447700  0.83653300  1
  Cu  Cu26  1  0.41850400  0.16447700  0.33653300  1
  Cu  Cu27  1  0.58149600  0.83552300  0.66346700  1
  Cu  Cu28  1  0.71103200  0.69431900  0.20865400  1
  Cu  Cu29  1  0.28896800  0.30568100  0.79134600  1
  Cu  Cu30  1  0.21103200  0.30568100  0.29134600  1
  Cu  Cu31  1  0.78896800  0.69431900  0.70865400  1
  Cu  Cu32  1  0.53627000  0.77534000  0.23680200  1
  Cu  Cu33  1  0.46373000  0.22466000  0.76319800  1
  Cu  Cu34  1  0.03627000  0.22466000  0.26319800  1
  Cu  Cu35  1  0.96373000  0.77534000  0.73680200  1
  Cu  Cu36  1  0.58578800  0.70191000  0.02631200  1
  Cu  Cu37  1  0.41421200  0.29809000  0.97368800  1
  Cu  Cu38  1  0.08578800  0.29809000  0.47368800  1
  Cu  Cu39  1  0.91421200  0.70191000  0.52631200  1
