# generated using pymatgen
data_CuNi7C8
_symmetry_space_group_name_H-M   'P 1'
_cell_length_a   3.56217266
_cell_length_b   3.56217266
_cell_length_c   17.72954200
_cell_angle_alpha   90.00000000
_cell_angle_beta   90.00000000
_cell_angle_gamma   118.37082680
_symmetry_Int_Tables_number   1
_chemical_formula_structural   CuNi7C8
_chemical_formula_sum   'Cu1 Ni7 C8'
_cell_volume   197.95028964
_cell_formula_units_Z   1
loop_
 _symmetry_equiv_pos_site_id
 _symmetry_equiv_pos_as_xyz
  1  'x, y, z'
loop_
 _atom_site_type_symbol
 _atom_site_label
 _atom_site_symmetry_multiplicity
 _atom_site_fract_x
 _atom_site_fract_y
 _atom_site_fract_z
 _atom_site_occupancy
  C  C0  1  0.67060100  0.32939900  0.50000000  1
  C  C1  1  0.67422800  0.32577200  0.00000000  1
  C  C2  1  0.67115500  0.32884500  0.74861100  1
  C  C3  1  0.67115500  0.32884500  0.25138900  1
  C  C4  1  0.34304100  0.65695900  0.87532000  1
  C  C5  1  0.33434900  0.66565100  0.37564200  1
  C  C6  1  0.34304100  0.65695900  0.12468000  1
  C  C7  1  0.33434900  0.66565100  0.62435800  1
  Ni  Ni8  1  0.66487400  0.33512600  0.62065400  1
  Ni  Ni9  1  0.67086800  0.32913200  0.87534100  1
  Ni  Ni10  1  0.66487400  0.33512600  0.37934600  1
  Ni  Ni11  1  0.67086800  0.32913200  0.12465900  1
  Ni  Ni12  1  0.32026600  0.67973400  0.00000000  1
  Ni  Ni13  1  0.31688700  0.68311300  0.74947300  1
  Ni  Ni14  1  0.31688700  0.68311300  0.25052700  1
  Cu  Cu15  1  0.32979100  0.67020900  0.50000000  1
