# generated using pymatgen
data_Cu3Ni3C5
_symmetry_space_group_name_H-M   'P 1'
_cell_length_a   7.03813600
_cell_length_b   12.06786200
_cell_length_c   13.56152700
_cell_angle_alpha   90.00000000
_cell_angle_beta   90.00000000
_cell_angle_gamma   90.00000000
_symmetry_Int_Tables_number   1
_chemical_formula_structural   Cu3Ni3C5
_chemical_formula_sum   'Cu24 Ni24 C40'
_cell_volume   1151.85174017
_cell_formula_units_Z   8
loop_
 _symmetry_equiv_pos_site_id
 _symmetry_equiv_pos_as_xyz
  1  'x, y, z'
loop_
 _atom_site_type_symbol
 _atom_site_label
 _atom_site_symmetry_multiplicity
 _atom_site_fract_x
 _atom_site_fract_y
 _atom_site_fract_z
 _atom_site_occupancy
  C  C0  1  0.69029300  0.63627500  0.02154700  1
  C  C1  1  0.80970700  0.36372500  0.52154700  1
  C  C2  1  0.19029300  0.86372500  0.97845300  1
  C  C3  1  0.30970700  0.13627500  0.47845300  1
  Ni  Ni4  1  0.09112000  0.39199600  0.27932000  1
  Ni  Ni5  1  0.40888000  0.60800400  0.77932000  1
  Ni  Ni6  1  0.59112100  0.10800400  0.72068000  1
  Ni  Ni7  1  0.90887900  0.89199600  0.22068000  1
  Ni  Ni8  1  0.11390100  0.45641600  0.17129200  1
  Ni  Ni9  1  0.38609900  0.54358400  0.67129200  1
  Ni  Ni10  1  0.61390100  0.04358400  0.82870800  1
  Ni  Ni11  1  0.88609900  0.95641600  0.32870800  1
  Ni  Ni12  1  0.93764500  0.49188300  0.24817000  1
  Ni  Ni13  1  0.56235500  0.50811700  0.74817000  1
  Ni  Ni14  1  0.43764500  0.00811700  0.75183000  1
  Ni  Ni15  1  0.06235500  0.99188300  0.25183000  1
  Ni  Ni16  1  0.38319300  0.77613800  0.36945900  1
  Ni  Ni17  1  0.11680700  0.22386200  0.86945900  1
  Ni  Ni18  1  0.88319300  0.72386200  0.63054100  1
  Ni  Ni19  1  0.61680700  0.27613800  0.13054100  1
  Ni  Ni20  1  0.56550300  0.69154700  0.34262700  1
  Ni  Ni21  1  0.93449700  0.30845300  0.84262700  1
  Ni  Ni22  1  0.06550300  0.80845300  0.65737300  1
  Ni  Ni23  1  0.43449700  0.19154700  0.15737300  1
  Ni  Ni24  1  0.45193400  0.67900900  0.44973300  1
  Ni  Ni25  1  0.04806600  0.32099100  0.94973300  1
  Ni  Ni26  1  0.95193400  0.82099100  0.55026700  1
  Ni  Ni27  1  0.54806600  0.17900900  0.05026700  1
  C  C28  1  0.25679600  0.58214700  0.30991700  1
  C  C29  1  0.24320400  0.41785300  0.80991700  1
  C  C30  1  0.75679600  0.91785300  0.69008300  1
  C  C31  1  0.74320400  0.08214700  0.19008300  1
  Cu  Cu32  1  0.20649900  0.69141500  0.19548700  1
  Cu  Cu33  1  0.29350100  0.30858500  0.69548700  1
  Cu  Cu34  1  0.70649900  0.80858500  0.80451300  1
  Cu  Cu35  1  0.79350100  0.19141500  0.30451300  1
  Cu  Cu36  1  0.31783600  0.47029000  0.42207400  1
  Cu  Cu37  1  0.18216400  0.52971000  0.92207400  1
  Cu  Cu38  1  0.81783600  0.02971000  0.57792600  1
  Cu  Cu39  1  0.68216400  0.97029000  0.07792600  1
  Cu  Cu40  1  0.03019700  0.64416000  0.38776000  1
  Cu  Cu41  1  0.46980300  0.35584000  0.88776000  1
  Cu  Cu42  1  0.53019700  0.85584000  0.61224000  1
  Cu  Cu43  1  0.96980300  0.14416000  0.11224000  1
  Cu  Cu44  1  0.48362300  0.52323700  0.22705100  1
  Cu  Cu45  1  0.01637700  0.47676300  0.72705100  1
  Cu  Cu46  1  0.98362300  0.97676300  0.77294900  1
  Cu  Cu47  1  0.51637700  0.02323700  0.27294900  1
  Cu  Cu48  1  0.07655700  0.46649300  0.24368000  1
  Cu  Cu49  1  0.42344300  0.53350700  0.74368000  1
  Cu  Cu50  1  0.57655700  0.03350700  0.75632000  1
  Cu  Cu51  1  0.92344300  0.96649300  0.25632000  1
  Cu  Cu52  1  0.43529400  0.69738600  0.37635000  1
  Cu  Cu53  1  0.06470600  0.30261400  0.87635000  1
  Cu  Cu54  1  0.93529400  0.80261400  0.62365000  1
  Cu  Cu55  1  0.56470600  0.19738600  0.12365000  1
  C  C56  1  0.91352000  0.57978000  0.42721400  1
  C  C57  1  0.58648000  0.42022000  0.92721400  1
  C  C58  1  0.41352000  0.92022000  0.57278600  1
  C  C59  1  0.08648000  0.07978000  0.07278600  1
  C  C60  1  0.01156800  0.74702800  0.39407800  1
  C  C61  1  0.48843200  0.25297200  0.89407800  1
  C  C62  1  0.51156800  0.75297200  0.60592200  1
  C  C63  1  0.98843200  0.24702800  0.10592200  1
  C  C64  1  0.22123200  0.38345600  0.43120400  1
  C  C65  1  0.27876800  0.61654400  0.93120400  1
  C  C66  1  0.72123200  0.11654400  0.56879600  1
  C  C67  1  0.77876800  0.88345600  0.06879600  1
  C  C68  1  0.04247500  0.70309900  0.16129300  1
  C  C69  1  0.45752500  0.29690100  0.66129300  1
  C  C70  1  0.54247500  0.79690100  0.83870700  1
  C  C71  1  0.95752500  0.20309900  0.33870700  1
  C  C72  1  0.45430700  0.45212500  0.16175300  1
  C  C73  1  0.04569300  0.54787500  0.66175300  1
  C  C74  1  0.95430700  0.04787500  0.83824700  1
  C  C75  1  0.54569300  0.95212500  0.33824700  1
  C  C76  1  0.45545400  0.48872300  0.47822300  1
  C  C77  1  0.04454600  0.51127700  0.97822300  1
  C  C78  1  0.95545400  0.01127700  0.52177700  1
  C  C79  1  0.54454600  0.98872300  0.02177700  1
  C  C80  1  0.34299200  0.74513400  0.15957700  1
  C  C81  1  0.15700800  0.25486600  0.65957700  1
  C  C82  1  0.84299200  0.75486600  0.84042300  1
  C  C83  1  0.65700800  0.24513400  0.34042300  1
  C  C84  1  0.64666600  0.56417200  0.23778700  1
  C  C85  1  0.85333400  0.43582800  0.73778700  1
  C  C86  1  0.14666600  0.93582800  0.76221300  1
  C  C87  1  0.35333400  0.06417200  0.26221300  1
