# generated using pymatgen
data_Cu2NiC6
_symmetry_space_group_name_H-M   'P 1'
_cell_length_a   3.27502265
_cell_length_b   3.27502265
_cell_length_c   30.22038800
_cell_angle_alpha   90.00000000
_cell_angle_beta   90.00000000
_cell_angle_gamma   120.00001312
_symmetry_Int_Tables_number   1
_chemical_formula_structural   Cu2NiC6
_chemical_formula_sum   'Cu2 Ni1 C6'
_cell_volume   280.71086724
_cell_formula_units_Z   1
loop_
 _symmetry_equiv_pos_site_id
 _symmetry_equiv_pos_as_xyz
  1  'x, y, z'
loop_
 _atom_site_type_symbol
 _atom_site_label
 _atom_site_symmetry_multiplicity
 _atom_site_fract_x
 _atom_site_fract_y
 _atom_site_fract_z
 _atom_site_occupancy
  Ni  Ni0  1  0.66666700  0.33333300  0.34697100  1
  Cu  Cu1  1  0.33333300  0.66666700  0.11563700  1
  Cu  Cu2  1  0.33333300  0.66666700  0.57833100  1
  C  C3  1  0.33333300  0.66666700  0.40287900  1
  C  C4  1  0.66666700  0.33333300  0.52202700  1
  C  C5  1  0.66666700  0.33333300  0.63463300  1
  C  C6  1  0.33333300  0.66666700  0.29107700  1
  C  C7  1  0.66666700  0.33333300  0.06452600  1
  C  C8  1  0.66666700  0.33333300  0.16676000  1
