# generated using pymatgen
data_Cu5Ni2C11
_symmetry_space_group_name_H-M   'P 1'
_cell_length_a   6.53624100
_cell_length_b   7.84686500
_cell_length_c   15.64876900
_cell_angle_alpha   90.00000000
_cell_angle_beta   90.00000000
_cell_angle_gamma   90.00000000
_symmetry_Int_Tables_number   1
_chemical_formula_structural   Cu5Ni2C11
_chemical_formula_sum   'Cu20 Ni8 C44'
_cell_volume   802.60972473
_cell_formula_units_Z   4
loop_
 _symmetry_equiv_pos_site_id
 _symmetry_equiv_pos_as_xyz
  1  'x, y, z'
loop_
 _atom_site_type_symbol
 _atom_site_label
 _atom_site_symmetry_multiplicity
 _atom_site_fract_x
 _atom_site_fract_y
 _atom_site_fract_z
 _atom_site_occupancy
  C  C0  1  0.88093100  0.74778300  0.03501800  1
  C  C1  1  0.61906900  0.74778300  0.53501800  1
  C  C2  1  0.11906900  0.24778300  0.96498200  1
  C  C3  1  0.38093100  0.24778300  0.46498200  1
  C  C4  1  0.93794800  0.75016100  0.80473000  1
  C  C5  1  0.56205200  0.75016100  0.30473000  1
  C  C6  1  0.06205200  0.25016100  0.19527000  1
  C  C7  1  0.43794800  0.25016100  0.69527000  1
  Ni  Ni8  1  0.14209000  0.93668700  0.63764200  1
  Ni  Ni9  1  0.36664500  0.55785200  0.13584100  1
  Ni  Ni10  1  0.85791000  0.43668700  0.36235800  1
  Ni  Ni11  1  0.63335500  0.05785200  0.86415900  1
  Ni  Ni12  1  0.86664500  0.05785200  0.36415900  1
  Ni  Ni13  1  0.64209000  0.43668700  0.86235800  1
  Ni  Ni14  1  0.13335500  0.55785200  0.63584100  1
  Ni  Ni15  1  0.35791000  0.93668700  0.13764200  1
  Cu  Cu16  1  0.59851700  0.85577300  0.73291200  1
  Cu  Cu17  1  0.90250300  0.64595100  0.23210000  1
  Cu  Cu18  1  0.40148300  0.35577300  0.26708800  1
  Cu  Cu19  1  0.09749700  0.14595100  0.76790000  1
  Cu  Cu20  1  0.40250300  0.14595100  0.26790000  1
  Cu  Cu21  1  0.09851700  0.35577300  0.76708800  1
  Cu  Cu22  1  0.59749700  0.64595100  0.73210000  1
  Cu  Cu23  1  0.90148300  0.85577300  0.23291200  1
  Cu  Cu24  1  0.28182000  0.85199300  0.90094700  1
  Cu  Cu25  1  0.21999600  0.65064400  0.40033000  1
  Cu  Cu26  1  0.71818000  0.35199300  0.09905300  1
  Cu  Cu27  1  0.78000400  0.15064400  0.59967000  1
  Cu  Cu28  1  0.71999600  0.15064400  0.09967000  1
  Cu  Cu29  1  0.78182000  0.35199300  0.59905300  1
  Cu  Cu30  1  0.28000400  0.65064400  0.90033000  1
  Cu  Cu31  1  0.21818000  0.85199300  0.40094700  1
  Cu  Cu32  1  0.99613100  0.99305800  0.51028400  1
  Cu  Cu33  1  0.00386900  0.49305800  0.48971600  1
  Cu  Cu34  1  0.49613100  0.49305800  0.98971600  1
  Cu  Cu35  1  0.50386900  0.99305800  0.01028400  1
  C  C36  1  0.22555500  0.74868500  0.61277100  1
  C  C37  1  0.27444500  0.74868500  0.11277100  1
  C  C38  1  0.77444500  0.24868500  0.38722900  1
  C  C39  1  0.72555500  0.24868500  0.88722900  1
  C  C40  1  0.95252300  0.96802200  0.57600900  1
  C  C41  1  0.54859400  0.52820700  0.07423600  1
  C  C42  1  0.04747700  0.46802200  0.42399100  1
  C  C43  1  0.45140600  0.02820700  0.92576400  1
  C  C44  1  0.04859400  0.02820700  0.42576400  1
  C  C45  1  0.45252300  0.46802200  0.92399100  1
  C  C46  1  0.95140600  0.52820700  0.57423600  1
  C  C47  1  0.54747700  0.96802200  0.07600900  1
  C  C48  1  0.67632600  0.75053100  0.71794900  1
  C  C49  1  0.82367400  0.75053100  0.21794900  1
  C  C50  1  0.32367400  0.25053100  0.28205100  1
  C  C51  1  0.17632600  0.25053100  0.78205100  1
  C  C52  1  0.18985700  0.75153300  0.89707400  1
  C  C53  1  0.31014300  0.75153300  0.39707400  1
  C  C54  1  0.81014300  0.25153300  0.10292600  1
  C  C55  1  0.68985700  0.25153300  0.60292600  1
  C  C56  1  0.06837600  0.93901400  0.72920500  1
  C  C57  1  0.43171900  0.56078000  0.22917800  1
  C  C58  1  0.93162400  0.43901400  0.27079500  1
  C  C59  1  0.56828100  0.06078000  0.77082200  1
  C  C60  1  0.93171900  0.06078000  0.27082200  1
  C  C61  1  0.56837600  0.43901400  0.77079500  1
  C  C62  1  0.06828100  0.56078000  0.72917800  1
  C  C63  1  0.43162400  0.93901400  0.22920500  1
  C  C64  1  0.31640700  0.05609800  0.61569000  1
  C  C65  1  0.18622600  0.44122900  0.11572800  1
  C  C66  1  0.68359300  0.55609800  0.38431000  1
  C  C67  1  0.81377400  0.94122900  0.88427200  1
  C  C68  1  0.68622600  0.94122900  0.38427200  1
  C  C69  1  0.81640700  0.55609800  0.88431000  1
  C  C70  1  0.31377400  0.44122900  0.61572800  1
  C  C71  1  0.18359300  0.05609800  0.11569000  1
