# generated using pymatgen
data_Cu(NiC3)3
_symmetry_space_group_name_H-M   'P 1'
_cell_length_a   3.00627100
_cell_length_b   7.33627061
_cell_length_c   7.44028092
_cell_angle_alpha   92.06305145
_cell_angle_beta   101.65550472
_cell_angle_gamma   78.17688021
_symmetry_Int_Tables_number   1
_chemical_formula_structural   Cu(NiC3)3
_chemical_formula_sum   'Cu1 Ni3 C9'
_cell_volume   157.29842350
_cell_formula_units_Z   1
loop_
 _symmetry_equiv_pos_site_id
 _symmetry_equiv_pos_as_xyz
  1  'x, y, z'
loop_
 _atom_site_type_symbol
 _atom_site_label
 _atom_site_symmetry_multiplicity
 _atom_site_fract_x
 _atom_site_fract_y
 _atom_site_fract_z
 _atom_site_occupancy
  C  C0  1  0.99843900  0.00397400  0.00085300  1
  Ni  Ni1  1  0.33033500  0.51366700  0.17433600  1
  Ni  Ni2  1  0.85433900  0.80895300  0.51763000  1
  Ni  Ni3  1  0.15073500  0.18356800  0.48503800  1
  Cu  Cu4  1  0.66556200  0.48339900  0.81452400  1
  C  C5  1  0.95911100  0.37485200  0.29307400  1
  C  C6  1  0.03655800  0.62932700  0.70244300  1
  C  C7  1  0.66543000  0.28992800  0.62078700  1
  C  C8  1  0.33349800  0.70834900  0.37534500  1
  C  C9  1  0.70434500  0.64704800  0.05573700  1
  C  C10  1  0.30259300  0.35552900  0.96071500  1
  C  C11  1  0.65482600  0.05012600  0.35977800  1
  C  C12  1  0.34423100  0.95128000  0.63974200  1
