# generated using pymatgen
data_Cu2Ni2C13
_symmetry_space_group_name_H-M   'P 1'
_cell_length_a   5.41837800
_cell_length_b   5.69062300
_cell_length_c   15.04577371
_cell_angle_alpha   69.32872770
_cell_angle_beta   90.00000000
_cell_angle_gamma   90.00000000
_symmetry_Int_Tables_number   1
_chemical_formula_structural   Cu2Ni2C13
_chemical_formula_sum   'Cu4 Ni4 C26'
_cell_volume   434.05390454
_cell_formula_units_Z   2
loop_
 _symmetry_equiv_pos_site_id
 _symmetry_equiv_pos_as_xyz
  1  'x, y, z'
loop_
 _atom_site_type_symbol
 _atom_site_label
 _atom_site_symmetry_multiplicity
 _atom_site_fract_x
 _atom_site_fract_y
 _atom_site_fract_z
 _atom_site_occupancy
  C  C0  1  0.23438100  0.07353600  0.38861500  1
  C  C1  1  0.76561900  0.07353600  0.88861500  1
  C  C2  1  0.73192900  0.92894400  0.11357100  1
  C  C3  1  0.23751800  0.37285000  0.09683800  1
  C  C4  1  0.26807100  0.92894400  0.61357100  1
  C  C5  1  0.76248200  0.37285000  0.59683800  1
  Ni  Ni6  1  0.25500700  0.50917300  0.49370000  1
  Ni  Ni7  1  0.75212800  0.99912000  0.49288000  1
  Ni  Ni8  1  0.74499300  0.50917300  0.99370000  1
  Ni  Ni9  1  0.24787200  0.99912000  0.99288000  1
  Cu  Cu10  1  0.69668200  0.34242600  0.25318800  1
  Cu  Cu11  1  0.80957100  0.67006300  0.75162600  1
  Cu  Cu12  1  0.30331800  0.34242600  0.75318800  1
  Cu  Cu13  1  0.19042900  0.67006300  0.25162600  1
  C  C14  1  0.77267500  0.30369600  0.13708800  1
  C  C15  1  0.27832700  0.93206900  0.14022900  1
  C  C16  1  0.85258200  0.63147700  0.24874800  1
  C  C17  1  0.01092600  0.24135900  0.49003000  1
  C  C18  1  0.72167300  0.93206900  0.64022900  1
  C  C19  1  0.65341700  0.37489200  0.74777900  1
  C  C20  1  0.49771600  0.72785800  0.52139800  1
  C  C21  1  0.98907400  0.24135900  0.99003000  1
  C  C22  1  0.48935800  0.24123600  0.48626500  1
  C  C23  1  0.01238400  0.73907100  0.52087200  1
  C  C24  1  0.51064200  0.24123600  0.98626500  1
  C  C25  1  0.50228400  0.72785800  0.02139800  1
  C  C26  1  0.22732500  0.30369600  0.63708800  1
  C  C27  1  0.98761600  0.73907100  0.02087200  1
  C  C28  1  0.14741800  0.63147700  0.74874800  1
  C  C29  1  0.77846400  0.06976500  0.36114900  1
  C  C30  1  0.27266200  0.70666800  0.36433500  1
  C  C31  1  0.34658300  0.37489200  0.24777900  1
  C  C32  1  0.22153600  0.06976500  0.86114900  1
  C  C33  1  0.72733800  0.70666800  0.86433500  1
