# generated using pymatgen
data_CuNiC10
_symmetry_space_group_name_H-M   'P 1'
_cell_length_a   7.91829880
_cell_length_b   7.91829880
_cell_length_c   5.24102500
_cell_angle_alpha   90.00000000
_cell_angle_beta   90.00000000
_cell_angle_gamma   90.23993486
_symmetry_Int_Tables_number   1
_chemical_formula_structural   CuNiC10
_chemical_formula_sum   'Cu2 Ni2 C20'
_cell_volume   328.60653407
_cell_formula_units_Z   2
loop_
 _symmetry_equiv_pos_site_id
 _symmetry_equiv_pos_as_xyz
  1  'x, y, z'
loop_
 _atom_site_type_symbol
 _atom_site_label
 _atom_site_symmetry_multiplicity
 _atom_site_fract_x
 _atom_site_fract_y
 _atom_site_fract_z
 _atom_site_occupancy
  Ni  Ni0  1  0.16170600  0.83829400  0.48968100  1
  Ni  Ni1  1  0.83829400  0.16170600  0.48968100  1
  Cu  Cu2  1  0.66237200  0.66237200  0.51289800  1
  Cu  Cu3  1  0.33762800  0.33762800  0.51289800  1
  C  C4  1  0.35910400  0.64089600  0.03983300  1
  C  C5  1  0.85498600  0.85498600  0.96100200  1
  C  C6  1  0.64089600  0.35910400  0.03983300  1
  C  C7  1  0.14501400  0.14501400  0.96100200  1
  C  C8  1  0.50000000  0.00000000  0.99777700  1
  C  C9  1  0.00000000  0.50000000  0.99777700  1
  C  C10  1  0.37012400  0.62987600  0.70610100  1
  C  C11  1  0.84695500  0.84695500  0.29273500  1
  C  C12  1  0.62987600  0.37012400  0.70610100  1
  C  C13  1  0.15304500  0.15304500  0.29273500  1
  C  C14  1  0.00000000  0.00000000  0.83570900  1
  C  C15  1  0.50000000  0.50000000  0.19491100  1
  C  C16  1  0.41882500  0.83363900  0.18820100  1
  C  C17  1  0.90715100  0.66033000  0.80413000  1
  C  C18  1  0.58117500  0.16636100  0.18820100  1
  C  C19  1  0.09284900  0.33967000  0.80413000  1
  C  C20  1  0.33967000  0.09284900  0.80413000  1
  C  C21  1  0.83363900  0.41882500  0.18820100  1
  C  C22  1  0.66033000  0.90715100  0.80413000  1
  C  C23  1  0.16636100  0.58117500  0.18820100  1
