# generated using pymatgen
data_CuNiC5
_symmetry_space_group_name_H-M   'P 1'
_cell_length_a   5.62020300
_cell_length_b   7.73975100
_cell_length_c   7.91812536
_cell_angle_alpha   81.78716045
_cell_angle_beta   90.00000000
_cell_angle_gamma   90.00000000
_symmetry_Int_Tables_number   1
_chemical_formula_structural   CuNiC5
_chemical_formula_sum   'Cu4 Ni4 C20'
_cell_volume   340.89791850
_cell_formula_units_Z   4
loop_
 _symmetry_equiv_pos_site_id
 _symmetry_equiv_pos_as_xyz
  1  'x, y, z'
loop_
 _atom_site_type_symbol
 _atom_site_label
 _atom_site_symmetry_multiplicity
 _atom_site_fract_x
 _atom_site_fract_y
 _atom_site_fract_z
 _atom_site_occupancy
  Ni  Ni0  1  0.62152800  0.64676000  0.59028500  1
  Ni  Ni1  1  0.12152800  0.85324000  0.40971500  1
  Ni  Ni2  1  0.37847200  0.35324000  0.40971500  1
  Ni  Ni3  1  0.87847200  0.14676000  0.59028500  1
  C  C4  1  0.61390300  0.30691400  0.93037200  1
  C  C5  1  0.11390300  0.19308600  0.06962800  1
  C  C6  1  0.38609700  0.69308600  0.06962800  1
  C  C7  1  0.88609700  0.80691400  0.93037200  1
  Cu  Cu8  1  0.61965200  0.00825200  0.27329900  1
  Cu  Cu9  1  0.11965200  0.49174800  0.72670100  1
  Cu  Cu10  1  0.38034800  0.99174800  0.72670100  1
  Cu  Cu11  1  0.88034800  0.50825200  0.27329900  1
  C  C12  1  0.44688900  0.84776800  0.30676100  1
  C  C13  1  0.94688900  0.65223200  0.69323900  1
  C  C14  1  0.55311100  0.15223200  0.69323900  1
  C  C15  1  0.05311100  0.34776800  0.30676100  1
  C  C16  1  0.48350300  0.18312000  0.26718200  1
  C  C17  1  0.98350300  0.31688000  0.73281800  1
  C  C18  1  0.51649700  0.81688000  0.73281800  1
  C  C19  1  0.01649700  0.68312000  0.26718200  1
  C  C20  1  0.75134500  0.00964000  0.10231300  1
  C  C21  1  0.25134500  0.49036000  0.89768700  1
  C  C22  1  0.24865500  0.99036000  0.89768700  1
  C  C23  1  0.74865500  0.50964000  0.10231300  1
  C  C24  1  0.80751500  0.98635000  0.42554100  1
  C  C25  1  0.30751500  0.51365000  0.57445900  1
  C  C26  1  0.19248500  0.01365000  0.57445900  1
  C  C27  1  0.69248500  0.48635000  0.42554100  1
