# generated using pymatgen
data_Cu6Ni2C19
_symmetry_space_group_name_H-M   'P 1'
_cell_length_a   8.84884300
_cell_length_b   8.84884300
_cell_length_c   11.55788100
_cell_angle_alpha   90.00000000
_cell_angle_beta   90.00000000
_cell_angle_gamma   90.00000000
_symmetry_Int_Tables_number   1
_chemical_formula_structural   Cu6Ni2C19
_chemical_formula_sum   'Cu12 Ni4 C38'
_cell_volume   905.00545741
_cell_formula_units_Z   2
loop_
 _symmetry_equiv_pos_site_id
 _symmetry_equiv_pos_as_xyz
  1  'x, y, z'
loop_
 _atom_site_type_symbol
 _atom_site_label
 _atom_site_symmetry_multiplicity
 _atom_site_fract_x
 _atom_site_fract_y
 _atom_site_fract_z
 _atom_site_occupancy
  C  C0  1  0.50000000  0.00000000  0.32305500  1
  C  C1  1  0.00000000  0.50000000  0.67694500  1
  C  C2  1  0.00000000  0.50000000  0.39328500  1
  C  C3  1  0.50000000  0.00000000  0.60671500  1
  C  C4  1  0.50000000  0.00000000  0.05450000  1
  C  C5  1  0.00000000  0.50000000  0.94550000  1
  Ni  Ni6  1  0.39494600  0.60505400  0.50000000  1
  Ni  Ni7  1  0.60505400  0.39494600  0.50000000  1
  Ni  Ni8  1  0.89494600  0.89494600  0.50000000  1
  Ni  Ni9  1  0.10505400  0.10505400  0.50000000  1
  Cu  Cu10  1  0.20493800  0.78171800  0.26782500  1
  Cu  Cu11  1  0.79506200  0.21828200  0.26782500  1
  Cu  Cu12  1  0.70493800  0.71828200  0.73217500  1
  Cu  Cu13  1  0.29506200  0.28171800  0.73217500  1
  Cu  Cu14  1  0.78171800  0.20493800  0.73217500  1
  Cu  Cu15  1  0.21828200  0.79506200  0.73217500  1
  Cu  Cu16  1  0.71828200  0.70493800  0.26782500  1
  Cu  Cu17  1  0.28171800  0.29506200  0.26782500  1
  Cu  Cu18  1  0.32469900  0.67530100  0.00000000  1
  Cu  Cu19  1  0.67530100  0.32469900  0.00000000  1
  Cu  Cu20  1  0.82469900  0.82469900  0.00000000  1
  Cu  Cu21  1  0.17530100  0.17530100  0.00000000  1
  C  C22  1  0.40766100  0.80085900  0.32300200  1
  C  C23  1  0.59233900  0.19914100  0.32300200  1
  C  C24  1  0.90766100  0.69914100  0.67699800  1
  C  C25  1  0.09233900  0.30085900  0.67699800  1
  C  C26  1  0.80085900  0.40766100  0.67699800  1
  C  C27  1  0.19914100  0.59233900  0.67699800  1
  C  C28  1  0.69914100  0.90766100  0.32300200  1
  C  C29  1  0.30085900  0.09233900  0.32300200  1
  C  C30  1  0.24209300  0.61256700  0.16582200  1
  C  C31  1  0.75790700  0.38743300  0.16582200  1
  C  C32  1  0.74209300  0.88743300  0.83417800  1
  C  C33  1  0.25790700  0.11256700  0.83417800  1
  C  C34  1  0.61256700  0.24209300  0.83417800  1
  C  C35  1  0.38743300  0.75790700  0.83417800  1
  C  C36  1  0.88743300  0.74209300  0.16582200  1
  C  C37  1  0.11256700  0.25790700  0.16582200  1
  C  C38  1  0.16108000  0.65126700  0.39703600  1
  C  C39  1  0.83892000  0.34873300  0.39703600  1
  C  C40  1  0.66108000  0.84873300  0.60296400  1
  C  C41  1  0.33892000  0.15126700  0.60296400  1
  C  C42  1  0.65126700  0.16108000  0.60296400  1
  C  C43  1  0.34873300  0.83892000  0.60296400  1
  C  C44  1  0.84873300  0.66108000  0.39703600  1
  C  C45  1  0.15126700  0.33892000  0.39703600  1
  C  C46  1  0.31573000  0.87768300  0.06090600  1
  C  C47  1  0.68427000  0.12231700  0.06090600  1
  C  C48  1  0.81573000  0.62231700  0.93909400  1
  C  C49  1  0.18427000  0.37768300  0.93909400  1
  C  C50  1  0.87768300  0.31573000  0.93909400  1
  C  C51  1  0.12231700  0.68427000  0.93909400  1
  C  C52  1  0.62231700  0.81573000  0.06090600  1
  C  C53  1  0.37768300  0.18427000  0.06090600  1
