# generated using pymatgen
data_CuNi28C29
_symmetry_space_group_name_H-M   'P 1'
_cell_length_a   9.79155664
_cell_length_b   9.79155664
_cell_length_c   12.56883597
_cell_angle_alpha   90.00000000
_cell_angle_beta   90.00000000
_cell_angle_gamma   90.07874735
_symmetry_Int_Tables_number   1
_chemical_formula_structural   CuNi28C29
_chemical_formula_sum   'Cu2 Ni56 C58'
_cell_volume   1205.03075009
_cell_formula_units_Z   2
loop_
 _symmetry_equiv_pos_site_id
 _symmetry_equiv_pos_as_xyz
  1  'x, y, z'
loop_
 _atom_site_type_symbol
 _atom_site_label
 _atom_site_symmetry_multiplicity
 _atom_site_fract_x
 _atom_site_fract_y
 _atom_site_fract_z
 _atom_site_occupancy
  C  C0  1  0.50000000  0.50000000  0.00000000  1
  C  C1  1  0.00000000  0.00000000  0.50000000  1
  C  C2  1  0.64210854  0.82529203  0.00000000  1
  C  C3  1  0.32529203  0.14210854  0.50000000  1
  C  C4  1  0.17585189  0.64163092  0.00000000  1
  C  C5  1  0.14163092  0.67585189  0.50000000  1
  C  C6  1  0.67470797  0.85789146  0.50000000  1
  C  C7  1  0.35789146  0.17470797  0.00000000  1
  C  C8  1  0.85836908  0.32414811  0.50000000  1
  C  C9  1  0.82414811  0.35836908  0.00000000  1
  C  C10  1  0.50527703  0.72939710  0.24028268  1
  C  C11  1  0.77060290  0.99472297  0.25971732  1
  C  C12  1  0.72900232  0.49521617  0.24028833  1
  C  C13  1  0.00478383  0.77099768  0.74028833  1
  C  C14  1  0.77060290  0.99472297  0.74028268  1
  C  C15  1  0.72900232  0.49521617  0.75971167  1
  C  C16  1  0.99521617  0.22900232  0.25971167  1
  C  C17  1  0.50527703  0.72939710  0.75971732  1
  C  C18  1  0.22939710  0.00527703  0.74028268  1
  C  C19  1  0.99521617  0.22900232  0.74028833  1
  C  C20  1  0.22939710  0.00527703  0.25971732  1
  C  C21  1  0.49472297  0.27060290  0.75971732  1
  C  C22  1  0.00478383  0.77099768  0.25971167  1
  C  C23  1  0.27099768  0.50478383  0.75971167  1
  C  C24  1  0.27099768  0.50478383  0.24028833  1
  C  C25  1  0.49472297  0.27060290  0.24028268  1
  C  C26  1  0.88727272  0.59277983  0.63142486  1
  C  C27  1  0.59270046  0.11333883  0.36903169  1
  C  C28  1  0.37665721  0.67910142  0.46978428  1
  C  C29  1  0.38666117  0.90729954  0.86903169  1
  C  C30  1  0.82089858  0.12334279  0.03021572  1
  C  C31  1  0.87669635  0.81587587  0.03016015  1
  C  C32  1  0.59270046  0.11333883  0.63096831  1
  C  C33  1  0.62334279  0.32089858  0.46978428  1
  C  C34  1  0.40729954  0.88666117  0.63096831  1
  C  C35  1  0.82089858  0.12334279  0.96978428  1
  C  C36  1  0.11272728  0.40722017  0.36857514  1
  C  C37  1  0.17910142  0.87665721  0.96978428  1
  C  C38  1  0.90722017  0.61272728  0.13142486  1
  C  C39  1  0.68412413  0.62330365  0.53016015  1
  C  C40  1  0.12330365  0.18412413  0.96983985  1
  C  C41  1  0.38666117  0.90729954  0.13096831  1
  C  C42  1  0.87669635  0.81587587  0.96983985  1
  C  C43  1  0.31587587  0.37669635  0.46983985  1
  C  C44  1  0.09277983  0.38727272  0.86857514  1
  C  C45  1  0.61333883  0.09270046  0.86903169  1
  C  C46  1  0.88727272  0.59277983  0.36857514  1
  C  C47  1  0.40729954  0.88666117  0.36903169  1
  C  C48  1  0.68412413  0.62330365  0.46983985  1
  C  C49  1  0.11272728  0.40722017  0.63142486  1
  C  C50  1  0.31587587  0.37669635  0.53016015  1
  C  C51  1  0.09277983  0.38727272  0.13142486  1
  C  C52  1  0.61333883  0.09270046  0.13096831  1
  C  C53  1  0.90722017  0.61272728  0.86857514  1
  C  C54  1  0.62334279  0.32089858  0.53021572  1
  C  C55  1  0.37665721  0.67910142  0.53021572  1
  C  C56  1  0.17910142  0.87665721  0.03021572  1
  C  C57  1  0.12330365  0.18412413  0.03016015  1
  Ni  Ni58  1  0.97288400  0.73277643  0.38542277  1
  Ni  Ni59  1  0.63759884  0.63500629  0.73287678  1
  Ni  Ni60  1  0.86262694  0.13463339  0.76668074  1
  Ni  Ni61  1  0.67570557  0.00659893  0.13723411  1
  Ni  Ni62  1  0.26703632  0.97345697  0.38556276  1
  Ni  Ni63  1  0.52654303  0.23296368  0.11443724  1
  Ni  Ni64  1  0.17494491  0.49387598  0.63793018  1
  Ni  Ni65  1  0.23277643  0.47288400  0.88542277  1
  Ni  Ni66  1  0.63759884  0.63500629  0.26712322  1
  Ni  Ni67  1  0.00612402  0.32505509  0.13793018  1
  Ni  Ni68  1  0.02711600  0.26722357  0.61457723  1
  Ni  Ni69  1  0.40665370  0.09334630  0.75000000  1
  Ni  Ni70  1  0.76722357  0.52711600  0.88542277  1
  Ni  Ni71  1  0.99387598  0.67494491  0.86206982  1
  Ni  Ni72  1  0.02711600  0.26722357  0.38542277  1
  Ni  Ni73  1  0.09305826  0.59305826  0.75000000  1
  Ni  Ni74  1  0.47345697  0.76703632  0.11443724  1
  Ni  Ni75  1  0.90694174  0.40694174  0.25000000  1
  Ni  Ni76  1  0.40665370  0.09334630  0.25000000  1
  Ni  Ni77  1  0.90694174  0.40694174  0.75000000  1
  Ni  Ni78  1  0.26703632  0.97345697  0.61443724  1
  Ni  Ni79  1  0.36536661  0.63737306  0.73331926  1
  Ni  Ni80  1  0.13737306  0.86536661  0.76668074  1
  Ni  Ni81  1  0.36240116  0.36499371  0.73287678  1
  Ni  Ni82  1  0.86262694  0.13463339  0.23331926  1
  Ni  Ni83  1  0.13737306  0.86536661  0.23331926  1
  Ni  Ni84  1  0.00612402  0.32505509  0.86206982  1
  Ni  Ni85  1  0.97288400  0.73277643  0.61457723  1
  Ni  Ni86  1  0.67570557  0.00659893  0.86276589  1
  Ni  Ni87  1  0.99387598  0.67494491  0.13793018  1
  Ni  Ni88  1  0.32429443  0.99340107  0.86276589  1
  Ni  Ni89  1  0.59334630  0.90665370  0.25000000  1
  Ni  Ni90  1  0.09305826  0.59305826  0.25000000  1
  Ni  Ni91  1  0.36536661  0.63737306  0.26668074  1
  Ni  Ni92  1  0.73296368  0.02654303  0.38556276  1
  Ni  Ni93  1  0.59334630  0.90665370  0.75000000  1
  Ni  Ni94  1  0.82505509  0.50612402  0.63793018  1
  Ni  Ni95  1  0.32429443  0.99340107  0.13723411  1
  Ni  Ni96  1  0.47345697  0.76703632  0.88556276  1
  Ni  Ni97  1  0.17494491  0.49387598  0.36206982  1
  Ni  Ni98  1  0.86499371  0.86240116  0.23287678  1
  Ni  Ni99  1  0.86499371  0.86240116  0.76712322  1
  Ni  Ni100  1  0.50659893  0.17570557  0.36276589  1
  Ni  Ni101  1  0.49340107  0.82429443  0.63723411  1
  Ni  Ni102  1  0.63463339  0.36262694  0.26668074  1
  Ni  Ni103  1  0.76722357  0.52711600  0.11457723  1
  Ni  Ni104  1  0.13500629  0.13759884  0.23287678  1
  Ni  Ni105  1  0.36240116  0.36499371  0.26712322  1
  Ni  Ni106  1  0.13500629  0.13759884  0.76712322  1
  Ni  Ni107  1  0.23277643  0.47288400  0.11457723  1
  Ni  Ni108  1  0.50659893  0.17570557  0.63723411  1
  Ni  Ni109  1  0.63463339  0.36262694  0.73331926  1
  Ni  Ni110  1  0.73296368  0.02654303  0.61443724  1
  Ni  Ni111  1  0.52654303  0.23296368  0.88556276  1
  Ni  Ni112  1  0.49340107  0.82429443  0.36276589  1
  Ni  Ni113  1  0.82505509  0.50612402  0.36206982  1
  Cu  Cu114  1  0.50000000  0.50000000  0.50000000  1
  Cu  Cu115  1  0.00000000  0.00000000  0.00000000  1
