# generated using pymatgen
data_Cu3NiC2
_symmetry_space_group_name_H-M   'P 1'
_cell_length_a   7.35718692
_cell_length_b   7.35718692
_cell_length_c   7.96406363
_cell_angle_alpha   63.35985615
_cell_angle_beta   63.35985615
_cell_angle_gamma   59.80063818
_symmetry_Int_Tables_number   1
_chemical_formula_structural   Cu3NiC2
_chemical_formula_sum   'Cu6 Ni2 C4'
_cell_volume   318.86595128
_cell_formula_units_Z   2
loop_
 _symmetry_equiv_pos_site_id
 _symmetry_equiv_pos_as_xyz
  1  'x, y, z'
loop_
 _atom_site_type_symbol
 _atom_site_label
 _atom_site_symmetry_multiplicity
 _atom_site_fract_x
 _atom_site_fract_y
 _atom_site_fract_z
 _atom_site_occupancy
  C  C0  1  0.37601600  0.50558600  0.65607700  1
  C  C1  1  0.50558600  0.37601600  0.15607700  1
  C  C2  1  0.03098900  0.21226800  0.61445300  1
  C  C3  1  0.21226800  0.03098900  0.11445300  1
  Ni  Ni4  1  0.67575500  0.84009300  0.65597100  1
  Ni  Ni5  1  0.84009300  0.67575500  0.15597100  1
  Cu  Cu6  1  0.97480600  0.82210200  0.76766300  1
  Cu  Cu7  1  0.82210200  0.97480600  0.26766300  1
  Cu  Cu8  1  0.66573300  0.46415000  0.77891200  1
  Cu  Cu9  1  0.46415000  0.66573300  0.27891200  1
  Cu  Cu10  1  0.32002000  0.15102200  0.74512400  1
  Cu  Cu11  1  0.15102200  0.32002000  0.24512400  1
