# generated using pymatgen
data_CuNiC3
_symmetry_space_group_name_H-M   'P 1'
_cell_length_a   8.05611645
_cell_length_b   8.05611645
_cell_length_c   8.05611645
_cell_angle_alpha   109.47122063
_cell_angle_beta   109.47122063
_cell_angle_gamma   109.47122063
_symmetry_Int_Tables_number   1
_chemical_formula_structural   CuNiC3
_chemical_formula_sum   'Cu4 Ni4 C12'
_cell_volume   402.49020396
_cell_formula_units_Z   4
loop_
 _symmetry_equiv_pos_site_id
 _symmetry_equiv_pos_as_xyz
  1  'x, y, z'
loop_
 _atom_site_type_symbol
 _atom_site_label
 _atom_site_symmetry_multiplicity
 _atom_site_fract_x
 _atom_site_fract_y
 _atom_site_fract_z
 _atom_site_occupancy
  C  C0  1  0.75000000  0.37489000  0.62489000  1
  C  C1  1  0.25000000  0.12511000  0.87511000  1
  C  C2  1  0.12511000  0.87511000  0.25000000  1
  C  C3  1  0.37489000  0.62489000  0.75000000  1
  C  C4  1  0.62489000  0.75000000  0.37489000  1
  C  C5  1  0.87511000  0.25000000  0.12511000  1
  C  C6  1  0.75000000  0.87376300  0.12376300  1
  C  C7  1  0.25000000  0.62623700  0.37623700  1
  C  C8  1  0.62623700  0.37623700  0.25000000  1
  C  C9  1  0.87376300  0.12376300  0.75000000  1
  C  C10  1  0.12376300  0.75000000  0.87376300  1
  C  C11  1  0.37623700  0.25000000  0.62623700  1
  Ni  Ni12  1  0.17096800  0.50000000  0.00000000  1
  Ni  Ni13  1  0.32903200  0.32903200  0.32903200  1
  Ni  Ni14  1  0.00000000  0.17096800  0.50000000  1
  Ni  Ni15  1  0.50000000  0.00000000  0.17096800  1
  Cu  Cu16  1  0.83258000  0.83258000  0.83258000  1
  Cu  Cu17  1  0.66742000  0.50000000  0.00000000  1
  Cu  Cu18  1  0.00000000  0.66742000  0.50000000  1
  Cu  Cu19  1  0.50000000  0.00000000  0.66742000  1
