# generated using pymatgen
data_Cu(NiC3)3
_symmetry_space_group_name_H-M   'P 1'
_cell_length_a   6.47384287
_cell_length_b   6.47384287
_cell_length_c   8.30824878
_cell_angle_alpha   89.95848939
_cell_angle_beta   89.95848939
_cell_angle_gamma   55.41782626
_symmetry_Int_Tables_number   1
_chemical_formula_structural   Cu(NiC3)3
_chemical_formula_sum   'Cu2 Ni6 C18'
_cell_volume   286.68081353
_cell_formula_units_Z   2
loop_
 _symmetry_equiv_pos_site_id
 _symmetry_equiv_pos_as_xyz
  1  'x, y, z'
loop_
 _atom_site_type_symbol
 _atom_site_label
 _atom_site_symmetry_multiplicity
 _atom_site_fract_x
 _atom_site_fract_y
 _atom_site_fract_z
 _atom_site_occupancy
  C  C0  1  0.62300700  0.62300700  0.88139000  1
  C  C1  1  0.37699300  0.37699300  0.11861000  1
  Ni  Ni2  1  0.88259700  0.38137300  0.25291600  1
  Ni  Ni3  1  0.61862700  0.11740300  0.74708400  1
  Ni  Ni4  1  0.11740300  0.61862700  0.74708400  1
  Ni  Ni5  1  0.38137300  0.88259700  0.25291600  1
  Ni  Ni6  1  0.50000000  0.50000000  0.50000000  1
  Ni  Ni7  1  0.00000000  0.00000000  0.00000000  1
  Cu  Cu8  1  0.87590400  0.87590400  0.38352300  1
  Cu  Cu9  1  0.12409600  0.12409600  0.61647700  1
  C  C10  1  0.50255700  0.50255700  0.25419300  1
  C  C11  1  0.49744300  0.49744300  0.74580700  1
  C  C12  1  0.00244200  0.00244200  0.75126200  1
  C  C13  1  0.99755800  0.99755800  0.24873800  1
  C  C14  1  0.75204000  0.75204000  0.26663600  1
  C  C15  1  0.24796000  0.24796000  0.73336400  1
  C  C16  1  0.75171400  0.75171400  0.76948900  1
  C  C17  1  0.24828600  0.24828600  0.23051100  1
  C  C18  1  0.88292500  0.35774800  0.50122600  1
  C  C19  1  0.64225200  0.11707500  0.49877400  1
  C  C20  1  0.14630200  0.61659200  0.99803400  1
  C  C21  1  0.38340800  0.85369800  0.00196600  1
  C  C22  1  0.11707500  0.64225200  0.49877400  1
  C  C23  1  0.35774800  0.88292500  0.50122600  1
  C  C24  1  0.85369800  0.38340800  0.00196600  1
  C  C25  1  0.61659200  0.14630200  0.99803400  1
