# generated using pymatgen
data_Cu10Ni2C11
_symmetry_space_group_name_H-M   'P 1'
_cell_length_a   14.44996100
_cell_length_b   14.44996100
_cell_length_c   3.40993400
_cell_angle_alpha   90.00000000
_cell_angle_beta   90.00000000
_cell_angle_gamma   90.00000000
_symmetry_Int_Tables_number   1
_chemical_formula_structural   Cu10Ni2C11
_chemical_formula_sum   'Cu20 Ni4 C22'
_cell_volume   711.99890070
_cell_formula_units_Z   2
loop_
 _symmetry_equiv_pos_site_id
 _symmetry_equiv_pos_as_xyz
  1  'x, y, z'
loop_
 _atom_site_type_symbol
 _atom_site_label
 _atom_site_symmetry_multiplicity
 _atom_site_fract_x
 _atom_site_fract_y
 _atom_site_fract_z
 _atom_site_occupancy
  C  C0  1  0.50000000  0.50000000  0.50000000  1
  C  C1  1  0.00000000  0.00000000  0.00000000  1
  C  C2  1  0.98209200  0.79230600  0.50000000  1
  C  C3  1  0.01790800  0.20769400  0.50000000  1
  C  C4  1  0.51790800  0.29230600  0.00000000  1
  C  C5  1  0.48209200  0.70769400  0.00000000  1
  C  C6  1  0.79230600  0.98209200  0.50000000  1
  C  C7  1  0.20769400  0.01790800  0.50000000  1
  C  C8  1  0.29230600  0.51790800  0.00000000  1
  C  C9  1  0.70769400  0.48209200  0.00000000  1
  C  C10  1  0.66240400  0.66240400  0.50000000  1
  C  C11  1  0.33759600  0.33759600  0.50000000  1
  C  C12  1  0.83759600  0.16240400  0.00000000  1
  C  C13  1  0.16240400  0.83759600  0.00000000  1
  C  C14  1  0.38934800  0.90459900  0.50000000  1
  C  C15  1  0.61065200  0.09540100  0.50000000  1
  C  C16  1  0.11065200  0.40459900  0.00000000  1
  C  C17  1  0.88934800  0.59540100  0.00000000  1
  C  C18  1  0.90459900  0.38934800  0.50000000  1
  C  C19  1  0.09540100  0.61065200  0.50000000  1
  C  C20  1  0.40459900  0.11065200  0.00000000  1
  C  C21  1  0.59540100  0.88934800  0.00000000  1
  Ni  Ni22  1  0.30060600  0.69939400  0.50000000  1
  Ni  Ni23  1  0.69939400  0.30060600  0.50000000  1
  Ni  Ni24  1  0.19939400  0.19939400  0.00000000  1
  Ni  Ni25  1  0.80060600  0.80060600  0.00000000  1
  Cu  Cu26  1  0.08209600  0.91790400  0.50000000  1
  Cu  Cu27  1  0.91790400  0.08209600  0.50000000  1
  Cu  Cu28  1  0.41790400  0.41790400  0.00000000  1
  Cu  Cu29  1  0.58209600  0.58209600  0.00000000  1
  Cu  Cu30  1  0.48603700  0.18384600  0.50000000  1
  Cu  Cu31  1  0.51396300  0.81615400  0.50000000  1
  Cu  Cu32  1  0.01396300  0.68384600  0.00000000  1
  Cu  Cu33  1  0.98603700  0.31615400  0.00000000  1
  Cu  Cu34  1  0.18384600  0.48603700  0.50000000  1
  Cu  Cu35  1  0.81615400  0.51396300  0.50000000  1
  Cu  Cu36  1  0.68384600  0.01396300  0.00000000  1
  Cu  Cu37  1  0.31615400  0.98603700  0.00000000  1
  Cu  Cu38  1  0.24023800  0.75976200  0.50000000  1
  Cu  Cu39  1  0.75976200  0.24023800  0.50000000  1
  Cu  Cu40  1  0.25976200  0.25976200  0.00000000  1
  Cu  Cu41  1  0.74023800  0.74023800  0.00000000  1
  Cu  Cu42  1  0.36152900  0.63847100  0.50000000  1
  Cu  Cu43  1  0.63847100  0.36152900  0.50000000  1
  Cu  Cu44  1  0.13847100  0.13847100  0.00000000  1
  Cu  Cu45  1  0.86152900  0.86152900  0.00000000  1
