# generated using pymatgen
data_Cu8Ni25C19
_symmetry_space_group_name_H-M   'P 1'
_cell_length_a   9.81055300
_cell_length_b   10.45674446
_cell_length_c   13.23115085
_cell_angle_alpha   110.08399860
_cell_angle_beta   94.06564021
_cell_angle_gamma   102.20946636
_symmetry_Int_Tables_number   1
_chemical_formula_structural   Cu8Ni25C19
_chemical_formula_sum   'Cu16 Ni50 C38'
_cell_volume   1230.63899779
_cell_formula_units_Z   2
loop_
 _symmetry_equiv_pos_site_id
 _symmetry_equiv_pos_as_xyz
  1  'x, y, z'
loop_
 _atom_site_type_symbol
 _atom_site_label
 _atom_site_symmetry_multiplicity
 _atom_site_fract_x
 _atom_site_fract_y
 _atom_site_fract_z
 _atom_site_occupancy
  C  C0  1  0.88184800  0.88310100  0.59571200  1
  C  C1  1  0.11815200  0.11689900  0.40428800  1
  Ni  Ni2  1  0.87637700  0.68337200  0.84333800  1
  Ni  Ni3  1  0.12362300  0.31662800  0.15666200  1
  Ni  Ni4  1  0.86884900  0.51000500  0.74515000  1
  Ni  Ni5  1  0.13115100  0.48999500  0.25485000  1
  Ni  Ni6  1  0.01677300  0.60078400  0.85554900  1
  Ni  Ni7  1  0.98322700  0.39921600  0.14445100  1
  Ni  Ni8  1  0.18068800  0.59441900  0.59644400  1
  Ni  Ni9  1  0.81931200  0.40558100  0.40355600  1
  Ni  Ni10  1  0.18646200  0.54956700  0.71695900  1
  Ni  Ni11  1  0.81353800  0.45043300  0.28304100  1
  Ni  Ni12  1  0.03787800  0.46068400  0.60721300  1
  Ni  Ni13  1  0.96212200  0.53931600  0.39278700  1
  Ni  Ni14  1  0.27360400  0.13484500  0.80246600  1
  Ni  Ni15  1  0.72639600  0.86515500  0.19753400  1
  Ni  Ni16  1  0.16753400  0.19749500  0.72103500  1
  Ni  Ni17  1  0.83246600  0.80250500  0.27896500  1
  Ni  Ni18  1  0.26967900  0.31636700  0.85224600  1
  Ni  Ni19  1  0.73032100  0.68363300  0.14775400  1
  Ni  Ni20  1  0.88987900  0.29909500  0.91014000  1
  Ni  Ni21  1  0.11012100  0.70090500  0.08986000  1
  Ni  Ni22  1  0.06029000  0.40542700  0.90983200  1
  Ni  Ni23  1  0.93971000  0.59457300  0.09016800  1
  Ni  Ni24  1  0.94987400  0.28968500  0.78162000  1
  Ni  Ni25  1  0.05012600  0.71031500  0.21838000  1
  Ni  Ni26  1  0.41019000  0.88432600  0.68344400  1
  Ni  Ni27  1  0.58981000  0.11567400  0.31655600  1
  Ni  Ni28  1  0.43740400  0.77703600  0.76148200  1
  Ni  Ni29  1  0.56259600  0.22296400  0.23851800  1
  Ni  Ni30  1  0.41729200  0.95342700  0.82852300  1
  Ni  Ni31  1  0.58270800  0.04657300  0.17147700  1
  Ni  Ni32  1  0.80210300  0.97668800  0.93173500  1
  Ni  Ni33  1  0.19789700  0.02331200  0.06826500  1
  Ni  Ni34  1  0.63511800  0.00619000  0.96669500  1
  Ni  Ni35  1  0.36488200  0.99381000  0.03330500  1
  Ni  Ni36  1  0.65030700  0.82787500  0.90003000  1
  Ni  Ni37  1  0.34969300  0.17212500  0.09997000  1
  Ni  Ni38  1  0.55974300  0.89341900  0.37417200  1
  Ni  Ni39  1  0.44025700  0.10658100  0.62582800  1
  Ni  Ni40  1  0.55344000  0.72680200  0.26729800  1
  Ni  Ni41  1  0.44656000  0.27319800  0.73270200  1
  Ni  Ni42  1  0.39551400  0.76088500  0.32171300  1
  Ni  Ni43  1  0.60448600  0.23911500  0.67828700  1
  Ni  Ni44  1  0.47207100  0.46840800  0.41651000  1
  Ni  Ni45  1  0.52792900  0.53159200  0.58349000  1
  Ni  Ni46  1  0.34939900  0.52297500  0.34509800  1
  Ni  Ni47  1  0.65060100  0.47702500  0.65490200  1
  Ni  Ni48  1  0.51048300  0.49442600  0.29225300  1
  Ni  Ni49  1  0.48951700  0.50557400  0.70774700  1
  Ni  Ni50  1  0.59627400  0.50218200  0.93809400  1
  Ni  Ni51  1  0.40372600  0.49781800  0.06190600  1
  Cu  Cu52  1  0.93747300  0.61210900  0.79858200  1
  Cu  Cu53  1  0.06252700  0.38789100  0.20141800  1
  Cu  Cu54  1  0.11814100  0.55903000  0.65183100  1
  Cu  Cu55  1  0.88185900  0.44097000  0.34816900  1
  Cu  Cu56  1  0.20884600  0.20856300  0.80367800  1
  Cu  Cu57  1  0.79115400  0.79143700  0.19632200  1
  Cu  Cu58  1  0.98130700  0.30523800  0.86711000  1
  Cu  Cu59  1  0.01869300  0.69476200  0.13289000  1
  Cu  Cu60  1  0.45723000  0.88409600  0.76105300  1
  Cu  Cu61  1  0.54277000  0.11590400  0.23894700  1
  Cu  Cu62  1  0.68744900  0.93817600  0.90808600  1
  Cu  Cu63  1  0.31255100  0.06182400  0.09191400  1
  Cu  Cu64  1  0.51047300  0.78015500  0.33974400  1
  Cu  Cu65  1  0.48952700  0.21984500  0.66025600  1
  Cu  Cu66  1  0.46159800  0.53024400  0.36562100  1
  Cu  Cu67  1  0.53840200  0.46975600  0.63437900  1
  C  C68  1  0.03179900  0.69346900  0.71620800  1
  C  C69  1  0.96820100  0.30653100  0.28379200  1
  C  C70  1  0.06370600  0.16917300  0.87155100  1
  C  C71  1  0.93629400  0.83082700  0.12844900  1
  C  C72  1  0.64443100  0.95499900  0.77950100  1
  C  C73  1  0.35556900  0.04500100  0.22049900  1
  C  C74  1  0.54523600  0.71213000  0.44369500  1
  C  C75  1  0.45476400  0.28787000  0.55630500  1
  C  C76  1  0.84293300  0.14725700  0.52359500  1
  C  C77  1  0.15706700  0.85274300  0.47640500  1
  C  C78  1  0.61432700  0.35429000  0.01764500  1
  C  C79  1  0.38567300  0.64571000  0.98235500  1
  C  C80  1  0.91462600  0.68040600  0.62533500  1
  C  C81  1  0.08537400  0.31959400  0.37466500  1
  C  C82  1  0.96506900  0.02955000  0.79385300  1
  C  C83  1  0.03493100  0.97045000  0.20614700  1
  C  C84  1  0.70513300  0.71646300  0.45406500  1
  C  C85  1  0.29486700  0.28353700  0.54593500  1
  C  C86  1  0.75254000  0.03484500  0.55620500  1
  C  C87  1  0.24746000  0.96515500  0.44379500  1
  C  C88  1  0.83001200  0.09926400  0.40294500  1
  C  C89  1  0.16998800  0.90073600  0.59705500  1
  C  C90  1  0.99607500  0.15838200  0.56657300  1
  C  C91  1  0.00392500  0.84161800  0.43342700  1
  C  C92  1  0.80490900  0.28078600  0.57290200  1
  C  C93  1  0.19509100  0.71921400  0.42709800  1
  C  C94  1  0.74291700  0.33996200  0.07078000  1
  C  C95  1  0.25708300  0.66003800  0.92922000  1
  C  C96  1  0.67430500  0.46114900  0.95771900  1
  C  C97  1  0.32569500  0.53885100  0.04228100  1
  C  C98  1  0.52924500  0.42780800  0.09633300  1
  C  C99  1  0.47075500  0.57219200  0.90366700  1
  C  C100  1  0.52870400  0.22375800  0.93397200  1
  C  C101  1  0.47129600  0.77624200  0.06602800  1
  C  C102  1  0.69348700  0.83700900  0.69385100  1
  C  C103  1  0.30651300  0.16299100  0.30614900  1
