# generated using pymatgen
data_Cu(NiC2)2
_symmetry_space_group_name_H-M   'P 1'
_cell_length_a   6.55880229
_cell_length_b   7.71505985
_cell_length_c   12.37926160
_cell_angle_alpha   82.19514216
_cell_angle_beta   86.04299903
_cell_angle_gamma   90.35207311
_symmetry_Int_Tables_number   1
_chemical_formula_structural   Cu(NiC2)2
_chemical_formula_sum   'Cu4 Ni8 C16'
_cell_volume   619.05125044
_cell_formula_units_Z   4
loop_
 _symmetry_equiv_pos_site_id
 _symmetry_equiv_pos_as_xyz
  1  'x, y, z'
loop_
 _atom_site_type_symbol
 _atom_site_label
 _atom_site_symmetry_multiplicity
 _atom_site_fract_x
 _atom_site_fract_y
 _atom_site_fract_z
 _atom_site_occupancy
  Ni  Ni0  1  0.14447600  0.70286500  0.70008300  1
  Ni  Ni1  1  0.85552400  0.29713500  0.29991700  1
  Ni  Ni2  1  0.25064300  0.88777700  0.99923400  1
  Ni  Ni3  1  0.74935700  0.11222300  0.00076600  1
  Ni  Ni4  1  0.35963700  0.54346100  0.29908500  1
  Ni  Ni5  1  0.64036300  0.45653900  0.70091500  1
  Ni  Ni6  1  0.36646000  0.05427600  0.29512700  1
  Ni  Ni7  1  0.63354000  0.94572400  0.70487300  1
  Cu  Cu8  1  0.12983700  0.20150700  0.69819600  1
  Cu  Cu9  1  0.87016300  0.79849300  0.30180400  1
  Cu  Cu10  1  0.25071200  0.38011000  0.00157300  1
  Cu  Cu11  1  0.74928800  0.61989000  0.99842700  1
  C  C12  1  0.13052300  0.68961700  0.88002400  1
  C  C13  1  0.86947700  0.31038300  0.11997600  1
  C  C14  1  0.08430800  0.13534800  0.90582100  1
  C  C15  1  0.91569200  0.86465200  0.09417900  1
  C  C16  1  0.23786900  0.78678600  0.36828000  1
  C  C17  1  0.76213100  0.21321400  0.63172000  1
  C  C18  1  0.18007900  0.28407100  0.35681700  1
  C  C19  1  0.81992100  0.71592900  0.64318300  1
  C  C20  1  0.32711100  0.94300200  0.62855900  1
  C  C21  1  0.67288900  0.05699800  0.37144100  1
  C  C22  1  0.32480600  0.48849200  0.63074000  1
  C  C23  1  0.67519400  0.51150800  0.36926000  1
  C  C24  1  0.42218300  0.07045900  0.11173400  1
  C  C25  1  0.57781700  0.92954100  0.88826600  1
  C  C26  1  0.36952800  0.62304600  0.11430400  1
  C  C27  1  0.63047200  0.37695400  0.88569600  1
