# generated using pymatgen
data_Cu10Ni15C2
_symmetry_space_group_name_H-M   'P 1'
_cell_length_a   10.88830513
_cell_length_b   10.88830513
_cell_length_c   10.88830513
_cell_angle_alpha   159.17552350
_cell_angle_beta   118.46326017
_cell_angle_gamma   65.71542185
_symmetry_Int_Tables_number   1
_chemical_formula_structural   Cu10Ni15C2
_chemical_formula_sum   'Cu10 Ni15 C2'
_cell_volume   401.01722202
_cell_formula_units_Z   1
loop_
 _symmetry_equiv_pos_site_id
 _symmetry_equiv_pos_as_xyz
  1  'x, y, z'
loop_
 _atom_site_type_symbol
 _atom_site_label
 _atom_site_symmetry_multiplicity
 _atom_site_fract_x
 _atom_site_fract_y
 _atom_site_fract_z
 _atom_site_occupancy
  C  C0  1  0.27173700  0.27173700  0.00000000  1
  C  C1  1  0.72826300  0.72826300  0.00000000  1
  Ni  Ni2  1  0.60056700  0.29543700  0.30513100  1
  Ni  Ni3  1  0.39943300  0.70456300  0.69486900  1
  Ni  Ni4  1  0.00969400  0.70456300  0.30513100  1
  Ni  Ni5  1  0.99030600  0.29543700  0.69486900  1
  Ni  Ni6  1  0.50000000  0.50000000  0.00000000  1
  Ni  Ni7  1  0.77030000  0.89614800  0.87415200  1
  Ni  Ni8  1  0.22970000  0.10385200  0.12584800  1
  Ni  Ni9  1  0.97800400  0.10385200  0.87415200  1
  Ni  Ni10  1  0.02199600  0.89614800  0.12584800  1
  Ni  Ni11  1  0.88021200  0.50000000  0.38021200  1
  Ni  Ni12  1  0.11978800  0.50000000  0.61978800  1
  Ni  Ni13  1  0.58581500  0.41371400  0.17210200  1
  Ni  Ni14  1  0.41418500  0.58628700  0.82789800  1
  Ni  Ni15  1  0.75838800  0.58628700  0.17210200  1
  Ni  Ni16  1  0.24161200  0.41371400  0.82789800  1
  Cu  Cu17  1  0.51672400  0.83552300  0.68120100  1
  Cu  Cu18  1  0.48327600  0.16447700  0.31879900  1
  Cu  Cu19  1  0.84567800  0.16447700  0.68120100  1
  Cu  Cu20  1  0.15432200  0.83552300  0.31879900  1
  Cu  Cu21  1  0.87859100  0.37859100  0.50000000  1
  Cu  Cu22  1  0.12140900  0.62140900  0.50000000  1
  Cu  Cu23  1  0.42023300  0.92023300  0.50000000  1
  Cu  Cu24  1  0.57976700  0.07976700  0.50000000  1
  Cu  Cu25  1  0.72084000  0.00000000  0.72084000  1
  Cu  Cu26  1  0.27916000  0.00000000  0.27916000  1
