# generated using pymatgen
data_Cu16Ni4C3
_symmetry_space_group_name_H-M   'P 1'
_cell_length_a   8.28910200
_cell_length_b   9.87314600
_cell_length_c   14.27961686
_cell_angle_alpha   90.00000000
_cell_angle_beta   115.35488277
_cell_angle_gamma   90.00000000
_symmetry_Int_Tables_number   1
_chemical_formula_structural   Cu16Ni4C3
_chemical_formula_sum   'Cu64 Ni16 C12'
_cell_volume   1056.06535774
_cell_formula_units_Z   4
loop_
 _symmetry_equiv_pos_site_id
 _symmetry_equiv_pos_as_xyz
  1  'x, y, z'
loop_
 _atom_site_type_symbol
 _atom_site_label
 _atom_site_symmetry_multiplicity
 _atom_site_fract_x
 _atom_site_fract_y
 _atom_site_fract_z
 _atom_site_occupancy
  C  C0  1  0.22254200  0.65474800  0.95618000  1
  C  C1  1  0.22254200  0.84525200  0.45618000  1
  C  C2  1  0.77745800  0.34525200  0.04382000  1
  C  C3  1  0.77745800  0.15474800  0.54382000  1
  C  C4  1  0.48505100  0.01987200  0.78977100  1
  C  C5  1  0.48505100  0.48012800  0.28977100  1
  C  C6  1  0.51494900  0.98012800  0.21022900  1
  C  C7  1  0.51494900  0.51987200  0.71022900  1
  C  C8  1  0.14097400  0.28762800  0.41645400  1
  C  C9  1  0.14097400  0.21237200  0.91645400  1
  C  C10  1  0.85902600  0.71237200  0.58354600  1
  C  C11  1  0.85902600  0.78762800  0.08354600  1
  Ni  Ni12  1  0.18159600  0.71990100  0.68368800  1
  Ni  Ni13  1  0.18159600  0.78009900  0.18368800  1
  Ni  Ni14  1  0.81840400  0.28009900  0.31631200  1
  Ni  Ni15  1  0.81840400  0.21990100  0.81631200  1
  Ni  Ni16  1  0.66250100  0.83378100  0.63937300  1
  Ni  Ni17  1  0.66250100  0.66621900  0.13937300  1
  Ni  Ni18  1  0.33749900  0.16621900  0.36062700  1
  Ni  Ni19  1  0.33749900  0.33378100  0.86062700  1
  Ni  Ni20  1  0.77719800  0.02600200  0.07765100  1
  Ni  Ni21  1  0.77719800  0.47399800  0.57765100  1
  Ni  Ni22  1  0.22280200  0.97399800  0.92234900  1
  Ni  Ni23  1  0.22280200  0.52600200  0.42234900  1
  Ni  Ni24  1  0.19031700  0.34456100  0.07105000  1
  Ni  Ni25  1  0.19031700  0.15543900  0.57105000  1
  Ni  Ni26  1  0.80968300  0.65543900  0.92895000  1
  Ni  Ni27  1  0.80968300  0.84456100  0.42895000  1
  Cu  Cu28  1  0.10263600  0.63815700  0.61380800  1
  Cu  Cu29  1  0.10263600  0.86184300  0.11380800  1
  Cu  Cu30  1  0.89736400  0.36184300  0.38619200  1
  Cu  Cu31  1  0.89736400  0.13815700  0.88619200  1
  Cu  Cu32  1  0.25757200  0.65560700  0.76370300  1
  Cu  Cu33  1  0.25757200  0.84439300  0.26370300  1
  Cu  Cu34  1  0.74242800  0.34439300  0.23629700  1
  Cu  Cu35  1  0.74242800  0.15560700  0.73629700  1
  Cu  Cu36  1  0.08076100  0.80320200  0.69565500  1
  Cu  Cu37  1  0.08076100  0.69679800  0.19565500  1
  Cu  Cu38  1  0.91923900  0.19679800  0.30434500  1
  Cu  Cu39  1  0.91923900  0.30320200  0.80434500  1
  Cu  Cu40  1  0.28647400  0.78243600  0.66058700  1
  Cu  Cu41  1  0.28647400  0.71756400  0.16058700  1
  Cu  Cu42  1  0.71352600  0.21756400  0.33941300  1
  Cu  Cu43  1  0.71352600  0.28243600  0.83941300  1
  Cu  Cu44  1  0.70236600  0.95275400  0.64217800  1
  Cu  Cu45  1  0.70236600  0.54724600  0.14217800  1
  Cu  Cu46  1  0.29763400  0.04724600  0.35782200  1
  Cu  Cu47  1  0.29763400  0.45275400  0.85782200  1
  Cu  Cu48  1  0.54391800  0.81535800  0.66688900  1
  Cu  Cu49  1  0.54391800  0.68464200  0.16688900  1
  Cu  Cu50  1  0.45608200  0.18464200  0.33311100  1
  Cu  Cu51  1  0.45608200  0.31535800  0.83311100  1
  Cu  Cu52  1  0.79330000  0.77060300  0.70029100  1
  Cu  Cu53  1  0.79330000  0.72939700  0.20029100  1
  Cu  Cu54  1  0.20670000  0.22939700  0.29970900  1
  Cu  Cu55  1  0.20670000  0.27060300  0.79970900  1
  Cu  Cu56  1  0.60887400  0.78984000  0.54998800  1
  Cu  Cu57  1  0.60887400  0.71016000  0.04998800  1
  Cu  Cu58  1  0.39112600  0.21016000  0.45001200  1
  Cu  Cu59  1  0.39112600  0.28984000  0.95001200  1
  Cu  Cu60  1  0.68710400  0.95412400  0.00190100  1
  Cu  Cu61  1  0.68710400  0.54587600  0.50190100  1
  Cu  Cu62  1  0.31289600  0.04587600  0.99809900  1
  Cu  Cu63  1  0.31289600  0.45412400  0.49809900  1
  Cu  Cu64  1  0.84683500  0.95665600  0.15687600  1
  Cu  Cu65  1  0.84683500  0.54334400  0.65687600  1
  Cu  Cu66  1  0.15316500  0.04334400  0.84312400  1
  Cu  Cu67  1  0.15316500  0.45665600  0.34312400  1
  Cu  Cu68  1  0.67634100  0.10403500  0.09234800  1
  Cu  Cu69  1  0.67634100  0.39596500  0.59234800  1
  Cu  Cu70  1  0.32365900  0.89596500  0.90765200  1
  Cu  Cu71  1  0.32365900  0.60403500  0.40765200  1
  Cu  Cu72  1  0.89485100  0.08214900  0.06292300  1
  Cu  Cu73  1  0.89485100  0.41785100  0.56292300  1
  Cu  Cu74  1  0.10514900  0.91785100  0.93707700  1
  Cu  Cu75  1  0.10514900  0.58214900  0.43707700  1
  Cu  Cu76  1  0.34180400  0.38512200  0.09536400  1
  Cu  Cu77  1  0.34180400  0.11487800  0.59536400  1
  Cu  Cu78  1  0.65819600  0.61487800  0.90463600  1
  Cu  Cu79  1  0.65819600  0.88512200  0.40463600  1
  Cu  Cu80  1  0.13297200  0.37429800  0.13397400  1
  Cu  Cu81  1  0.13297200  0.12570200  0.63397400  1
  Cu  Cu82  1  0.86702800  0.62570200  0.86602600  1
  Cu  Cu83  1  0.86702800  0.87429800  0.36602600  1
  Cu  Cu84  1  0.19012700  0.21913300  0.06750300  1
  Cu  Cu85  1  0.19012700  0.28086700  0.56750300  1
  Cu  Cu86  1  0.80987300  0.78086700  0.93249700  1
  Cu  Cu87  1  0.80987300  0.71913300  0.43249700  1
  Cu  Cu88  1  0.09157200  0.39206800  0.98546500  1
  Cu  Cu89  1  0.09157200  0.10793200  0.48546500  1
  Cu  Cu90  1  0.90842800  0.60793200  0.01453500  1
  Cu  Cu91  1  0.90842800  0.89206800  0.51453500  1
