# generated using pymatgen
data_Cu33NiC4
_symmetry_space_group_name_H-M   'P 1'
_cell_length_a   6.49843361
_cell_length_b   6.49843361
_cell_length_c   13.02522582
_cell_angle_alpha   82.82700846
_cell_angle_beta   82.82700846
_cell_angle_gamma   82.85056997
_symmetry_Int_Tables_number   1
_chemical_formula_structural   Cu33NiC4
_chemical_formula_sum   'Cu33 Ni1 C4'
_cell_volume   538.15316035
_cell_formula_units_Z   1
loop_
 _symmetry_equiv_pos_site_id
 _symmetry_equiv_pos_as_xyz
  1  'x, y, z'
loop_
 _atom_site_type_symbol
 _atom_site_label
 _atom_site_symmetry_multiplicity
 _atom_site_fract_x
 _atom_site_fract_y
 _atom_site_fract_z
 _atom_site_occupancy
  C  C0  1  0.34670400  0.34670400  0.67193300  1
  C  C1  1  0.34204900  0.34204900  0.17163100  1
  C  C2  1  0.65803700  0.65803700  0.82848300  1
  C  C3  1  0.65592900  0.65592900  0.32974800  1
  Ni  Ni4  1  0.09521100  0.09521100  0.54765300  1
  Cu  Cu5  1  0.71380700  0.28558900  0.50044800  1
  Cu  Cu6  1  0.71232400  0.28771300  0.99989700  1
  Cu  Cu7  1  0.28801800  0.00041000  0.85563300  1
  Cu  Cu8  1  0.28600700  0.99983100  0.35703600  1
  Cu  Cu9  1  0.00086100  0.71396500  0.64261600  1
  Cu  Cu10  1  0.00043100  0.71173000  0.14441600  1
  Cu  Cu11  1  0.71396500  0.00086100  0.64261600  1
  Cu  Cu12  1  0.71173000  0.00043100  0.14441600  1
  Cu  Cu13  1  0.00041000  0.28801800  0.85563300  1
  Cu  Cu14  1  0.99983100  0.28600700  0.35703600  1
  Cu  Cu15  1  0.28771300  0.71232400  0.99989700  1
  Cu  Cu16  1  0.28558900  0.71380700  0.50044800  1
  Cu  Cu17  1  0.00024100  0.00024100  0.75031400  1
  Cu  Cu18  1  0.99950600  0.99950600  0.24991000  1
  Cu  Cu19  1  0.00012100  0.50007600  0.50003200  1
  Cu  Cu20  1  0.99944000  0.50003700  0.00000800  1
  Cu  Cu21  1  0.50003700  0.99944000  0.00000800  1
  Cu  Cu22  1  0.50007600  0.00012100  0.50003200  1
  Cu  Cu23  1  0.65928800  0.65928800  0.57632200  1
  Cu  Cu24  1  0.65947200  0.65947200  0.07709900  1
  Cu  Cu25  1  0.65897500  0.15380400  0.82932100  1
  Cu  Cu26  1  0.65787400  0.15222400  0.32979100  1
  Cu  Cu27  1  0.15380400  0.65897500  0.82932100  1
  Cu  Cu28  1  0.15222400  0.65787400  0.32979100  1
  Cu  Cu29  1  0.34031200  0.34031200  0.92324300  1
  Cu  Cu30  1  0.34093800  0.34093800  0.42308300  1
  Cu  Cu31  1  0.34286400  0.84601800  0.67020600  1
  Cu  Cu32  1  0.34212800  0.84646800  0.17055000  1
  Cu  Cu33  1  0.84601800  0.34286400  0.67020600  1
  Cu  Cu34  1  0.84646800  0.34212800  0.17055000  1
  Cu  Cu35  1  0.09647400  0.09647400  0.04847100  1
  Cu  Cu36  1  0.90375900  0.90375900  0.95210800  1
  Cu  Cu37  1  0.90136500  0.90136500  0.45009100  1
