# generated using pymatgen
data_Cu2(NiC3)3
_symmetry_space_group_name_H-M   'P 1'
_cell_length_a   5.04328500
_cell_length_b   9.85072802
_cell_length_c   9.89916286
_cell_angle_alpha   93.73879191
_cell_angle_beta   104.75776202
_cell_angle_gamma   75.16801474
_symmetry_Int_Tables_number   1
_chemical_formula_structural   Cu2(NiC3)3
_chemical_formula_sum   'Cu4 Ni6 C18'
_cell_volume   459.72163120
_cell_formula_units_Z   2
loop_
 _symmetry_equiv_pos_site_id
 _symmetry_equiv_pos_as_xyz
  1  'x, y, z'
loop_
 _atom_site_type_symbol
 _atom_site_label
 _atom_site_symmetry_multiplicity
 _atom_site_fract_x
 _atom_site_fract_y
 _atom_site_fract_z
 _atom_site_occupancy
  C  C0  1  0.24402400  0.50000000  0.50000000  1
  C  C1  1  0.75597600  0.50000000  0.50000000  1
  C  C2  1  0.33083000  0.07803800  0.73969800  1
  C  C3  1  0.66917000  0.92196200  0.26030200  1
  C  C4  1  0.83227300  0.25753000  0.92207500  1
  C  C5  1  0.16772700  0.74247000  0.07792500  1
  C  C6  1  0.58980300  0.74247000  0.92207500  1
  C  C7  1  0.41019700  0.25753000  0.07792500  1
  C  C8  1  0.90886800  0.92196200  0.73969800  1
  C  C9  1  0.09113200  0.07803800  0.26030200  1
  C  C10  1  0.43138800  0.77300900  0.63578500  1
  C  C11  1  0.56861200  0.22699100  0.36421500  1
  C  C12  1  0.93292000  0.36012600  0.22596700  1
  C  C13  1  0.06708000  0.63987400  0.77403300  1
  C  C14  1  0.79304700  0.63987400  0.22596700  1
  C  C15  1  0.20695300  0.36012600  0.77403300  1
  C  C16  1  0.70439700  0.22699100  0.63578500  1
  C  C17  1  0.29560300  0.77300900  0.36421500  1
  Ni  Ni18  1  0.86588400  0.76823100  0.50000000  1
  Ni  Ni19  1  0.13411600  0.23176900  0.50000000  1
  Ni  Ni20  1  0.00000000  0.00000000  0.50000000  1
  Ni  Ni21  1  0.50000000  0.00000000  0.50000000  1
  Ni  Ni22  1  0.50000000  0.50000000  0.00000000  1
  Ni  Ni23  1  0.00000000  0.50000000  0.00000000  1
  Cu  Cu24  1  0.50000000  0.00000000  0.00000000  1
  Cu  Cu25  1  0.00000000  0.00000000  0.00000000  1
  Cu  Cu26  1  0.36955600  0.50000000  0.23911100  1
  Cu  Cu27  1  0.63044400  0.50000000  0.76088900  1
