# generated using pymatgen
data_CuNiC2
_symmetry_space_group_name_H-M   'P 1'
_cell_length_a   7.91908129
_cell_length_b   7.91908129
_cell_length_c   10.37945727
_cell_angle_alpha   49.79591537
_cell_angle_beta   49.79591537
_cell_angle_gamma   21.69259503
_symmetry_Int_Tables_number   1
_chemical_formula_structural   CuNiC2
_chemical_formula_sum   'Cu4 Ni4 C8'
_cell_volume   181.32950206
_cell_formula_units_Z   4
loop_
 _symmetry_equiv_pos_site_id
 _symmetry_equiv_pos_as_xyz
  1  'x, y, z'
loop_
 _atom_site_type_symbol
 _atom_site_label
 _atom_site_symmetry_multiplicity
 _atom_site_fract_x
 _atom_site_fract_y
 _atom_site_fract_z
 _atom_site_occupancy
  Ni  Ni0  1  0.67778500  0.67778500  0.29640700  1
  Ni  Ni1  1  0.32221500  0.32221500  0.70359300  1
  Ni  Ni2  1  0.98118100  0.98118100  0.37493000  1
  Ni  Ni3  1  0.01881900  0.01881900  0.62507000  1
  Cu  Cu4  1  0.36045400  0.36045400  0.96506000  1
  Cu  Cu5  1  0.83978000  0.83978000  0.31879900  1
  Cu  Cu6  1  0.16022000  0.16022000  0.68120100  1
  Cu  Cu7  1  0.63954600  0.63954600  0.03494000  1
  C  C8  1  0.15324400  0.15324400  0.89336900  1
  C  C9  1  0.53823100  0.53823100  0.74536600  1
  C  C10  1  0.46176900  0.46176900  0.25463400  1
  C  C11  1  0.84675600  0.84675600  0.10663100  1
  C  C12  1  0.84054100  0.84054200  0.83412900  1
  C  C13  1  0.20366800  0.20366800  0.42353500  1
  C  C14  1  0.15945900  0.15945900  0.16587100  1
  C  C15  1  0.79633200  0.79633200  0.57646500  1
