# generated using pymatgen
data_CuNiC8
_symmetry_space_group_name_H-M   'P 1'
_cell_length_a   5.90749204
_cell_length_b   6.08614590
_cell_length_c   8.50019046
_cell_angle_alpha   90.12170857
_cell_angle_beta   90.62727504
_cell_angle_gamma   89.97446534
_symmetry_Int_Tables_number   1
_chemical_formula_structural   CuNiC8
_chemical_formula_sum   'Cu2 Ni2 C16'
_cell_volume   305.59561268
_cell_formula_units_Z   2
loop_
 _symmetry_equiv_pos_site_id
 _symmetry_equiv_pos_as_xyz
  1  'x, y, z'
loop_
 _atom_site_type_symbol
 _atom_site_label
 _atom_site_symmetry_multiplicity
 _atom_site_fract_x
 _atom_site_fract_y
 _atom_site_fract_z
 _atom_site_occupancy
  C  C0  1  0.98568155  0.05231283  0.25138685  1
  C  C1  1  0.01431845  0.94768717  0.74861315  1
  Ni  Ni2  1  0.00000000  0.50000000  0.00000000  1
  Ni  Ni3  1  0.50000000  -0.00000000  0.50000000  1
  Cu  Cu4  1  0.51509151  0.55295105  0.24826768  1
  Cu  Cu5  1  0.48490849  0.44704895  0.75173232  1
  C  C6  1  0.50000000  -0.00000000  0.00000000  1
  C  C7  1  0.00000000  0.50000000  0.50000000  1
  C  C8  1  0.22366025  0.18341029  0.94682629  1
  C  C9  1  0.27744118  0.68082260  0.55641771  1
  C  C10  1  0.77633975  0.81658971  0.05317371  1
  C  C11  1  0.72255882  0.31917740  0.44358229  1
  C  C12  1  0.32652543  0.71961852  0.94413624  1
  C  C13  1  0.17659899  0.22239675  0.55488788  1
  C  C14  1  0.67347457  0.28038148  0.05586376  1
  C  C15  1  0.82340101  0.77760325  0.44511212  1
  C  C16  1  0.40191444  0.96228150  0.22686882  1
  C  C17  1  0.10655902  0.46746597  0.27339332  1
  C  C18  1  0.59808556  0.03771850  0.77313118  1
  C  C19  1  0.89344098  0.53253403  0.72660668  1
