# generated using pymatgen
data_Cu12NiC5
_symmetry_space_group_name_H-M   'P 1'
_cell_length_a   7.65422033
_cell_length_b   7.65422033
_cell_length_c   13.07385243
_cell_angle_alpha   66.33943790
_cell_angle_beta   66.33943790
_cell_angle_gamma   64.79804341
_symmetry_Int_Tables_number   1
_chemical_formula_structural   Cu12NiC5
_chemical_formula_sum   'Cu24 Ni2 C10'
_cell_volume   609.75944341
_cell_formula_units_Z   2
loop_
 _symmetry_equiv_pos_site_id
 _symmetry_equiv_pos_as_xyz
  1  'x, y, z'
loop_
 _atom_site_type_symbol
 _atom_site_label
 _atom_site_symmetry_multiplicity
 _atom_site_fract_x
 _atom_site_fract_y
 _atom_site_fract_z
 _atom_site_occupancy
  C  C0  1  0.35166100  0.35166100  0.33825800  1
  C  C1  1  0.64833900  0.64833900  0.66174200  1
  C  C2  1  0.67979600  0.67979600  0.18916200  1
  C  C3  1  0.32020400  0.32020400  0.81083800  1
  C  C4  1  0.15514700  0.15514700  0.64494100  1
  C  C5  1  0.84485300  0.84485300  0.35505900  1
  C  C6  1  0.75599200  0.24400800  0.50000000  1
  C  C7  1  0.24400800  0.75599200  0.50000000  1
  C  C8  1  0.28925200  0.71074800  0.00000000  1
  C  C9  1  0.71074800  0.28925200  0.00000000  1
  Ni  Ni10  1  0.87168500  0.87168500  0.84887800  1
  Ni  Ni11  1  0.12831500  0.12831500  0.15112200  1
  Cu  Cu12  1  0.63571400  0.01752600  0.55568500  1
  Cu  Cu13  1  0.36428600  0.98247400  0.44431500  1
  Cu  Cu14  1  0.98247400  0.36428600  0.44431500  1
  Cu  Cu15  1  0.01752600  0.63571400  0.55568500  1
  Cu  Cu16  1  0.29287400  0.67920300  0.65774900  1
  Cu  Cu17  1  0.70712600  0.32079700  0.34225100  1
  Cu  Cu18  1  0.32079700  0.70712600  0.34225100  1
  Cu  Cu19  1  0.67920300  0.29287400  0.65774900  1
  Cu  Cu20  1  0.87016900  0.87016900  0.95356000  1
  Cu  Cu21  1  0.12983100  0.12983100  0.04644000  1
  Cu  Cu22  1  0.20805100  0.55754300  0.94378000  1
  Cu  Cu23  1  0.79194900  0.44245700  0.05622000  1
  Cu  Cu24  1  0.44245700  0.79194900  0.05622000  1
  Cu  Cu25  1  0.55754300  0.20805100  0.94378000  1
  Cu  Cu26  1  0.98267200  0.98267200  0.59643000  1
  Cu  Cu27  1  0.01732800  0.01732800  0.40357000  1
  Cu  Cu28  1  0.58207700  0.58207700  0.89253100  1
  Cu  Cu29  1  0.41792300  0.41792300  0.10746900  1
  Cu  Cu30  1  0.39326700  0.39326700  0.54521500  1
  Cu  Cu31  1  0.60673300  0.60673300  0.45478500  1
  Cu  Cu32  1  0.27285400  0.94586500  0.85869900  1
  Cu  Cu33  1  0.72714600  0.05413500  0.14130100  1
  Cu  Cu34  1  0.05413500  0.72714600  0.14130100  1
  Cu  Cu35  1  0.94586500  0.27285400  0.85869900  1
