# generated using pymatgen
data_Cu2(NiC5)3
_symmetry_space_group_name_H-M   'P 1'
_cell_length_a   10.59426543
_cell_length_b   10.59426543
_cell_length_c   10.59426543
_cell_angle_alpha   109.47122063
_cell_angle_beta   109.47122063
_cell_angle_gamma   109.47122063
_symmetry_Int_Tables_number   1
_chemical_formula_structural   Cu2(NiC5)3
_chemical_formula_sum   'Cu8 Ni12 C60'
_cell_volume   915.35731920
_cell_formula_units_Z   4
loop_
 _symmetry_equiv_pos_site_id
 _symmetry_equiv_pos_as_xyz
  1  'x, y, z'
loop_
 _atom_site_type_symbol
 _atom_site_label
 _atom_site_symmetry_multiplicity
 _atom_site_fract_x
 _atom_site_fract_y
 _atom_site_fract_z
 _atom_site_occupancy
  Ni  Ni0  1  0.25000000  0.37500000  0.12500000  1
  Ni  Ni1  1  0.75000000  0.12500000  0.37500000  1
  Ni  Ni2  1  0.37500000  0.12500000  0.25000000  1
  Ni  Ni3  1  0.12500000  0.37500000  0.75000000  1
  Ni  Ni4  1  0.25000000  0.87500000  0.62500000  1
  Ni  Ni5  1  0.12500000  0.25000000  0.37500000  1
  Ni  Ni6  1  0.62500000  0.25000000  0.87500000  1
  Ni  Ni7  1  0.75000000  0.62500000  0.87500000  1
  Ni  Ni8  1  0.87500000  0.75000000  0.62500000  1
  Ni  Ni9  1  0.87500000  0.62500000  0.25000000  1
  Ni  Ni10  1  0.62500000  0.87500000  0.75000000  1
  Ni  Ni11  1  0.37500000  0.75000000  0.12500000  1
  C  C12  1  0.12500000  0.75000000  0.87500000  1
  C  C13  1  0.87500000  0.25000000  0.12500000  1
  C  C14  1  0.75000000  0.37500000  0.62500000  1
  C  C15  1  0.12500000  0.87500000  0.25000000  1
  C  C16  1  0.25000000  0.12500000  0.87500000  1
  C  C17  1  0.37500000  0.62500000  0.75000000  1
  C  C18  1  0.37500000  0.25000000  0.62500000  1
  C  C19  1  0.87500000  0.12500000  0.75000000  1
  C  C20  1  0.62500000  0.37500000  0.25000000  1
  C  C21  1  0.75000000  0.87500000  0.12500000  1
  C  C22  1  0.25000000  0.62500000  0.37500000  1
  C  C23  1  0.62500000  0.75000000  0.37500000  1
  Cu  Cu24  1  0.50000000  0.00000000  0.00000000  1
  Cu  Cu25  1  0.50000000  0.50000000  0.00000000  1
  Cu  Cu26  1  0.00000000  0.50000000  0.50000000  1
  Cu  Cu27  1  0.00000000  0.00000000  0.50000000  1
  Cu  Cu28  1  0.50000000  0.50000000  0.50000000  1
  Cu  Cu29  1  0.00000000  0.50000000  0.00000000  1
  Cu  Cu30  1  0.50000000  0.00000000  0.50000000  1
  Cu  Cu31  1  0.00000000  0.00000000  0.00000000  1
  C  C32  1  0.59694800  0.89486400  0.36986200  1
  C  C33  1  0.36986200  0.59694800  0.89486400  1
  C  C34  1  0.27291400  0.29791600  0.90305200  1
  C  C35  1  0.47499900  0.60513600  0.20208400  1
  C  C36  1  0.29791600  0.89486400  0.02500100  1
  C  C37  1  0.13013800  0.02500100  0.22708600  1
  C  C38  1  0.36986200  0.27291400  0.47499900  1
  C  C39  1  0.89486400  0.36986200  0.59694800  1
  C  C40  1  0.20208400  0.22708600  0.59694800  1
  C  C41  1  0.47499900  0.36986200  0.27291400  1
  C  C42  1  0.89486400  0.02500100  0.29791600  1
  C  C43  1  0.60513600  0.90305200  0.13013800  1
  C  C44  1  0.90305200  0.13013800  0.60513600  1
  C  C45  1  0.27291400  0.47499900  0.36986200  1
  C  C46  1  0.59694800  0.20208400  0.22708600  1
  C  C47  1  0.22708600  0.59694800  0.20208400  1
  C  C48  1  0.02500100  0.29791600  0.89486400  1
  C  C49  1  0.90305200  0.27291400  0.29791600  1
  C  C50  1  0.02500100  0.22708600  0.13013800  1
  C  C51  1  0.79791600  0.77291400  0.40305200  1
  C  C52  1  0.20208400  0.47499900  0.60513600  1
  C  C53  1  0.60513600  0.20208400  0.47499900  1
  C  C54  1  0.22708600  0.13013800  0.02500100  1
  C  C55  1  0.13013800  0.60513600  0.90305200  1
  C  C56  1  0.40305200  0.10513600  0.63013800  1
  C  C57  1  0.63013800  0.40305200  0.10513600  1
  C  C58  1  0.72708600  0.70208400  0.09694800  1
  C  C59  1  0.52500100  0.39486400  0.79791600  1
  C  C60  1  0.70208400  0.10513600  0.97499900  1
  C  C61  1  0.86986200  0.97499900  0.77291400  1
  C  C62  1  0.63013800  0.72708600  0.52500100  1
  C  C63  1  0.10513600  0.63013800  0.40305200  1
  C  C64  1  0.86986200  0.39486400  0.09694800  1
  C  C65  1  0.77291400  0.86986200  0.97499900  1
  C  C66  1  0.39486400  0.79791600  0.52500100  1
  C  C67  1  0.70208400  0.09694800  0.72708600  1
  C  C68  1  0.79791600  0.52500100  0.39486400  1
  C  C69  1  0.97499900  0.77291400  0.86986200  1
  C  C70  1  0.09694800  0.72708600  0.70208400  1
  C  C71  1  0.97499900  0.70208400  0.10513600  1
  C  C72  1  0.77291400  0.40305200  0.79791600  1
  C  C73  1  0.40305200  0.79791600  0.77291400  1
  C  C74  1  0.72708600  0.52500100  0.63013800  1
  C  C75  1  0.09694800  0.86986200  0.39486400  1
  C  C76  1  0.39486400  0.09694800  0.86986200  1
  C  C77  1  0.10513600  0.97499900  0.70208400  1
  C  C78  1  0.52500100  0.63013800  0.72708600  1
  C  C79  1  0.29791600  0.90305200  0.27291400  1
