# generated using pymatgen
data_CuNi5C14
_symmetry_space_group_name_H-M   'P 1'
_cell_length_a   9.36591400
_cell_length_b   9.36591400
_cell_length_c   3.01325500
_cell_angle_alpha   90.00000000
_cell_angle_beta   90.00000000
_cell_angle_gamma   90.00000000
_symmetry_Int_Tables_number   1
_chemical_formula_structural   CuNi5C14
_chemical_formula_sum   'Cu1 Ni5 C14'
_cell_volume   264.32376834
_cell_formula_units_Z   1
loop_
 _symmetry_equiv_pos_site_id
 _symmetry_equiv_pos_as_xyz
  1  'x, y, z'
loop_
 _atom_site_type_symbol
 _atom_site_label
 _atom_site_symmetry_multiplicity
 _atom_site_fract_x
 _atom_site_fract_y
 _atom_site_fract_z
 _atom_site_occupancy
  Ni  Ni0  1  0.82019900  0.67395800  0.00000000  1
  Ni  Ni1  1  0.17980100  0.32604200  0.00000000  1
  Ni  Ni2  1  0.32604200  0.82019900  0.00000000  1
  Ni  Ni3  1  0.67395800  0.17980100  0.00000000  1
  Ni  Ni4  1  0.00000000  0.00000000  0.00000000  1
  Cu  Cu5  1  0.50000000  0.50000000  0.00000000  1
  C  C6  1  0.61710700  0.87015300  0.00000000  1
  C  C7  1  0.38289300  0.12984700  0.00000000  1
  C  C8  1  0.12984700  0.61710700  0.00000000  1
  C  C9  1  0.87015300  0.38289300  0.00000000  1
  C  C10  1  0.50000000  0.00000000  0.50000000  1
  C  C11  1  0.00000000  0.50000000  0.50000000  1
  C  C12  1  0.56915900  0.71301800  0.50000000  1
  C  C13  1  0.43084100  0.28698200  0.50000000  1
  C  C14  1  0.07246700  0.77985700  0.50000000  1
  C  C15  1  0.92753300  0.22014300  0.50000000  1
  C  C16  1  0.28698200  0.56915900  0.50000000  1
  C  C17  1  0.71301800  0.43084100  0.50000000  1
  C  C18  1  0.22014300  0.07246700  0.50000000  1
  C  C19  1  0.77985700  0.92753300  0.50000000  1
