# generated using pymatgen
data_CuNi3C14
_symmetry_space_group_name_H-M   'P 1'
_cell_length_a   5.47610600
_cell_length_b   5.51454243
_cell_length_c   8.97803657
_cell_angle_alpha   107.85748748
_cell_angle_beta   90.11010477
_cell_angle_gamma   90.20826686
_symmetry_Int_Tables_number   1
_chemical_formula_structural   CuNi3C14
_chemical_formula_sum   'Cu1 Ni3 C14'
_cell_volume   258.05569503
_cell_formula_units_Z   1
loop_
 _symmetry_equiv_pos_site_id
 _symmetry_equiv_pos_as_xyz
  1  'x, y, z'
loop_
 _atom_site_type_symbol
 _atom_site_label
 _atom_site_symmetry_multiplicity
 _atom_site_fract_x
 _atom_site_fract_y
 _atom_site_fract_z
 _atom_site_occupancy
  Ni  Ni0  1  0.03105300  0.64546700  0.34676400  1
  Ni  Ni1  1  0.97083700  0.28906100  0.65615000  1
  Ni  Ni2  1  0.46964900  0.14204800  0.34545300  1
  Cu  Cu3  1  0.53561000  0.78167500  0.63844400  1
  C  C4  1  0.50054300  0.52763700  0.99877500  1
  C  C5  1  0.99993000  0.02724300  0.99952800  1
  C  C6  1  0.42086600  0.68265100  0.21725400  1
  C  C7  1  0.57857900  0.46768100  0.78420200  1
  C  C8  1  0.08066300  0.18280600  0.21806500  1
  C  C9  1  0.92080900  0.96630900  0.78418500  1
  C  C10  1  0.24870300  0.28422000  0.96223300  1
  C  C11  1  0.74695800  0.32166000  0.03984500  1
  C  C12  1  0.24420800  0.78149400  0.96373900  1
  C  C13  1  0.74992400  0.82274900  0.04060800  1
  C  C14  1  0.22999500  0.00458700  0.49749500  1
  C  C15  1  0.76637600  0.50493000  0.50513400  1
  C  C16  1  0.27739600  0.51098700  0.49975700  1
  C  C17  1  0.72790200  0.99239600  0.50236900  1
