# generated using pymatgen
data_Cu16Ni2C39
_symmetry_space_group_name_H-M   'P 1'
_cell_length_a   8.94816771
_cell_length_b   13.30677071
_cell_length_c   17.10262433
_cell_angle_alpha   90.00000000
_cell_angle_beta   90.00000000
_cell_angle_gamma   90.00000000
_symmetry_Int_Tables_number   1
_chemical_formula_structural   Cu16Ni2C39
_chemical_formula_sum   'Cu64 Ni8 C156'
_cell_volume   2036.43027562
_cell_formula_units_Z   4
loop_
 _symmetry_equiv_pos_site_id
 _symmetry_equiv_pos_as_xyz
  1  'x, y, z'
loop_
 _atom_site_type_symbol
 _atom_site_label
 _atom_site_symmetry_multiplicity
 _atom_site_fract_x
 _atom_site_fract_y
 _atom_site_fract_z
 _atom_site_occupancy
  C  C0  1  0.50000000  0.50000000  0.00000000  1
  C  C1  1  0.00000000  -0.00000000  0.00000000  1
  C  C2  1  0.50000000  0.00000000  0.50000000  1
  C  C3  1  0.00000000  0.50000000  0.50000000  1
  C  C4  1  0.34675043  0.42047439  0.12144356  1
  C  C5  1  0.84675043  0.07952561  0.87855644  1
  C  C6  1  0.65324957  0.92047439  0.37855644  1
  C  C7  1  0.15324957  0.57952561  0.62144356  1
  C  C8  1  0.65324957  0.57952561  0.87855644  1
  C  C9  1  0.15324957  0.92047439  0.12144356  1
  C  C10  1  0.34675043  0.07952561  0.62144356  1
  C  C11  1  0.84675043  0.42047439  0.37855644  1
  C  C12  1  0.52420246  0.40154108  0.13200302  1
  C  C13  1  0.02420246  0.09845892  0.86799698  1
  C  C14  1  0.47579754  0.90154108  0.36799698  1
  C  C15  1  0.97579754  0.59845892  0.63200302  1
  C  C16  1  0.47579754  0.59845892  0.86799698  1
  C  C17  1  0.97579754  0.90154108  0.13200302  1
  C  C18  1  0.52420246  0.09845892  0.63200302  1
  C  C19  1  0.02420246  0.40154108  0.36799698  1
  C  C20  1  0.58621828  0.66088104  0.08144845  1
  C  C21  1  0.08621828  0.83911896  0.91855155  1
  C  C22  1  0.41378172  0.16088104  0.41855155  1
  C  C23  1  0.91378172  0.33911896  0.58144845  1
  C  C24  1  0.41378172  0.33911896  0.91855155  1
  C  C25  1  0.91378172  0.16088104  0.08144845  1
  C  C26  1  0.58621828  0.83911896  0.58144845  1
  C  C27  1  0.08621828  0.66088104  0.41855155  1
  C  C28  1  0.71033447  0.63782054  0.01755513  1
  C  C29  1  0.21033447  0.86217946  0.98244487  1
  C  C30  1  0.28966553  0.13782054  0.48244487  1
  C  C31  1  0.78966553  0.36217946  0.51755513  1
  C  C32  1  0.28966553  0.36217946  0.98244487  1
  C  C33  1  0.78966553  0.13782054  0.01755513  1
  C  C34  1  0.71033447  0.86217946  0.51755513  1
  C  C35  1  0.21033447  0.63782054  0.48244487  1
  C  C36  1  0.77034708  0.41191356  0.02674218  1
  C  C37  1  0.27034708  0.08808644  0.97325782  1
  C  C38  1  0.22965292  0.91191356  0.47325782  1
  C  C39  1  0.72965292  0.58808644  0.52674218  1
  C  C40  1  0.22965292  0.58808644  0.97325782  1
  C  C41  1  0.72965292  0.91191356  0.02674218  1
  C  C42  1  0.77034708  0.08808644  0.52674218  1
  C  C43  1  0.27034708  0.41191356  0.47325782  1
  C  C44  1  0.65727983  0.33172470  0.98897802  1
  C  C45  1  0.15727983  0.16827530  0.01102198  1
  C  C46  1  0.34272017  0.83172470  0.51102198  1
  C  C47  1  0.84272017  0.66827530  0.48897802  1
  C  C48  1  0.34272017  0.66827530  0.01102198  1
  C  C49  1  0.84272017  0.83172470  0.98897802  1
  C  C50  1  0.65727983  0.16827530  0.48897802  1
  C  C51  1  0.15727983  0.33172470  0.51102198  1
  C  C52  1  0.77388359  0.31630920  0.17084818  1
  C  C53  1  0.27388359  0.18369080  0.82915182  1
  C  C54  1  0.22611641  0.81630920  0.32915182  1
  C  C55  1  0.72611641  0.68369080  0.67084818  1
  C  C56  1  0.22611641  0.68369080  0.82915182  1
  C  C57  1  0.72611641  0.81630920  0.17084818  1
  C  C58  1  0.77388359  0.18369080  0.67084818  1
  C  C59  1  0.27388359  0.31630920  0.32915182  1
  C  C60  1  0.67244540  0.34607443  0.24296904  1
  C  C61  1  0.17244540  0.15392557  0.75703096  1
  C  C62  1  0.32755460  0.84607443  0.25703096  1
  C  C63  1  0.82755460  0.65392557  0.74296904  1
  C  C64  1  0.32755460  0.65392557  0.75703096  1
  C  C65  1  0.82755460  0.84607443  0.24296904  1
  C  C66  1  0.67244540  0.15392557  0.74296904  1
  C  C67  1  0.17244540  0.34607443  0.25703096  1
  C  C68  1  0.61266660  0.15787496  0.11481463  1
  C  C69  1  0.11266660  0.34212504  0.88518537  1
  C  C70  1  0.38733340  0.65787496  0.38518537  1
  C  C71  1  0.88733340  0.84212504  0.61481463  1
  C  C72  1  0.38733340  0.84212504  0.88518537  1
  C  C73  1  0.88733340  0.65787496  0.11481463  1
  C  C74  1  0.61266660  0.34212504  0.61481463  1
  C  C75  1  0.11266660  0.15787496  0.38518537  1
  C  C76  1  0.52187312  0.04928759  0.10125716  1
  C  C77  1  0.02187312  0.45071241  0.89874284  1
  C  C78  1  0.47812688  0.54928759  0.39874284  1
  C  C79  1  0.97812688  0.95071241  0.60125716  1
  C  C80  1  0.47812688  0.95071241  0.89874284  1
  C  C81  1  0.97812688  0.54928759  0.10125716  1
  C  C82  1  0.52187312  0.45071241  0.60125716  1
  C  C83  1  0.02187312  0.04928759  0.39874284  1
  C  C84  1  0.69933788  0.02981903  0.20251401  1
  C  C85  1  0.19933788  0.47018097  0.79748599  1
  C  C86  1  0.30066212  0.52981903  0.29748599  1
  C  C87  1  0.80066212  0.97018097  0.70251401  1
  C  C88  1  0.30066212  0.97018097  0.79748599  1
  C  C89  1  0.80066212  0.52981903  0.20251401  1
  C  C90  1  0.69933788  0.47018097  0.70251401  1
  C  C91  1  0.19933788  0.02981903  0.29748599  1
  C  C92  1  0.61002600  0.13131480  0.25558220  1
  C  C93  1  0.11002600  0.36868520  0.74441780  1
  C  C94  1  0.38997400  0.63131480  0.24441780  1
  C  C95  1  0.88997400  0.86868520  0.75558220  1
  C  C96  1  0.38997400  0.86868520  0.74441780  1
  C  C97  1  0.88997400  0.63131480  0.25558220  1
  C  C98  1  0.61002600  0.36868520  0.75558220  1
  C  C99  1  0.11002600  0.13131480  0.24441780  1
  C  C100  1  0.51228548  0.01630782  0.23810598  1
  C  C101  1  0.01228548  0.48369218  0.76189402  1
  C  C102  1  0.48771452  0.51630782  0.26189402  1
  C  C103  1  0.98771452  0.98369218  0.73810598  1
  C  C104  1  0.48771452  0.98369218  0.76189402  1
  C  C105  1  0.98771452  0.51630782  0.23810598  1
  C  C106  1  0.51228548  0.48369218  0.73810598  1
  C  C107  1  0.01228548  0.01630782  0.26189402  1
  C  C108  1  0.35656164  0.19967159  0.09612065  1
  C  C109  1  0.85656164  0.30032841  0.90387935  1
  C  C110  1  0.64343836  0.69967159  0.40387935  1
  C  C111  1  0.14343836  0.80032841  0.59612065  1
  C  C112  1  0.64343836  0.80032841  0.90387935  1
  C  C113  1  0.14343836  0.69967159  0.09612065  1
  C  C114  1  0.35656164  0.30032841  0.59612065  1
  C  C115  1  0.85656164  0.19967159  0.40387935  1
  C  C116  1  0.30838586  0.11471841  0.17274532  1
  C  C117  1  0.80838586  0.38528159  0.82725468  1
  C  C118  1  0.69161414  0.61471841  0.32725468  1
  C  C119  1  0.19161414  0.88528159  0.67274532  1
  C  C120  1  0.69161414  0.88528159  0.82725468  1
  C  C121  1  0.19161414  0.61471841  0.17274532  1
  C  C122  1  0.30838586  0.38528159  0.67274532  1
  C  C123  1  0.80838586  0.11471841  0.32725468  1
  C  C124  1  0.41329819  0.22639102  0.19460548  1
  C  C125  1  0.91329819  0.27360898  0.80539452  1
  C  C126  1  0.58670181  0.72639102  0.30539452  1
  C  C127  1  0.08670181  0.77360898  0.69460548  1
  C  C128  1  0.58670181  0.77360898  0.80539452  1
  C  C129  1  0.08670181  0.72639102  0.19460548  1
  C  C130  1  0.41329819  0.27360898  0.69460548  1
  C  C131  1  0.91329819  0.22639102  0.30539452  1
  C  C132  1  0.59439308  0.06909802  0.21446841  1
  C  C133  1  0.09439308  0.43090198  0.78553159  1
  C  C134  1  0.40560692  0.56909802  0.28553159  1
  C  C135  1  0.90560692  0.93090198  0.71446841  1
  C  C136  1  0.40560692  0.93090198  0.78553159  1
  C  C137  1  0.90560692  0.56909802  0.21446841  1
  C  C138  1  0.59439308  0.43090198  0.71446841  1
  C  C139  1  0.09439308  0.06909802  0.28553159  1
  C  C140  1  0.39307458  0.16710380  0.15143975  1
  C  C141  1  0.89307458  0.33289620  0.84856025  1
  C  C142  1  0.60692542  0.66710380  0.34856025  1
  C  C143  1  0.10692542  0.83289620  0.65143975  1
  C  C144  1  0.60692542  0.83289620  0.84856025  1
  C  C145  1  0.10692542  0.66710380  0.15143975  1
  C  C146  1  0.39307458  0.33289620  0.65143975  1
  C  C147  1  0.89307458  0.16710380  0.34856025  1
  C  C148  1  0.94366256  0.65738041  0.90561386  1
  C  C149  1  0.44366256  0.84261959  0.09438614  1
  C  C150  1  0.05633744  0.15738041  0.59438614  1
  C  C151  1  0.55633744  0.34261959  0.40561386  1
  C  C152  1  0.05633744  0.34261959  0.09438614  1
  C  C153  1  0.55633744  0.15738041  0.90561386  1
  C  C154  1  0.94366256  0.84261959  0.40561386  1
  C  C155  1  0.44366256  0.65738041  0.59438614  1
  Ni  Ni156  1  0.53494126  0.11061617  0.13977101  1
  Ni  Ni157  1  0.03494126  0.38938383  0.86022899  1
  Ni  Ni158  1  0.46505874  0.61061617  0.36022899  1
  Ni  Ni159  1  0.96505874  0.88938383  0.63977101  1
  Ni  Ni160  1  0.46505874  0.88938383  0.86022899  1
  Ni  Ni161  1  0.96505874  0.61061617  0.13977101  1
  Ni  Ni162  1  0.53494126  0.38938383  0.63977101  1
  Ni  Ni163  1  0.03494126  0.11061617  0.36022899  1
  Cu  Cu164  1  0.86475103  0.70020086  0.97573614  1
  Cu  Cu165  1  0.36475103  0.79979914  0.02426386  1
  Cu  Cu166  1  0.13524897  0.20020086  0.52426386  1
  Cu  Cu167  1  0.63524897  0.29979914  0.47573614  1
  Cu  Cu168  1  0.13524897  0.29979914  0.02426386  1
  Cu  Cu169  1  0.63524897  0.20020086  0.97573614  1
  Cu  Cu170  1  0.86475103  0.79979914  0.47573614  1
  Cu  Cu171  1  0.36475103  0.70020086  0.52426386  1
  Cu  Cu172  1  0.83163052  0.61489514  0.84964310  1
  Cu  Cu173  1  0.33163052  0.88510486  0.15035690  1
  Cu  Cu174  1  0.16836948  0.11489514  0.65035690  1
  Cu  Cu175  1  0.66836948  0.38510486  0.34964310  1
  Cu  Cu176  1  0.16836948  0.38510486  0.15035690  1
  Cu  Cu177  1  0.66836948  0.11489514  0.84964310  1
  Cu  Cu178  1  0.83163052  0.88510486  0.34964310  1
  Cu  Cu179  1  0.33163052  0.61489514  0.65035690  1
  Cu  Cu180  1  0.03073873  0.73857260  0.86630807  1
  Cu  Cu181  1  0.53073873  0.76142740  0.13369193  1
  Cu  Cu182  1  0.96926127  0.23857260  0.63369193  1
  Cu  Cu183  1  0.46926127  0.26142740  0.36630807  1
  Cu  Cu184  1  0.96926127  0.26142740  0.13369193  1
  Cu  Cu185  1  0.46926127  0.23857260  0.86630807  1
  Cu  Cu186  1  0.03073873  0.76142740  0.36630807  1
  Cu  Cu187  1  0.53073873  0.73857260  0.63369193  1
  Cu  Cu188  1  0.04707144  0.57558972  0.93143867  1
  Cu  Cu189  1  0.54707144  0.92441028  0.06856133  1
  Cu  Cu190  1  0.95292856  0.07558972  0.56856133  1
  Cu  Cu191  1  0.45292856  0.42441028  0.43143867  1
  Cu  Cu192  1  0.95292856  0.42441028  0.06856133  1
  Cu  Cu193  1  0.45292856  0.07558972  0.93143867  1
  Cu  Cu194  1  0.04707144  0.92441028  0.43143867  1
  Cu  Cu195  1  0.54707144  0.57558972  0.56856133  1
  Cu  Cu196  1  0.44826068  0.44813529  0.11096444  1
  Cu  Cu197  1  0.94826068  0.05186471  0.88903556  1
  Cu  Cu198  1  0.55173932  0.94813529  0.38903556  1
  Cu  Cu199  1  0.05173932  0.55186471  0.61096444  1
  Cu  Cu200  1  0.55173932  0.55186471  0.88903556  1
  Cu  Cu201  1  0.05173932  0.94813529  0.11096444  1
  Cu  Cu202  1  0.44826068  0.05186471  0.61096444  1
  Cu  Cu203  1  0.94826068  0.44813529  0.38903556  1
  Cu  Cu204  1  0.63822051  0.60496237  0.05356962  1
  Cu  Cu205  1  0.13822051  0.89503763  0.94643038  1
  Cu  Cu206  1  0.36177949  0.10496237  0.44643038  1
  Cu  Cu207  1  0.86177949  0.39503763  0.55356962  1
  Cu  Cu208  1  0.36177949  0.39503763  0.94643038  1
  Cu  Cu209  1  0.86177949  0.10496237  0.05356962  1
  Cu  Cu210  1  0.63822051  0.89503763  0.55356962  1
  Cu  Cu211  1  0.13822051  0.60496237  0.44643038  1
  Cu  Cu212  1  0.67954282  0.40454986  0.99427212  1
  Cu  Cu213  1  0.17954282  0.09545014  0.00572788  1
  Cu  Cu214  1  0.32045718  0.90454986  0.50572788  1
  Cu  Cu215  1  0.82045718  0.59545014  0.49427212  1
  Cu  Cu216  1  0.32045718  0.59545014  0.00572788  1
  Cu  Cu217  1  0.82045718  0.90454986  0.99427212  1
  Cu  Cu218  1  0.67954282  0.09545014  0.49427212  1
  Cu  Cu219  1  0.17954282  0.40454986  0.50572788  1
  Cu  Cu220  1  0.66975581  0.32853477  0.18692201  1
  Cu  Cu221  1  0.16975581  0.17146523  0.81307799  1
  Cu  Cu222  1  0.33024419  0.82853477  0.31307799  1
  Cu  Cu223  1  0.83024419  0.67146523  0.68692201  1
  Cu  Cu224  1  0.33024419  0.67146523  0.81307799  1
  Cu  Cu225  1  0.83024419  0.82853477  0.18692201  1
  Cu  Cu226  1  0.66975581  0.17146523  0.68692201  1
  Cu  Cu227  1  0.16975581  0.32853477  0.31307799  1
