# generated using pymatgen
data_CuNiC7
_symmetry_space_group_name_H-M   'P 1'
_cell_length_a   11.52468258
_cell_length_b   11.74951803
_cell_length_c   17.51680901
_cell_angle_alpha   109.66733949
_cell_angle_beta   109.20387167
_cell_angle_gamma   89.91640736
_symmetry_Int_Tables_number   1
_chemical_formula_structural   CuNiC7
_chemical_formula_sum   'Cu16 Ni16 C112'
_cell_volume   2093.30277045
_cell_formula_units_Z   16
loop_
 _symmetry_equiv_pos_site_id
 _symmetry_equiv_pos_as_xyz
  1  'x, y, z'
loop_
 _atom_site_type_symbol
 _atom_site_label
 _atom_site_symmetry_multiplicity
 _atom_site_fract_x
 _atom_site_fract_y
 _atom_site_fract_z
 _atom_site_occupancy
  Ni  Ni0  1  0.30555700  0.06635700  0.10944800  1
  Ni  Ni1  1  0.30469200  0.56292800  0.10899400  1
  Ni  Ni2  1  0.80649700  0.06522200  0.11132900  1
  Ni  Ni3  1  0.80568800  0.56325700  0.10979500  1
  Ni  Ni4  1  0.19967000  0.93600100  0.39410100  1
  Ni  Ni5  1  0.19334100  0.92920400  0.88380400  1
  Ni  Ni6  1  0.69988400  0.43574200  0.39496000  1
  Ni  Ni7  1  0.69364500  0.43053200  0.88598400  1
  Ni  Ni8  1  0.69890100  0.93435900  0.39455900  1
  Ni  Ni9  1  0.05796600  0.29576100  0.10992100  1
  Ni  Ni10  1  0.05501600  0.79252100  0.10797200  1
  Ni  Ni11  1  0.55447500  0.29348100  0.10815000  1
  Ni  Ni12  1  0.55528500  0.79450100  0.10725300  1
  Ni  Ni13  1  0.45029700  0.71021700  0.39520000  1
  Ni  Ni14  1  0.44202700  0.70581600  0.88452300  1
  Ni  Ni15  1  0.94338400  0.70386200  0.88427000  1
  Cu  Cu16  1  0.29846600  0.06981300  0.60250600  1
  Cu  Cu17  1  0.29997200  0.56290100  0.59886200  1
  Cu  Cu18  1  0.80126900  0.06700600  0.60241900  1
  Cu  Cu19  1  0.79736400  0.56646700  0.60035300  1
  Cu  Cu20  1  0.20182200  0.43678300  0.40267300  1
  Cu  Cu21  1  0.19920000  0.43533200  0.89848300  1
  Cu  Cu22  1  0.69765900  0.93489600  0.89717100  1
  Cu  Cu23  1  0.05048000  0.28254900  0.60121700  1
  Cu  Cu24  1  0.04910300  0.78538800  0.59947600  1
  Cu  Cu25  1  0.54968700  0.28526600  0.60042700  1
  Cu  Cu26  1  0.55084600  0.78431300  0.60106800  1
  Cu  Cu27  1  0.45158900  0.21480200  0.40360700  1
  Cu  Cu28  1  0.44882800  0.21215200  0.89797800  1
  Cu  Cu29  1  0.95086300  0.21604900  0.40310000  1
  Cu  Cu30  1  0.94733600  0.21275000  0.89771300  1
  Cu  Cu31  1  0.95036100  0.71520500  0.40225600  1
  C  C32  1  0.00633800  0.99907200  0.99645600  1
  C  C33  1  0.01402300  0.00163500  0.50401700  1
  C  C34  1  0.00540800  0.49647500  0.99614900  1
  C  C35  1  0.01348600  0.50114600  0.50113700  1
  C  C36  1  0.50548700  0.99871100  0.99448900  1
  C  C37  1  0.51339500  0.00488000  0.50573000  1
  C  C38  1  0.50616500  0.49683800  0.99665000  1
  C  C39  1  0.51436100  0.50086000  0.50471900  1
  C  C40  1  0.25583800  0.24913400  0.99592000  1
  C  C41  1  0.26377600  0.25334600  0.50379200  1
  C  C42  1  0.25539700  0.74645100  0.99525300  1
  C  C43  1  0.26252000  0.74929900  0.50303600  1
  C  C44  1  0.75681000  0.24558200  0.99447000  1
  C  C45  1  0.76618200  0.25093100  0.50416600  1
  C  C46  1  0.75570800  0.74973800  0.99655900  1
  C  C47  1  0.76451400  0.75252100  0.50550700  1
  C  C48  1  0.09802900  0.10575400  0.25703600  1
  C  C49  1  0.09647700  0.59333600  0.25652200  1
  C  C50  1  0.59773200  0.09967300  0.25461400  1
  C  C51  1  0.59919700  0.59258400  0.25160800  1
  C  C52  1  0.34591200  0.40330000  0.25715900  1
  C  C53  1  0.34828700  0.91393300  0.25217300  1
  C  C54  1  0.85383300  0.40596400  0.25378100  1
  C  C55  1  0.85140800  0.91037000  0.25488700  1
  C  C56  1  0.08896600  0.09827200  0.74819800  1
  C  C57  1  0.08817000  0.58446200  0.73931500  1
  C  C58  1  0.58647900  0.08969500  0.74678700  1
  C  C59  1  0.58818000  0.59073900  0.74337600  1
  C  C60  1  0.33776100  0.40014800  0.74878800  1
  C  C61  1  0.33793000  0.90654300  0.74028900  1
  C  C62  1  0.84222700  0.39926000  0.74418000  1
  C  C63  1  0.83539900  0.90998900  0.74652200  1
  C  C64  1  0.12825900  0.12433000  0.48904800  1
  C  C65  1  0.12329900  0.12175200  0.98515100  1
  C  C66  1  0.12682600  0.61563700  0.48222500  1
  C  C67  1  0.12465000  0.61384200  0.98396900  1
  C  C68  1  0.63012100  0.12454000  0.49234700  1
  C  C69  1  0.62442000  0.11640600  0.98193900  1
  C  C70  1  0.63147100  0.62274500  0.49327900  1
  C  C71  1  0.62436800  0.61927100  0.98664400  1
  C  C72  1  0.13343000  0.37688000  0.00384700  1
  C  C73  1  0.14607800  0.38660000  0.51908600  1
  C  C74  1  0.13535100  0.87687000  0.00703600  1
  C  C75  1  0.14408300  0.88059600  0.51897800  1
  C  C76  1  0.63378800  0.37445100  0.00542000  1
  C  C77  1  0.64602500  0.38318700  0.52094700  1
  C  C78  1  0.63557500  0.87942800  0.00555500  1
  C  C79  1  0.64718400  0.88726600  0.52418300  1
  C  C80  1  0.38116700  0.12226600  0.48852400  1
  C  C81  1  0.37483900  0.11899300  0.98246300  1
  C  C82  1  0.37833900  0.61596100  0.49078700  1
  C  C83  1  0.37268200  0.61380600  0.98513200  1
  C  C84  1  0.88267200  0.11964100  0.48833900  1
  C  C85  1  0.87413300  0.11530600  0.98259600  1
  C  C86  1  0.88284000  0.62155500  0.48981400  1
  C  C87  1  0.87443400  0.61736700  0.98686900  1
  C  C88  1  0.38395700  0.37795600  0.00468400  1
  C  C89  1  0.39573700  0.38522400  0.51882500  1
  C  C90  1  0.38437200  0.87948100  0.00618500  1
  C  C91  1  0.39686000  0.88975300  0.52503500  1
  C  C92  1  0.88612100  0.37658100  0.00607200  1
  C  C93  1  0.89778900  0.38604600  0.52043300  1
  C  C94  1  0.88299400  0.88024500  0.00557000  1
  C  C95  1  0.89624800  0.88600400  0.52106600  1
  C  C96  1  0.07538600  0.08950300  0.13885400  1
  C  C97  1  0.09141300  0.10589500  0.63851700  1
  C  C98  1  0.07749500  0.58562000  0.14147300  1
  C  C99  1  0.09208500  0.61125900  0.63823600  1
  C  C100  1  0.57498100  0.08900200  0.13773100  1
  C  C101  1  0.58798200  0.11057200  0.64198500  1
  C  C102  1  0.57766200  0.59016100  0.13752000  1
  C  C103  1  0.59346600  0.61073100  0.63887600  1
  C  C104  1  0.44797100  0.39095900  0.36483800  1
  C  C105  1  0.43943900  0.39365900  0.85820700  1
  C  C106  1  0.44566200  0.90876300  0.36444300  1
  C  C107  1  0.44402900  0.91255700  0.85521300  1
  C  C108  1  0.95137100  0.39049200  0.36277300  1
  C  C109  1  0.93811500  0.39710500  0.85681300  1
  C  C110  1  0.94458200  0.89304000  0.36413100  1
  C  C111  1  0.94379100  0.91047800  0.85840500  1
  C  C112  1  0.32593600  0.30272800  0.13916900  1
  C  C113  1  0.33896300  0.28340000  0.63864900  1
  C  C114  1  0.33031900  0.79993700  0.13995900  1
  C  C115  1  0.33858900  0.77551500  0.63925800  1
  C  C116  1  0.83314100  0.29942200  0.13856700  1
  C  C117  1  0.84784900  0.27656300  0.63831300  1
  C  C118  1  0.83302800  0.80181700  0.14052800  1
  C  C119  1  0.83961400  0.78471500  0.64218600  1
  C  C120  1  0.20417000  0.22358700  0.36425400  1
  C  C121  1  0.19184100  0.21310500  0.85762100  1
  C  C122  1  0.20262800  0.70964600  0.36521800  1
  C  C123  1  0.18852200  0.69262100  0.85626200  1
  C  C124  1  0.70872500  0.20763800  0.36474400  1
  C  C125  1  0.70231600  0.19801500  0.85682100  1
  C  C126  1  0.70018900  0.70403400  0.36505200  1
  C  C127  1  0.68367800  0.70746600  0.85701300  1
  C  C128  1  0.44157600  0.07120900  0.26717000  1
  C  C129  1  0.41840000  0.06918100  0.75061900  1
  C  C130  1  0.44068600  0.54581500  0.25344600  1
  C  C131  1  0.41763100  0.54173800  0.73096900  1
  C  C132  1  0.94319900  0.06830000  0.26940500  1
  C  C133  1  0.92231500  0.06526700  0.75006200  1
  C  C134  1  0.93810900  0.56614900  0.26698000  1
  C  C135  1  0.91667500  0.54470700  0.72904200  1
  C  C136  1  0.18882400  0.44858200  0.26769000  1
  C  C137  1  0.17167400  0.43329700  0.75155400  1
  C  C138  1  0.18660600  0.95623400  0.25156500  1
  C  C139  1  0.16600700  0.93784100  0.72966000  1
  C  C140  1  0.69221800  0.44821000  0.25281700  1
  C  C141  1  0.67190000  0.43552100  0.73328100  1
  C  C142  1  0.68873900  0.95241000  0.25222900  1
  C  C143  1  0.66582500  0.93347300  0.74697700  1
