# generated using pymatgen
data_Cu12Ni3C4
_symmetry_space_group_name_H-M   'P 1'
_cell_length_a   10.64679322
_cell_length_b   10.61717200
_cell_length_c   10.72617656
_cell_angle_alpha   90.00000000
_cell_angle_beta   89.49039969
_cell_angle_gamma   90.00000000
_symmetry_Int_Tables_number   1
_chemical_formula_structural   Cu12Ni3C4
_chemical_formula_sum   'Cu48 Ni12 C16'
_cell_volume   1212.42654371
_cell_formula_units_Z   4
loop_
 _symmetry_equiv_pos_site_id
 _symmetry_equiv_pos_as_xyz
  1  'x, y, z'
loop_
 _atom_site_type_symbol
 _atom_site_label
 _atom_site_symmetry_multiplicity
 _atom_site_fract_x
 _atom_site_fract_y
 _atom_site_fract_z
 _atom_site_occupancy
  C  C0  1  0.93374200  0.04581000  0.20894600  1
  C  C1  1  0.06625800  0.54581000  0.79105400  1
  C  C2  1  0.56425600  0.16617900  0.69447700  1
  C  C3  1  0.43574400  0.66617900  0.30552200  1
  C  C4  1  0.80573300  0.80466200  0.57468200  1
  C  C5  1  0.19426700  0.30466200  0.42531800  1
  C  C6  1  0.67683800  0.39922400  0.05455400  1
  C  C7  1  0.32316200  0.89922400  0.94544600  1
  C  C8  1  0.90091900  0.19543500  0.85071700  1
  C  C9  1  0.09908100  0.69543500  0.14928300  1
  C  C10  1  0.57311200  0.03537500  0.33996800  1
  C  C11  1  0.42688800  0.53537500  0.66003200  1
  C  C12  1  0.84506500  0.43396600  0.41765100  1
  C  C13  1  0.15493500  0.93396600  0.58234900  1
  C  C14  1  0.66585600  0.75609100  0.90769800  1
  C  C15  1  0.33414400  0.25609100  0.09230200  1
  Ni  Ni16  1  0.52655200  0.34210500  0.36882200  1
  Ni  Ni17  1  0.47344800  0.84210500  0.63117800  1
  Ni  Ni18  1  0.89210200  0.14044300  0.53299600  1
  Ni  Ni19  1  0.10789800  0.64044300  0.46700400  1
  Ni  Ni20  1  0.61697200  0.08209500  0.02053700  1
  Ni  Ni21  1  0.38302800  0.58209500  0.97946300  1
  Ni  Ni22  1  0.78522700  0.70326600  0.21749400  1
  Ni  Ni23  1  0.21477300  0.20326600  0.78250600  1
  Ni  Ni24  1  0.02058200  0.37872700  0.12712400  1
  Ni  Ni25  1  0.97941800  0.87872700  0.87287600  1
  Ni  Ni26  1  0.26400500  0.97684700  0.28066800  1
  Ni  Ni27  1  0.73599500  0.47684700  0.71933200  1
  Cu  Cu28  1  0.66154000  0.10992600  0.14911600  1
  Cu  Cu29  1  0.33846000  0.60992600  0.85088400  1
  Cu  Cu30  1  0.40206800  0.93867900  0.25731400  1
  Cu  Cu31  1  0.59793200  0.43867900  0.74268600  1
  Cu  Cu32  1  0.49973900  0.21449400  0.42504200  1
  Cu  Cu33  1  0.50026100  0.71449400  0.57495800  1
  Cu  Cu34  1  0.75165900  0.65531600  0.09438200  1
  Cu  Cu35  1  0.24834100  0.15531600  0.90561800  1
  Cu  Cu36  1  0.00070800  0.50951800  0.08027200  1
  Cu  Cu37  1  0.99929200  0.00951800  0.91972800  1
  Cu  Cu38  1  0.90836500  0.76344300  0.22539700  1
  Cu  Cu39  1  0.09163500  0.26344300  0.77460300  1
  Cu  Cu40  1  0.15649900  0.35837600  0.15063100  1
  Cu  Cu41  1  0.84350100  0.85837600  0.84936900  1
  Cu  Cu42  1  0.85199000  0.10670400  0.66296100  1
  Cu  Cu43  1  0.14801000  0.60670400  0.33703900  1
  Cu  Cu44  1  0.78786400  0.11622300  0.44734000  1
  Cu  Cu45  1  0.21213600  0.61622300  0.55266000  1
  Cu  Cu46  1  0.72002400  0.89311900  0.34067900  1
  Cu  Cu47  1  0.27997600  0.39311900  0.65932100  1
  Cu  Cu48  1  0.18791800  0.89133100  0.19395500  1
  Cu  Cu49  1  0.81208200  0.39133100  0.80604500  1
  Cu  Cu50  1  0.66334600  0.35407100  0.34013600  1
  Cu  Cu51  1  0.33665400  0.85407100  0.65986400  1
  Cu  Cu52  1  0.71075000  0.13218700  0.92887000  1
  Cu  Cu53  1  0.28925000  0.63218700  0.07113000  1
  Cu  Cu54  1  0.93118700  0.27632200  0.52823300  1
  Cu  Cu55  1  0.06881300  0.77632200  0.47176700  1
  Cu  Cu56  1  0.59561200  0.94570400  0.00208000  1
  Cu  Cu57  1  0.40438800  0.44570400  0.99792000  1
  Cu  Cu58  1  0.49657000  0.15124600  0.99639400  1
  Cu  Cu59  1  0.50343000  0.65124600  0.00360600  1
  Cu  Cu60  1  0.45559100  0.35591900  0.25012900  1
  Cu  Cu61  1  0.54440900  0.85591900  0.74987100  1
  Cu  Cu62  1  0.76241500  0.61173500  0.31861700  1
  Cu  Cu63  1  0.23758500  0.11173500  0.68138400  1
  Cu  Cu64  1  0.48453700  0.44059100  0.45703500  1
  Cu  Cu65  1  0.51546300  0.94059100  0.54296500  1
  Cu  Cu66  1  0.97134600  0.28638500  0.03570200  1
  Cu  Cu67  1  0.02865400  0.78638500  0.96429800  1
  Cu  Cu68  1  0.68260700  0.81198200  0.23432700  1
  Cu  Cu69  1  0.31739300  0.31198200  0.76567300  1
  Cu  Cu70  1  0.00423000  0.06225100  0.49488700  1
  Cu  Cu71  1  0.99577000  0.56225100  0.50511300  1
  Cu  Cu72  1  0.24865800  0.11073100  0.22778900  1
  Cu  Cu73  1  0.75134200  0.61073100  0.77221100  1
  Cu  Cu74  1  0.95039200  0.35731900  0.24699300  1
  Cu  Cu75  1  0.04960800  0.85731900  0.75300700  1
