# generated using pymatgen
data_Cu4Ni3C
_symmetry_space_group_name_H-M   'P 1'
_cell_length_a   7.93610000
_cell_length_b   9.76319200
_cell_length_c   24.37750100
_cell_angle_alpha   90.00000000
_cell_angle_beta   90.00000000
_cell_angle_gamma   90.00000000
_symmetry_Int_Tables_number   1
_chemical_formula_structural   Cu4Ni3C
_chemical_formula_sum   'Cu48 Ni36 C12'
_cell_volume   1888.80943991
_cell_formula_units_Z   12
loop_
 _symmetry_equiv_pos_site_id
 _symmetry_equiv_pos_as_xyz
  1  'x, y, z'
loop_
 _atom_site_type_symbol
 _atom_site_label
 _atom_site_symmetry_multiplicity
 _atom_site_fract_x
 _atom_site_fract_y
 _atom_site_fract_z
 _atom_site_occupancy
  C  C0  1  0.37205200  0.69026800  0.08493400  1
  C  C1  1  0.12794800  0.19026800  0.41506600  1
  C  C2  1  0.62794800  0.30973200  0.58493400  1
  C  C3  1  0.87205200  0.80973200  0.91506600  1
  C  C4  1  0.62794800  0.30973200  0.91506600  1
  C  C5  1  0.87205200  0.80973200  0.58493400  1
  C  C6  1  0.37205200  0.69026800  0.41506600  1
  C  C7  1  0.12794800  0.19026800  0.08493400  1
  C  C8  1  0.81852700  0.63693000  0.25000000  1
  C  C9  1  0.68147300  0.13693000  0.25000000  1
  C  C10  1  0.18147300  0.36307000  0.75000000  1
  C  C11  1  0.31852700  0.86307000  0.75000000  1
  Ni  Ni12  1  0.46862500  0.52588000  0.08533500  1
  Ni  Ni13  1  0.03137500  0.02588000  0.41466500  1
  Ni  Ni14  1  0.53137500  0.47412000  0.58533500  1
  Ni  Ni15  1  0.96862500  0.97412000  0.91466500  1
  Ni  Ni16  1  0.53137500  0.47412000  0.91466500  1
  Ni  Ni17  1  0.96862500  0.97412000  0.58533500  1
  Ni  Ni18  1  0.46862500  0.52588000  0.41466500  1
  Ni  Ni19  1  0.03137500  0.02588000  0.08533500  1
  Ni  Ni20  1  0.15162500  0.62853000  0.07618500  1
  Ni  Ni21  1  0.34837500  0.12853000  0.42381500  1
  Ni  Ni22  1  0.84837500  0.37147000  0.57618500  1
  Ni  Ni23  1  0.65162500  0.87147000  0.92381500  1
  Ni  Ni24  1  0.84837500  0.37147000  0.92381500  1
  Ni  Ni25  1  0.65162500  0.87147000  0.57618500  1
  Ni  Ni26  1  0.15162500  0.62853000  0.42381500  1
  Ni  Ni27  1  0.34837500  0.12853000  0.07618500  1
  Ni  Ni28  1  0.57064800  0.79210600  0.09304600  1
  Ni  Ni29  1  0.92935200  0.29210600  0.40695400  1
  Ni  Ni30  1  0.42935200  0.20789400  0.59304600  1
  Ni  Ni31  1  0.07064800  0.70789400  0.90695400  1
  Ni  Ni32  1  0.42935200  0.20789400  0.90695400  1
  Ni  Ni33  1  0.07064800  0.70789400  0.59304600  1
  Ni  Ni34  1  0.57064800  0.79210600  0.40695400  1
  Ni  Ni35  1  0.92935200  0.29210600  0.09304600  1
  Ni  Ni36  1  0.97260300  0.77905900  0.25000000  1
  Ni  Ni37  1  0.52739700  0.27905900  0.25000000  1
  Ni  Ni38  1  0.02739700  0.22094100  0.75000000  1
  Ni  Ni39  1  0.47260300  0.72094100  0.75000000  1
  Ni  Ni40  1  0.65304500  0.72333500  0.25000000  1
  Ni  Ni41  1  0.84695500  0.22333500  0.25000000  1
  Ni  Ni42  1  0.34695500  0.27666500  0.75000000  1
  Ni  Ni43  1  0.15304500  0.77666500  0.75000000  1
  Ni  Ni44  1  0.11031600  0.47865000  0.25000000  1
  Ni  Ni45  1  0.38968400  0.97865000  0.25000000  1
  Ni  Ni46  1  0.88968400  0.52135000  0.75000000  1
  Ni  Ni47  1  0.61031600  0.02135000  0.75000000  1
  Cu  Cu48  1  0.39584800  0.70230800  0.00102200  1
  Cu  Cu49  1  0.10415200  0.20230800  0.49897800  1
  Cu  Cu50  1  0.60415200  0.29769200  0.50102200  1
  Cu  Cu51  1  0.89584800  0.79769200  0.99897800  1
  Cu  Cu52  1  0.60415200  0.29769200  0.99897800  1
  Cu  Cu53  1  0.89584800  0.79769200  0.50102200  1
  Cu  Cu54  1  0.39584800  0.70230800  0.49897800  1
  Cu  Cu55  1  0.10415200  0.20230800  0.00102200  1
  Cu  Cu56  1  0.34473000  0.68201900  0.16870200  1
  Cu  Cu57  1  0.15527000  0.18201900  0.33129800  1
  Cu  Cu58  1  0.65527000  0.31798100  0.66870200  1
  Cu  Cu59  1  0.84473000  0.81798100  0.83129800  1
  Cu  Cu60  1  0.65527000  0.31798100  0.83129800  1
  Cu  Cu61  1  0.84473000  0.81798100  0.66870200  1
  Cu  Cu62  1  0.34473000  0.68201900  0.33129800  1
  Cu  Cu63  1  0.15527000  0.18201900  0.16870200  1
  Cu  Cu64  1  0.32452300  0.81666700  0.01600600  1
  Cu  Cu65  1  0.17547700  0.31666700  0.48399400  1
  Cu  Cu66  1  0.67547700  0.18333300  0.51600600  1
  Cu  Cu67  1  0.82452300  0.68333300  0.98399400  1
  Cu  Cu68  1  0.67547700  0.18333300  0.98399400  1
  Cu  Cu69  1  0.82452300  0.68333300  0.51600600  1
  Cu  Cu70  1  0.32452300  0.81666700  0.48399400  1
  Cu  Cu71  1  0.17547700  0.31666700  0.01600600  1
  Cu  Cu72  1  0.28223600  0.79970000  0.15357000  1
  Cu  Cu73  1  0.21776400  0.29970000  0.34643000  1
  Cu  Cu74  1  0.71776400  0.20030000  0.65357000  1
  Cu  Cu75  1  0.78223600  0.70030000  0.84643000  1
  Cu  Cu76  1  0.71776400  0.20030000  0.84643000  1
  Cu  Cu77  1  0.78223600  0.70030000  0.65357000  1
  Cu  Cu78  1  0.28223600  0.79970000  0.34643000  1
  Cu  Cu79  1  0.21776400  0.29970000  0.15357000  1
  Cu  Cu80  1  0.87208700  0.61255900  0.17061100  1
  Cu  Cu81  1  0.62791300  0.11255900  0.32938900  1
  Cu  Cu82  1  0.12791300  0.38744100  0.67061100  1
  Cu  Cu83  1  0.37208700  0.88744100  0.82938900  1
  Cu  Cu84  1  0.12791300  0.38744100  0.82938900  1
  Cu  Cu85  1  0.37208700  0.88744100  0.67061100  1
  Cu  Cu86  1  0.87208700  0.61255900  0.32938900  1
  Cu  Cu87  1  0.62791300  0.11255900  0.17061100  1
  Cu  Cu88  1  0.78986000  0.50400000  0.18844100  1
  Cu  Cu89  1  0.71014000  0.00400000  0.31155900  1
  Cu  Cu90  1  0.21014000  0.49600000  0.68844100  1
  Cu  Cu91  1  0.28986000  0.99600000  0.81155900  1
  Cu  Cu92  1  0.21014000  0.49600000  0.81155900  1
  Cu  Cu93  1  0.28986000  0.99600000  0.68844100  1
  Cu  Cu94  1  0.78986000  0.50400000  0.31155900  1
  Cu  Cu95  1  0.71014000  0.00400000  0.18844100  1
