# generated using pymatgen
data_Cu15Ni2C15
_symmetry_space_group_name_H-M   'P 1'
_cell_length_a   10.06942058
_cell_length_b   10.06942058
_cell_length_c   10.06942058
_cell_angle_alpha   90.00000000
_cell_angle_beta   90.00000000
_cell_angle_gamma   90.00000000
_symmetry_Int_Tables_number   1
_chemical_formula_structural   Cu15Ni2C15
_chemical_formula_sum   'Cu30 Ni4 C30'
_cell_volume   1020.97108506
_cell_formula_units_Z   2
loop_
 _symmetry_equiv_pos_site_id
 _symmetry_equiv_pos_as_xyz
  1  'x, y, z'
loop_
 _atom_site_type_symbol
 _atom_site_label
 _atom_site_symmetry_multiplicity
 _atom_site_fract_x
 _atom_site_fract_y
 _atom_site_fract_z
 _atom_site_occupancy
  Ni  Ni0  1  0.50000000  0.00000000  0.00000000  1
  Ni  Ni1  1  0.00000000  0.00000000  0.50000000  1
  Ni  Ni2  1  -0.00000000  0.50000000  0.00000000  1
  Ni  Ni3  1  0.50000000  0.50000000  0.50000000  1
  Cu  Cu4  1  0.14288393  0.35623165  0.64376835  1
  Cu  Cu5  1  0.35623165  0.35623165  0.85711607  1
  Cu  Cu6  1  0.35623165  0.14288393  0.64376835  1
  Cu  Cu7  1  0.14288393  0.64376835  0.35623165  1
  Cu  Cu8  1  0.35623165  0.64376835  0.14288393  1
  Cu  Cu9  1  0.35623165  0.85711607  0.35623165  1
  Cu  Cu10  1  0.85711607  0.35623165  0.35623165  1
  Cu  Cu11  1  0.64376835  0.35623165  0.14288393  1
  Cu  Cu12  1  0.64376835  0.14288393  0.35623165  1
  Cu  Cu13  1  0.85711607  0.64376835  0.64376835  1
  Cu  Cu14  1  0.64376835  0.64376835  0.85711607  1
  Cu  Cu15  1  0.64376835  0.85711607  0.64376835  1
  Cu  Cu16  1  0.85711607  0.64376835  0.35623165  1
  Cu  Cu17  1  0.64376835  0.64376835  0.14288393  1
  Cu  Cu18  1  0.64376835  0.85711607  0.35623165  1
  Cu  Cu19  1  0.85711607  0.35623165  0.64376835  1
  Cu  Cu20  1  0.64376835  0.35623165  0.85711607  1
  Cu  Cu21  1  0.64376835  0.14288393  0.64376835  1
  Cu  Cu22  1  0.14288393  0.64376835  0.64376835  1
  Cu  Cu23  1  0.35623165  0.64376835  0.85711607  1
  Cu  Cu24  1  0.35623165  0.85711607  0.64376835  1
  Cu  Cu25  1  0.14288393  0.35623165  0.35623165  1
  Cu  Cu26  1  0.35623165  0.35623165  0.14288393  1
  Cu  Cu27  1  0.35623165  0.14288393  0.35623165  1
  Cu  Cu28  1  0.23754632  0.00000000  0.00000000  1
  Cu  Cu29  1  -0.00000000  0.00000000  0.76245368  1
  Cu  Cu30  1  -0.00000000  0.23754632  0.00000000  1
  Cu  Cu31  1  0.00000000  0.00000000  0.23754632  1
  Cu  Cu32  1  0.00000000  0.76245368  0.00000000  1
  Cu  Cu33  1  0.76245368  0.00000000  0.00000000  1
  C  C34  1  0.50000000  0.17310888  0.82689112  1
  C  C35  1  0.17310888  0.17310888  0.50000000  1
  C  C36  1  0.17310888  0.50000000  0.82689112  1
  C  C37  1  0.50000000  0.82689112  0.17310888  1
  C  C38  1  0.17310888  0.82689112  0.50000000  1
  C  C39  1  0.17310888  0.50000000  0.17310888  1
  C  C40  1  0.50000000  0.17310888  0.17310888  1
  C  C41  1  0.82689112  0.17310888  0.50000000  1
  C  C42  1  0.82689112  0.50000000  0.17310888  1
  C  C43  1  0.50000000  0.82689112  0.82689112  1
  C  C44  1  0.82689112  0.82689112  0.50000000  1
  C  C45  1  0.82689112  0.50000000  0.82689112  1
  C  C46  1  0.00000000  0.22936215  0.77063785  1
  C  C47  1  0.22936215  0.22936215  0.00000000  1
  C  C48  1  0.22936215  0.00000000  0.77063785  1
  C  C49  1  -0.00000000  0.77063785  0.22936215  1
  C  C50  1  0.22936215  0.77063785  0.00000000  1
  C  C51  1  0.22936215  0.00000000  0.22936215  1
  C  C52  1  0.00000000  0.22936215  0.22936215  1
  C  C53  1  0.77063785  0.22936215  0.00000000  1
  C  C54  1  0.77063785  0.00000000  0.22936215  1
  C  C55  1  -0.00000000  0.77063785  0.77063785  1
  C  C56  1  0.77063785  0.77063785  0.00000000  1
  C  C57  1  0.77063785  0.00000000  0.77063785  1
  C  C58  1  0.25824510  0.50000000  0.50000000  1
  C  C59  1  0.50000000  0.50000000  0.74175490  1
  C  C60  1  0.50000000  0.25824510  0.50000000  1
  C  C61  1  0.50000000  0.50000000  0.25824510  1
  C  C62  1  0.50000000  0.74175490  0.50000000  1
  C  C63  1  0.74175490  0.50000000  0.50000000  1
