# generated using pymatgen
data_Cu(NiC9)2
_symmetry_space_group_name_H-M   'P 1'
_cell_length_a   7.17203900
_cell_length_b   8.90706600
_cell_length_c   9.86429157
_cell_angle_alpha   88.54818537
_cell_angle_beta   90.00000000
_cell_angle_gamma   90.00000000
_symmetry_Int_Tables_number   1
_chemical_formula_structural   Cu(NiC9)2
_chemical_formula_sum   'Cu2 Ni4 C36'
_cell_volume   629.94665887
_cell_formula_units_Z   2
loop_
 _symmetry_equiv_pos_site_id
 _symmetry_equiv_pos_as_xyz
  1  'x, y, z'
loop_
 _atom_site_type_symbol
 _atom_site_label
 _atom_site_symmetry_multiplicity
 _atom_site_fract_x
 _atom_site_fract_y
 _atom_site_fract_z
 _atom_site_occupancy
  C  C0  1  0.63125800  0.32919700  0.69495200  1
  C  C1  1  0.13125800  0.17080300  0.30504800  1
  C  C2  1  0.36874200  0.67080300  0.30504800  1
  C  C3  1  0.86874200  0.82919700  0.69495200  1
  Ni  Ni4  1  0.62073100  0.11009300  0.34421900  1
  Ni  Ni5  1  0.12073100  0.38990700  0.65578100  1
  Ni  Ni6  1  0.37926900  0.88990700  0.65578100  1
  Ni  Ni7  1  0.87926900  0.61009300  0.34421900  1
  Cu  Cu8  1  0.50000000  0.00000000  0.00000000  1
  Cu  Cu9  1  0.00000000  0.50000000  0.00000000  1
  C  C10  1  0.63265000  0.31164400  0.09823300  1
  C  C11  1  0.13265000  0.18835600  0.90176700  1
  C  C12  1  0.36735000  0.68835600  0.90176700  1
  C  C13  1  0.86735000  0.81164400  0.09823300  1
  C  C14  1  0.74588600  0.22606700  0.21381100  1
  C  C15  1  0.24588600  0.27393300  0.78618900  1
  C  C16  1  0.25411400  0.77393300  0.78618900  1
  C  C17  1  0.75411400  0.72606700  0.21381100  1
  C  C18  1  0.50432300  0.21274700  0.44781900  1
  C  C19  1  0.00432300  0.28725300  0.55218100  1
  C  C20  1  0.49567700  0.78725300  0.55218100  1
  C  C21  1  0.99567700  0.71274700  0.44781900  1
  C  C22  1  0.52557000  0.99637300  0.73747200  1
  C  C23  1  0.02557000  0.50362700  0.26252800  1
  C  C24  1  0.47443000  0.00362700  0.26252800  1
  C  C25  1  0.97443000  0.49637300  0.73747200  1
  C  C26  1  0.77935600  0.01452100  0.42424300  1
  C  C27  1  0.27935600  0.48547900  0.57575700  1
  C  C28  1  0.22064400  0.98547900  0.57575700  1
  C  C29  1  0.72064400  0.51452100  0.42424300  1
  C  C30  1  0.95634600  0.12289100  0.84240700  1
  C  C31  1  0.45634600  0.37710900  0.15759300  1
  C  C32  1  0.04365400  0.87710900  0.15759300  1
  C  C33  1  0.54365400  0.62289100  0.84240700  1
  C  C34  1  0.58603600  0.20101700  0.98167000  1
  C  C35  1  0.08603600  0.29898300  0.01833000  1
  C  C36  1  0.41396400  0.79898300  0.01833000  1
  C  C37  1  0.91396400  0.70101700  0.98167000  1
  C  C38  1  0.75297000  0.43792200  0.03208000  1
  C  C39  1  0.25297000  0.06207800  0.96792000  1
  C  C40  1  0.24703000  0.56207800  0.96792000  1
  C  C41  1  0.74703000  0.93792200  0.03208000  1
