# generated using pymatgen
data_Cu3NiC16
_symmetry_space_group_name_H-M   'P 1'
_cell_length_a   6.16683800
_cell_length_b   7.76305600
_cell_length_c   10.32883496
_cell_angle_alpha   80.01439341
_cell_angle_beta   90.00000000
_cell_angle_gamma   90.00000000
_symmetry_Int_Tables_number   1
_chemical_formula_structural   Cu3NiC16
_chemical_formula_sum   'Cu6 Ni2 C32'
_cell_volume   486.98690045
_cell_formula_units_Z   2
loop_
 _symmetry_equiv_pos_site_id
 _symmetry_equiv_pos_as_xyz
  1  'x, y, z'
loop_
 _atom_site_type_symbol
 _atom_site_label
 _atom_site_symmetry_multiplicity
 _atom_site_fract_x
 _atom_site_fract_y
 _atom_site_fract_z
 _atom_site_occupancy
  C  C0  1  0.25000000  0.65118500  0.21047100  1
  C  C1  1  0.75000000  0.34881500  0.78952900  1
  C  C2  1  0.25000000  0.22780400  0.43174800  1
  C  C3  1  0.50000000  0.00000000  0.00000000  1
  C  C4  1  0.75000000  0.77219600  0.56825200  1
  C  C5  1  0.00000000  0.00000000  0.00000000  1
  Ni  Ni6  1  0.75000000  0.36569100  0.15718700  1
  Ni  Ni7  1  0.25000000  0.63430900  0.84281300  1
  Cu  Cu8  1  0.25000000  0.79035600  0.49185100  1
  Cu  Cu9  1  0.75000000  0.20964400  0.50814900  1
  Cu  Cu10  1  0.25000000  0.26569400  0.76108300  1
  Cu  Cu11  1  0.75000000  0.73430600  0.23891700  1
  Cu  Cu12  1  0.75000000  0.67532800  0.88280900  1
  Cu  Cu13  1  0.25000000  0.32467200  0.11719100  1
  C  C14  1  0.75000000  0.62321500  0.74383200  1
  C  C15  1  0.55692900  0.24970200  0.40891400  1
  C  C16  1  0.25000000  0.21976400  0.62518900  1
  C  C17  1  0.53582400  0.77880200  0.89559100  1
  C  C18  1  0.75000000  0.34542400  0.60119000  1
  C  C19  1  0.75000000  0.11684300  0.90628500  1
  C  C20  1  0.25000000  0.65457600  0.39881000  1
  C  C21  1  0.03582400  0.22119800  0.10440900  1
  C  C22  1  0.25000000  0.97508300  0.41347000  1
  C  C23  1  0.75000000  0.02491700  0.58653000  1
  C  C24  1  0.05848200  0.38389800  0.79116100  1
  C  C25  1  0.25000000  0.88315700  0.09371500  1
  C  C26  1  0.55848200  0.61610200  0.20883900  1
  C  C27  1  0.75000000  0.49328600  0.97142100  1
  C  C28  1  0.75000000  0.78023600  0.37481100  1
  C  C29  1  0.46417600  0.22119800  0.10440900  1
  C  C30  1  0.94307100  0.24970200  0.40891400  1
  C  C31  1  0.44307100  0.75029800  0.59108600  1
  C  C32  1  0.44151800  0.38389800  0.79116100  1
  C  C33  1  0.25000000  0.37678500  0.25616800  1
  C  C34  1  0.75000000  0.90423200  0.13182300  1
  C  C35  1  0.25000000  0.09576800  0.86817700  1
  C  C36  1  0.94151800  0.61610200  0.20883900  1
  C  C37  1  0.96417600  0.77880200  0.89559100  1
  C  C38  1  0.05692900  0.75029800  0.59108600  1
  C  C39  1  0.25000000  0.50671400  0.02857900  1
