# generated using pymatgen
data_Cu(NiC8)3
_symmetry_space_group_name_H-M   'P 1'
_cell_length_a   10.37919610
_cell_length_b   10.37919610
_cell_length_c   10.37919695
_cell_angle_alpha   33.72639075
_cell_angle_beta   33.72639075
_cell_angle_gamma   33.72638861
_symmetry_Int_Tables_number   1
_chemical_formula_structural   Cu(NiC8)3
_chemical_formula_sum   'Cu1 Ni3 C24'
_cell_volume   307.11228198
_cell_formula_units_Z   1
loop_
 _symmetry_equiv_pos_site_id
 _symmetry_equiv_pos_as_xyz
  1  'x, y, z'
loop_
 _atom_site_type_symbol
 _atom_site_label
 _atom_site_symmetry_multiplicity
 _atom_site_fract_x
 _atom_site_fract_y
 _atom_site_fract_z
 _atom_site_occupancy
  Ni  Ni0  1  0.18756100  0.18756100  0.18756100  1
  Ni  Ni1  1  0.81243200  0.81243200  0.81243200  1
  Ni  Ni2  1  0.31253300  0.31253300  0.31253300  1
  C  C3  1  0.99996000  0.99996000  0.99996000  1
  C  C4  1  0.50006200  0.50006200  0.50006200  1
  C  C5  1  0.74955100  0.25028400  0.25028400  1
  C  C6  1  0.24954700  0.75039800  0.75039800  1
  C  C7  1  0.25028400  0.74955100  0.25028400  1
  C  C8  1  0.75039800  0.24954700  0.75039800  1
  C  C9  1  0.25028400  0.25028400  0.74955100  1
  C  C10  1  0.75039800  0.75039800  0.24954700  1
  Cu  Cu11  1  0.68712800  0.68712800  0.68712800  1
  C  C12  1  0.11944500  0.11944500  0.11944500  1
  C  C13  1  0.61979100  0.61979100  0.61979100  1
  C  C14  1  0.34328800  0.89344500  0.89344500  1
  C  C15  1  0.84711400  0.39179000  0.39179000  1
  C  C16  1  0.89344500  0.34328800  0.89344500  1
  C  C17  1  0.39179000  0.84711400  0.39179000  1
  C  C18  1  0.89344500  0.89344500  0.34328800  1
  C  C19  1  0.39179000  0.39179000  0.84711400  1
  C  C20  1  0.38063600  0.38063600  0.38063600  1
  C  C21  1  0.88050900  0.88050900  0.88050900  1
  C  C22  1  0.15268300  0.60847400  0.60847400  1
  C  C23  1  0.65248700  0.10824800  0.10824800  1
  C  C24  1  0.60847400  0.15268300  0.60847400  1
  C  C25  1  0.10824800  0.65248700  0.10824800  1
  C  C26  1  0.60847400  0.60847400  0.15268300  1
  C  C27  1  0.10824800  0.10824800  0.65248700  1
