# generated using pymatgen
data_Cu3(Ni2C)2
_symmetry_space_group_name_H-M   'P 1'
_cell_length_a   9.86089000
_cell_length_b   7.12304500
_cell_length_c   17.24033551
_cell_angle_alpha   79.57458526
_cell_angle_beta   90.00000000
_cell_angle_gamma   90.00000000
_symmetry_Int_Tables_number   1
_chemical_formula_structural   Cu3(Ni2C)2
_chemical_formula_sum   'Cu12 Ni16 C8'
_cell_volume   1190.96236671
_cell_formula_units_Z   4
loop_
 _symmetry_equiv_pos_site_id
 _symmetry_equiv_pos_as_xyz
  1  'x, y, z'
loop_
 _atom_site_type_symbol
 _atom_site_label
 _atom_site_symmetry_multiplicity
 _atom_site_fract_x
 _atom_site_fract_y
 _atom_site_fract_z
 _atom_site_occupancy
  C  C0  1  0.93065700  0.88757900  0.40078600  1
  C  C1  1  0.43065700  0.61242100  0.59921400  1
  C  C2  1  0.06934300  0.11242100  0.59921400  1
  C  C3  1  0.56934300  0.38757900  0.40078600  1
  C  C4  1  0.44626200  0.17679200  0.24683900  1
  C  C5  1  0.94626200  0.32320800  0.75316100  1
  C  C6  1  0.55373800  0.82320800  0.75316100  1
  C  C7  1  0.05373800  0.67679200  0.24683900  1
  Ni  Ni8  1  0.31683300  0.03908400  0.35867200  1
  Ni  Ni9  1  0.81683300  0.46091600  0.64132800  1
  Ni  Ni10  1  0.68316700  0.96091600  0.64132800  1
  Ni  Ni11  1  0.18316700  0.53908400  0.35867200  1
  Ni  Ni12  1  0.93289600  0.42751900  0.21037500  1
  Ni  Ni13  1  0.43289600  0.07248100  0.78962500  1
  Ni  Ni14  1  0.06710400  0.57248100  0.78962500  1
  Ni  Ni15  1  0.56710400  0.92751900  0.21037500  1
  Ni  Ni16  1  0.80961000  0.22689100  0.41808400  1
  Ni  Ni17  1  0.30961000  0.27310900  0.58191600  1
  Ni  Ni18  1  0.19039000  0.77310900  0.58191600  1
  Ni  Ni19  1  0.69039000  0.72689100  0.41808400  1
  Ni  Ni20  1  0.19839600  0.81073000  0.14602400  1
  Ni  Ni21  1  0.69839600  0.68927000  0.85397600  1
  Ni  Ni22  1  0.80160400  0.18927000  0.85397600  1
  Ni  Ni23  1  0.30160400  0.31073000  0.14602400  1
  Cu  Cu24  1  0.55956200  0.36618400  0.28373600  1
  Cu  Cu25  1  0.05956200  0.13381600  0.71626400  1
  Cu  Cu26  1  0.44043800  0.63381600  0.71626400  1
  Cu  Cu27  1  0.94043800  0.86618400  0.28373600  1
  Cu  Cu28  1  0.63042300  0.38332000  0.07426700  1
  Cu  Cu29  1  0.13042300  0.11668000  0.92573300  1
  Cu  Cu30  1  0.36957700  0.61668000  0.92573300  1
  Cu  Cu31  1  0.86957700  0.88332000  0.07426700  1
  Cu  Cu32  1  0.81570800  0.76572400  0.03964600  1
  Cu  Cu33  1  0.31570800  0.73427600  0.96035400  1
  Cu  Cu34  1  0.18429200  0.23427600  0.96035400  1
  Cu  Cu35  1  0.68429200  0.26572400  0.03964600  1
