# generated using pymatgen
data_CuNiC7
_symmetry_space_group_name_H-M   'P 1'
_cell_length_a   4.82596100
_cell_length_b   4.82596100
_cell_length_c   9.55441400
_cell_angle_alpha   90.00000000
_cell_angle_beta   90.00000000
_cell_angle_gamma   90.00000000
_symmetry_Int_Tables_number   1
_chemical_formula_structural   CuNiC7
_chemical_formula_sum   'Cu2 Ni2 C14'
_cell_volume   222.52134254
_cell_formula_units_Z   2
loop_
 _symmetry_equiv_pos_site_id
 _symmetry_equiv_pos_as_xyz
  1  'x, y, z'
loop_
 _atom_site_type_symbol
 _atom_site_label
 _atom_site_symmetry_multiplicity
 _atom_site_fract_x
 _atom_site_fract_y
 _atom_site_fract_z
 _atom_site_occupancy
  C  C0  1  0.50000000  0.50000000  0.83374100  1
  C  C1  1  0.00000000  0.00000000  0.33374100  1
  Ni  Ni2  1  0.50000000  0.50000000  0.50070000  1
  Ni  Ni3  1  0.00000000  0.00000000  0.00070000  1
  Cu  Cu4  1  0.50000000  0.50000000  0.16597800  1
  Cu  Cu5  1  0.00000000  0.00000000  0.66597800  1
  C  C6  1  0.18955800  0.81044200  0.50767000  1
  C  C7  1  0.81044200  0.18955800  0.50767000  1
  C  C8  1  0.68955800  0.68955800  0.00767000  1
  C  C9  1  0.31044200  0.31044200  0.00767000  1
  C  C10  1  0.19365000  0.80635000  0.82178300  1
  C  C11  1  0.80635000  0.19365000  0.82178300  1
  C  C12  1  0.69365000  0.69365000  0.32178300  1
  C  C13  1  0.30635000  0.30635000  0.32178300  1
  C  C14  1  0.78924500  0.21075500  0.16838800  1
  C  C15  1  0.21075500  0.78924500  0.16838800  1
  C  C16  1  0.28924500  0.28924500  0.66838800  1
  C  C17  1  0.71075500  0.71075500  0.66838800  1
