# generated using pymatgen
data_Cu2NiC5
_symmetry_space_group_name_H-M   'P 1'
_cell_length_a   4.60680800
_cell_length_b   6.56866500
_cell_length_c   14.50313759
_cell_angle_alpha   88.18096279
_cell_angle_beta   90.00000000
_cell_angle_gamma   90.00000000
_symmetry_Int_Tables_number   1
_chemical_formula_structural   Cu2NiC5
_chemical_formula_sum   'Cu8 Ni4 C20'
_cell_volume   438.65217096
_cell_formula_units_Z   4
loop_
 _symmetry_equiv_pos_site_id
 _symmetry_equiv_pos_as_xyz
  1  'x, y, z'
loop_
 _atom_site_type_symbol
 _atom_site_label
 _atom_site_symmetry_multiplicity
 _atom_site_fract_x
 _atom_site_fract_y
 _atom_site_fract_z
 _atom_site_occupancy
  C  C0  1  0.50967200  0.26132100  0.12179200  1
  C  C1  1  0.00967200  0.73867900  0.87820800  1
  C  C2  1  0.49718000  0.73839300  0.38315700  1
  C  C3  1  0.99718000  0.26160700  0.61684300  1
  Ni  Ni4  1  0.02242500  0.24191500  0.37189200  1
  Ni  Ni5  1  0.52242500  0.75808500  0.62810800  1
  Ni  Ni6  1  0.97690600  0.75795300  0.12848700  1
  Ni  Ni7  1  0.47690600  0.24204700  0.87151300  1
  Cu  Cu8  1  0.48470100  0.24220000  0.43135000  1
  Cu  Cu9  1  0.98470100  0.75780000  0.56865000  1
  Cu  Cu10  1  0.51303100  0.75787000  0.07035400  1
  Cu  Cu11  1  0.01303100  0.24213000  0.92964600  1
  Cu  Cu12  1  0.00035200  0.99676800  0.24868600  1
  Cu  Cu13  1  0.50035200  0.00323200  0.75131400  1
  Cu  Cu14  1  0.99828700  0.50280300  0.24915200  1
  Cu  Cu15  1  0.49828700  0.49719700  0.75084800  1
  C  C16  1  0.15559000  0.39471900  0.29948300  1
  C  C17  1  0.65559000  0.60528100  0.70051700  1
  C  C18  1  0.84541200  0.60190000  0.20004300  1
  C  C19  1  0.34541200  0.39810000  0.79995700  1
  C  C20  1  0.90805400  0.04807600  0.32490100  1
  C  C21  1  0.40805400  0.95192400  0.67509900  1
  C  C22  1  0.08672800  0.95294500  0.17610800  1
  C  C23  1  0.58672800  0.04705500  0.82389200  1
  C  C24  1  0.28070300  0.17333400  0.43922500  1
  C  C25  1  0.78070300  0.82666600  0.56077500  1
  C  C26  1  0.71844500  0.82626500  0.06228200  1
  C  C27  1  0.21844500  0.17373500  0.93771800  1
  C  C28  1  0.78088400  0.33401300  0.43034500  1
  C  C29  1  0.28088400  0.66598700  0.56965500  1
  C  C30  1  0.22162900  0.66868500  0.07121000  1
  C  C31  1  0.72162900  0.33131500  0.92879000  1
