# generated using pymatgen
data_CuNiC6
_symmetry_space_group_name_H-M   'P 1'
_cell_length_a   5.80487000
_cell_length_b   7.48795000
_cell_length_c   8.38538900
_cell_angle_alpha   90.00000000
_cell_angle_beta   90.00000000
_cell_angle_gamma   90.00000000
_symmetry_Int_Tables_number   1
_chemical_formula_structural   CuNiC6
_chemical_formula_sum   'Cu4 Ni4 C24'
_cell_volume   364.48415091
_cell_formula_units_Z   4
loop_
 _symmetry_equiv_pos_site_id
 _symmetry_equiv_pos_as_xyz
  1  'x, y, z'
loop_
 _atom_site_type_symbol
 _atom_site_label
 _atom_site_symmetry_multiplicity
 _atom_site_fract_x
 _atom_site_fract_y
 _atom_site_fract_z
 _atom_site_occupancy
  Ni  Ni0  1  0.02713500  0.83367800  0.67931600  1
  Ni  Ni1  1  0.47286500  0.16632200  0.17931600  1
  Ni  Ni2  1  0.97286500  0.33367800  0.82068400  1
  Ni  Ni3  1  0.52713500  0.66632200  0.32068400  1
  Cu  Cu4  1  0.25676400  0.75581700  0.99852300  1
  Cu  Cu5  1  0.24323600  0.24418300  0.49852300  1
  Cu  Cu6  1  0.74323600  0.25581700  0.50147700  1
  Cu  Cu7  1  0.75676400  0.74418300  0.00147700  1
  C  C8  1  0.47789100  0.11110900  0.82055000  1
  C  C9  1  0.02210900  0.88889100  0.32055000  1
  C  C10  1  0.52210900  0.61110900  0.67945000  1
  C  C11  1  0.97789100  0.38889100  0.17945000  1
  C  C12  1  0.51424400  0.92129300  0.93401600  1
  C  C13  1  0.98575600  0.07870700  0.43401600  1
  C  C14  1  0.48575600  0.42129300  0.56598400  1
  C  C15  1  0.01424400  0.57870700  0.06598400  1
  C  C16  1  0.40561700  0.26843700  0.95706200  1
  C  C17  1  0.09438300  0.73156300  0.45706200  1
  C  C18  1  0.59438300  0.76843700  0.54293800  1
  C  C19  1  0.90561700  0.23156300  0.04293800  1
  C  C20  1  0.73429000  0.14691200  0.72229600  1
  C  C21  1  0.76571000  0.85308800  0.22229600  1
  C  C22  1  0.26571000  0.64691200  0.77770400  1
  C  C23  1  0.23429000  0.35308800  0.27770400  1
  C  C24  1  0.24120100  0.09034400  0.69711600  1
  C  C25  1  0.25879900  0.90965600  0.19711600  1
  C  C26  1  0.75879900  0.59034400  0.80288400  1
  C  C27  1  0.74120100  0.40965600  0.30288400  1
  C  C28  1  0.99931200  0.87265900  0.91627200  1
  C  C29  1  0.50068800  0.12734100  0.41627200  1
  C  C30  1  0.00068800  0.37265900  0.58372800  1
  C  C31  1  0.49931200  0.62734100  0.08372800  1
