# generated using pymatgen
data_Cu11(NiC2)4
_symmetry_space_group_name_H-M   'P 1'
_cell_length_a   8.83878500
_cell_length_b   8.83878500
_cell_length_c   13.00876800
_cell_angle_alpha   90.00000000
_cell_angle_beta   90.00000000
_cell_angle_gamma   90.00000000
_symmetry_Int_Tables_number   1
_chemical_formula_structural   Cu11(NiC2)4
_chemical_formula_sum   'Cu44 Ni16 C32'
_cell_volume   1016.29855588
_cell_formula_units_Z   4
loop_
 _symmetry_equiv_pos_site_id
 _symmetry_equiv_pos_as_xyz
  1  'x, y, z'
loop_
 _atom_site_type_symbol
 _atom_site_label
 _atom_site_symmetry_multiplicity
 _atom_site_fract_x
 _atom_site_fract_y
 _atom_site_fract_z
 _atom_site_occupancy
  C  C0  1  0.00000000  0.50000000  0.96488300  1
  C  C1  1  0.00000000  0.50000000  0.46488300  1
  C  C2  1  0.50000000  0.00000000  0.53511700  1
  C  C3  1  0.50000000  0.00000000  0.03511700  1
  C  C4  1  0.00000000  0.00000000  0.73579100  1
  C  C5  1  0.50000000  0.50000000  0.23579100  1
  C  C6  1  0.50000000  0.50000000  0.76420900  1
  C  C7  1  0.00000000  0.00000000  0.26420900  1
  C  C8  1  0.02384200  0.19696600  0.68253000  1
  C  C9  1  0.97615800  0.80303400  0.68253000  1
  C  C10  1  0.69696600  0.47615800  0.18253000  1
  C  C11  1  0.30303400  0.52384200  0.18253000  1
  C  C12  1  0.47615800  0.30303400  0.81747000  1
  C  C13  1  0.52384200  0.69696600  0.81747000  1
  C  C14  1  0.80303400  0.02384200  0.31747000  1
  C  C15  1  0.19696600  0.97615800  0.31747000  1
  C  C16  1  0.93570300  0.18701400  0.79555600  1
  C  C17  1  0.06429700  0.81298600  0.79555600  1
  C  C18  1  0.68701400  0.56429700  0.29555600  1
  C  C19  1  0.31298600  0.43570300  0.29555600  1
  C  C20  1  0.56429700  0.31298600  0.70444400  1
  C  C21  1  0.43570300  0.68701400  0.70444400  1
  C  C22  1  0.81298600  0.93570300  0.20444400  1
  C  C23  1  0.18701400  0.06429700  0.20444400  1
  C  C24  1  0.08872700  0.51215200  0.73160700  1
  C  C25  1  0.91127300  0.48784800  0.73160700  1
  C  C26  1  0.01215200  0.41127300  0.23160700  1
  C  C27  1  0.98784800  0.58872700  0.23160700  1
  C  C28  1  0.41127300  0.98784800  0.76839300  1
  C  C29  1  0.58872700  0.01215200  0.76839300  1
  C  C30  1  0.48784800  0.08872700  0.26839300  1
  C  C31  1  0.51215200  0.91127300  0.26839300  1
  Ni  Ni32  1  0.28239800  0.27453700  0.95115700  1
  Ni  Ni33  1  0.71760200  0.72546300  0.95115700  1
  Ni  Ni34  1  0.77453700  0.21760200  0.45115700  1
  Ni  Ni35  1  0.22546300  0.78239800  0.45115700  1
  Ni  Ni36  1  0.21760200  0.22546300  0.54884300  1
  Ni  Ni37  1  0.78239800  0.77453700  0.54884300  1
  Ni  Ni38  1  0.72546300  0.28239800  0.04884300  1
  Ni  Ni39  1  0.27453700  0.71760200  0.04884300  1
  Ni  Ni40  1  0.20656500  0.22596900  0.05313600  1
  Ni  Ni41  1  0.79343500  0.77403100  0.05313600  1
  Ni  Ni42  1  0.72596900  0.29343500  0.55313600  1
  Ni  Ni43  1  0.27403100  0.70656500  0.55313600  1
  Ni  Ni44  1  0.29343500  0.27403100  0.44686400  1
  Ni  Ni45  1  0.70656500  0.72596900  0.44686400  1
  Ni  Ni46  1  0.77403100  0.20656500  0.94686400  1
  Ni  Ni47  1  0.22596900  0.79343500  0.94686400  1
  Cu  Cu48  1  0.96466600  0.13155300  0.73051400  1
  Cu  Cu49  1  0.03533400  0.86844700  0.73051400  1
  Cu  Cu50  1  0.63155300  0.53533400  0.23051400  1
  Cu  Cu51  1  0.36844700  0.46466600  0.23051400  1
  Cu  Cu52  1  0.53533400  0.36844700  0.76948600  1
  Cu  Cu53  1  0.46466600  0.63155300  0.76948600  1
  Cu  Cu54  1  0.86844700  0.96466600  0.26948600  1
  Cu  Cu55  1  0.13155300  0.03533400  0.26948600  1
  Cu  Cu56  1  0.00000000  0.50000000  0.77580600  1
  Cu  Cu57  1  0.00000000  0.50000000  0.27580600  1
  Cu  Cu58  1  0.50000000  0.00000000  0.72419400  1
  Cu  Cu59  1  0.50000000  0.00000000  0.22419400  1
  Cu  Cu60  1  0.21939000  0.37817000  0.90057600  1
  Cu  Cu61  1  0.78061000  0.62183000  0.90057600  1
  Cu  Cu62  1  0.87817000  0.28061000  0.40057600  1
  Cu  Cu63  1  0.12183000  0.71939000  0.40057600  1
  Cu  Cu64  1  0.28061000  0.12183000  0.59942400  1
  Cu  Cu65  1  0.71939000  0.87817000  0.59942400  1
  Cu  Cu66  1  0.62183000  0.21939000  0.09942400  1
  Cu  Cu67  1  0.37817000  0.78061000  0.09942400  1
  Cu  Cu68  1  0.40443100  0.20694400  0.92611100  1
  Cu  Cu69  1  0.59556900  0.79305600  0.92611100  1
  Cu  Cu70  1  0.70694400  0.09556900  0.42611100  1
  Cu  Cu71  1  0.29305600  0.90443100  0.42611100  1
  Cu  Cu72  1  0.09556900  0.29305600  0.57388900  1
  Cu  Cu73  1  0.90443100  0.70694400  0.57388900  1
  Cu  Cu74  1  0.79305600  0.40443100  0.07388900  1
  Cu  Cu75  1  0.20694400  0.59556900  0.07388900  1
  Cu  Cu76  1  0.26846300  0.11538900  0.10036000  1
  Cu  Cu77  1  0.73153700  0.88461100  0.10036000  1
  Cu  Cu78  1  0.61538900  0.23153700  0.60036000  1
  Cu  Cu79  1  0.38461100  0.76846300  0.60036000  1
  Cu  Cu80  1  0.23153700  0.38461100  0.39964000  1
  Cu  Cu81  1  0.76846300  0.61538900  0.39964000  1
  Cu  Cu82  1  0.88461100  0.26846300  0.89964000  1
  Cu  Cu83  1  0.11538900  0.73153700  0.89964000  1
  Cu  Cu84  1  0.09093900  0.29792200  0.08157600  1
  Cu  Cu85  1  0.90906100  0.70207800  0.08157600  1
  Cu  Cu86  1  0.79792200  0.40906100  0.58157600  1
  Cu  Cu87  1  0.20207800  0.59093900  0.58157600  1
  Cu  Cu88  1  0.40906100  0.20207800  0.41842400  1
  Cu  Cu89  1  0.59093900  0.79792200  0.41842400  1
  Cu  Cu90  1  0.70207800  0.09093900  0.91842400  1
  Cu  Cu91  1  0.29792200  0.90906100  0.91842400  1
