# generated using pymatgen
data_Cu8Ni8C9
_symmetry_space_group_name_H-M   'P 1'
_cell_length_a   4.80187030
_cell_length_b   4.84516221
_cell_length_c   13.00999071
_cell_angle_alpha   89.94982425
_cell_angle_beta   90.30566581
_cell_angle_gamma   90.90633002
_symmetry_Int_Tables_number   1
_chemical_formula_structural   Cu8Ni8C9
_chemical_formula_sum   'Cu8 Ni8 C9'
_cell_volume   302.64609828
_cell_formula_units_Z   1
loop_
 _symmetry_equiv_pos_site_id
 _symmetry_equiv_pos_as_xyz
  1  'x, y, z'
loop_
 _atom_site_type_symbol
 _atom_site_label
 _atom_site_symmetry_multiplicity
 _atom_site_fract_x
 _atom_site_fract_y
 _atom_site_fract_z
 _atom_site_occupancy
  C  C0  1  0.53732500  0.07639100  0.49744300  1
  C  C1  1  0.99166100  0.96970900  0.99827900  1
  C  C2  1  0.04906900  0.03595200  0.23642300  1
  C  C3  1  0.02878300  0.68890500  0.49295000  1
  C  C4  1  0.04325300  0.02929900  0.75705200  1
  C  C5  1  0.46643100  0.53953200  0.64775300  1
  C  C6  1  0.55068600  0.46936900  0.11351200  1
  C  C7  1  0.48547600  0.54289000  0.34432300  1
  C  C8  1  0.47922700  0.53225500  0.88131100  1
  Ni  Ni9  1  0.22563700  0.83819100  0.36227200  1
  Ni  Ni10  1  0.21499400  0.83400800  0.62403400  1
  Ni  Ni11  1  0.19623000  0.82259900  0.88341500  1
  Ni  Ni12  1  0.33217400  0.33131000  0.23282700  1
  Ni  Ni13  1  0.28895100  0.36301400  0.76135100  1
  Ni  Ni14  1  0.70207900  0.67158100  0.99820900  1
  Ni  Ni15  1  0.61307600  0.61553600  0.49454400  1
  Ni  Ni16  1  0.83247700  0.17188400  0.11764900  1
  Cu  Cu17  1  0.25266400  0.78283200  0.11966800  1
  Cu  Cu18  1  0.28865600  0.27747500  0.99931400  1
  Cu  Cu19  1  0.14832000  0.29295600  0.50629700  1
  Cu  Cu20  1  0.75954100  0.72340100  0.24096300  1
  Cu  Cu21  1  0.72131600  0.73892700  0.75458100  1
  Cu  Cu22  1  0.76546500  0.23405700  0.35535000  1
  Cu  Cu23  1  0.73442900  0.22699300  0.64378100  1
  Cu  Cu24  1  0.77818900  0.21871300  0.87420300  1
