# generated using pymatgen
data_CuNiC8
_symmetry_space_group_name_H-M   'P 1'
_cell_length_a   7.82282800
_cell_length_b   5.47684800
_cell_length_c   5.63533196
_cell_angle_alpha   89.95226480
_cell_angle_beta   90.00000000
_cell_angle_gamma   90.00000000
_symmetry_Int_Tables_number   1
_chemical_formula_structural   CuNiC8
_chemical_formula_sum   'Cu2 Ni2 C16'
_cell_volume   241.44255742
_cell_formula_units_Z   2
loop_
 _symmetry_equiv_pos_site_id
 _symmetry_equiv_pos_as_xyz
  1  'x, y, z'
loop_
 _atom_site_type_symbol
 _atom_site_label
 _atom_site_symmetry_multiplicity
 _atom_site_fract_x
 _atom_site_fract_y
 _atom_site_fract_z
 _atom_site_occupancy
  C  C0  1  0.75000000  0.98958900  0.04334500  1
  C  C1  1  0.75000000  0.51178000  0.56079900  1
  C  C2  1  0.25000000  0.48822000  0.43920100  1
  C  C3  1  0.25000000  0.01041100  0.95665500  1
  Ni  Ni4  1  0.00000000  0.00000000  0.50000000  1
  Ni  Ni5  1  0.50000000  0.00000000  0.50000000  1
  Cu  Cu6  1  0.00000000  0.50000000  0.00000000  1
  Cu  Cu7  1  0.50000000  0.50000000  0.00000000  1
  C  C8  1  0.45405700  0.20182700  0.20953700  1
  C  C9  1  0.54397200  0.70601200  0.29561700  1
  C  C10  1  0.54594300  0.79817300  0.79046300  1
  C  C11  1  0.04397200  0.29398800  0.70438300  1
  C  C12  1  0.25000000  0.91214500  0.52591100  1
  C  C13  1  0.45602800  0.29398800  0.70438300  1
  C  C14  1  0.95602800  0.70601200  0.29561700  1
  C  C15  1  0.04594300  0.20182700  0.20953700  1
  C  C16  1  0.75000000  0.41650600  0.97664900  1
  C  C17  1  0.95405700  0.79817300  0.79046300  1
  C  C18  1  0.25000000  0.58349400  0.02335100  1
  C  C19  1  0.75000000  0.08785500  0.47408900  1
