# generated using pymatgen
data_Cu3NiC18
_symmetry_space_group_name_H-M   'P 1'
_cell_length_a   7.92250400
_cell_length_b   7.32733900
_cell_length_c   9.58247837
_cell_angle_alpha   71.62968996
_cell_angle_beta   90.00000000
_cell_angle_gamma   90.00000000
_symmetry_Int_Tables_number   1
_chemical_formula_structural   Cu3NiC18
_chemical_formula_sum   'Cu6 Ni2 C36'
_cell_volume   527.92334248
_cell_formula_units_Z   2
loop_
 _symmetry_equiv_pos_site_id
 _symmetry_equiv_pos_as_xyz
  1  'x, y, z'
loop_
 _atom_site_type_symbol
 _atom_site_label
 _atom_site_symmetry_multiplicity
 _atom_site_fract_x
 _atom_site_fract_y
 _atom_site_fract_z
 _atom_site_occupancy
  Ni  Ni0  1  0.00000000  0.50000000  0.00000000  1
  Ni  Ni1  1  0.50000000  0.50000000  0.50000000  1
  Cu  Cu2  1  0.13723400  0.82202000  0.50408500  1
  Cu  Cu3  1  0.63723400  0.17798000  0.99591500  1
  Cu  Cu4  1  0.86276600  0.17798000  0.49591500  1
  Cu  Cu5  1  0.36276600  0.82202000  0.00408500  1
  Cu  Cu6  1  0.00000000  0.00000000  0.00000000  1
  Cu  Cu7  1  0.50000000  0.00000000  0.50000000  1
  C  C8  1  0.94687600  0.42742200  0.70133100  1
  C  C9  1  0.44687600  0.57257800  0.79866900  1
  C  C10  1  0.05312400  0.57257800  0.29866900  1
  C  C11  1  0.55312400  0.42742200  0.20133100  1
  C  C12  1  0.21030700  0.12809800  0.69153700  1
  C  C13  1  0.71030700  0.87190200  0.80846300  1
  C  C14  1  0.78969300  0.87190200  0.30846300  1
  C  C15  1  0.28969300  0.12809800  0.19153700  1
  C  C16  1  0.38323500  0.17912700  0.61568100  1
  C  C17  1  0.88323500  0.82087300  0.88431900  1
  C  C18  1  0.61676500  0.82087300  0.38431900  1
  C  C19  1  0.11676500  0.17912700  0.11568100  1
  C  C20  1  0.41825900  0.64846900  0.62974600  1
  C  C21  1  0.91825900  0.35153100  0.87025400  1
  C  C22  1  0.58174100  0.35153100  0.37025400  1
  C  C23  1  0.08174100  0.64846900  0.12974600  1
  C  C24  1  0.80688800  0.36349600  0.61681200  1
  C  C25  1  0.30688800  0.63650400  0.88318800  1
  C  C26  1  0.19311200  0.63650400  0.38318800  1
  C  C27  1  0.69311200  0.36349600  0.11681200  1
  C  C28  1  0.12285200  0.33147700  0.67074000  1
  C  C29  1  0.62285200  0.66852300  0.82926000  1
  C  C30  1  0.87714800  0.66852300  0.32926000  1
  C  C31  1  0.37714800  0.33147700  0.17074000  1
  C  C32  1  0.51540600  0.63948800  0.15315600  1
  C  C33  1  0.01540600  0.36051200  0.34684400  1
  C  C34  1  0.48459400  0.36051200  0.84684400  1
  C  C35  1  0.98459400  0.63948800  0.65315600  1
  C  C36  1  0.78911500  0.96994000  0.13899100  1
  C  C37  1  0.28911500  0.03006000  0.36100900  1
  C  C38  1  0.21088500  0.03006000  0.86100900  1
  C  C39  1  0.71088500  0.96994000  0.63899100  1
  C  C40  1  0.39929800  0.01559400  0.11787800  1
  C  C41  1  0.89929800  0.98440600  0.38212200  1
  C  C42  1  0.60070200  0.98440600  0.88212200  1
  C  C43  1  0.10070200  0.01559400  0.61787800  1
