# generated using pymatgen
data_Cu3(NiC9)2
_symmetry_space_group_name_H-M   'P 1'
_cell_length_a   7.46116100
_cell_length_b   9.49047185
_cell_length_c   9.99469701
_cell_angle_alpha   117.63907806
_cell_angle_beta   90.28030894
_cell_angle_gamma   95.55656341
_symmetry_Int_Tables_number   1
_chemical_formula_structural   Cu3(NiC9)2
_chemical_formula_sum   'Cu6 Ni4 C36'
_cell_volume   623.02106547
_cell_formula_units_Z   2
loop_
 _symmetry_equiv_pos_site_id
 _symmetry_equiv_pos_as_xyz
  1  'x, y, z'
loop_
 _atom_site_type_symbol
 _atom_site_label
 _atom_site_symmetry_multiplicity
 _atom_site_fract_x
 _atom_site_fract_y
 _atom_site_fract_z
 _atom_site_occupancy
  C  C0  1  0.14294400  0.36016200  0.86599000  1
  C  C1  1  0.60802400  0.91497300  0.80867000  1
  C  C2  1  0.27262300  0.74771600  0.45060500  1
  C  C3  1  0.07164800  0.73328000  0.76362700  1
  Ni  Ni4  1  0.06457900  0.35605900  0.43913600  1
  Ni  Ni5  1  0.30487500  0.07527900  0.41529500  1
  Ni  Ni6  1  0.56023700  0.41032400  0.97083500  1
  Ni  Ni7  1  0.06378300  0.76332600  0.15705900  1
  Cu  Cu8  1  0.70985500  0.94785900  0.17955900  1
  Cu  Cu9  1  0.42124500  0.51984400  0.61470200  1
  Cu  Cu10  1  0.96270700  0.08648600  0.03298000  1
  Cu  Cu11  1  0.35740200  0.07339400  0.70594100  1
  Cu  Cu12  1  0.39238300  0.70956600  0.96379100  1
  Cu  Cu13  1  0.88878600  0.43515100  0.15390300  1
  C  C14  1  0.17378100  0.19592000  0.35370500  1
  C  C15  1  0.57752200  0.44811100  0.41313500  1
  C  C16  1  0.14861500  0.08402600  0.08387500  1
  C  C17  1  0.43305300  0.37547900  0.63043900  1
  C  C18  1  0.77639600  0.58222300  0.95659500  1
  C  C19  1  0.87289600  0.44882800  0.77177900  1
  C  C20  1  0.06558500  0.98737500  0.76987200  1
  C  C21  1  0.79283200  0.59019100  0.48619800  1
  C  C22  1  0.23814600  0.51467100  0.52116900  1
  C  C23  1  0.49324300  0.94517300  0.62040200  1
  C  C24  1  0.42791000  0.67448300  0.78417600  1
  C  C25  1  0.58930100  0.54346300  0.51302400  1
  C  C26  1  0.62593000  0.02102700  0.35087400  1
  C  C27  1  0.42733700  0.22663500  0.87273800  1
  C  C28  1  0.91156100  0.32633800  0.55797600  1
  C  C29  1  0.02672100  0.57370000  0.15197300  1
  C  C30  1  0.54076200  0.86809500  0.05055600  1
  C  C31  1  0.84383700  0.81386400  0.14978700  1
  C  C32  1  0.93528100  0.43914300  0.33156400  1
  C  C33  1  0.50195900  0.13710800  0.34654200  1
  C  C34  1  0.74760600  0.46722700  0.88753400  1
  C  C35  1  0.89736600  0.94491400  0.87003800  1
  C  C36  1  0.92025400  0.60393300  0.45432600  1
  C  C37  1  0.96585300  0.26657800  0.03978800  1
  C  C38  1  0.67393700  0.43392800  0.13948100  1
  C  C39  1  0.18334100  0.95776000  0.72460800  1
  C  C40  1  0.82445000  0.09971900  0.16814100  1
  C  C41  1  0.18258000  0.74384000  0.99342600  1
  C  C42  1  0.27563300  0.15677900  0.60858700  1
  C  C43  1  0.20171500  0.88492400  0.31553000  1
  C  C44  1  0.41907900  0.55877800  0.99291700  1
  C  C45  1  0.98442800  0.45234000  0.71078800  1
