# generated using pymatgen
data_CuNiC12
_symmetry_space_group_name_H-M   'P 1'
_cell_length_a   9.44330746
_cell_length_b   9.44330746
_cell_length_c   5.57883400
_cell_angle_alpha   90.00000000
_cell_angle_beta   90.00000000
_cell_angle_gamma   119.99999622
_symmetry_Int_Tables_number   1
_chemical_formula_structural   CuNiC12
_chemical_formula_sum   'Cu2 Ni2 C24'
_cell_volume   430.84627954
_cell_formula_units_Z   2
loop_
 _symmetry_equiv_pos_site_id
 _symmetry_equiv_pos_as_xyz
  1  'x, y, z'
loop_
 _atom_site_type_symbol
 _atom_site_label
 _atom_site_symmetry_multiplicity
 _atom_site_fract_x
 _atom_site_fract_y
 _atom_site_fract_z
 _atom_site_occupancy
  C  C0  1  0.09015100  0.68537800  0.25000000  1
  C  C1  1  0.59522700  0.90984900  0.25000000  1
  C  C2  1  0.31462200  0.40477300  0.25000000  1
  C  C3  1  0.90984900  0.31462200  0.75000000  1
  C  C4  1  0.40477300  0.09015100  0.75000000  1
  C  C5  1  0.68537800  0.59522700  0.75000000  1
  Ni  Ni6  1  0.00000000  0.00000000  0.00000000  1
  Ni  Ni7  1  0.00000000  0.00000000  0.50000000  1
  Cu  Cu8  1  0.33333300  0.66666700  0.75000000  1
  Cu  Cu9  1  0.66666700  0.33333300  0.25000000  1
  C  C10  1  0.16744000  0.21210000  0.75000000  1
  C  C11  1  0.04466000  0.83256000  0.75000000  1
  C  C12  1  0.78790000  0.95534000  0.75000000  1
  C  C13  1  0.83256000  0.78790000  0.25000000  1
  C  C14  1  0.95534000  0.16744000  0.25000000  1
  C  C15  1  0.21210000  0.04466000  0.25000000  1
  C  C16  1  0.16055400  0.52446600  0.97710500  1
  C  C17  1  0.36391300  0.83944600  0.97710500  1
  C  C18  1  0.47553400  0.63608700  0.97710500  1
  C  C19  1  0.83944600  0.47553400  0.47710500  1
  C  C20  1  0.63608700  0.16055400  0.47710500  1
  C  C21  1  0.52446600  0.36391300  0.47710500  1
  C  C22  1  0.83944600  0.47553400  0.02289500  1
  C  C23  1  0.63608700  0.16055400  0.02289500  1
  C  C24  1  0.52446600  0.36391300  0.02289500  1
  C  C25  1  0.16055400  0.52446600  0.52289500  1
  C  C26  1  0.36391300  0.83944600  0.52289500  1
  C  C27  1  0.47553400  0.63608700  0.52289500  1
