# generated using pymatgen
data_Cu12NiC20
_symmetry_space_group_name_H-M   'P 1'
_cell_length_a   8.86182145
_cell_length_b   8.86182145
_cell_length_c   8.86182145
_cell_angle_alpha   109.47122063
_cell_angle_beta   109.47122063
_cell_angle_gamma   109.47122063
_symmetry_Int_Tables_number   1
_chemical_formula_structural   Cu12NiC20
_chemical_formula_sum   'Cu12 Ni1 C20'
_cell_volume   535.73139277
_cell_formula_units_Z   1
loop_
 _symmetry_equiv_pos_site_id
 _symmetry_equiv_pos_as_xyz
  1  'x, y, z'
loop_
 _atom_site_type_symbol
 _atom_site_label
 _atom_site_symmetry_multiplicity
 _atom_site_fract_x
 _atom_site_fract_y
 _atom_site_fract_z
 _atom_site_occupancy
  Ni  Ni0  1  0.00000000  0.00000000  0.00000000  1
  Cu  Cu1  1  0.49388400  0.33091000  0.19048800  1
  Cu  Cu2  1  0.50611600  0.69660400  0.83702600  1
  Cu  Cu3  1  0.85957800  0.66909000  0.16297400  1
  Cu  Cu4  1  0.33091000  0.19048800  0.49388400  1
  Cu  Cu5  1  0.14042200  0.30339600  0.80951200  1
  Cu  Cu6  1  0.69660400  0.83702600  0.50611600  1
  Cu  Cu7  1  0.66909000  0.16297400  0.85957800  1
  Cu  Cu8  1  0.30339600  0.80951200  0.14042200  1
  Cu  Cu9  1  0.19048800  0.49388400  0.33091000  1
  Cu  Cu10  1  0.16297400  0.85957800  0.66909000  1
  Cu  Cu11  1  0.80951200  0.14042200  0.30339600  1
  Cu  Cu12  1  0.83702600  0.50611600  0.69660400  1
  C  C13  1  0.78783000  0.78783000  0.78783000  1
  C  C14  1  0.21217000  0.00000000  0.00000000  1
  C  C15  1  0.00000000  0.21217000  0.00000000  1
  C  C16  1  0.00000000  0.00000000  0.21217000  1
  C  C17  1  0.39441900  0.39441900  0.39441900  1
  C  C18  1  0.60558100  0.00000000  0.00000000  1
  C  C19  1  0.00000000  0.60558100  0.00000000  1
  C  C20  1  0.00000000  0.00000000  0.60558100  1
  C  C21  1  0.74472100  0.62075700  0.38444800  1
  C  C22  1  0.25527900  0.63972700  0.87603500  1
  C  C23  1  0.76369200  0.37924300  0.12396500  1
  C  C24  1  0.62075700  0.38444800  0.74472100  1
  C  C25  1  0.23630800  0.36027300  0.61555200  1
  C  C26  1  0.63972700  0.87603500  0.25527900  1
  C  C27  1  0.37924300  0.12396500  0.76369200  1
  C  C28  1  0.36027300  0.61555200  0.23630800  1
  C  C29  1  0.38444800  0.74472100  0.62075700  1
  C  C30  1  0.12396500  0.76369200  0.37924300  1
  C  C31  1  0.61555200  0.23630800  0.36027300  1
  C  C32  1  0.87603500  0.25527900  0.63972700  1
