# generated using pymatgen
data_Cu4NiC53
_symmetry_space_group_name_H-M   'P 1'
_cell_length_a   9.06671700
_cell_length_b   9.06671700
_cell_length_c   16.01284500
_cell_angle_alpha   90.00000000
_cell_angle_beta   90.00000000
_cell_angle_gamma   90.00000000
_symmetry_Int_Tables_number   1
_chemical_formula_structural   Cu4NiC53
_chemical_formula_sum   'Cu8 Ni2 C106'
_cell_volume   1316.34164234
_cell_formula_units_Z   2
loop_
 _symmetry_equiv_pos_site_id
 _symmetry_equiv_pos_as_xyz
  1  'x, y, z'
loop_
 _atom_site_type_symbol
 _atom_site_label
 _atom_site_symmetry_multiplicity
 _atom_site_fract_x
 _atom_site_fract_y
 _atom_site_fract_z
 _atom_site_occupancy
  Ni  Ni0  1  0.50000000  0.50000000  0.00000000  1
  Ni  Ni1  1  0.00000000  0.00000000  0.50000000  1
  Cu  Cu2  1  0.74574300  0.61003500  0.50000000  1
  Cu  Cu3  1  0.25425700  0.38996500  0.50000000  1
  Cu  Cu4  1  0.75425700  0.11003500  0.00000000  1
  Cu  Cu5  1  0.24574300  0.88996500  0.00000000  1
  Cu  Cu6  1  0.61003500  0.25425700  0.50000000  1
  Cu  Cu7  1  0.38996500  0.74574300  0.50000000  1
  Cu  Cu8  1  0.11003500  0.24574300  0.00000000  1
  Cu  Cu9  1  0.88996500  0.75425700  0.00000000  1
  C  C10  1  0.58667500  0.72580500  0.31025700  1
  C  C11  1  0.41332500  0.27419500  0.31025700  1
  C  C12  1  0.91332500  0.22580500  0.81025700  1
  C  C13  1  0.08667500  0.77419500  0.81025700  1
  C  C14  1  0.72580500  0.41332500  0.31025700  1
  C  C15  1  0.27419500  0.58667500  0.31025700  1
  C  C16  1  0.22580500  0.08667500  0.81025700  1
  C  C17  1  0.77419500  0.91332500  0.81025700  1
  C  C18  1  0.41332500  0.27419500  0.68974300  1
  C  C19  1  0.58667500  0.72580500  0.68974300  1
  C  C20  1  0.08667500  0.77419500  0.18974300  1
  C  C21  1  0.91332500  0.22580500  0.18974300  1
  C  C22  1  0.27419500  0.58667500  0.68974300  1
  C  C23  1  0.72580500  0.41332500  0.68974300  1
  C  C24  1  0.77419500  0.91332500  0.18974300  1
  C  C25  1  0.22580500  0.08667500  0.18974300  1
  C  C26  1  0.67122500  0.94852300  0.41129500  1
  C  C27  1  0.32877500  0.05147700  0.41129500  1
  C  C28  1  0.82877500  0.44852300  0.91129500  1
  C  C29  1  0.17122500  0.55147700  0.91129500  1
  C  C30  1  0.94852300  0.32877500  0.41129500  1
  C  C31  1  0.05147700  0.67122500  0.41129500  1
  C  C32  1  0.44852300  0.17122500  0.91129500  1
  C  C33  1  0.55147700  0.82877500  0.91129500  1
  C  C34  1  0.32877500  0.05147700  0.58870500  1
  C  C35  1  0.67122500  0.94852300  0.58870500  1
  C  C36  1  0.17122500  0.55147700  0.08870500  1
  C  C37  1  0.82877500  0.44852300  0.08870500  1
  C  C38  1  0.05147700  0.67122500  0.58870500  1
  C  C39  1  0.94852300  0.32877500  0.58870500  1
  C  C40  1  0.55147700  0.82877500  0.08870500  1
  C  C41  1  0.44852300  0.17122500  0.08870500  1
  C  C42  1  0.92583100  0.72187500  0.35120900  1
  C  C43  1  0.07416900  0.27812500  0.35120900  1
  C  C44  1  0.57416900  0.22187500  0.85120900  1
  C  C45  1  0.42583100  0.77812500  0.85120900  1
  C  C46  1  0.72187500  0.07416900  0.35120900  1
  C  C47  1  0.27812500  0.92583100  0.35120900  1
  C  C48  1  0.22187500  0.42583100  0.85120900  1
  C  C49  1  0.77812500  0.57416900  0.85120900  1
  C  C50  1  0.07416900  0.27812500  0.64879100  1
  C  C51  1  0.92583100  0.72187500  0.64879100  1
  C  C52  1  0.42583100  0.77812500  0.14879100  1
  C  C53  1  0.57416900  0.22187500  0.14879100  1
  C  C54  1  0.27812500  0.92583100  0.64879100  1
  C  C55  1  0.72187500  0.07416900  0.64879100  1
  C  C56  1  0.77812500  0.57416900  0.14879100  1
  C  C57  1  0.22187500  0.42583100  0.14879100  1
  C  C58  1  0.63724500  0.86275500  0.25000000  1
  C  C59  1  0.36275500  0.13724500  0.25000000  1
  C  C60  1  0.86275500  0.36275500  0.75000000  1
  C  C61  1  0.13724500  0.63724500  0.75000000  1
  C  C62  1  0.86275500  0.36275500  0.25000000  1
  C  C63  1  0.13724500  0.63724500  0.25000000  1
  C  C64  1  0.36275500  0.13724500  0.75000000  1
  C  C65  1  0.63724500  0.86275500  0.75000000  1
  C  C66  1  0.68990600  0.58416800  0.28218800  1
  C  C67  1  0.31009400  0.41583200  0.28218800  1
  C  C68  1  0.81009400  0.08416800  0.78218800  1
  C  C69  1  0.18990600  0.91583200  0.78218800  1
  C  C70  1  0.58416800  0.31009400  0.28218800  1
  C  C71  1  0.41583200  0.68990600  0.28218800  1
  C  C72  1  0.08416800  0.18990600  0.78218800  1
  C  C73  1  0.91583200  0.81009400  0.78218800  1
  C  C74  1  0.31009400  0.41583200  0.71781200  1
  C  C75  1  0.68990600  0.58416800  0.71781200  1
  C  C76  1  0.18990600  0.91583200  0.21781200  1
  C  C77  1  0.81009400  0.08416800  0.21781200  1
  C  C78  1  0.41583200  0.68990600  0.71781200  1
  C  C79  1  0.58416800  0.31009400  0.71781200  1
  C  C80  1  0.91583200  0.81009400  0.21781200  1
  C  C81  1  0.08416800  0.18990600  0.21781200  1
  C  C82  1  0.60170600  0.76512300  0.40807700  1
  C  C83  1  0.39829400  0.23487700  0.40807700  1
  C  C84  1  0.89829400  0.26512300  0.90807700  1
  C  C85  1  0.10170600  0.73487700  0.90807700  1
  C  C86  1  0.76512300  0.39829400  0.40807700  1
  C  C87  1  0.23487700  0.60170600  0.40807700  1
  C  C88  1  0.26512300  0.10170600  0.90807700  1
  C  C89  1  0.73487700  0.89829400  0.90807700  1
  C  C90  1  0.39829400  0.23487700  0.59192300  1
  C  C91  1  0.60170600  0.76512300  0.59192300  1
  C  C92  1  0.10170600  0.73487700  0.09192300  1
  C  C93  1  0.89829400  0.26512300  0.09192300  1
  C  C94  1  0.23487700  0.60170600  0.59192300  1
  C  C95  1  0.76512300  0.39829400  0.59192300  1
  C  C96  1  0.73487700  0.89829400  0.09192300  1
  C  C97  1  0.26512300  0.10170600  0.09192300  1
  C  C98  1  0.94963700  0.71385200  0.41079500  1
  C  C99  1  0.05036300  0.28614800  0.41079500  1
  C  C100  1  0.55036300  0.21385200  0.91079500  1
  C  C101  1  0.44963700  0.78614800  0.91079500  1
  C  C102  1  0.71385200  0.05036300  0.41079500  1
  C  C103  1  0.28614800  0.94963700  0.41079500  1
  C  C104  1  0.21385200  0.44963700  0.91079500  1
  C  C105  1  0.78614800  0.55036300  0.91079500  1
  C  C106  1  0.05036300  0.28614800  0.58920500  1
  C  C107  1  0.94963700  0.71385200  0.58920500  1
  C  C108  1  0.44963700  0.78614800  0.08920500  1
  C  C109  1  0.55036300  0.21385200  0.08920500  1
  C  C110  1  0.28614800  0.94963700  0.58920500  1
  C  C111  1  0.71385200  0.05036300  0.58920500  1
  C  C112  1  0.78614800  0.55036300  0.08920500  1
  C  C113  1  0.21385200  0.44963700  0.08920500  1
  C  C114  1  0.50000000  0.50000000  0.50000000  1
  C  C115  1  0.00000000  0.00000000  0.00000000  1
