# generated using pymatgen
data_Cu2Ni2C7
_symmetry_space_group_name_H-M   'P 1'
_cell_length_a   7.58763600
_cell_length_b   5.31642200
_cell_length_c   16.47718897
_cell_angle_alpha   84.58647043
_cell_angle_beta   90.00000000
_cell_angle_gamma   90.00000000
_symmetry_Int_Tables_number   1
_chemical_formula_structural   Cu2Ni2C7
_chemical_formula_sum   'Cu8 Ni8 C28'
_cell_volume   661.70992254
_cell_formula_units_Z   4
loop_
 _symmetry_equiv_pos_site_id
 _symmetry_equiv_pos_as_xyz
  1  'x, y, z'
loop_
 _atom_site_type_symbol
 _atom_site_label
 _atom_site_symmetry_multiplicity
 _atom_site_fract_x
 _atom_site_fract_y
 _atom_site_fract_z
 _atom_site_occupancy
  C  C0  1  0.50000000  0.50000000  0.50000000  1
  C  C1  1  0.00000000  0.50000000  0.00000000  1
  C  C2  1  0.50000000  0.50000000  0.00000000  1
  C  C3  1  0.00000000  0.50000000  0.50000000  1
  Ni  Ni4  1  0.71124000  0.02544700  0.91579700  1
  Ni  Ni5  1  0.21124000  0.97455300  0.58420300  1
  Ni  Ni6  1  0.28876000  0.97455300  0.08420300  1
  Ni  Ni7  1  0.78876000  0.02544700  0.41579700  1
  Ni  Ni8  1  0.71240000  0.40095100  0.17948800  1
  Ni  Ni9  1  0.21240000  0.59904900  0.32051200  1
  Ni  Ni10  1  0.28760000  0.59904900  0.82051200  1
  Ni  Ni11  1  0.78760000  0.40095100  0.67948800  1
  Cu  Cu12  1  0.61115800  0.09333400  0.84548000  1
  Cu  Cu13  1  0.11115800  0.90666600  0.65452000  1
  Cu  Cu14  1  0.38884200  0.90666600  0.15452000  1
  Cu  Cu15  1  0.88884200  0.09333400  0.34548000  1
  Cu  Cu16  1  0.60553000  0.19175500  0.20505400  1
  Cu  Cu17  1  0.10553000  0.80824500  0.29494600  1
  Cu  Cu18  1  0.39447000  0.80824500  0.79494600  1
  Cu  Cu19  1  0.89447000  0.19175500  0.70505400  1
  C  C20  1  0.66985100  0.21497700  0.97917400  1
  C  C21  1  0.16985100  0.78502300  0.52082600  1
  C  C22  1  0.33014900  0.78502300  0.02082600  1
  C  C23  1  0.83014900  0.21497700  0.47917400  1
  C  C24  1  0.67304000  0.75002600  0.94470800  1
  C  C25  1  0.17304000  0.24997400  0.55529200  1
  C  C26  1  0.32696000  0.24997400  0.05529200  1
  C  C27  1  0.82696000  0.75002600  0.44470800  1
  C  C28  1  0.91123400  0.06918900  0.90147200  1
  C  C29  1  0.41123400  0.93081100  0.59852800  1
  C  C30  1  0.08876600  0.93081100  0.09852800  1
  C  C31  1  0.58876600  0.06918900  0.40147200  1
  C  C32  1  0.62606000  0.53635700  0.10351200  1
  C  C33  1  0.12606000  0.46364300  0.39648800  1
  C  C34  1  0.37394000  0.46364300  0.89648800  1
  C  C35  1  0.87394000  0.53635700  0.60351200  1
  C  C36  1  0.74268300  0.57188200  0.24886800  1
  C  C37  1  0.24268300  0.42811800  0.25113200  1
  C  C38  1  0.25731700  0.42811800  0.75113200  1
  C  C39  1  0.75731700  0.57188200  0.74886800  1
  C  C40  1  0.90623900  0.32100500  0.16776100  1
  C  C41  1  0.40623900  0.67899500  0.33223900  1
  C  C42  1  0.09376100  0.67899500  0.83223900  1
  C  C43  1  0.59376100  0.32100500  0.66776100  1
