# generated using pymatgen
data_CuNiC21
_symmetry_space_group_name_H-M   'P 1'
_cell_length_a   7.47645001
_cell_length_b   7.47665719
_cell_length_c   7.43933609
_cell_angle_alpha   89.99835082
_cell_angle_beta   59.83486538
_cell_angle_gamma   120.00096673
_symmetry_Int_Tables_number   1
_chemical_formula_structural   CuNiC21
_chemical_formula_sum   'Cu1 Ni1 C21'
_cell_volume   293.30594638
_cell_formula_units_Z   1
loop_
 _symmetry_equiv_pos_site_id
 _symmetry_equiv_pos_as_xyz
  1  'x, y, z'
loop_
 _atom_site_type_symbol
 _atom_site_label
 _atom_site_symmetry_multiplicity
 _atom_site_fract_x
 _atom_site_fract_y
 _atom_site_fract_z
 _atom_site_occupancy
  C  C0  1  0.24972400  0.37691100  0.37329700  1
  C  C1  1  0.24971800  0.87280500  0.37330300  1
  C  C2  1  0.75385100  0.37692500  0.37327300  1
  Ni  Ni3  1  0.99900400  0.99949400  0.00151800  1
  Cu  Cu4  1  0.75286400  0.37643700  0.87067700  1
  C  C5  1  0.73000200  0.86501000  0.40493200  1
  C  C6  1  0.26839500  0.86625600  0.86541200  1
  C  C7  1  0.26837900  0.40212700  0.86541300  1
  C  C8  1  0.73254800  0.86628600  0.86542200  1
  C  C9  1  0.49441500  0.24720300  0.25832300  1
  C  C10  1  0.00297400  0.50148600  0.49549000  1
  C  C11  1  0.90381800  0.95192900  0.54789800  1
  C  C12  1  0.50015900  0.54828800  0.54791200  1
  C  C13  1  0.50018200  0.95190500  0.54789700  1
  C  C14  1  0.10014200  0.55006800  0.95060700  1
  C  C15  1  0.49936700  0.94929500  0.95061900  1
  C  C16  1  0.49935800  0.55008200  0.95061200  1
  C  C17  1  0.57449400  0.78723700  0.21330700  1
  C  C18  1  0.99944600  0.21221700  0.21325700  1
  C  C19  1  0.99943700  0.78719800  0.21327000  1
  C  C20  1  0.41986700  0.20992700  0.78918500  1
  C  C21  1  0.00093000  0.79095300  0.78918600  1
  C  C22  1  0.00092500  0.20996200  0.78919200  1
