# generated using pymatgen
data_CuNi3C44
_symmetry_space_group_name_H-M   'P 1'
_cell_length_a   11.20088600
_cell_length_b   11.20088600
_cell_length_c   5.04397400
_cell_angle_alpha   90.00000000
_cell_angle_beta   90.00000000
_cell_angle_gamma   90.00000000
_symmetry_Int_Tables_number   1
_chemical_formula_structural   CuNi3C44
_chemical_formula_sum   'Cu1 Ni3 C44'
_cell_volume   632.81620725
_cell_formula_units_Z   1
loop_
 _symmetry_equiv_pos_site_id
 _symmetry_equiv_pos_as_xyz
  1  'x, y, z'
loop_
 _atom_site_type_symbol
 _atom_site_label
 _atom_site_symmetry_multiplicity
 _atom_site_fract_x
 _atom_site_fract_y
 _atom_site_fract_z
 _atom_site_occupancy
  C  C0  1  0.24994000  0.08154000  0.50642000  1
  C  C1  1  0.74993400  0.58160300  0.50652900  1
  C  C2  1  0.41839700  0.74993400  0.49347100  1
  C  C3  1  0.91846000  0.24994000  0.49358000  1
  C  C4  1  0.75006000  0.91846000  0.50642000  1
  C  C5  1  0.25006600  0.41839700  0.50652900  1
  C  C6  1  0.58160300  0.25006600  0.49347100  1
  C  C7  1  0.08154000  0.75006000  0.49358000  1
  Ni  Ni8  1  0.50000000  0.00000000  0.99980300  1
  Ni  Ni9  1  0.00000000  0.50000000  0.00019700  1
  Ni  Ni10  1  0.00000000  0.00000000  0.00000000  1
  Cu  Cu11  1  0.50000000  0.50000000  0.00000000  1
  C  C12  1  0.24997800  0.89045300  0.93737500  1
  C  C13  1  0.75014300  0.39036100  0.93681400  1
  C  C14  1  0.60963900  0.75014300  0.06318600  1
  C  C15  1  0.10954700  0.24997800  0.06262500  1
  C  C16  1  0.75002200  0.10954700  0.93737500  1
  C  C17  1  0.24985700  0.60963900  0.93681400  1
  C  C18  1  0.39036100  0.24985700  0.06318600  1
  C  C19  1  0.89045300  0.75002200  0.06262500  1
  C  C20  1  0.24991400  0.24986000  0.18186400  1
  C  C21  1  0.75008600  0.75014000  0.18186400  1
  C  C22  1  0.24986000  0.75008600  0.81813600  1
  C  C23  1  0.75014000  0.24991400  0.81813600  1
  C  C24  1  0.36518100  0.94878400  0.78175200  1
  C  C25  1  0.86544200  0.44863600  0.78154600  1
  C  C26  1  0.55131800  0.63499400  0.21881100  1
  C  C27  1  0.05119800  0.13477600  0.21825100  1
  C  C28  1  0.63481900  0.05121600  0.78175200  1
  C  C29  1  0.13455800  0.55136400  0.78154600  1
  C  C30  1  0.44868200  0.36500600  0.21881100  1
  C  C31  1  0.94880200  0.86522400  0.21825100  1
  C  C32  1  0.44863600  0.13455800  0.21845400  1
  C  C33  1  0.94878400  0.63481900  0.21824800  1
  C  C34  1  0.86522400  0.05119800  0.78174900  1
  C  C35  1  0.36500600  0.55131800  0.78118900  1
  C  C36  1  0.55136400  0.86544200  0.21845400  1
  C  C37  1  0.05121600  0.36518100  0.21824800  1
  C  C38  1  0.13477600  0.94880200  0.78174900  1
  C  C39  1  0.63499400  0.44868200  0.78118900  1
  C  C40  1  0.24997300  0.89069900  0.25690200  1
  C  C41  1  0.74971800  0.39086000  0.25645100  1
  C  C42  1  0.60914000  0.74971800  0.74354900  1
  C  C43  1  0.10930100  0.24997300  0.74309800  1
  C  C44  1  0.75002700  0.10930100  0.25690200  1
  C  C45  1  0.25028200  0.60914000  0.25645100  1
  C  C46  1  0.39086000  0.25028200  0.74354900  1
  C  C47  1  0.89069900  0.75002700  0.74309800  1
