# generated using pymatgen
data_CuNiC14
_symmetry_space_group_name_H-M   'P 1'
_cell_length_a   6.83141056
_cell_length_b   6.83140993
_cell_length_c   10.51214215
_cell_angle_alpha   90.00000000
_cell_angle_beta   90.00000000
_cell_angle_gamma   120.00000306
_symmetry_Int_Tables_number   1
_chemical_formula_structural   CuNiC14
_chemical_formula_sum   'Cu1 Ni1 C14'
_cell_volume   424.85680288
_cell_formula_units_Z   1
loop_
 _symmetry_equiv_pos_site_id
 _symmetry_equiv_pos_as_xyz
  1  'x, y, z'
loop_
 _atom_site_type_symbol
 _atom_site_label
 _atom_site_symmetry_multiplicity
 _atom_site_fract_x
 _atom_site_fract_y
 _atom_site_fract_z
 _atom_site_occupancy
  Ni  Ni0  1  0.16666700  0.33333300  0.12500000  1
  Cu  Cu1  1  0.16666700  0.33333300  0.62500000  1
  C  C2  1  0.17310320  0.83655110  0.12500000  1
  C  C3  1  0.17771842  0.83885871  0.62500000  1
  C  C4  1  0.66344890  0.32689680  0.12500000  1
  C  C5  1  0.66114129  0.32228158  0.62500000  1
  C  C6  1  0.66344890  0.83655110  0.12500000  1
  C  C7  1  0.66114129  0.83885871  0.62500000  1
  C  C8  1  0.34485071  0.15514929  0.37574719  1
  C  C9  1  0.34485071  0.15514929  0.87425281  1
  C  C10  1  0.34485071  0.68970242  0.37574719  1
  C  C11  1  0.34485071  0.68970242  0.87425281  1
  C  C12  1  0.81029758  0.15514929  0.37574719  1
  C  C13  1  0.81029758  0.15514929  0.87425281  1
  C  C14  1  0.83333300  0.66666700  0.37600847  1
  C  C15  1  0.83333300  0.66666700  0.87399153  1
