# generated using pymatgen
data_Cu3NiC8
_symmetry_space_group_name_H-M   'P 1'
_cell_length_a   3.35754229
_cell_length_b   3.35754229
_cell_length_c   39.95439300
_cell_angle_alpha   90.00000000
_cell_angle_beta   90.00000000
_cell_angle_gamma   120.00000569
_symmetry_Int_Tables_number   1
_chemical_formula_structural   Cu3NiC8
_chemical_formula_sum   'Cu3 Ni1 C8'
_cell_volume   390.06602687
_cell_formula_units_Z   1
loop_
 _symmetry_equiv_pos_site_id
 _symmetry_equiv_pos_as_xyz
  1  'x, y, z'
loop_
 _atom_site_type_symbol
 _atom_site_label
 _atom_site_symmetry_multiplicity
 _atom_site_fract_x
 _atom_site_fract_y
 _atom_site_fract_z
 _atom_site_occupancy
  C  C0  1  0.00000000  0.00000000  0.32780100  1
  C  C1  1  0.33333300  0.66666700  0.42342700  1
  C  C2  1  0.33333300  0.66666700  0.51852600  1
  C  C3  1  0.00000000  0.00000000  0.23310500  1
  Ni  Ni4  1  0.33333300  0.66666700  0.28045500  1
  Cu  Cu5  1  0.00000000  0.00000000  0.09377000  1
  Cu  Cu6  1  0.00000000  0.00000000  0.47099900  1
  Cu  Cu7  1  0.33333300  0.66666700  0.65770800  1
  C  C8  1  0.00000000  0.00000000  0.69568000  1
  C  C9  1  0.33333300  0.66666700  0.05579700  1
  C  C10  1  0.33333300  0.66666700  0.13181400  1
  C  C11  1  0.00000000  0.00000000  0.61966700  1
