# generated using pymatgen
data_CuNiC12
_symmetry_space_group_name_H-M   'P 1'
_cell_length_a   9.54860208
_cell_length_b   9.54860208
_cell_length_c   6.98827200
_cell_angle_alpha   90.00000000
_cell_angle_beta   90.00000000
_cell_angle_gamma   120.00000058
_symmetry_Int_Tables_number   1
_chemical_formula_structural   CuNiC12
_chemical_formula_sum   'Cu3 Ni3 C36'
_cell_volume   551.79787107
_cell_formula_units_Z   3
loop_
 _symmetry_equiv_pos_site_id
 _symmetry_equiv_pos_as_xyz
  1  'x, y, z'
loop_
 _atom_site_type_symbol
 _atom_site_label
 _atom_site_symmetry_multiplicity
 _atom_site_fract_x
 _atom_site_fract_y
 _atom_site_fract_z
 _atom_site_occupancy
  C  C0  1  0.75023400  0.99174800  0.00000000  1
  C  C1  1  0.24151400  0.24976600  0.00000000  1
  C  C2  1  0.00825200  0.75848600  0.00000000  1
  C  C3  1  0.23664900  0.98755900  0.50000000  1
  C  C4  1  0.75091000  0.76335100  0.50000000  1
  C  C5  1  0.01244100  0.24909000  0.50000000  1
  C  C6  1  0.66666700  0.33333300  0.22334400  1
  C  C7  1  0.33333300  0.66666700  0.77405300  1
  C  C8  1  0.33333300  0.66666700  0.22594700  1
  C  C9  1  0.66666700  0.33333300  0.77665600  1
  Ni  Ni10  1  0.60951300  0.63566900  0.00000000  1
  Ni  Ni11  1  0.02615600  0.39048700  0.00000000  1
  Ni  Ni12  1  0.36433100  0.97384400  0.00000000  1
  Cu  Cu13  1  0.40570000  0.37342800  0.50000000  1
  Cu  Cu14  1  0.96772800  0.59430000  0.50000000  1
  Cu  Cu15  1  0.62657200  0.03227200  0.50000000  1
  C  C16  1  0.66456200  0.75258300  0.19189600  1
  C  C17  1  0.08802100  0.33543800  0.19189600  1
  C  C18  1  0.24741700  0.91197900  0.19189600  1
  C  C19  1  0.34824400  0.26629100  0.67060600  1
  C  C20  1  0.91804700  0.65175600  0.67060600  1
  C  C21  1  0.73370900  0.08195300  0.67060600  1
  C  C22  1  0.34824400  0.26629100  0.32939400  1
  C  C23  1  0.91804700  0.65175600  0.32939400  1
  C  C24  1  0.73370900  0.08195300  0.32939400  1
  C  C25  1  0.66456200  0.75258300  0.80810400  1
  C  C26  1  0.08802100  0.33543800  0.80810400  1
  C  C27  1  0.24741700  0.91197900  0.80810400  1
  C  C28  1  0.40994700  0.53081800  0.00000000  1
  C  C29  1  0.12087100  0.59005300  0.00000000  1
  C  C30  1  0.46918200  0.87912900  0.00000000  1
  C  C31  1  0.58706200  0.46338100  0.50000000  1
  C  C32  1  0.87631800  0.41293800  0.50000000  1
  C  C33  1  0.53661900  0.12368200  0.50000000  1
  C  C34  1  0.69516500  0.52312900  0.00000000  1
  C  C35  1  0.82796400  0.30483500  0.00000000  1
  C  C36  1  0.47687100  0.17203600  0.00000000  1
  C  C37  1  0.34491500  0.48986600  0.50000000  1
  C  C38  1  0.14495100  0.65508500  0.50000000  1
  C  C39  1  0.51013400  0.85504900  0.50000000  1
  C  C40  1  0.00000000  0.00000000  0.00000000  1
  C  C41  1  0.00000000  0.00000000  0.50000000  1
