# generated using pymatgen
data_CuNiC14
_symmetry_space_group_name_H-M   'P 1'
_cell_length_a   6.30405225
_cell_length_b   6.30405175
_cell_length_c   10.38436780
_cell_angle_alpha   90.00000000
_cell_angle_beta   90.00000000
_cell_angle_gamma   120.00000265
_symmetry_Int_Tables_number   1
_chemical_formula_structural   CuNiC14
_chemical_formula_sum   'Cu1 Ni1 C14'
_cell_volume   357.39646773
_cell_formula_units_Z   1
loop_
 _symmetry_equiv_pos_site_id
 _symmetry_equiv_pos_as_xyz
  1  'x, y, z'
loop_
 _atom_site_type_symbol
 _atom_site_label
 _atom_site_symmetry_multiplicity
 _atom_site_fract_x
 _atom_site_fract_y
 _atom_site_fract_z
 _atom_site_occupancy
  C  C0  1  0.16649722  0.83324811  0.12500000  1
  C  C1  1  0.16648585  0.83324242  0.62500000  1
  C  C2  1  0.66675189  0.33350278  0.12500000  1
  C  C3  1  0.66675758  0.33351415  0.62500000  1
  C  C4  1  0.66675189  0.83324811  0.12500000  1
  C  C5  1  0.66675758  0.83324242  0.62500000  1
  C  C6  1  0.33254549  0.16745451  0.36999445  1
  C  C7  1  0.33254549  0.16745451  0.88000555  1
  C  C8  1  0.33254549  0.66509199  0.36999445  1
  C  C9  1  0.33254549  0.66509199  0.88000555  1
  C  C10  1  0.83490801  0.16745451  0.36999445  1
  C  C11  1  0.83490801  0.16745451  0.88000555  1
  C  C12  1  0.83333300  0.66666700  0.37331375  1
  C  C13  1  0.83333300  0.66666700  0.87668625  1
  Ni  Ni14  1  0.16666700  0.33333300  0.12500000  1
  Cu  Cu15  1  0.16666700  0.33333300  0.62500000  1
