# generated using pymatgen
data_Cu(Ni2C7)2
_symmetry_space_group_name_H-M   'P 1'
_cell_length_a   6.17947036
_cell_length_b   6.20431739
_cell_length_c   9.12460187
_cell_angle_alpha   73.33281836
_cell_angle_beta   74.00313437
_cell_angle_gamma   99.83725875
_symmetry_Int_Tables_number   1
_chemical_formula_structural   Cu(Ni2C7)2
_chemical_formula_sum   'Cu1 Ni4 C14'
_cell_volume   310.06890863
_cell_formula_units_Z   1
loop_
 _symmetry_equiv_pos_site_id
 _symmetry_equiv_pos_as_xyz
  1  'x, y, z'
loop_
 _atom_site_type_symbol
 _atom_site_label
 _atom_site_symmetry_multiplicity
 _atom_site_fract_x
 _atom_site_fract_y
 _atom_site_fract_z
 _atom_site_occupancy
  Ni  Ni0  1  0.03154500  0.68098100  0.78331400  1
  Ni  Ni1  1  0.93248000  0.35931600  0.20506900  1
  Ni  Ni2  1  0.69014000  0.03311100  0.78089000  1
  Ni  Ni3  1  0.36192400  0.93718000  0.20448300  1
  Cu  Cu4  1  0.37376200  0.36741100  0.75973300  1
  C  C5  1  0.48201200  0.48778000  0.04288500  1
  C  C6  1  0.97310700  0.97192600  0.04258900  1
  C  C7  1  0.69075300  0.69307800  0.47563200  1
  C  C8  1  0.33429400  0.33055300  0.47585800  1
  C  C9  1  0.23934100  0.24628000  0.01438700  1
  C  C10  1  0.25099200  0.75139700  0.00255300  1
  C  C11  1  0.74956500  0.25039300  0.99447600  1
  C  C12  1  0.75433700  0.74930800  0.99636000  1
  C  C13  1  0.68988000  0.69255900  0.67985500  1
  C  C14  1  0.30869900  0.29996700  0.29279700  1
  C  C15  1  0.13233300  0.12596900  0.68020200  1
  C  C16  1  0.89844500  0.90756000  0.29256500  1
  C  C17  1  0.35399700  0.63848900  0.50249900  1
  C  C18  1  0.64525000  0.35769500  0.50242300  1
