# generated using pymatgen
data_Cu4NiC20
_symmetry_space_group_name_H-M   'P 1'
_cell_length_a   3.95451271
_cell_length_b   5.60063968
_cell_length_c   14.16342727
_cell_angle_alpha   78.59164244
_cell_angle_beta   89.99966151
_cell_angle_gamma   90.00065514
_symmetry_Int_Tables_number   1
_chemical_formula_structural   Cu4NiC20
_chemical_formula_sum   'Cu4 Ni1 C20'
_cell_volume   307.49100760
_cell_formula_units_Z   1
loop_
 _symmetry_equiv_pos_site_id
 _symmetry_equiv_pos_as_xyz
  1  'x, y, z'
loop_
 _atom_site_type_symbol
 _atom_site_label
 _atom_site_symmetry_multiplicity
 _atom_site_fract_x
 _atom_site_fract_y
 _atom_site_fract_z
 _atom_site_occupancy
  Ni  Ni0  1  0.49999900  0.50000500  0.00000100  1
  Cu  Cu1  1  0.50001600  0.89688800  0.20640300  1
  Cu  Cu2  1  0.49994900  0.10312200  0.79359000  1
  Cu  Cu3  1  0.50000900  0.30096200  0.39809000  1
  Cu  Cu4  1  0.50002000  0.69901400  0.60191100  1
  C  C5  1  0.99999700  0.00000200  0.99999800  1
  C  C6  1  0.99999900  0.60047600  0.79903000  1
  C  C7  1  0.99999900  0.79947300  0.40111600  1
  C  C8  1  0.99999900  0.39953500  0.20097100  1
  C  C9  1  0.99999900  0.20052500  0.59888700  1
  C  C10  1  0.50000200  0.99999600  0.00000300  1
  C  C11  1  0.00001600  0.49999300  0.50000100  1
  C  C12  1  0.00000400  0.99998700  0.50000600  1
  C  C13  1  0.49999600  0.60536400  0.78934700  1
  C  C14  1  0.50000200  0.39464800  0.21065400  1
  C  C15  1  0.49999900  0.80115400  0.39762400  1
  C  C16  1  0.50000200  0.19883600  0.60238300  1
  C  C17  1  0.00004800  0.28823900  0.89612000  1
  C  C18  1  0.99996200  0.71175900  0.10387400  1
  C  C19  1  0.99996100  0.81565800  0.89611300  1
  C  C20  1  0.00005100  0.18433300  0.10388700  1
  C  C21  1  0.00001000  0.90100100  0.69923700  1
  C  C22  1  0.99998300  0.09900600  0.30076300  1
  C  C23  1  0.99998000  0.39976900  0.69922900  1
  C  C24  1  0.00000000  0.60025500  0.30076500  1
