# generated using pymatgen
data_CuNiC6
_symmetry_space_group_name_H-M   'P 1'
_cell_length_a   5.38683105
_cell_length_b   7.75300989
_cell_length_c   11.70392100
_cell_angle_alpha   90.00000000
_cell_angle_beta   90.00000000
_cell_angle_gamma   106.35103350
_symmetry_Int_Tables_number   1
_chemical_formula_structural   CuNiC6
_chemical_formula_sum   'Cu4 Ni4 C24'
_cell_volume   469.03463243
_cell_formula_units_Z   4
loop_
 _symmetry_equiv_pos_site_id
 _symmetry_equiv_pos_as_xyz
  1  'x, y, z'
loop_
 _atom_site_type_symbol
 _atom_site_label
 _atom_site_symmetry_multiplicity
 _atom_site_fract_x
 _atom_site_fract_y
 _atom_site_fract_z
 _atom_site_occupancy
  Ni  Ni0  1  0.61700500  0.17135200  0.91819900  1
  Ni  Ni1  1  0.38299500  0.82864800  0.08180100  1
  Ni  Ni2  1  0.88299500  0.32864800  0.41819900  1
  Ni  Ni3  1  0.11700500  0.67135200  0.58180100  1
  Cu  Cu4  1  0.78354200  0.96866300  0.64403800  1
  Cu  Cu5  1  0.21645800  0.03133700  0.35596200  1
  Cu  Cu6  1  0.71645800  0.53133700  0.14403800  1
  Cu  Cu7  1  0.28354200  0.46866300  0.85596200  1
  C  C8  1  0.11129600  0.16979000  0.10368600  1
  C  C9  1  0.88870400  0.83021000  0.89631400  1
  C  C10  1  0.61129600  0.66979000  0.39631400  1
  C  C11  1  0.38870400  0.33021000  0.60368600  1
  C  C12  1  0.56392700  0.33317100  0.07745700  1
  C  C13  1  0.02887100  0.33031900  0.92681200  1
  C  C14  1  0.49593200  0.65055500  0.17898300  1
  C  C15  1  0.75495900  0.51114300  0.52407900  1
  C  C16  1  0.79222300  0.49025800  0.28679500  1
  C  C17  1  0.29222300  0.99025800  0.21320500  1
  C  C18  1  0.52887100  0.83031900  0.57318800  1
  C  C19  1  0.47112900  0.16968100  0.42681200  1
  C  C20  1  0.24504100  0.48885700  0.47592100  1
  C  C21  1  0.93607300  0.16682900  0.57745700  1
  C  C22  1  0.20777700  0.50974200  0.71320500  1
  C  C23  1  0.43607300  0.66682900  0.92254300  1
  C  C24  1  0.06392700  0.83317100  0.42254300  1
  C  C25  1  0.70777700  0.00974200  0.78679500  1
  C  C26  1  0.74504100  0.98885700  0.02407900  1
  C  C27  1  0.25495900  0.01114300  0.97592100  1
  C  C28  1  0.50406800  0.34944500  0.82101700  1
  C  C29  1  0.97112900  0.66968100  0.07318800  1
  C  C30  1  0.00406800  0.84944500  0.67898300  1
  C  C31  1  0.99593200  0.15055500  0.32101700  1
