# generated using pymatgen
data_Cu3(NiC)2
_symmetry_space_group_name_H-M   'P 1'
_cell_length_a   8.85471862
_cell_length_b   8.02051412
_cell_length_c   21.32143598
_cell_angle_alpha   90.00000000
_cell_angle_beta   90.00000000
_cell_angle_gamma   90.00000000
_symmetry_Int_Tables_number   1
_chemical_formula_structural   Cu3(NiC)2
_chemical_formula_sum   'Cu24 Ni16 C16'
_cell_volume   1514.23549919
_cell_formula_units_Z   8
loop_
 _symmetry_equiv_pos_site_id
 _symmetry_equiv_pos_as_xyz
  1  'x, y, z'
loop_
 _atom_site_type_symbol
 _atom_site_label
 _atom_site_symmetry_multiplicity
 _atom_site_fract_x
 _atom_site_fract_y
 _atom_site_fract_z
 _atom_site_occupancy
  C  C0  1  0.60654224  0.17453584  0.38619587  1
  C  C1  1  0.10654224  0.82546416  0.11380413  1
  C  C2  1  0.39345776  0.32546416  0.88619587  1
  C  C3  1  0.89345776  0.67453584  0.61380413  1
  C  C4  1  0.39345776  0.82546416  0.61380413  1
  C  C5  1  0.89345776  0.17453584  0.88619587  1
  C  C6  1  0.60654224  0.67453584  0.11380413  1
  C  C7  1  0.10654224  0.32546416  0.38619587  1
  C  C8  1  0.42139690  0.10486582  0.23449790  1
  C  C9  1  0.92139690  0.89513418  0.26550210  1
  C  C10  1  0.57860310  0.39513418  0.73449790  1
  C  C11  1  0.07860310  0.60486582  0.76550210  1
  C  C12  1  0.57860310  0.89513418  0.76550210  1
  C  C13  1  0.07860310  0.10486582  0.73449790  1
  C  C14  1  0.42139690  0.60486582  0.26550210  1
  C  C15  1  0.92139690  0.39513418  0.23449790  1
  Ni  Ni16  1  0.61674698  0.37327301  0.21112056  1
  Ni  Ni17  1  0.11674698  0.62672699  0.28887944  1
  Ni  Ni18  1  0.38325302  0.12672699  0.71112056  1
  Ni  Ni19  1  0.88325302  0.87327301  0.78887944  1
  Ni  Ni20  1  0.38325302  0.62672699  0.78887944  1
  Ni  Ni21  1  0.88325302  0.37327301  0.71112056  1
  Ni  Ni22  1  0.61674698  0.87327301  0.28887944  1
  Ni  Ni23  1  0.11674698  0.12672699  0.21112056  1
  Ni  Ni24  1  0.71960089  0.08436949  0.01218750  1
  Ni  Ni25  1  0.21960089  0.91563051  0.48781250  1
  Ni  Ni26  1  0.28039911  0.41563051  0.51218750  1
  Ni  Ni27  1  0.78039911  0.58436949  0.98781250  1
  Ni  Ni28  1  0.28039911  0.91563051  0.98781250  1
  Ni  Ni29  1  0.78039911  0.08436949  0.51218750  1
  Ni  Ni30  1  0.71960089  0.58436949  0.48781250  1
  Ni  Ni31  1  0.21960089  0.41563051  0.01218750  1
  Cu  Cu32  1  0.86330059  0.31145030  0.43822506  1
  Cu  Cu33  1  0.36330059  0.68854970  0.06177494  1
  Cu  Cu34  1  0.13669941  0.18854970  0.93822506  1
  Cu  Cu35  1  0.63669941  0.81145030  0.56177494  1
  Cu  Cu36  1  0.13669941  0.68854970  0.56177494  1
  Cu  Cu37  1  0.63669941  0.31145030  0.93822506  1
  Cu  Cu38  1  0.86330059  0.81145030  0.06177494  1
  Cu  Cu39  1  0.36330059  0.18854970  0.43822506  1
  Cu  Cu40  1  0.74154911  0.96334604  0.43817957  1
  Cu  Cu41  1  0.24154911  0.03665396  0.06182043  1
  Cu  Cu42  1  0.25845089  0.53665396  0.93817957  1
  Cu  Cu43  1  0.75845089  0.46334604  0.56182043  1
  Cu  Cu44  1  0.25845089  0.03665396  0.56182043  1
  Cu  Cu45  1  0.75845089  0.96334604  0.93817957  1
  Cu  Cu46  1  0.74154911  0.46334604  0.06182043  1
  Cu  Cu47  1  0.24154911  0.53665396  0.43817957  1
  Cu  Cu48  1  0.85550056  0.25140883  0.37824892  1
  Cu  Cu49  1  0.35550056  0.74859117  0.12175108  1
  Cu  Cu50  1  0.14449944  0.24859117  0.87824892  1
  Cu  Cu51  1  0.64449944  0.75140883  0.62175108  1
  Cu  Cu52  1  0.14449944  0.74859117  0.62175108  1
  Cu  Cu53  1  0.64449944  0.25140883  0.87824892  1
  Cu  Cu54  1  0.85550056  0.75140883  0.12175108  1
  Cu  Cu55  1  0.35550056  0.24859117  0.37824892  1
