# generated using pymatgen
data_Cu8Ni18C19
_symmetry_space_group_name_H-M   'P 1'
_cell_length_a   8.44558435
_cell_length_b   12.61091278
_cell_length_c   12.61091278
_cell_angle_alpha   90.00000000
_cell_angle_beta   90.00000000
_cell_angle_gamma   90.00000000
_symmetry_Int_Tables_number   1
_chemical_formula_structural   Cu8Ni18C19
_chemical_formula_sum   'Cu8 Ni18 C19'
_cell_volume   1343.14453024
_cell_formula_units_Z   1
loop_
 _symmetry_equiv_pos_site_id
 _symmetry_equiv_pos_as_xyz
  1  'x, y, z'
loop_
 _atom_site_type_symbol
 _atom_site_label
 _atom_site_symmetry_multiplicity
 _atom_site_fract_x
 _atom_site_fract_y
 _atom_site_fract_z
 _atom_site_occupancy
  C  C0  1  0.10728904  0.75000000  0.75000000  1
  C  C1  1  0.66948104  0.75000000  0.75000000  1
  C  C2  1  0.33213147  0.25000000  0.25000000  1
  C  C3  1  0.82240957  0.33402435  0.98163570  1
  C  C4  1  0.35492360  0.19467894  0.61333956  1
  C  C5  1  0.17652446  0.66542360  0.01853599  1
  C  C6  1  0.64502514  0.38635820  0.69430401  1
  C  C7  1  0.64502514  0.11364180  0.80569599  1
  C  C8  1  0.64502514  0.80569599  0.38635820  1
  C  C9  1  0.17652446  0.83457640  0.48146401  1
  C  C10  1  0.82240957  0.98163570  0.16597565  1
  C  C11  1  0.35492360  0.61333956  0.30532106  1
  C  C12  1  0.17652446  0.48146401  0.66542360  1
  C  C13  1  0.82240957  0.16597565  0.51836430  1
  C  C14  1  0.35492360  0.88666044  0.19467894  1
  C  C15  1  0.35492360  0.30532106  0.88666044  1
  C  C16  1  0.17652446  0.01853599  0.83457640  1
  C  C17  1  0.64502514  0.69430401  0.11364180  1
  C  C18  1  0.82240957  0.51836430  0.33402435  1
  Ni  Ni19  1  0.88479682  0.86782082  0.96299241  1
  Ni  Ni20  1  0.11387521  0.13296672  0.03797025  1
  Ni  Ni21  1  0.11387521  0.46202975  0.13296672  1
  Ni  Ni22  1  0.59934904  0.43201418  0.13002669  1
  Ni  Ni23  1  0.40320776  0.56746806  0.87049385  1
  Ni  Ni24  1  0.40320776  0.62950615  0.56746806  1
  Ni  Ni25  1  0.11387521  0.36703328  0.46202975  1
  Ni  Ni26  1  0.11387521  0.03797025  0.36703328  1
  Ni  Ni27  1  0.59934904  0.06798582  0.36997331  1
  Ni  Ni28  1  0.00028670  0.75000000  0.25000000  1
  Ni  Ni29  1  0.88479682  0.96299241  0.63217918  1
  Ni  Ni30  1  0.40320776  0.93253194  0.62950615  1
  Ni  Ni31  1  0.88479682  0.53700759  0.86782082  1
  Ni  Ni32  1  0.59934904  0.36997331  0.43201418  1
  Ni  Ni33  1  0.40320776  0.87049385  0.93253194  1
  Ni  Ni34  1  0.88479682  0.63217918  0.53700759  1
  Ni  Ni35  1  0.59934904  0.13002669  0.06798582  1
  Ni  Ni36  1  0.00028670  0.25000000  0.75000000  1
  Cu  Cu37  1  0.62785682  0.20401343  0.64179435  1
  Cu  Cu38  1  0.37200659  0.14169585  0.79591221  1
  Cu  Cu39  1  0.37200659  0.70408779  0.14169585  1
  Cu  Cu40  1  0.62785682  0.64179435  0.29598657  1
  Cu  Cu41  1  0.62785682  0.85820565  0.20401343  1
  Cu  Cu42  1  0.37200659  0.35830415  0.70408779  1
  Cu  Cu43  1  0.62785682  0.29598657  0.85820565  1
  Cu  Cu44  1  0.37200659  0.79591221  0.35830415  1
