# generated using pymatgen
data_CuNiC7
_symmetry_space_group_name_H-M   'P 1'
_cell_length_a   5.51076175
_cell_length_b   5.51076175
_cell_length_c   7.63810900
_cell_angle_alpha   90.00000000
_cell_angle_beta   90.00000000
_cell_angle_gamma   90.00000000
_symmetry_Int_Tables_number   1
_chemical_formula_structural   CuNiC7
_chemical_formula_sum   'Cu2 Ni2 C14'
_cell_volume   231.95787513
_cell_formula_units_Z   2
loop_
 _symmetry_equiv_pos_site_id
 _symmetry_equiv_pos_as_xyz
  1  'x, y, z'
loop_
 _atom_site_type_symbol
 _atom_site_label
 _atom_site_symmetry_multiplicity
 _atom_site_fract_x
 _atom_site_fract_y
 _atom_site_fract_z
 _atom_site_occupancy
  Ni  Ni0  1  0.00000000  0.00000000  0.00000000  1
  Ni  Ni1  1  0.50000000  0.50000000  0.00000000  1
  Cu  Cu2  1  0.00000000  0.00000000  0.50000000  1
  Cu  Cu3  1  0.50000000  0.50000000  0.50000000  1
  C  C4  1  0.00000000  0.50000000  0.74941000  1
  C  C5  1  0.50000000  0.00000000  0.25059000  1
  C  C6  1  0.50000000  0.00000000  0.71345100  1
  C  C7  1  0.00000000  0.50000000  0.28654900  1
  C  C8  1  0.24757800  0.25242200  0.68669200  1
  C  C9  1  0.75242200  0.74757800  0.68669200  1
  C  C10  1  0.24757800  0.74757800  0.68669200  1
  C  C11  1  0.75242200  0.25242200  0.68669200  1
  C  C12  1  0.25242200  0.24757800  0.31330800  1
  C  C13  1  0.74757800  0.75242200  0.31330800  1
  C  C14  1  0.25242200  0.75242200  0.31330800  1
  C  C15  1  0.74757800  0.24757800  0.31330800  1
  C  C16  1  0.50000000  0.00000000  0.01541500  1
  C  C17  1  0.00000000  0.50000000  0.98458500  1
