# generated using pymatgen
data_CuNiC7
_symmetry_space_group_name_H-M   'P 1'
_cell_length_a   4.03059500
_cell_length_b   5.79661200
_cell_length_c   21.28521300
_cell_angle_alpha   90.00000000
_cell_angle_beta   90.00000000
_cell_angle_gamma   90.00000000
_symmetry_Int_Tables_number   1
_chemical_formula_structural   CuNiC7
_chemical_formula_sum   'Cu4 Ni4 C28'
_cell_volume   497.30336039
_cell_formula_units_Z   4
loop_
 _symmetry_equiv_pos_site_id
 _symmetry_equiv_pos_as_xyz
  1  'x, y, z'
loop_
 _atom_site_type_symbol
 _atom_site_label
 _atom_site_symmetry_multiplicity
 _atom_site_fract_x
 _atom_site_fract_y
 _atom_site_fract_z
 _atom_site_occupancy
  C  C0  1  0.25000000  0.50950400  0.31183100  1
  C  C1  1  0.25000000  0.00950400  0.18816900  1
  C  C2  1  0.75000000  0.49049600  0.68816900  1
  C  C3  1  0.75000000  0.99049600  0.81183100  1
  Ni  Ni4  1  0.25000000  0.49937500  0.55453100  1
  Ni  Ni5  1  0.25000000  0.99937500  0.94546900  1
  Ni  Ni6  1  0.75000000  0.50062500  0.44546900  1
  Ni  Ni7  1  0.75000000  0.00062500  0.05453100  1
  Cu  Cu8  1  0.25000000  0.98959700  0.68556500  1
  Cu  Cu9  1  0.25000000  0.48959700  0.81443500  1
  Cu  Cu10  1  0.75000000  0.01040300  0.31443500  1
  Cu  Cu11  1  0.75000000  0.51040300  0.18556500  1
  C  C12  1  0.25000000  0.01143500  0.42790100  1
  C  C13  1  0.25000000  0.51143500  0.07209900  1
  C  C14  1  0.75000000  0.98856500  0.57209900  1
  C  C15  1  0.75000000  0.48856500  0.92790100  1
  C  C16  1  0.75000000  0.98939600  0.67795600  1
  C  C17  1  0.75000000  0.48939600  0.82204400  1
  C  C18  1  0.25000000  0.01060400  0.32204400  1
  C  C19  1  0.25000000  0.51060400  0.17795600  1
  C  C20  1  0.25000000  0.73089300  0.75283700  1
  C  C21  1  0.25000000  0.23089300  0.74716300  1
  C  C22  1  0.75000000  0.26910700  0.24716300  1
  C  C23  1  0.75000000  0.76910700  0.25283700  1
  C  C24  1  0.25000000  0.23378300  0.60657300  1
  C  C25  1  0.25000000  0.73378300  0.89342700  1
  C  C26  1  0.75000000  0.76621700  0.39342700  1
  C  C27  1  0.75000000  0.26621700  0.10657300  1
  C  C28  1  0.25000000  0.75689900  0.61336500  1
  C  C29  1  0.25000000  0.25689900  0.88663500  1
  C  C30  1  0.75000000  0.24310100  0.38663500  1
  C  C31  1  0.75000000  0.74310100  0.11336500  1
  C  C32  1  0.75000000  0.52161900  0.53992500  1
  C  C33  1  0.75000000  0.02161900  0.96007500  1
  C  C34  1  0.25000000  0.47838100  0.46007500  1
  C  C35  1  0.25000000  0.97838100  0.03992500  1
