# generated using pymatgen
data_Cu(Ni2C5)2
_symmetry_space_group_name_H-M   'P 1'
_cell_length_a   14.00165921
_cell_length_b   14.00165921
_cell_length_c   14.00165921
_cell_angle_alpha   164.04905976
_cell_angle_beta   164.04905976
_cell_angle_gamma   22.63210776
_symmetry_Int_Tables_number   1
_chemical_formula_structural   Cu(Ni2C5)2
_chemical_formula_sum   'Cu1 Ni4 C10'
_cell_volume   207.26838837
_cell_formula_units_Z   1
loop_
 _symmetry_equiv_pos_site_id
 _symmetry_equiv_pos_as_xyz
  1  'x, y, z'
loop_
 _atom_site_type_symbol
 _atom_site_label
 _atom_site_symmetry_multiplicity
 _atom_site_fract_x
 _atom_site_fract_y
 _atom_site_fract_z
 _atom_site_occupancy
  Ni  Ni0  1  0.39848700  0.39848700  0.00000000  1
  Ni  Ni1  1  0.79948600  0.79948600  0.00000000  1
  Ni  Ni2  1  0.20051400  0.20051400  0.00000000  1
  Ni  Ni3  1  0.60151300  0.60151300  0.00000000  1
  Cu  Cu4  1  0.00000000  0.00000000  0.00000000  1
  C  C5  1  0.15100600  0.65100600  0.50000000  1
  C  C6  1  0.55162800  0.05162800  0.50000000  1
  C  C7  1  0.94837200  0.44837200  0.50000000  1
  C  C8  1  0.34899400  0.84899400  0.50000000  1
  C  C9  1  0.75000000  0.25000000  0.50000000  1
  C  C10  1  0.05162800  0.55162800  0.50000000  1
  C  C11  1  0.44837200  0.94837200  0.50000000  1
  C  C12  1  0.84899400  0.34899400  0.50000000  1
  C  C13  1  0.25000000  0.75000000  0.50000000  1
  C  C14  1  0.65100600  0.15100600  0.50000000  1
