# generated using pymatgen
data_Cu6Ni3C5
_symmetry_space_group_name_H-M   'P 1'
_cell_length_a   9.54705582
_cell_length_b   9.54548740
_cell_length_c   5.63565826
_cell_angle_alpha   90.50613694
_cell_angle_beta   89.20963652
_cell_angle_gamma   120.03121032
_symmetry_Int_Tables_number   1
_chemical_formula_structural   Cu6Ni3C5
_chemical_formula_sum   'Cu12 Ni6 C10'
_cell_volume   444.59418789
_cell_formula_units_Z   2
loop_
 _symmetry_equiv_pos_site_id
 _symmetry_equiv_pos_as_xyz
  1  'x, y, z'
loop_
 _atom_site_type_symbol
 _atom_site_label
 _atom_site_symmetry_multiplicity
 _atom_site_fract_x
 _atom_site_fract_y
 _atom_site_fract_z
 _atom_site_occupancy
  C  C0  1  0.67916600  0.59205500  0.25012800  1
  C  C1  1  0.32083200  0.40794200  0.74986200  1
  C  C2  1  0.59214000  0.91294500  0.74960800  1
  C  C3  1  0.08713600  0.67921500  0.75045700  1
  C  C4  1  0.91286400  0.32078200  0.24954700  1
  C  C5  1  0.40785900  0.08705800  0.25038500  1
  C  C6  1  0.99999800  0.00000500  0.00000000  1
  C  C7  1  0.00000200  0.00000100  0.50000200  1
  C  C8  1  0.33313500  0.66662400  0.25009900  1
  C  C9  1  0.66686100  0.33337300  0.74991100  1
  Ni  Ni10  1  0.76903000  0.95498400  0.23731000  1
  Ni  Ni11  1  0.23096900  0.04501300  0.76269200  1
  Ni  Ni12  1  0.04501500  0.81438100  0.25958500  1
  Ni  Ni13  1  0.18534000  0.23024100  0.25295400  1
  Ni  Ni14  1  0.81466400  0.76976200  0.74704700  1
  Ni  Ni15  1  0.95498400  0.18561400  0.74041700  1
  Cu  Cu16  1  0.47194100  0.63173000  0.02471600  1
  Cu  Cu17  1  0.52867000  0.36690300  0.52590400  1
  Cu  Cu18  1  0.36714900  0.83850000  0.02589700  1
  Cu  Cu19  1  0.16110600  0.52821400  0.02546700  1
  Cu  Cu20  1  0.83958400  0.47173000  0.52521800  1
  Cu  Cu21  1  0.63225900  0.16020200  0.52474600  1
  Cu  Cu22  1  0.52806000  0.36827200  0.97528400  1
  Cu  Cu23  1  0.47133600  0.63309900  0.47409800  1
  Cu  Cu24  1  0.63284600  0.16149900  0.97410300  1
  Cu  Cu25  1  0.83889700  0.47178800  0.97453500  1
  Cu  Cu26  1  0.16041700  0.52827200  0.47478500  1
  Cu  Cu27  1  0.36774100  0.83979600  0.47525400  1
