# generated using pymatgen
data_CuNiC29
_symmetry_space_group_name_H-M   'P 1'
_cell_length_a   8.49508257
_cell_length_b   8.84798040
_cell_length_c   4.40500952
_cell_angle_alpha   90.00000000
_cell_angle_beta   90.00000000
_cell_angle_gamma   90.00000000
_symmetry_Int_Tables_number   1
_chemical_formula_structural   CuNiC29
_chemical_formula_sum   'Cu1 Ni1 C29'
_cell_volume   331.09956312
_cell_formula_units_Z   1
loop_
 _symmetry_equiv_pos_site_id
 _symmetry_equiv_pos_as_xyz
  1  'x, y, z'
loop_
 _atom_site_type_symbol
 _atom_site_label
 _atom_site_symmetry_multiplicity
 _atom_site_fract_x
 _atom_site_fract_y
 _atom_site_fract_z
 _atom_site_occupancy
  Ni  Ni0  1  0.09954343  0.50000000  0.00000000  1
  Cu  Cu1  1  0.98776835  0.00000000  0.00000000  1
  C  C2  1  0.50001589  0.00000000  0.00000000  1
  C  C3  1  0.52090118  0.50000000  0.00000000  1
  C  C4  1  0.99332936  0.24199852  0.50000000  1
  C  C5  1  0.99332936  0.75800148  0.50000000  1
  C  C6  1  0.49682989  0.25229211  0.50000000  1
  C  C7  1  0.49682989  0.74770789  0.50000000  1
  C  C8  1  0.24207750  0.00000000  0.50000000  1
  C  C9  1  0.25125013  0.50000000  0.50000000  1
  C  C10  1  0.74927188  0.00000000  0.50000000  1
  C  C11  1  0.76598785  0.50000000  0.50000000  1
  C  C12  1  0.23986431  0.21623604  -0.00000000  1
  C  C13  1  0.23986431  0.78376396  0.00000000  1
  C  C14  1  0.76000850  0.25392934  0.00000000  1
  C  C15  1  0.76000850  0.74607066  -0.00000000  1
  C  C16  1  0.26514358  0.00000000  0.00000000  1
  C  C17  1  0.72744816  0.00000000  0.00000000  1
  C  C18  1  0.74609110  0.50000000  0.00000000  1
  C  C19  1  0.24535228  0.26058942  0.50000000  1
  C  C20  1  0.24535228  0.73941058  0.50000000  1
  C  C21  1  0.74357684  0.25190678  0.50000000  1
  C  C22  1  0.74357684  0.74809322  0.50000000  1
  C  C23  1  0.00087168  0.00000000  0.50000000  1
  C  C24  1  0.00030133  0.50000000  0.50000000  1
  C  C25  1  0.49075485  0.00000000  0.50000000  1
  C  C26  1  0.48515612  0.50000000  0.50000000  1
  C  C27  1  0.00040875  0.24234086  -0.00000000  1
  C  C28  1  0.00040875  0.75765914  0.00000000  1
  C  C29  1  0.47933857  0.26704852  -0.00000000  1
  C  C30  1  0.47933857  0.73295148  -0.00000000  1
