# generated using pymatgen
data_CuNiC12
_symmetry_space_group_name_H-M   'P 1'
_cell_length_a   8.45782300
_cell_length_b   8.45782300
_cell_length_c   13.41400600
_cell_angle_alpha   90.00000000
_cell_angle_beta   90.00000000
_cell_angle_gamma   90.00000000
_symmetry_Int_Tables_number   1
_chemical_formula_structural   CuNiC12
_chemical_formula_sum   'Cu4 Ni4 C48'
_cell_volume   959.56783264
_cell_formula_units_Z   4
loop_
 _symmetry_equiv_pos_site_id
 _symmetry_equiv_pos_as_xyz
  1  'x, y, z'
loop_
 _atom_site_type_symbol
 _atom_site_label
 _atom_site_symmetry_multiplicity
 _atom_site_fract_x
 _atom_site_fract_y
 _atom_site_fract_z
 _atom_site_occupancy
  C  C0  1  0.01319000  0.24436400  0.16829200  1
  C  C1  1  0.98681000  0.75563600  0.16829200  1
  C  C2  1  0.24436400  0.98681000  0.66829200  1
  C  C3  1  0.75563600  0.01319000  0.66829200  1
  C  C4  1  0.98681000  0.75563600  0.83170800  1
  C  C5  1  0.01319000  0.24436400  0.83170800  1
  C  C6  1  0.75563600  0.01319000  0.33170800  1
  C  C7  1  0.24436400  0.98681000  0.33170800  1
  C  C8  1  0.75536500  0.48324300  0.33135400  1
  C  C9  1  0.24463500  0.51675700  0.33135400  1
  C  C10  1  0.48324300  0.24463500  0.83135400  1
  C  C11  1  0.51675700  0.75536500  0.83135400  1
  C  C12  1  0.24463500  0.51675700  0.66864600  1
  C  C13  1  0.75536500  0.48324300  0.66864600  1
  C  C14  1  0.51675700  0.75536500  0.16864600  1
  C  C15  1  0.48324300  0.24463500  0.16864600  1
  Ni  Ni16  1  0.04272900  0.25207200  0.50000000  1
  Ni  Ni17  1  0.95727100  0.74792800  0.50000000  1
  Ni  Ni18  1  0.25207200  0.95727100  0.00000000  1
  Ni  Ni19  1  0.74792800  0.04272900  0.00000000  1
  Cu  Cu20  1  0.55613300  0.25291900  0.50000000  1
  Cu  Cu21  1  0.44386700  0.74708100  0.50000000  1
  Cu  Cu22  1  0.25291900  0.44386700  0.00000000  1
  Cu  Cu23  1  0.74708100  0.55613300  0.00000000  1
  C  C24  1  0.00000000  0.00000000  0.25000000  1
  C  C25  1  0.00000000  0.00000000  0.75000000  1
  C  C26  1  0.50000000  0.50000000  0.25000000  1
  C  C27  1  0.50000000  0.50000000  0.75000000  1
  C  C28  1  0.74343400  0.24946500  0.23020400  1
  C  C29  1  0.25656600  0.75053500  0.23020400  1
  C  C30  1  0.24946500  0.25656600  0.73020400  1
  C  C31  1  0.75053500  0.74343400  0.73020400  1
  C  C32  1  0.25656600  0.75053500  0.76979600  1
  C  C33  1  0.74343400  0.24946500  0.76979600  1
  C  C34  1  0.75053500  0.74343400  0.26979600  1
  C  C35  1  0.24946500  0.25656600  0.26979600  1
  C  C36  1  0.00000000  0.50000000  0.23880300  1
  C  C37  1  0.50000000  0.00000000  0.73880300  1
  C  C38  1  0.00000000  0.50000000  0.76119700  1
  C  C39  1  0.50000000  0.00000000  0.26119700  1
  C  C40  1  0.16406000  0.08599800  0.50000000  1
  C  C41  1  0.83594000  0.91400200  0.50000000  1
  C  C42  1  0.08599800  0.83594000  0.00000000  1
  C  C43  1  0.91400200  0.16406000  0.00000000  1
  C  C44  1  0.16455100  0.41752800  0.50000000  1
  C  C45  1  0.83544900  0.58247200  0.50000000  1
  C  C46  1  0.41752800  0.83544900  0.00000000  1
  C  C47  1  0.58247200  0.16455100  0.00000000  1
  C  C48  1  0.92820200  0.25203000  0.39482000  1
  C  C49  1  0.07179800  0.74797000  0.39482000  1
  C  C50  1  0.25203000  0.07179800  0.89482000  1
  C  C51  1  0.74797000  0.92820200  0.89482000  1
  C  C52  1  0.07179800  0.74797000  0.60518000  1
  C  C53  1  0.92820200  0.25203000  0.60518000  1
  C  C54  1  0.74797000  0.92820200  0.10518000  1
  C  C55  1  0.25203000  0.07179800  0.10518000  1
