# generated using pymatgen
data_Cu11(NiC)4
_symmetry_space_group_name_H-M   'P 1'
_cell_length_a   8.42528400
_cell_length_b   8.60599425
_cell_length_c   11.61733435
_cell_angle_alpha   68.32529209
_cell_angle_beta   84.70794966
_cell_angle_gamma   76.15961433
_symmetry_Int_Tables_number   1
_chemical_formula_structural   Cu11(NiC)4
_chemical_formula_sum   'Cu22 Ni8 C8'
_cell_volume   760.05667983
_cell_formula_units_Z   2
loop_
 _symmetry_equiv_pos_site_id
 _symmetry_equiv_pos_as_xyz
  1  'x, y, z'
loop_
 _atom_site_type_symbol
 _atom_site_label
 _atom_site_symmetry_multiplicity
 _atom_site_fract_x
 _atom_site_fract_y
 _atom_site_fract_z
 _atom_site_occupancy
  C  C0  1  0.17021500  0.30496700  0.64152300  1
  C  C1  1  0.82978500  0.69503300  0.35847700  1
  C  C2  1  0.39195700  0.35282000  0.88292800  1
  C  C3  1  0.60804300  0.64718000  0.11707200  1
  C  C4  1  0.21499100  0.64693400  0.03048800  1
  C  C5  1  0.78500900  0.35306600  0.96951200  1
  C  C6  1  0.51735500  0.74360900  0.80062200  1
  C  C7  1  0.48264500  0.25639100  0.19937800  1
  Ni  Ni8  1  0.26697000  0.64941000  0.82420700  1
  Ni  Ni9  1  0.73303000  0.35059000  0.17579300  1
  Ni  Ni10  1  0.40106300  0.83323700  0.96752800  1
  Ni  Ni11  1  0.59893700  0.16676300  0.03247200  1
  Ni  Ni12  1  0.75188500  0.65201500  0.92880800  1
  Ni  Ni13  1  0.24811500  0.34798500  0.07119200  1
  Ni  Ni14  1  0.62160200  0.46662700  0.78709800  1
  Ni  Ni15  1  0.37839800  0.53337300  0.21290200  1
  Cu  Cu16  1  0.31525200  0.26632000  0.79252900  1
  Cu  Cu17  1  0.68474800  0.73368000  0.20747100  1
  Cu  Cu18  1  0.01909500  0.74621000  0.05029600  1
  Cu  Cu19  1  0.98090500  0.25379000  0.94970400  1
  Cu  Cu20  1  0.53151000  0.90858800  0.66583300  1
  Cu  Cu21  1  0.46849000  0.09141200  0.33416700  1
  Cu  Cu22  1  0.33270200  0.45962900  0.53483600  1
  Cu  Cu23  1  0.66729800  0.54037100  0.46516400  1
  Cu  Cu24  1  0.44194000  0.34130300  0.51137800  1
  Cu  Cu25  1  0.55806000  0.65869700  0.48862200  1
  Cu  Cu26  1  0.04696800  0.35037900  0.43751300  1
  Cu  Cu27  1  0.95303200  0.64962100  0.56248700  1
  Cu  Cu28  1  0.14454800  0.06411600  0.69328300  1
  Cu  Cu29  1  0.85545200  0.93588400  0.30671700  1
  Cu  Cu30  1  0.96964200  0.47450900  0.65208400  1
  Cu  Cu31  1  0.03035800  0.52549100  0.34791600  1
  Cu  Cu32  1  0.95131300  0.26402100  0.42082900  1
  Cu  Cu33  1  0.04868700  0.73597900  0.57917100  1
  Cu  Cu34  1  0.98815200  0.06618500  0.76018800  1
  Cu  Cu35  1  0.01184800  0.93381500  0.23981200  1
  Cu  Cu36  1  0.11353500  0.99357500  0.27758700  1
  Cu  Cu37  1  0.88646500  0.00642500  0.72241300  1
