# generated using pymatgen
data_Cu3NiC
_symmetry_space_group_name_H-M   'P 1'
_cell_length_a   8.77557700
_cell_length_b   8.77557700
_cell_length_c   8.77557700
_cell_angle_alpha   90.00000000
_cell_angle_beta   90.00000000
_cell_angle_gamma   90.00000000
_symmetry_Int_Tables_number   1
_chemical_formula_structural   Cu3NiC
_chemical_formula_sum   'Cu24 Ni8 C8'
_cell_volume   675.81378122
_cell_formula_units_Z   8
loop_
 _symmetry_equiv_pos_site_id
 _symmetry_equiv_pos_as_xyz
  1  'x, y, z'
loop_
 _atom_site_type_symbol
 _atom_site_label
 _atom_site_symmetry_multiplicity
 _atom_site_fract_x
 _atom_site_fract_y
 _atom_site_fract_z
 _atom_site_occupancy
  Ni  Ni0  1  0.09366500  0.90633500  0.40633500  1
  Ni  Ni1  1  0.90633500  0.40633500  0.09366500  1
  Ni  Ni2  1  0.40633500  0.09366500  0.90633500  1
  Ni  Ni3  1  0.59366500  0.59366500  0.59366500  1
  Ni  Ni4  1  0.90633500  0.09366500  0.59366500  1
  Ni  Ni5  1  0.09366500  0.59366500  0.90633500  1
  Ni  Ni6  1  0.59366500  0.90633500  0.09366500  1
  Ni  Ni7  1  0.40633500  0.40633500  0.40633500  1
  Cu  Cu8  1  0.86245400  0.08665100  0.22251400  1
  Cu  Cu9  1  0.13754600  0.58665100  0.27748600  1
  Cu  Cu10  1  0.63754600  0.91334900  0.72251400  1
  Cu  Cu11  1  0.36245400  0.41334900  0.77748600  1
  Cu  Cu12  1  0.22251400  0.86245400  0.08665100  1
  Cu  Cu13  1  0.27748600  0.13754600  0.58665100  1
  Cu  Cu14  1  0.72251400  0.63754600  0.91334900  1
  Cu  Cu15  1  0.77748600  0.36245400  0.41334900  1
  Cu  Cu16  1  0.08665100  0.22251400  0.86245400  1
  Cu  Cu17  1  0.58665100  0.27748600  0.13754600  1
  Cu  Cu18  1  0.91334900  0.72251400  0.63754600  1
  Cu  Cu19  1  0.41334900  0.77748600  0.36245400  1
  Cu  Cu20  1  0.13754600  0.91334900  0.77748600  1
  Cu  Cu21  1  0.86245400  0.41334900  0.72251400  1
  Cu  Cu22  1  0.36245400  0.08665100  0.27748600  1
  Cu  Cu23  1  0.63754600  0.58665100  0.22251400  1
  Cu  Cu24  1  0.77748600  0.13754600  0.91334900  1
  Cu  Cu25  1  0.72251400  0.86245400  0.41334900  1
  Cu  Cu26  1  0.27748600  0.36245400  0.08665100  1
  Cu  Cu27  1  0.22251400  0.63754600  0.58665100  1
  Cu  Cu28  1  0.91334900  0.77748600  0.13754600  1
  Cu  Cu29  1  0.41334900  0.72251400  0.86245400  1
  Cu  Cu30  1  0.08665100  0.27748600  0.36245400  1
  Cu  Cu31  1  0.58665100  0.22251400  0.63754600  1
  C  C32  1  0.37682500  0.62317500  0.12317500  1
  C  C33  1  0.62317500  0.12317500  0.37682500  1
  C  C34  1  0.12317500  0.37682500  0.62317500  1
  C  C35  1  0.87682500  0.87682500  0.87682500  1
  C  C36  1  0.62317500  0.37682500  0.87682500  1
  C  C37  1  0.37682500  0.87682500  0.62317500  1
  C  C38  1  0.87682500  0.62317500  0.37682500  1
  C  C39  1  0.12317500  0.12317500  0.12317500  1
