# generated using pymatgen
data_Cu17Ni3C2
_symmetry_space_group_name_H-M   'P 1'
_cell_length_a   8.60389700
_cell_length_b   9.81075700
_cell_length_c   17.89036500
_cell_angle_alpha   90.00000000
_cell_angle_beta   90.00000000
_cell_angle_gamma   90.00000000
_symmetry_Int_Tables_number   1
_chemical_formula_structural   Cu17Ni3C2
_chemical_formula_sum   'Cu68 Ni12 C8'
_cell_volume   1510.13899718
_cell_formula_units_Z   4
loop_
 _symmetry_equiv_pos_site_id
 _symmetry_equiv_pos_as_xyz
  1  'x, y, z'
loop_
 _atom_site_type_symbol
 _atom_site_label
 _atom_site_symmetry_multiplicity
 _atom_site_fract_x
 _atom_site_fract_y
 _atom_site_fract_z
 _atom_site_occupancy
  C  C0  1  0.25000000  0.25000000  0.76406500  1
  C  C1  1  0.75000000  0.75000000  0.73593500  1
  C  C2  1  0.75000000  0.75000000  0.23593500  1
  C  C3  1  0.25000000  0.25000000  0.26406500  1
  C  C4  1  0.25000000  0.75000000  0.80209600  1
  C  C5  1  0.75000000  0.25000000  0.69790400  1
  C  C6  1  0.75000000  0.25000000  0.19790400  1
  C  C7  1  0.25000000  0.75000000  0.30209600  1
  Ni  Ni8  1  0.25000000  0.75000000  0.62234900  1
  Ni  Ni9  1  0.75000000  0.25000000  0.87765100  1
  Ni  Ni10  1  0.75000000  0.25000000  0.37765100  1
  Ni  Ni11  1  0.25000000  0.75000000  0.12234900  1
  Ni  Ni12  1  0.45208000  0.00233400  0.77660800  1
  Ni  Ni13  1  0.04792000  0.49766600  0.77660800  1
  Ni  Ni14  1  0.95208000  0.99766600  0.72339200  1
  Ni  Ni15  1  0.54792000  0.50233400  0.72339200  1
  Ni  Ni16  1  0.54792000  0.99766600  0.22339200  1
  Ni  Ni17  1  0.95208000  0.50233400  0.22339200  1
  Ni  Ni18  1  0.04792000  0.00233400  0.27660800  1
  Ni  Ni19  1  0.45208000  0.49766600  0.27660800  1
  Cu  Cu20  1  0.26609600  0.10174300  0.57332300  1
  Cu  Cu21  1  0.23390400  0.39825700  0.57332300  1
  Cu  Cu22  1  0.76609600  0.89825700  0.92667700  1
  Cu  Cu23  1  0.73390400  0.60174300  0.92667700  1
  Cu  Cu24  1  0.73390400  0.89825700  0.42667700  1
  Cu  Cu25  1  0.76609600  0.60174300  0.42667700  1
  Cu  Cu26  1  0.23390400  0.10174300  0.07332300  1
  Cu  Cu27  1  0.26609600  0.39825700  0.07332300  1
  Cu  Cu28  1  0.17285700  0.23913200  0.89127400  1
  Cu  Cu29  1  0.32714300  0.26086800  0.89127400  1
  Cu  Cu30  1  0.67285700  0.76086800  0.60872600  1
  Cu  Cu31  1  0.82714300  0.73913200  0.60872600  1
  Cu  Cu32  1  0.82714300  0.76086800  0.10872600  1
  Cu  Cu33  1  0.67285700  0.73913200  0.10872600  1
  Cu  Cu34  1  0.32714300  0.23913200  0.39127400  1
  Cu  Cu35  1  0.17285700  0.26086800  0.39127400  1
  Cu  Cu36  1  0.14431600  0.81924700  0.92499400  1
  Cu  Cu37  1  0.35568400  0.68075300  0.92499400  1
  Cu  Cu38  1  0.64431600  0.18075300  0.57500600  1
  Cu  Cu39  1  0.85568400  0.31924700  0.57500600  1
  Cu  Cu40  1  0.85568400  0.18075300  0.07500600  1
  Cu  Cu41  1  0.64431600  0.31924700  0.07500600  1
  Cu  Cu42  1  0.35568400  0.81924700  0.42499400  1
  Cu  Cu43  1  0.14431600  0.68075300  0.42499400  1
  Cu  Cu44  1  0.34780500  0.06184900  0.03752300  1
  Cu  Cu45  1  0.15219500  0.43815100  0.03752300  1
  Cu  Cu46  1  0.84780500  0.93815100  0.46247700  1
  Cu  Cu47  1  0.65219500  0.56184900  0.46247700  1
  Cu  Cu48  1  0.65219500  0.93815100  0.96247700  1
  Cu  Cu49  1  0.84780500  0.56184900  0.96247700  1
  Cu  Cu50  1  0.15219500  0.06184900  0.53752300  1
  Cu  Cu51  1  0.34780500  0.43815100  0.53752300  1
  Cu  Cu52  1  0.33989600  0.84029300  0.62509200  1
  Cu  Cu53  1  0.16010400  0.65970700  0.62509200  1
  Cu  Cu54  1  0.83989600  0.15970700  0.87490800  1
  Cu  Cu55  1  0.66010400  0.34029300  0.87490800  1
  Cu  Cu56  1  0.66010400  0.15970700  0.37490800  1
  Cu  Cu57  1  0.83989600  0.34029300  0.37490800  1
  Cu  Cu58  1  0.16010400  0.84029300  0.12509200  1
  Cu  Cu59  1  0.33989600  0.65970700  0.12509200  1
  Cu  Cu60  1  0.25000000  0.75000000  0.46776800  1
  Cu  Cu61  1  0.75000000  0.25000000  0.03223200  1
  Cu  Cu62  1  0.75000000  0.25000000  0.53223200  1
  Cu  Cu63  1  0.25000000  0.75000000  0.96776800  1
  Cu  Cu64  1  0.02300000  0.11209600  0.71345100  1
  Cu  Cu65  1  0.47700000  0.38790400  0.71345100  1
  Cu  Cu66  1  0.52300000  0.88790400  0.78654900  1
  Cu  Cu67  1  0.97700000  0.61209600  0.78654900  1
  Cu  Cu68  1  0.97700000  0.88790400  0.28654900  1
  Cu  Cu69  1  0.52300000  0.61209600  0.28654900  1
  Cu  Cu70  1  0.47700000  0.11209600  0.21345100  1
  Cu  Cu71  1  0.02300000  0.38790400  0.21345100  1
  Cu  Cu72  1  0.01588200  0.88404800  0.74388200  1
  Cu  Cu73  1  0.48411800  0.61595200  0.74388200  1
  Cu  Cu74  1  0.51588200  0.11595200  0.75611800  1
  Cu  Cu75  1  0.98411800  0.38404800  0.75611800  1
  Cu  Cu76  1  0.98411800  0.11595200  0.25611800  1
  Cu  Cu77  1  0.51588200  0.38404800  0.25611800  1
  Cu  Cu78  1  0.48411800  0.88404800  0.24388200  1
  Cu  Cu79  1  0.01588200  0.61595200  0.24388200  1
  Cu  Cu80  1  0.30147100  0.00207300  0.78754500  1
  Cu  Cu81  1  0.19852900  0.49792700  0.78754500  1
  Cu  Cu82  1  0.80147100  0.99792700  0.71245500  1
  Cu  Cu83  1  0.69852900  0.50207300  0.71245500  1
  Cu  Cu84  1  0.69852900  0.99792700  0.21245500  1
  Cu  Cu85  1  0.80147100  0.50207300  0.21245500  1
  Cu  Cu86  1  0.19852900  0.00207300  0.28754500  1
  Cu  Cu87  1  0.30147100  0.49792700  0.28754500  1
