# generated using pymatgen
data_Cu(NiC6)2
_symmetry_space_group_name_H-M   'P 1'
_cell_length_a   7.79531100
_cell_length_b   7.82308399
_cell_length_c   7.84186142
_cell_angle_alpha   109.60534278
_cell_angle_beta   109.11096893
_cell_angle_gamma   109.49922230
_symmetry_Int_Tables_number   1
_chemical_formula_structural   Cu(NiC6)2
_chemical_formula_sum   'Cu2 Ni4 C24'
_cell_volume   369.02805752
_cell_formula_units_Z   2
loop_
 _symmetry_equiv_pos_site_id
 _symmetry_equiv_pos_as_xyz
  1  'x, y, z'
loop_
 _atom_site_type_symbol
 _atom_site_label
 _atom_site_symmetry_multiplicity
 _atom_site_fract_x
 _atom_site_fract_y
 _atom_site_fract_z
 _atom_site_occupancy
  C  C0  1  0.01224600  0.72717000  0.98896200  1
  C  C1  1  0.26928900  0.28340400  0.71900600  1
  C  C2  1  0.70879100  0.98235800  0.01527100  1
  C  C3  1  0.00600600  0.00280700  0.27500700  1
  Ni  Ni4  1  0.50136200  0.74169100  0.73872400  1
  Ni  Ni5  1  0.50084000  0.26137100  0.25785000  1
  Ni  Ni6  1  0.75058800  0.48860000  0.75817800  1
  Ni  Ni7  1  0.75024100  0.24361200  0.50980500  1
  Cu  Cu8  1  0.24781300  0.75778500  0.48624900  1
  Cu  Cu9  1  0.24700500  0.51273100  0.24107900  1
  C  C10  1  0.67467500  0.62611500  0.35298400  1
  C  C11  1  0.37810100  0.04268400  0.95802900  1
  C  C12  1  0.95658000  0.33268500  0.00838200  1
  C  C13  1  0.96382600  0.99827400  0.66049700  1
  C  C14  1  0.98856700  0.22260500  0.00829500  1
  C  C15  1  0.28114300  0.58497000  0.41355100  1
  C  C16  1  0.26917600  0.30239900  0.28390800  1
  C  C17  1  0.26997700  0.71358700  0.69612400  1
  C  C18  1  0.42641400  0.71407000  0.00725300  1
  C  C19  1  0.42746200  0.99214000  0.28618700  1
  C  C20  1  0.23618500  0.01191200  0.98790800  1
  C  C21  1  0.74303900  0.45402900  0.00605000  1
  C  C22  1  0.77686400  0.76358700  0.23075000  1
  C  C23  1  0.54248600  0.52984100  0.72344600  1
  C  C24  1  0.54406500  0.28333300  0.46688100  1
  C  C25  1  0.72420700  0.24893800  0.74977600  1
  C  C26  1  0.74143600  0.99460500  0.54360300  1
  C  C27  1  0.01412400  0.72711800  0.53970200  1
  C  C28  1  0.01369900  0.46088500  0.27157600  1
  C  C29  1  0.99189100  0.99469200  0.77306700  1
