# generated using pymatgen
data_CuNiC2
_symmetry_space_group_name_H-M   'P 1'
_cell_length_a   6.13445800
_cell_length_b   7.25593000
_cell_length_c   5.81508300
_cell_angle_alpha   90.00000000
_cell_angle_beta   90.00000000
_cell_angle_gamma   90.00000000
_symmetry_Int_Tables_number   1
_chemical_formula_structural   CuNiC2
_chemical_formula_sum   'Cu4 Ni4 C8'
_cell_volume   258.83630985
_cell_formula_units_Z   4
loop_
 _symmetry_equiv_pos_site_id
 _symmetry_equiv_pos_as_xyz
  1  'x, y, z'
loop_
 _atom_site_type_symbol
 _atom_site_label
 _atom_site_symmetry_multiplicity
 _atom_site_fract_x
 _atom_site_fract_y
 _atom_site_fract_z
 _atom_site_occupancy
  Ni  Ni0  1  0.58338500  0.87576500  0.99766600  1
  Ni  Ni1  1  0.41661500  0.12423500  0.49766600  1
  Ni  Ni2  1  0.91661500  0.37576500  0.49766600  1
  Ni  Ni3  1  0.08338500  0.62423500  0.99766600  1
  Cu  Cu4  1  0.57652100  0.37422000  0.99967200  1
  Cu  Cu5  1  0.42347900  0.62578000  0.49967200  1
  Cu  Cu6  1  0.92347900  0.87422000  0.49967200  1
  Cu  Cu7  1  0.07652100  0.12578000  0.99967200  1
  C  C8  1  0.56522800  0.39059700  0.35875300  1
  C  C9  1  0.43477200  0.60940300  0.85875300  1
  C  C10  1  0.93477200  0.89059700  0.85875300  1
  C  C11  1  0.06522800  0.10940300  0.35875300  1
  C  C12  1  0.59804500  0.85928700  0.39390900  1
  C  C13  1  0.40195500  0.14071300  0.89390900  1
  C  C14  1  0.90195500  0.35928700  0.89390900  1
  C  C15  1  0.09804500  0.64071300  0.39390900  1
