# generated using pymatgen
data_Cu3Ni2C15
_symmetry_space_group_name_H-M   'P 1'
_cell_length_a   8.56288600
_cell_length_b   10.28765700
_cell_length_c   16.19894700
_cell_angle_alpha   90.00000000
_cell_angle_beta   90.00000000
_cell_angle_gamma   90.00000000
_symmetry_Int_Tables_number   1
_chemical_formula_structural   Cu3Ni2C15
_chemical_formula_sum   'Cu12 Ni8 C60'
_cell_volume   1426.99819148
_cell_formula_units_Z   4
loop_
 _symmetry_equiv_pos_site_id
 _symmetry_equiv_pos_as_xyz
  1  'x, y, z'
loop_
 _atom_site_type_symbol
 _atom_site_label
 _atom_site_symmetry_multiplicity
 _atom_site_fract_x
 _atom_site_fract_y
 _atom_site_fract_z
 _atom_site_occupancy
  C  C0  1  0.70175900  0.58042700  0.49696700  1
  C  C1  1  0.79824100  0.41957300  0.99696700  1
  C  C2  1  0.20175900  0.91957300  0.50303300  1
  C  C3  1  0.29824100  0.08042700  0.00303300  1
  Ni  Ni4  1  0.58614200  0.84027200  0.83489800  1
  Ni  Ni5  1  0.91385800  0.15972800  0.33489800  1
  Ni  Ni6  1  0.08614200  0.65972800  0.16510200  1
  Ni  Ni7  1  0.41385800  0.34027200  0.66510200  1
  Ni  Ni8  1  0.12423500  0.61043300  0.80379500  1
  Ni  Ni9  1  0.37576500  0.38956700  0.30379500  1
  Ni  Ni10  1  0.62423500  0.88956700  0.19620500  1
  Ni  Ni11  1  0.87576500  0.11043300  0.69620500  1
  Cu  Cu12  1  0.33664900  0.63472800  0.63539300  1
  Cu  Cu13  1  0.16335100  0.36527200  0.13539300  1
  Cu  Cu14  1  0.83664900  0.86527200  0.36460700  1
  Cu  Cu15  1  0.66335100  0.13472800  0.86460700  1
  Cu  Cu16  1  0.14120000  0.29526900  0.79036800  1
  Cu  Cu17  1  0.35880000  0.70473100  0.29036800  1
  Cu  Cu18  1  0.64120000  0.20473100  0.20963200  1
  Cu  Cu19  1  0.85880000  0.79526900  0.70963200  1
  Cu  Cu20  1  0.34698200  0.66973300  0.95533700  1
  Cu  Cu21  1  0.15301800  0.33026700  0.45533700  1
  Cu  Cu22  1  0.84698200  0.83026700  0.04466300  1
  Cu  Cu23  1  0.65301800  0.16973300  0.54466300  1
  C  C24  1  0.68627500  0.81570800  0.73362300  1
  C  C25  1  0.81372500  0.18429200  0.23362300  1
  C  C26  1  0.18627500  0.68429200  0.26637700  1
  C  C27  1  0.31372500  0.31570800  0.76637700  1
  C  C28  1  0.29060200  0.65265000  0.72592700  1
  C  C29  1  0.20939800  0.34735000  0.22592700  1
  C  C30  1  0.79060200  0.84735000  0.27407300  1
  C  C31  1  0.70939800  0.15265000  0.77407300  1
  C  C32  1  0.45043600  0.72435700  0.88629000  1
  C  C33  1  0.04956400  0.27564300  0.38629000  1
  C  C34  1  0.95043600  0.77564300  0.11371000  1
  C  C35  1  0.54956400  0.22435700  0.61371000  1
  C  C36  1  0.56356800  0.01146700  0.87847500  1
  C  C37  1  0.93643200  0.98853300  0.37847500  1
  C  C38  1  0.06356800  0.48853300  0.12152500  1
  C  C39  1  0.43643200  0.51146700  0.62152500  1
  C  C40  1  0.29722000  0.96165300  0.74655000  1
  C  C41  1  0.20278000  0.03834700  0.24655000  1
  C  C42  1  0.79722000  0.53834700  0.25345000  1
  C  C43  1  0.70278000  0.46165300  0.75345000  1
  C  C44  1  0.21433800  0.94840100  0.80816700  1
  C  C45  1  0.28566200  0.05159900  0.30816700  1
  C  C46  1  0.71433800  0.55159900  0.19183300  1
  C  C47  1  0.78566200  0.44840100  0.69183300  1
  C  C48  1  0.05376500  0.42679800  0.79827100  1
  C  C49  1  0.44623500  0.57320200  0.29827100  1
  C  C50  1  0.55376500  0.07320200  0.20172900  1
  C  C51  1  0.94623500  0.92679800  0.70172900  1
  C  C52  1  0.93826700  0.70680300  0.77388500  1
  C  C53  1  0.56173300  0.29319700  0.27388500  1
  C  C54  1  0.43826700  0.79319700  0.22611500  1
  C  C55  1  0.06173300  0.20680300  0.72611500  1
  C  C56  1  0.19149900  0.62289700  0.91801300  1
  C  C57  1  0.30850100  0.37710300  0.41801300  1
  C  C58  1  0.69149900  0.87710300  0.08198700  1
  C  C59  1  0.80850100  0.12289700  0.58198700  1
  C  C60  1  0.18780400  0.63618200  0.57913000  1
  C  C61  1  0.31219600  0.36381800  0.07913000  1
  C  C62  1  0.68780400  0.86381800  0.42087000  1
  C  C63  1  0.81219600  0.13618200  0.92087000  1
  C  C64  1  0.42070000  0.75379600  0.59811700  1
  C  C65  1  0.07930000  0.24620400  0.09811700  1
  C  C66  1  0.92070000  0.74620400  0.40188300  1
  C  C67  1  0.57930000  0.25379600  0.90188300  1
  C  C68  1  0.13134700  0.23193800  0.87679200  1
  C  C69  1  0.36865300  0.76806200  0.37679200  1
  C  C70  1  0.63134700  0.26806200  0.12320800  1
  C  C71  1  0.86865300  0.73193800  0.62320800  1
  C  C72  1  0.31351500  0.76517600  0.02677400  1
  C  C73  1  0.18648500  0.23482400  0.52677400  1
  C  C74  1  0.81351500  0.73482400  0.97322600  1
  C  C75  1  0.68648500  0.26517600  0.47322600  1
  C  C76  1  0.43982300  0.56010000  0.99988900  1
  C  C77  1  0.06017700  0.43990000  0.49988900  1
  C  C78  1  0.93982300  0.93990000  0.00011100  1
  C  C79  1  0.56017700  0.06010000  0.50011100  1
