# generated using pymatgen
data_Cu7NiC7
_symmetry_space_group_name_H-M   'P 1'
_cell_length_a   7.28355977
_cell_length_b   7.28355977
_cell_length_c   7.32011895
_cell_angle_alpha   87.66056123
_cell_angle_beta   87.66056123
_cell_angle_gamma   134.75863630
_symmetry_Int_Tables_number   1
_chemical_formula_structural   Cu7NiC7
_chemical_formula_sum   'Cu14 Ni2 C14'
_cell_volume   274.19070754
_cell_formula_units_Z   2
loop_
 _symmetry_equiv_pos_site_id
 _symmetry_equiv_pos_as_xyz
  1  'x, y, z'
loop_
 _atom_site_type_symbol
 _atom_site_label
 _atom_site_symmetry_multiplicity
 _atom_site_fract_x
 _atom_site_fract_y
 _atom_site_fract_z
 _atom_site_occupancy
  C  C0  1  0.86528000  0.13608800  0.00649200  1
  C  C1  1  0.13608800  0.86528000  0.50649200  1
  C  C2  1  0.96225100  0.18433600  0.65019700  1
  C  C3  1  0.18433600  0.96225100  0.15019700  1
  C  C4  1  0.03723000  0.43671700  0.72145600  1
  C  C5  1  0.43671700  0.03723000  0.22145600  1
  C  C6  1  0.43808900  0.26974500  0.70873600  1
  C  C7  1  0.26974500  0.43808900  0.20873600  1
  C  C8  1  0.40990300  0.34918600  0.51176100  1
  C  C9  1  0.34918600  0.40990300  0.01176100  1
  C  C10  1  0.39381300  0.73289300  0.98290100  1
  C  C11  1  0.73289300  0.39381300  0.48290100  1
  C  C12  1  0.51648400  0.89146900  0.78076400  1
  C  C13  1  0.89146900  0.51648400  0.28076400  1
  Ni  Ni14  1  0.84650500  0.61758500  0.92583700  1
  Ni  Ni15  1  0.61758500  0.84650500  0.42583700  1
  Cu  Cu16  1  0.00401300  0.66861600  0.75302700  1
  Cu  Cu17  1  0.66861600  0.00401300  0.25302700  1
  Cu  Cu18  1  0.47742100  0.86627100  0.56283800  1
  Cu  Cu19  1  0.86627100  0.47742100  0.06283800  1
  Cu  Cu20  1  0.57338300  0.45564600  0.88457400  1
  Cu  Cu21  1  0.45564600  0.57338300  0.38457400  1
  Cu  Cu22  1  0.86506900  0.95745400  0.49291900  1
  Cu  Cu23  1  0.95745400  0.86506900  0.99291900  1
  Cu  Cu24  1  0.03339900  0.29987500  0.75102400  1
  Cu  Cu25  1  0.29987500  0.03339900  0.25102400  1
  Cu  Cu26  1  0.40888600  0.22457400  0.57884400  1
  Cu  Cu27  1  0.22457400  0.40888600  0.07884400  1
  Cu  Cu28  1  0.52204500  0.90977300  0.91663000  1
  Cu  Cu29  1  0.90977300  0.52204500  0.41663000  1
