# generated using pymatgen
data_Cu2Ni2C
_symmetry_space_group_name_H-M   'P 1'
_cell_length_a   4.25092200
_cell_length_b   10.16417700
_cell_length_c   13.14184385
_cell_angle_alpha   85.38147959
_cell_angle_beta   90.00000000
_cell_angle_gamma   90.00000000
_symmetry_Int_Tables_number   1
_chemical_formula_structural   Cu2Ni2C
_chemical_formula_sum   'Cu8 Ni8 C4'
_cell_volume   565.97750073
_cell_formula_units_Z   4
loop_
 _symmetry_equiv_pos_site_id
 _symmetry_equiv_pos_as_xyz
  1  'x, y, z'
loop_
 _atom_site_type_symbol
 _atom_site_label
 _atom_site_symmetry_multiplicity
 _atom_site_fract_x
 _atom_site_fract_y
 _atom_site_fract_z
 _atom_site_occupancy
  C  C0  1  0.25000000  0.43895900  0.84602800  1
  C  C1  1  0.75000000  0.56104100  0.15397200  1
  C  C2  1  0.25000000  0.84008900  0.40885300  1
  C  C3  1  0.75000000  0.15991100  0.59114700  1
  Ni  Ni4  1  0.75000000  0.55227400  0.59496500  1
  Ni  Ni5  1  0.25000000  0.44772600  0.40503500  1
  Ni  Ni6  1  0.25000000  0.04378200  0.83509800  1
  Ni  Ni7  1  0.75000000  0.95621800  0.16490200  1
  Ni  Ni8  1  0.75000000  0.18901600  0.03543900  1
  Ni  Ni9  1  0.25000000  0.81098400  0.96456100  1
  Ni  Ni10  1  0.75000000  0.77223400  0.71687400  1
  Ni  Ni11  1  0.25000000  0.22776600  0.28312600  1
  Cu  Cu12  1  0.75000000  0.19972900  0.83394600  1
  Cu  Cu13  1  0.25000000  0.80027100  0.16605400  1
  Cu  Cu14  1  0.25000000  0.39215800  0.60685600  1
  Cu  Cu15  1  0.75000000  0.60784200  0.39314400  1
  Cu  Cu16  1  0.25000000  0.92141500  0.66166200  1
  Cu  Cu17  1  0.75000000  0.07858500  0.33833800  1
  Cu  Cu18  1  0.75000000  0.67062100  0.91059700  1
  Cu  Cu19  1  0.25000000  0.32937900  0.08940300  1
