# generated using pymatgen
data_CuNiC5
_symmetry_space_group_name_H-M   'P 1'
_cell_length_a   6.64862043
_cell_length_b   6.64862043
_cell_length_c   6.64862043
_cell_angle_alpha   147.60804005
_cell_angle_beta   147.60804005
_cell_angle_gamma   46.46431546
_symmetry_Int_Tables_number   1
_chemical_formula_structural   CuNiC5
_chemical_formula_sum   'Cu1 Ni1 C5'
_cell_volume   84.04278703
_cell_formula_units_Z   1
loop_
 _symmetry_equiv_pos_site_id
 _symmetry_equiv_pos_as_xyz
  1  'x, y, z'
loop_
 _atom_site_type_symbol
 _atom_site_label
 _atom_site_symmetry_multiplicity
 _atom_site_fract_x
 _atom_site_fract_y
 _atom_site_fract_z
 _atom_site_occupancy
  Ni  Ni0  1  0.64281400  0.64281400  0.00000000  1
  Cu  Cu1  1  0.35769300  0.35769300  0.00000000  1
  C  C2  1  0.00899600  0.00899600  0.00000000  1
  C  C3  1  0.83138400  0.83138400  0.00000000  1
  C  C4  1  0.16563200  0.16563200  0.00000000  1
  C  C5  1  0.49674100  0.99674100  0.50000000  1
  C  C6  1  0.99674100  0.49674100  0.50000000  1
