# generated using pymatgen
data_Cu9Ni3C20
_symmetry_space_group_name_H-M   'P 1'
_cell_length_a   8.10272400
_cell_length_b   8.10272400
_cell_length_c   14.73862300
_cell_angle_alpha   90.00000000
_cell_angle_beta   90.00000000
_cell_angle_gamma   90.00000000
_symmetry_Int_Tables_number   1
_chemical_formula_structural   Cu9Ni3C20
_chemical_formula_sum   'Cu9 Ni3 C20'
_cell_volume   967.65156214
_cell_formula_units_Z   1
loop_
 _symmetry_equiv_pos_site_id
 _symmetry_equiv_pos_as_xyz
  1  'x, y, z'
loop_
 _atom_site_type_symbol
 _atom_site_label
 _atom_site_symmetry_multiplicity
 _atom_site_fract_x
 _atom_site_fract_y
 _atom_site_fract_z
 _atom_site_occupancy
  C  C0  1  0.68066200  0.16614100  0.10603700  1
  C  C1  1  0.17116300  0.67156700  0.60940600  1
  C  C2  1  0.31933800  0.83385900  0.10603700  1
  C  C3  1  0.82883700  0.32843300  0.60940600  1
  C  C4  1  0.83385900  0.68066200  0.10603700  1
  C  C5  1  0.32843300  0.17116300  0.60940600  1
  C  C6  1  0.16614100  0.31933800  0.10603700  1
  C  C7  1  0.67156700  0.82883700  0.60940600  1
  C  C8  1  0.83385900  0.31933800  0.89396300  1
  C  C9  1  0.32843300  0.82883700  0.39059400  1
  C  C10  1  0.16614100  0.68066200  0.89396300  1
  C  C11  1  0.67156700  0.17116300  0.39059400  1
  C  C12  1  0.68066200  0.83385900  0.89396300  1
  C  C13  1  0.17116300  0.32843300  0.39059400  1
  C  C14  1  0.31933800  0.16614100  0.89396300  1
  C  C15  1  0.82883700  0.67156700  0.39059400  1
  C  C16  1  0.50000000  0.50000000  0.75349400  1
  C  C17  1  0.00000000  0.00000000  0.24724200  1
  C  C18  1  0.00000000  0.00000000  0.75275800  1
  C  C19  1  0.50000000  0.50000000  0.24650600  1
  Ni  Ni20  1  0.50000000  0.50000000  0.50000000  1
  Ni  Ni21  1  0.50000000  0.50000000  0.00000000  1
  Ni  Ni22  1  0.00000000  0.00000000  0.50000000  1
  Cu  Cu23  1  0.61282000  0.11501100  0.75123400  1
  Cu  Cu24  1  0.11501100  0.61282000  0.24876600  1
  Cu  Cu25  1  0.88498900  0.38718000  0.24876600  1
  Cu  Cu26  1  0.38718000  0.88498900  0.75123400  1
  Cu  Cu27  1  0.88498900  0.61282000  0.75123400  1
  Cu  Cu28  1  0.38718000  0.11501100  0.24876600  1
  Cu  Cu29  1  0.11501100  0.38718000  0.75123400  1
  Cu  Cu30  1  0.61282000  0.88498900  0.24876600  1
  Cu  Cu31  1  0.00000000  0.00000000  0.00000000  1
