# generated using pymatgen
data_Cu4Ni3C2
_symmetry_space_group_name_H-M   'P 1'
_cell_length_a   10.07653179
_cell_length_b   10.07653179
_cell_length_c   10.07653179
_cell_angle_alpha   156.10915607
_cell_angle_beta   156.10915607
_cell_angle_gamma   34.04098332
_symmetry_Int_Tables_number   1
_chemical_formula_structural   Cu4Ni3C2
_chemical_formula_sum   'Cu4 Ni3 C2'
_cell_volume   167.64791140
_cell_formula_units_Z   1
loop_
 _symmetry_equiv_pos_site_id
 _symmetry_equiv_pos_as_xyz
  1  'x, y, z'
loop_
 _atom_site_type_symbol
 _atom_site_label
 _atom_site_symmetry_multiplicity
 _atom_site_fract_x
 _atom_site_fract_y
 _atom_site_fract_z
 _atom_site_occupancy
  C  C0  1  0.12915500  0.12915500  0.00000000  1
  C  C1  1  0.87084500  0.87084500  0.00000000  1
  Ni  Ni2  1  0.42691800  0.42691800  0.00000000  1
  Ni  Ni3  1  0.57308200  0.57308200  0.00000000  1
  Ni  Ni4  1  0.25000000  0.75000000  0.50000000  1
  Cu  Cu5  1  0.50015000  0.00015000  0.50000000  1
  Cu  Cu6  1  0.99985000  0.49985000  0.50000000  1
  Cu  Cu7  1  0.30485100  0.30485100  0.00000000  1
  Cu  Cu8  1  0.69514900  0.69514900  0.00000000  1
