# generated using pymatgen
data_Cu6Ni8C
_symmetry_space_group_name_H-M   'P 1'
_cell_length_a   5.74464800
_cell_length_b   7.37581664
_cell_length_c   7.37608151
_cell_angle_alpha   119.99865528
_cell_angle_beta   90.00063601
_cell_angle_gamma   90.00002025
_symmetry_Int_Tables_number   1
_chemical_formula_structural   Cu6Ni8C
_chemical_formula_sum   'Cu6 Ni8 C1'
_cell_volume   270.66727997
_cell_formula_units_Z   1
loop_
 _symmetry_equiv_pos_site_id
 _symmetry_equiv_pos_as_xyz
  1  'x, y, z'
loop_
 _atom_site_type_symbol
 _atom_site_label
 _atom_site_symmetry_multiplicity
 _atom_site_fract_x
 _atom_site_fract_y
 _atom_site_fract_z
 _atom_site_occupancy
  C  C0  1  0.98008000  0.00000000  0.00000000  1
  Ni  Ni1  1  0.22720300  0.66667500  0.33335000  1
  Ni  Ni2  1  0.20164300  0.77586700  0.55173500  1
  Ni  Ni3  1  0.20164700  0.77587200  0.22415200  1
  Ni  Ni4  1  0.20164700  0.44828300  0.22415300  1
  Ni  Ni5  1  0.73286800  0.33332800  0.66665400  1
  Ni  Ni6  1  0.75846100  0.55173000  0.77585200  1
  Ni  Ni7  1  0.75846500  0.22412800  0.44825600  1
  Ni  Ni8  1  0.75846300  0.22412200  0.77585400  1
  Cu  Cu9  1  0.16826100  0.86636300  0.73272500  1
  Cu  Cu10  1  0.16826700  0.86635900  0.13364100  1
  Cu  Cu11  1  0.16826800  0.26728100  0.13364200  1
  Cu  Cu12  1  0.79185800  0.73271400  0.86635500  1
  Cu  Cu13  1  0.79186300  0.13363800  0.26727700  1
  Cu  Cu14  1  0.79185900  0.13364000  0.86635400  1
