# generated using pymatgen
data_Cu5Ni2C25
_symmetry_space_group_name_H-M   'P 1'
_cell_length_a   5.13077500
_cell_length_b   7.72248618
_cell_length_c   7.77340057
_cell_angle_alpha   81.01984161
_cell_angle_beta   84.04929522
_cell_angle_gamma   71.30969200
_symmetry_Int_Tables_number   1
_chemical_formula_structural   Cu5Ni2C25
_chemical_formula_sum   'Cu5 Ni2 C25'
_cell_volume   287.70734708
_cell_formula_units_Z   1
loop_
 _symmetry_equiv_pos_site_id
 _symmetry_equiv_pos_as_xyz
  1  'x, y, z'
loop_
 _atom_site_type_symbol
 _atom_site_label
 _atom_site_symmetry_multiplicity
 _atom_site_fract_x
 _atom_site_fract_y
 _atom_site_fract_z
 _atom_site_occupancy
  C  C0  1  0.50136600  0.68631800  0.93797800  1
  C  C1  1  0.49464700  0.93981000  0.19144300  1
  C  C2  1  0.50581000  0.56284700  0.31798300  1
  C  C3  1  0.50491000  0.80761600  0.56205900  1
  C  C4  1  0.49419000  0.43715300  0.68201700  1
  C  C5  1  0.49863400  0.31368200  0.06202200  1
  C  C6  1  0.49509000  0.19238400  0.43794100  1
  C  C7  1  0.50535300  0.06019000  0.80855700  1
  C  C8  1  0.00000000  0.50000000  0.50000000  1
  Ni  Ni9  1  0.00948900  0.74575200  0.74874600  1
  Ni  Ni10  1  0.99051100  0.25424800  0.25125400  1
  Cu  Cu11  1  0.00000000  0.00000000  0.00000000  1
  Cu  Cu12  1  0.00573700  0.62295800  0.13169300  1
  Cu  Cu13  1  0.99422400  0.86540700  0.37685400  1
  Cu  Cu14  1  0.00577600  0.13459300  0.62314600  1
  Cu  Cu15  1  0.99426300  0.37704200  0.86830700  1
  C  C16  1  0.78017600  0.59126600  0.73061100  1
  C  C17  1  0.78076700  0.82953400  0.96245000  1
  C  C18  1  0.76853200  0.45885900  0.09947500  1
  C  C19  1  0.76368600  0.73256300  0.33704700  1
  C  C20  1  0.76542500  0.33160000  0.45566300  1
  C  C21  1  0.76664200  0.20868000  0.84576000  1
  C  C22  1  0.77207400  0.09967700  0.21646500  1
  C  C23  1  0.78028900  0.95589100  0.60275100  1
  C  C24  1  0.23335800  0.79132000  0.15424000  1
  C  C25  1  0.21971100  0.04410900  0.39724900  1
  C  C26  1  0.23457500  0.66840000  0.54433700  1
  C  C27  1  0.22792600  0.90032300  0.78353500  1
  C  C28  1  0.23146800  0.54114100  0.90052500  1
  C  C29  1  0.21982400  0.40873400  0.26938900  1
  C  C30  1  0.23631400  0.26743700  0.66295300  1
  C  C31  1  0.21923300  0.17046600  0.03755000  1
