# generated using pymatgen
data_CuNi5C
_symmetry_space_group_name_H-M   'P 1'
_cell_length_a   6.76670912
_cell_length_b   6.72814751
_cell_length_c   12.45872816
_cell_angle_alpha   89.74110259
_cell_angle_beta   90.51485808
_cell_angle_gamma   120.18977303
_symmetry_Int_Tables_number   1
_chemical_formula_structural   CuNi5C
_chemical_formula_sum   'Cu6 Ni30 C6'
_cell_volume   490.25964531
_cell_formula_units_Z   6
loop_
 _symmetry_equiv_pos_site_id
 _symmetry_equiv_pos_as_xyz
  1  'x, y, z'
loop_
 _atom_site_type_symbol
 _atom_site_label
 _atom_site_symmetry_multiplicity
 _atom_site_fract_x
 _atom_site_fract_y
 _atom_site_fract_z
 _atom_site_occupancy
  Ni  Ni0  1  0.99740700  0.00000000  0.55012700  1
  Ni  Ni1  1  0.01193600  0.00000000  0.04727300  1
  Ni  Ni2  1  0.36406200  0.00000000  0.28555100  1
  Ni  Ni3  1  0.63286800  0.63913500  0.28033900  1
  Ni  Ni4  1  0.99373300  0.36086500  0.28033900  1
  Ni  Ni5  1  0.63322000  0.00000000  0.79155400  1
  Ni  Ni6  1  0.38233900  0.37842200  0.79587300  1
  Ni  Ni7  1  0.00391700  0.62157800  0.79587300  1
  Ni  Ni8  1  0.67976000  0.00000000  0.17418500  1
  Ni  Ni9  1  0.31924300  0.33030600  0.16941600  1
  Ni  Ni10  1  0.98893700  0.66969400  0.16941600  1
  Ni  Ni11  1  0.32873700  0.00000000  0.67979100  1
  Ni  Ni12  1  0.67508700  0.67299000  0.67971400  1
  Ni  Ni13  1  0.00209700  0.32701000  0.67971400  1
  Ni  Ni14  1  0.71916800  0.00000000  0.38267700  1
  Ni  Ni15  1  0.27924200  0.28294300  0.38235300  1
  Ni  Ni16  1  0.99629800  0.71705700  0.38235300  1
  Ni  Ni17  1  0.28183700  0.00000000  0.89145400  1
  Ni  Ni18  1  0.73878400  0.73785000  0.88456200  1
  Ni  Ni19  1  0.00093400  0.26215000  0.88456200  1
  Ni  Ni20  1  0.66288000  0.33106800  0.39248400  1
  Ni  Ni21  1  0.33181200  0.66893200  0.39248400  1
  Ni  Ni22  1  0.32343500  0.65479900  0.91358400  1
  Ni  Ni23  1  0.66863700  0.34520100  0.91358400  1
  Ni  Ni24  1  0.35758700  0.00000000  0.08927000  1
  Ni  Ni25  1  0.63547500  0.61847800  0.06913100  1
  Ni  Ni26  1  0.01699700  0.38152200  0.06913100  1
  Ni  Ni27  1  0.64871400  0.00000000  0.58961000  1
  Ni  Ni28  1  0.34680100  0.34975000  0.59190600  1
  Ni  Ni29  1  0.99705100  0.65025000  0.59190600  1
  Cu  Cu30  1  0.00361600  0.00000000  0.24777300  1
  Cu  Cu31  1  0.00649900  0.00000000  0.74952400  1
  Cu  Cu32  1  0.33912800  0.00000000  0.48580600  1
  Cu  Cu33  1  0.65437400  0.65384200  0.48352300  1
  Cu  Cu34  1  0.00053100  0.34615800  0.48352300  1
  Cu  Cu35  1  0.66422800  0.00000000  0.98538800  1
  C  C36  1  0.32798600  0.33396200  0.98251100  1
  C  C37  1  0.99402400  0.66603800  0.98251100  1
  C  C38  1  0.66188400  0.33675600  0.20793700  1
  C  C39  1  0.32512700  0.66324400  0.20793700  1
  C  C40  1  0.33590100  0.66819100  0.72367600  1
  C  C41  1  0.66771000  0.33180900  0.72367600  1
