# generated using pymatgen
data_CuNiC6
_symmetry_space_group_name_H-M   'P 1'
_cell_length_a   5.17441500
_cell_length_b   6.47527400
_cell_length_c   11.07307900
_cell_angle_alpha   90.00000000
_cell_angle_beta   90.00000000
_cell_angle_gamma   90.00000000
_symmetry_Int_Tables_number   1
_chemical_formula_structural   CuNiC6
_chemical_formula_sum   'Cu4 Ni4 C24'
_cell_volume   371.01187113
_cell_formula_units_Z   4
loop_
 _symmetry_equiv_pos_site_id
 _symmetry_equiv_pos_as_xyz
  1  'x, y, z'
loop_
 _atom_site_type_symbol
 _atom_site_label
 _atom_site_symmetry_multiplicity
 _atom_site_fract_x
 _atom_site_fract_y
 _atom_site_fract_z
 _atom_site_occupancy
  C  C0  1  0.30631100  0.25360000  0.07494500  1
  C  C1  1  0.19368900  0.25360000  0.57494500  1
  C  C2  1  0.69368900  0.75360000  0.92505500  1
  C  C3  1  0.80631100  0.75360000  0.42505500  1
  C  C4  1  0.18571800  0.00144200  0.33591100  1
  C  C5  1  0.81428200  0.50144200  0.66408900  1
  C  C6  1  0.68571800  0.50144200  0.16408900  1
  C  C7  1  0.31428200  0.00144200  0.83591100  1
  Ni  Ni8  1  0.31600400  0.49657200  0.83210600  1
  Ni  Ni9  1  0.68399600  0.99657200  0.16789400  1
  Ni  Ni10  1  0.81600400  0.99657200  0.66789400  1
  Ni  Ni11  1  0.18399600  0.49657200  0.33210600  1
  Cu  Cu12  1  0.81642400  0.24920100  0.91534900  1
  Cu  Cu13  1  0.68357600  0.24920100  0.41534900  1
  Cu  Cu14  1  0.18357600  0.74920100  0.08465100  1
  Cu  Cu15  1  0.31642400  0.74920100  0.58465100  1
  C  C16  1  0.16184500  0.25388200  0.91039500  1
  C  C17  1  0.33815500  0.25388200  0.41039500  1
  C  C18  1  0.83815500  0.75388200  0.08960500  1
  C  C19  1  0.66184500  0.75388200  0.58960500  1
  C  C20  1  0.70248300  0.47359800  0.83856700  1
  C  C21  1  0.79323000  0.02496600  0.33724600  1
  C  C22  1  0.29751700  0.97359800  0.16143300  1
  C  C23  1  0.20677000  0.52496600  0.66275400  1
  C  C24  1  0.29323000  0.52496600  0.16275400  1
  C  C25  1  0.20248300  0.97359800  0.66143300  1
  C  C26  1  0.70677000  0.02496600  0.83724600  1
  C  C27  1  0.79751700  0.47359800  0.33856700  1
  C  C28  1  0.70524200  0.24673900  0.06630200  1
  C  C29  1  0.79475800  0.24673900  0.56630200  1
  C  C30  1  0.29475800  0.74673900  0.93369800  1
  C  C31  1  0.20524200  0.74673900  0.43369800  1
