# generated using pymatgen
data_CuNi2C7
_symmetry_space_group_name_H-M   'P 1'
_cell_length_a   5.45559100
_cell_length_b   9.71675200
_cell_length_c   18.95129100
_cell_angle_alpha   90.00000000
_cell_angle_beta   90.00000000
_cell_angle_gamma   90.00000000
_symmetry_Int_Tables_number   1
_chemical_formula_structural   CuNi2C7
_chemical_formula_sum   'Cu8 Ni16 C56'
_cell_volume   1004.61977593
_cell_formula_units_Z   8
loop_
 _symmetry_equiv_pos_site_id
 _symmetry_equiv_pos_as_xyz
  1  'x, y, z'
loop_
 _atom_site_type_symbol
 _atom_site_label
 _atom_site_symmetry_multiplicity
 _atom_site_fract_x
 _atom_site_fract_y
 _atom_site_fract_z
 _atom_site_occupancy
  C  C0  1  0.61155400  0.14382300  0.37907500  1
  C  C1  1  0.38844600  0.85617700  0.62092500  1
  C  C2  1  0.61155400  0.64382300  0.12092500  1
  C  C3  1  0.11155400  0.85617700  0.12092500  1
  C  C4  1  0.88844600  0.14382300  0.87907500  1
  C  C5  1  0.38844600  0.35617700  0.87907500  1
  C  C6  1  0.11155400  0.35617700  0.37907500  1
  C  C7  1  0.88844600  0.64382300  0.62092500  1
  Ni  Ni8  1  0.56328200  0.66430400  0.77452800  1
  Ni  Ni9  1  0.75696800  0.83324100  0.47465700  1
  Ni  Ni10  1  0.74303200  0.83324100  0.97465700  1
  Ni  Ni11  1  0.93671800  0.16430400  0.22547200  1
  Ni  Ni12  1  0.06328200  0.33569600  0.72547200  1
  Ni  Ni13  1  0.43671800  0.83569600  0.27452800  1
  Ni  Ni14  1  0.25696800  0.66675900  0.47465700  1
  Ni  Ni15  1  0.75696800  0.33324100  0.02534300  1
  Ni  Ni16  1  0.74303200  0.33324100  0.52534300  1
  Ni  Ni17  1  0.93671800  0.66430400  0.27452800  1
  Ni  Ni18  1  0.43671800  0.33569600  0.22547200  1
  Ni  Ni19  1  0.56328200  0.16430400  0.72547200  1
  Ni  Ni20  1  0.24303200  0.16675900  0.52534300  1
  Ni  Ni21  1  0.06328200  0.83569600  0.77452800  1
  Ni  Ni22  1  0.24303200  0.66675900  0.97465700  1
  Ni  Ni23  1  0.25696800  0.16675900  0.02534300  1
  Cu  Cu24  1  0.38398000  0.00043400  0.87181700  1
  Cu  Cu25  1  0.61602000  0.99956600  0.12818300  1
  Cu  Cu26  1  0.88398000  0.99956600  0.62818300  1
  Cu  Cu27  1  0.11602000  0.00043400  0.37181700  1
  Cu  Cu28  1  0.38398000  0.50043400  0.62818300  1
  Cu  Cu29  1  0.61602000  0.49956600  0.37181700  1
  Cu  Cu30  1  0.88398000  0.49956600  0.87181700  1
  Cu  Cu31  1  0.11602000  0.50043400  0.12818300  1
  C  C32  1  0.91553400  0.51788000  0.31460300  1
  C  C33  1  0.32468900  0.03174000  0.07056300  1
  C  C34  1  0.08446600  0.48212000  0.68539700  1
  C  C35  1  0.75568600  0.35118900  0.93906100  1
  C  C36  1  0.25568600  0.14881100  0.93906100  1
  C  C37  1  0.96730500  0.21303400  0.04466300  1
  C  C38  1  0.95663800  0.65329700  0.18819100  1
  C  C39  1  0.04336200  0.84670300  0.68819100  1
  C  C40  1  0.75568600  0.85118900  0.56093900  1
  C  C41  1  0.95663800  0.15329700  0.31180900  1
  C  C42  1  0.41553400  0.48212000  0.18539700  1
  C  C43  1  0.74431400  0.35118900  0.43906100  1
  C  C44  1  0.67531100  0.96826000  0.92943700  1
  C  C45  1  0.45663800  0.84670300  0.18819100  1
  C  C46  1  0.58446600  0.01788000  0.68539700  1
  C  C47  1  0.32468900  0.53174000  0.42943700  1
  C  C48  1  0.41553400  0.98212000  0.31460300  1
  C  C49  1  0.17698400  0.75718400  0.29978100  1
  C  C50  1  0.32301600  0.75718400  0.79978100  1
  C  C51  1  0.53269500  0.71303400  0.95533700  1
  C  C52  1  0.74431400  0.85118900  0.06093900  1
  C  C53  1  0.54336200  0.65329700  0.68819100  1
  C  C54  1  0.82468900  0.46826000  0.07056300  1
  C  C55  1  0.17698400  0.25718400  0.20021900  1
  C  C56  1  0.24431400  0.14881100  0.43906100  1
  C  C57  1  0.54336200  0.15329700  0.81180900  1
  C  C58  1  0.67531100  0.46826000  0.57056300  1
  C  C59  1  0.25568600  0.64881100  0.56093900  1
  C  C60  1  0.17531100  0.53174000  0.92943700  1
  C  C61  1  0.67698400  0.74281600  0.29978100  1
  C  C62  1  0.08446600  0.98212000  0.81460300  1
  C  C63  1  0.82301600  0.74281600  0.79978100  1
  C  C64  1  0.82301600  0.24281600  0.70021900  1
  C  C65  1  0.82468900  0.96826000  0.42943700  1
  C  C66  1  0.24431400  0.64881100  0.06093900  1
  C  C67  1  0.17531100  0.03174000  0.57056300  1
  C  C68  1  0.32301600  0.25718400  0.70021900  1
  C  C69  1  0.03269500  0.78696600  0.95533700  1
  C  C70  1  0.46730500  0.78696600  0.45533700  1
  C  C71  1  0.67698400  0.24281600  0.20021900  1
  C  C72  1  0.46730500  0.28696600  0.04466300  1
  C  C73  1  0.53269500  0.21303400  0.54466300  1
  C  C74  1  0.03269500  0.28696600  0.54466300  1
  C  C75  1  0.45663800  0.34670300  0.31180900  1
  C  C76  1  0.58446600  0.51788000  0.81460300  1
  C  C77  1  0.96730500  0.71303400  0.45533700  1
  C  C78  1  0.04336200  0.34670300  0.81180900  1
  C  C79  1  0.91553400  0.01788000  0.18539700  1
