# generated using pymatgen
data_Cu2Ni2C11
_symmetry_space_group_name_H-M   'P 1'
_cell_length_a   5.80588945
_cell_length_b   5.80588945
_cell_length_c   8.10553548
_cell_angle_alpha   66.88105778
_cell_angle_beta   66.88105778
_cell_angle_gamma   61.23283485
_symmetry_Int_Tables_number   1
_chemical_formula_structural   Cu2Ni2C11
_chemical_formula_sum   'Cu2 Ni2 C11'
_cell_volume   213.12351889
_cell_formula_units_Z   1
loop_
 _symmetry_equiv_pos_site_id
 _symmetry_equiv_pos_as_xyz
  1  'x, y, z'
loop_
 _atom_site_type_symbol
 _atom_site_label
 _atom_site_symmetry_multiplicity
 _atom_site_fract_x
 _atom_site_fract_y
 _atom_site_fract_z
 _atom_site_occupancy
  C  C0  1  0.00000000  0.00000000  0.00000000  1
  Ni  Ni1  1  0.00000000  0.50000000  0.50000000  1
  Ni  Ni2  1  0.50000000  0.00000000  0.50000000  1
  Cu  Cu3  1  0.57120800  0.57120800  0.23505900  1
  Cu  Cu4  1  0.42879200  0.42879200  0.76494100  1
  C  C5  1  0.18917400  0.18917400  0.42253300  1
  C  C6  1  0.81082600  0.81082600  0.57746700  1
  C  C7  1  0.21066200  0.70014500  0.25731900  1
  C  C8  1  0.70014500  0.21066200  0.25731900  1
  C  C9  1  0.78933800  0.29985500  0.74268100  1
  C  C10  1  0.29985500  0.78933800  0.74268100  1
  C  C11  1  0.71826000  0.71826000  0.01209700  1
  C  C12  1  0.28174000  0.28174000  0.98790300  1
  C  C13  1  0.65818500  0.65818500  0.39858800  1
  C  C14  1  0.34181500  0.34181500  0.60141200  1
