# generated using pymatgen
data_CuNiC6
_symmetry_space_group_name_H-M   'P 1'
_cell_length_a   6.18918504
_cell_length_b   6.57290313
_cell_length_c   15.36028000
_cell_angle_alpha   90.00000000
_cell_angle_beta   90.00000000
_cell_angle_gamma   113.06851499
_symmetry_Int_Tables_number   1
_chemical_formula_structural   CuNiC6
_chemical_formula_sum   'Cu4 Ni4 C24'
_cell_volume   574.90369924
_cell_formula_units_Z   4
loop_
 _symmetry_equiv_pos_site_id
 _symmetry_equiv_pos_as_xyz
  1  'x, y, z'
loop_
 _atom_site_type_symbol
 _atom_site_label
 _atom_site_symmetry_multiplicity
 _atom_site_fract_x
 _atom_site_fract_y
 _atom_site_fract_z
 _atom_site_occupancy
  Ni  Ni0  1  0.25005000  0.86078100  0.66428400  1
  Ni  Ni1  1  0.75005000  0.36078100  0.83571600  1
  Ni  Ni2  1  0.74995000  0.13921900  0.33571600  1
  Ni  Ni3  1  0.24995000  0.63921900  0.16428400  1
  Cu  Cu4  1  0.32545600  0.40705500  0.66005500  1
  Cu  Cu5  1  0.82545600  0.90705500  0.83994500  1
  Cu  Cu6  1  0.67454400  0.59294500  0.33994500  1
  Cu  Cu7  1  0.17454400  0.09294500  0.16005500  1
  C  C8  1  0.16158300  0.16924000  0.60970400  1
  C  C9  1  0.66158300  0.66924000  0.89029600  1
  C  C10  1  0.83841700  0.83076000  0.39029600  1
  C  C11  1  0.33841700  0.33076000  0.10970400  1
  C  C12  1  0.44421000  0.62706400  0.59558600  1
  C  C13  1  0.94421000  0.12706400  0.90441400  1
  C  C14  1  0.55579000  0.37293600  0.40441400  1
  C  C15  1  0.05579000  0.87293600  0.09558600  1
  C  C16  1  0.16616400  0.48811300  0.73143700  1
  C  C17  1  0.66616400  0.98811300  0.76856300  1
  C  C18  1  0.83383600  0.51188700  0.26856300  1
  C  C19  1  0.33383600  0.01188700  0.23143700  1
  C  C20  1  0.53430300  0.34463200  0.71107900  1
  C  C21  1  0.03430300  0.84463200  0.78892100  1
  C  C22  1  0.46569700  0.65536800  0.28892100  1
  C  C23  1  0.96569700  0.15536800  0.21107900  1
  C  C24  1  0.97574500  0.66915200  0.57866100  1
  C  C25  1  0.47574500  0.16915200  0.92133900  1
  C  C26  1  0.02425500  0.33084800  0.42133900  1
  C  C27  1  0.52425500  0.83084800  0.07866100  1
  C  C28  1  0.40558000  0.95540300  0.47966200  1
  C  C29  1  0.90558000  0.45540300  0.02033800  1
  C  C30  1  0.59442000  0.04459700  0.52033800  1
  C  C31  1  0.09442000  0.54459700  0.97966200  1
