# generated using pymatgen
data_Cu3NiC15
_symmetry_space_group_name_H-M   'P 1'
_cell_length_a   7.75605700
_cell_length_b   7.73254700
_cell_length_c   7.64709400
_cell_angle_alpha   90.00000000
_cell_angle_beta   90.00000000
_cell_angle_gamma   90.00000000
_symmetry_Int_Tables_number   1
_chemical_formula_structural   Cu3NiC15
_chemical_formula_sum   'Cu6 Ni2 C30'
_cell_volume   458.62739128
_cell_formula_units_Z   2
loop_
 _symmetry_equiv_pos_site_id
 _symmetry_equiv_pos_as_xyz
  1  'x, y, z'
loop_
 _atom_site_type_symbol
 _atom_site_label
 _atom_site_symmetry_multiplicity
 _atom_site_fract_x
 _atom_site_fract_y
 _atom_site_fract_z
 _atom_site_occupancy
  C  C0  1  0.24647500  0.25387200  0.24447800  1
  C  C1  1  0.25035900  0.26013300  0.71822500  1
  C  C2  1  0.24647500  0.74612800  0.24447800  1
  C  C3  1  0.25035900  0.73986700  0.71822500  1
  C  C4  1  0.75352500  0.25387200  0.24447800  1
  C  C5  1  0.74964100  0.26013300  0.71822500  1
  C  C6  1  0.75352500  0.74612800  0.24447800  1
  C  C7  1  0.74964100  0.73986700  0.71822500  1
  Ni  Ni8  1  0.00000000  0.00000000  0.98554200  1
  Ni  Ni9  1  0.50000000  0.00000000  0.01328100  1
  Cu  Cu10  1  0.00000000  0.00000000  0.49447700  1
  Cu  Cu11  1  0.00000000  0.50000000  0.00860400  1
  Cu  Cu12  1  0.00000000  0.50000000  0.49439700  1
  Cu  Cu13  1  0.50000000  0.00000000  0.49553000  1
  Cu  Cu14  1  0.50000000  0.50000000  0.99616900  1
  Cu  Cu15  1  0.50000000  0.50000000  0.50136600  1
  C  C16  1  0.00000000  0.00000000  0.75569100  1
  C  C17  1  0.00000000  0.50000000  0.25232000  1
  C  C18  1  0.00000000  0.50000000  0.75295100  1
  C  C19  1  0.50000000  0.00000000  0.25486200  1
  C  C20  1  0.50000000  0.00000000  0.75380300  1
  C  C21  1  0.50000000  0.50000000  0.74996300  1
  C  C22  1  0.24123100  0.00000000  0.04185600  1
  C  C23  1  0.24656900  0.00000000  0.48653900  1
  C  C24  1  0.25713500  0.50000000  0.03205600  1
  C  C25  1  0.25331200  0.50000000  0.49187100  1
  C  C26  1  0.75876900  0.00000000  0.04185600  1
  C  C27  1  0.75343100  0.00000000  0.48653900  1
  C  C28  1  0.74286500  0.50000000  0.03205600  1
  C  C29  1  0.74668800  0.50000000  0.49187100  1
  C  C30  1  0.00000000  0.24742300  0.02487400  1
  C  C31  1  0.00000000  0.24819500  0.48756900  1
  C  C32  1  0.00000000  0.75257700  0.02487400  1
  C  C33  1  0.00000000  0.75180500  0.48756900  1
  C  C34  1  0.50000000  0.25435600  0.02427600  1
  C  C35  1  0.50000000  0.25622300  0.48107600  1
  C  C36  1  0.50000000  0.74564400  0.02427600  1
  C  C37  1  0.50000000  0.74377700  0.48107600  1
