# generated using pymatgen
data_CuNi7C6
_symmetry_space_group_name_H-M   'P 1'
_cell_length_a   10.94326600
_cell_length_b   6.14552300
_cell_length_c   15.00930500
_cell_angle_alpha   90.00000000
_cell_angle_beta   90.00000000
_cell_angle_gamma   90.00000000
_symmetry_Int_Tables_number   1
_chemical_formula_structural   CuNi7C6
_chemical_formula_sum   'Cu4 Ni28 C24'
_cell_volume   1009.40717420
_cell_formula_units_Z   4
loop_
 _symmetry_equiv_pos_site_id
 _symmetry_equiv_pos_as_xyz
  1  'x, y, z'
loop_
 _atom_site_type_symbol
 _atom_site_label
 _atom_site_symmetry_multiplicity
 _atom_site_fract_x
 _atom_site_fract_y
 _atom_site_fract_z
 _atom_site_occupancy
  Ni  Ni0  1  0.99789900  0.81300800  0.05344800  1
  Ni  Ni1  1  0.50210100  0.68699200  0.55344800  1
  Ni  Ni2  1  0.49789900  0.68699200  0.94655200  1
  Ni  Ni3  1  0.00210100  0.81300800  0.44655200  1
  Ni  Ni4  1  0.00210100  0.18699200  0.94655200  1
  Ni  Ni5  1  0.49789900  0.31300800  0.44655200  1
  Ni  Ni6  1  0.50210100  0.31300800  0.05344800  1
  Ni  Ni7  1  0.99789900  0.18699200  0.55344800  1
  Ni  Ni8  1  0.23069800  0.64034200  0.64117900  1
  Ni  Ni9  1  0.26930200  0.85965800  0.14117900  1
  Ni  Ni10  1  0.73069800  0.85965800  0.35882100  1
  Ni  Ni11  1  0.76930200  0.64034200  0.85882100  1
  Ni  Ni12  1  0.76930200  0.35965800  0.35882100  1
  Ni  Ni13  1  0.73069800  0.14034200  0.85882100  1
  Ni  Ni14  1  0.26930200  0.14034200  0.64117900  1
  Ni  Ni15  1  0.23069800  0.35965800  0.14117900  1
  Ni  Ni16  1  0.22933200  0.62605200  0.90927700  1
  Ni  Ni17  1  0.27066800  0.87394800  0.40927700  1
  Ni  Ni18  1  0.72933200  0.87394800  0.09072300  1
  Ni  Ni19  1  0.77066800  0.62605200  0.59072300  1
  Ni  Ni20  1  0.77066800  0.37394800  0.09072300  1
  Ni  Ni21  1  0.72933200  0.12605200  0.59072300  1
  Ni  Ni22  1  0.27066800  0.12605200  0.90927700  1
  Ni  Ni23  1  0.22933200  0.37394800  0.40927700  1
  Ni  Ni24  1  0.00000000  0.34768800  0.75000000  1
  Ni  Ni25  1  0.50000000  0.15231200  0.25000000  1
  Ni  Ni26  1  0.00000000  0.65231200  0.25000000  1
  Ni  Ni27  1  0.50000000  0.84768800  0.75000000  1
  Cu  Cu28  1  0.00000000  0.84613400  0.75000000  1
  Cu  Cu29  1  0.50000000  0.65386600  0.25000000  1
  Cu  Cu30  1  0.00000000  0.15386600  0.25000000  1
  Cu  Cu31  1  0.50000000  0.34613400  0.75000000  1
  C  C32  1  0.12516600  0.63263100  0.77352900  1
  C  C33  1  0.37483400  0.86736900  0.27352900  1
  C  C34  1  0.62516600  0.86736900  0.22647100  1
  C  C35  1  0.87483400  0.63263100  0.72647100  1
  C  C36  1  0.87483400  0.36736900  0.22647100  1
  C  C37  1  0.62516600  0.13263100  0.72647100  1
  C  C38  1  0.37483400  0.13263100  0.77352900  1
  C  C39  1  0.12516600  0.36736900  0.27352900  1
  C  C40  1  0.16712100  0.38055600  0.55482600  1
  C  C41  1  0.33287900  0.11944400  0.05482600  1
  C  C42  1  0.66712100  0.11944400  0.44517400  1
  C  C43  1  0.83287900  0.38055600  0.94517400  1
  C  C44  1  0.83287900  0.61944400  0.44517400  1
  C  C45  1  0.66712100  0.88055600  0.94517400  1
  C  C46  1  0.33287900  0.88055600  0.55482600  1
  C  C47  1  0.16712100  0.61944400  0.05482600  1
  C  C48  1  0.42218500  0.55444100  0.67814400  1
  C  C49  1  0.07781500  0.94555900  0.17814400  1
  C  C50  1  0.92218500  0.94555900  0.32185600  1
  C  C51  1  0.57781500  0.55444100  0.82185600  1
  C  C52  1  0.57781500  0.44555900  0.32185600  1
  C  C53  1  0.92218500  0.05444100  0.82185600  1
  C  C54  1  0.07781500  0.05444100  0.67814400  1
  C  C55  1  0.42218500  0.44555900  0.17814400  1
