# generated using pymatgen
data_CuNi
_symmetry_space_group_name_H-M   'P 1'
_cell_length_a   7.61096700
_cell_length_b   10.73528600
_cell_length_c   18.94664700
_cell_angle_alpha   90.00000000
_cell_angle_beta   90.00000000
_cell_angle_gamma   90.00000000
_symmetry_Int_Tables_number   1
_chemical_formula_structural   CuNi
_chemical_formula_sum   'Cu32 Ni32'
_cell_volume   1548.05298687
_cell_formula_units_Z   32
loop_
 _symmetry_equiv_pos_site_id
 _symmetry_equiv_pos_as_xyz
  1  'x, y, z'
loop_
 _atom_site_type_symbol
 _atom_site_label
 _atom_site_symmetry_multiplicity
 _atom_site_fract_x
 _atom_site_fract_y
 _atom_site_fract_z
 _atom_site_occupancy
  Ni  Ni0  1  0.87986600  0.65409800  0.86726100  1
  Ni  Ni1  1  0.12013400  0.34590200  0.36726100  1
  Ni  Ni2  1  0.87986600  0.84590200  0.36726100  1
  Ni  Ni3  1  0.12013400  0.15409800  0.86726100  1
  Ni  Ni4  1  0.61428900  0.66196200  0.54987300  1
  Ni  Ni5  1  0.38571100  0.33803800  0.04987300  1
  Ni  Ni6  1  0.61428900  0.83803800  0.04987300  1
  Ni  Ni7  1  0.38571100  0.16196200  0.54987300  1
  Ni  Ni8  1  0.37657200  0.86319400  0.66808300  1
  Ni  Ni9  1  0.62342800  0.13680600  0.16808300  1
  Ni  Ni10  1  0.37657200  0.63680600  0.16808300  1
  Ni  Ni11  1  0.62342800  0.36319400  0.66808300  1
  Ni  Ni12  1  0.11790600  0.86088700  0.75381700  1
  Ni  Ni13  1  0.88209400  0.13911300  0.25381700  1
  Ni  Ni14  1  0.11790600  0.63911300  0.25381700  1
  Ni  Ni15  1  0.88209400  0.36088700  0.75381700  1
  Ni  Ni16  1  0.62896600  0.87496800  0.75785600  1
  Ni  Ni17  1  0.37103400  0.12503200  0.25785600  1
  Ni  Ni18  1  0.62896600  0.62503200  0.25785600  1
  Ni  Ni19  1  0.37103400  0.37496800  0.75785600  1
  Ni  Ni20  1  0.86966300  0.87903800  0.66231100  1
  Ni  Ni21  1  0.13033700  0.12096200  0.16231100  1
  Ni  Ni22  1  0.86966300  0.62096200  0.16231100  1
  Ni  Ni23  1  0.13033700  0.37903800  0.66231100  1
  Ni  Ni24  1  0.38595100  0.85440900  0.42448400  1
  Ni  Ni25  1  0.61404900  0.14559100  0.92448400  1
  Ni  Ni26  1  0.38595100  0.64559100  0.92448400  1
  Ni  Ni27  1  0.61404900  0.35440900  0.42448400  1
  Ni  Ni28  1  0.10921400  0.64905800  0.48800900  1
  Ni  Ni29  1  0.89078600  0.35094200  0.98800900  1
  Ni  Ni30  1  0.10921400  0.85094200  0.98800900  1
  Ni  Ni31  1  0.89078600  0.14905800  0.48800900  1
  Cu  Cu32  1  0.88205900  0.85612100  0.90403800  1
  Cu  Cu33  1  0.11794100  0.14387900  0.40403800  1
  Cu  Cu34  1  0.88205900  0.64387900  0.40403800  1
  Cu  Cu35  1  0.11794100  0.35612100  0.90403800  1
  Cu  Cu36  1  0.13555400  0.85822000  0.49889100  1
  Cu  Cu37  1  0.86444600  0.14178000  0.99889100  1
  Cu  Cu38  1  0.13555400  0.64178000  0.99889100  1
  Cu  Cu39  1  0.86444600  0.35822000  0.49889100  1
  Cu  Cu40  1  0.60941300  0.86246000  0.51000300  1
  Cu  Cu41  1  0.39058700  0.13754000  0.01000300  1
  Cu  Cu42  1  0.60941300  0.63754000  0.01000300  1
  Cu  Cu43  1  0.39058700  0.36246000  0.51000300  1
  Cu  Cu44  1  0.86195900  0.68014200  0.62037500  1
  Cu  Cu45  1  0.13804100  0.31985800  0.12037500  1
  Cu  Cu46  1  0.86195900  0.81985800  0.12037500  1
  Cu  Cu47  1  0.13804100  0.18014200  0.62037500  1
  Cu  Cu48  1  0.10962800  0.65722100  0.78604900  1
  Cu  Cu49  1  0.89037200  0.34277900  0.28604900  1
  Cu  Cu50  1  0.10962800  0.84277900  0.28604900  1
  Cu  Cu51  1  0.89037200  0.15722100  0.78604900  1
  Cu  Cu52  1  0.38514600  0.66188800  0.63116300  1
  Cu  Cu53  1  0.61485400  0.33811200  0.13116300  1
  Cu  Cu54  1  0.38514600  0.83811200  0.13116300  1
  Cu  Cu55  1  0.61485400  0.16188800  0.63116300  1
  Cu  Cu56  1  0.63542600  0.67306100  0.79442300  1
  Cu  Cu57  1  0.36457400  0.32693900  0.29442300  1
  Cu  Cu58  1  0.63542600  0.82693900  0.29442300  1
  Cu  Cu59  1  0.36457400  0.17306100  0.79442300  1
  Cu  Cu60  1  0.35942300  0.64467400  0.41382300  1
  Cu  Cu61  1  0.64057700  0.35532600  0.91382300  1
  Cu  Cu62  1  0.35942300  0.85532600  0.91382300  1
  Cu  Cu63  1  0.64057700  0.14467400  0.41382300  1
