# generated using pymatgen
data_CuNi11C
_symmetry_space_group_name_H-M   'P 1'
_cell_length_a   4.69509963
_cell_length_b   6.48228948
_cell_length_c   6.48228948
_cell_angle_alpha   97.81469939
_cell_angle_beta   111.29992983
_cell_angle_gamma   68.70007017
_symmetry_Int_Tables_number   1
_chemical_formula_structural   CuNi11C
_chemical_formula_sum   'Cu1 Ni11 C1'
_cell_volume   171.25427757
_cell_formula_units_Z   1
loop_
 _symmetry_equiv_pos_site_id
 _symmetry_equiv_pos_as_xyz
  1  'x, y, z'
loop_
 _atom_site_type_symbol
 _atom_site_label
 _atom_site_symmetry_multiplicity
 _atom_site_fract_x
 _atom_site_fract_y
 _atom_site_fract_z
 _atom_site_occupancy
  C  C0  1  0.00631700  0.99367400  0.00632600  1
  Ni  Ni1  1  0.73180500  0.76838500  0.23161500  1
  Ni  Ni2  1  0.27048400  0.22934200  0.77065800  1
  Ni  Ni3  1  0.49814200  0.77651500  0.77302700  1
  Ni  Ni4  1  0.49814200  0.22697300  0.22348500  1
  Ni  Ni5  1  0.50052800  0.99821400  0.50004900  1
  Ni  Ni6  1  0.00146300  0.99812900  0.50008600  1
  Ni  Ni7  1  0.50052800  0.49995100  0.00178600  1
  Ni  Ni8  1  0.00146300  0.49991400  0.00187100  1
  Ni  Ni9  1  0.35922000  0.64047700  0.35952300  1
  Ni  Ni10  1  0.99920100  0.36009600  0.35847700  1
  Ni  Ni11  1  0.99920100  0.64152300  0.63990400  1
  Cu  Cu12  1  0.63350700  0.36680800  0.63319200  1
