# generated using pymatgen
data_Cu3Ni2C11
_symmetry_space_group_name_H-M   'P 1'
_cell_length_a   6.09955443
_cell_length_b   6.09955443
_cell_length_c   7.35421133
_cell_angle_alpha   83.46677018
_cell_angle_beta   83.46677018
_cell_angle_gamma   54.83094692
_symmetry_Int_Tables_number   1
_chemical_formula_structural   Cu3Ni2C11
_chemical_formula_sum   'Cu3 Ni2 C11'
_cell_volume   221.81948821
_cell_formula_units_Z   1
loop_
 _symmetry_equiv_pos_site_id
 _symmetry_equiv_pos_as_xyz
  1  'x, y, z'
loop_
 _atom_site_type_symbol
 _atom_site_label
 _atom_site_symmetry_multiplicity
 _atom_site_fract_x
 _atom_site_fract_y
 _atom_site_fract_z
 _atom_site_occupancy
  Ni  Ni0  1  0.50642200  0.50642200  0.25643200  1
  Ni  Ni1  1  0.49357800  0.49357800  0.74356800  1
  Cu  Cu2  1  0.00000000  0.00000000  0.00000000  1
  Cu  Cu3  1  0.50000000  0.00000000  0.00000000  1
  Cu  Cu4  1  0.00000000  0.50000000  0.00000000  1
  C  C5  1  0.67468700  0.19114100  0.18466500  1
  C  C6  1  0.32531300  0.80885900  0.81533500  1
  C  C7  1  0.80885900  0.32531300  0.81533500  1
  C  C8  1  0.19114100  0.67468700  0.18466500  1
  C  C9  1  0.66769200  0.66769200  0.14255300  1
  C  C10  1  0.33230800  0.33230800  0.85744700  1
  C  C11  1  0.82313500  0.82313500  0.52901700  1
  C  C12  1  0.17686500  0.17686500  0.47098300  1
  C  C13  1  0.50000000  0.50000000  0.50000000  1
  C  C14  1  0.15352700  0.15352700  0.10215900  1
  C  C15  1  0.84647300  0.84647300  0.89784100  1
