# generated using pymatgen
data_Cu6NiC3
_symmetry_space_group_name_H-M   'P 1'
_cell_length_a   3.79988800
_cell_length_b   11.15213900
_cell_length_c   12.03682400
_cell_angle_alpha   90.00000000
_cell_angle_beta   90.00000000
_cell_angle_gamma   90.00000000
_symmetry_Int_Tables_number   1
_chemical_formula_structural   Cu6NiC3
_chemical_formula_sum   'Cu12 Ni2 C6'
_cell_volume   510.08303612
_cell_formula_units_Z   2
loop_
 _symmetry_equiv_pos_site_id
 _symmetry_equiv_pos_as_xyz
  1  'x, y, z'
loop_
 _atom_site_type_symbol
 _atom_site_label
 _atom_site_symmetry_multiplicity
 _atom_site_fract_x
 _atom_site_fract_y
 _atom_site_fract_z
 _atom_site_occupancy
  C  C0  1  0.50000000  0.58463700  0.46312200  1
  C  C1  1  0.50000000  0.41536300  0.96312200  1
  C  C2  1  0.50000000  0.21451000  0.63961000  1
  C  C3  1  0.50000000  0.78549000  0.13961000  1
  C  C4  1  0.00000000  0.27799100  0.35725900  1
  C  C5  1  0.00000000  0.72200900  0.85725900  1
  Ni  Ni6  1  0.00000000  0.93110700  0.54843300  1
  Ni  Ni7  1  0.00000000  0.06889300  0.04843300  1
  Cu  Cu8  1  0.00000000  0.36915700  0.54551700  1
  Cu  Cu9  1  0.00000000  0.63084300  0.04551700  1
  Cu  Cu10  1  0.50000000  0.11668800  0.45453100  1
  Cu  Cu11  1  0.50000000  0.88331200  0.95453100  1
  Cu  Cu12  1  0.50000000  0.81616400  0.61674100  1
  Cu  Cu13  1  0.50000000  0.18383600  0.11674100  1
  Cu  Cu14  1  0.00000000  0.69954100  0.37317700  1
  Cu  Cu15  1  0.00000000  0.30045900  0.87317700  1
  Cu  Cu16  1  0.00000000  0.05392900  0.70150300  1
  Cu  Cu17  1  0.00000000  0.94607100  0.20150300  1
  Cu  Cu18  1  0.50000000  0.43685100  0.30010600  1
  Cu  Cu19  1  0.50000000  0.56314900  0.80010600  1
