# generated using pymatgen
data_Cu2Ni2C11
_symmetry_space_group_name_H-M   'P 1'
_cell_length_a   5.79480100
_cell_length_b   5.80973247
_cell_length_c   5.85429586
_cell_angle_alpha   119.54427468
_cell_angle_beta   90.96421800
_cell_angle_gamma   118.07145026
_symmetry_Int_Tables_number   1
_chemical_formula_structural   Cu2Ni2C11
_chemical_formula_sum   'Cu2 Ni2 C11'
_cell_volume   143.12276109
_cell_formula_units_Z   1
loop_
 _symmetry_equiv_pos_site_id
 _symmetry_equiv_pos_as_xyz
  1  'x, y, z'
loop_
 _atom_site_type_symbol
 _atom_site_label
 _atom_site_symmetry_multiplicity
 _atom_site_fract_x
 _atom_site_fract_y
 _atom_site_fract_z
 _atom_site_occupancy
  C  C0  1  0.00000000  0.50000000  0.50000000  1
  C  C1  1  0.50000000  0.50000000  0.00000000  1
  C  C2  1  0.50000000  0.00000000  0.50000000  1
  Ni  Ni3  1  0.00000000  0.50000000  0.00000000  1
  Ni  Ni4  1  0.50000000  0.00000000  0.00000000  1
  Cu  Cu5  1  0.00000000  0.00000000  0.00000000  1
  Cu  Cu6  1  0.00000000  0.00000000  0.50000000  1
  C  C7  1  0.76889900  0.79329100  0.23461000  1
  C  C8  1  0.77347600  0.27099500  0.24352900  1
  C  C9  1  0.78453400  0.76240500  0.77707800  1
  C  C10  1  0.77141800  0.24565400  0.78896000  1
  C  C11  1  0.22858200  0.75434500  0.21104000  1
  C  C12  1  0.21546600  0.23759500  0.22292200  1
  C  C13  1  0.22652400  0.72900500  0.75647100  1
  C  C14  1  0.23110100  0.20670900  0.76539000  1
