# generated using pymatgen
data_Cu(NiC)4
_symmetry_space_group_name_H-M   'P 1'
_cell_length_a   11.34320700
_cell_length_b   3.53067700
_cell_length_c   18.01353900
_cell_angle_alpha   90.00000000
_cell_angle_beta   90.00000000
_cell_angle_gamma   90.00000000
_symmetry_Int_Tables_number   1
_chemical_formula_structural   Cu(NiC)4
_chemical_formula_sum   'Cu4 Ni16 C16'
_cell_volume   721.42782722
_cell_formula_units_Z   4
loop_
 _symmetry_equiv_pos_site_id
 _symmetry_equiv_pos_as_xyz
  1  'x, y, z'
loop_
 _atom_site_type_symbol
 _atom_site_label
 _atom_site_symmetry_multiplicity
 _atom_site_fract_x
 _atom_site_fract_y
 _atom_site_fract_z
 _atom_site_occupancy
  Ni  Ni0  1  0.56587200  0.25000000  0.92154900  1
  Ni  Ni1  1  0.06587200  0.25000000  0.57845100  1
  Ni  Ni2  1  0.43412800  0.75000000  0.07845100  1
  Ni  Ni3  1  0.93412800  0.75000000  0.42154900  1
  Ni  Ni4  1  0.63268300  0.25000000  0.46454400  1
  Ni  Ni5  1  0.13268300  0.25000000  0.03545600  1
  Ni  Ni6  1  0.36731700  0.75000000  0.53545600  1
  Ni  Ni7  1  0.86731700  0.75000000  0.96454400  1
  Ni  Ni8  1  0.78655700  0.25000000  0.79689800  1
  Ni  Ni9  1  0.28655700  0.25000000  0.70310200  1
  Ni  Ni10  1  0.21344300  0.75000000  0.20310200  1
  Ni  Ni11  1  0.71344300  0.75000000  0.29689800  1
  Ni  Ni12  1  0.92458000  0.25000000  0.17428800  1
  Ni  Ni13  1  0.42458000  0.25000000  0.32571200  1
  Ni  Ni14  1  0.07542000  0.75000000  0.82571200  1
  Ni  Ni15  1  0.57542000  0.75000000  0.67428800  1
  Cu  Cu16  1  0.67495100  0.25000000  0.10435400  1
  Cu  Cu17  1  0.17495100  0.25000000  0.39564600  1
  Cu  Cu18  1  0.32504900  0.75000000  0.89564600  1
  Cu  Cu19  1  0.82504900  0.75000000  0.60435400  1
  C  C20  1  0.57408000  0.25000000  0.13117800  1
  C  C21  1  0.07408000  0.25000000  0.36882200  1
  C  C22  1  0.42592000  0.75000000  0.86882200  1
  C  C23  1  0.92592000  0.75000000  0.63117800  1
  C  C24  1  0.77564600  0.25000000  0.07741700  1
  C  C25  1  0.27564600  0.25000000  0.42258300  1
  C  C26  1  0.22435400  0.75000000  0.92258300  1
  C  C27  1  0.72435400  0.75000000  0.57741700  1
  C  C28  1  0.79231700  0.25000000  0.37808100  1
  C  C29  1  0.29231700  0.25000000  0.12191900  1
  C  C30  1  0.20768300  0.75000000  0.62191900  1
  C  C31  1  0.70768300  0.75000000  0.87808100  1
  C  C32  1  0.95519900  0.25000000  0.87341800  1
  C  C33  1  0.45519900  0.25000000  0.62658200  1
  C  C34  1  0.04480100  0.75000000  0.12658200  1
  C  C35  1  0.54480100  0.75000000  0.37341800  1
