# generated using pymatgen
data_Cu12NiC17
_symmetry_space_group_name_H-M   'P 1'
_cell_length_a   9.24944866
_cell_length_b   9.24944866
_cell_length_c   9.24944901
_cell_angle_alpha   60.33407188
_cell_angle_beta   60.33407188
_cell_angle_gamma   60.33406952
_symmetry_Int_Tables_number   1
_chemical_formula_structural   Cu12NiC17
_chemical_formula_sum   'Cu12 Ni1 C17'
_cell_volume   563.77090554
_cell_formula_units_Z   1
loop_
 _symmetry_equiv_pos_site_id
 _symmetry_equiv_pos_as_xyz
  1  'x, y, z'
loop_
 _atom_site_type_symbol
 _atom_site_label
 _atom_site_symmetry_multiplicity
 _atom_site_fract_x
 _atom_site_fract_y
 _atom_site_fract_z
 _atom_site_occupancy
  Ni  Ni0  1  0.00000000  0.00000000  0.00000000  1
  Cu  Cu1  1  0.18348900  0.37230500  0.03821700  1
  Cu  Cu2  1  0.68447300  0.87707400  0.53632700  1
  Cu  Cu3  1  0.37230500  0.03821700  0.18348900  1
  Cu  Cu4  1  0.87707400  0.53632700  0.68447300  1
  Cu  Cu5  1  0.03821700  0.18348900  0.37230500  1
  Cu  Cu6  1  0.53632700  0.68447300  0.87707400  1
  Cu  Cu7  1  0.31552700  0.12292600  0.46367300  1
  Cu  Cu8  1  0.81651100  0.62769500  0.96178300  1
  Cu  Cu9  1  0.12292600  0.46367300  0.31552700  1
  Cu  Cu10  1  0.62769500  0.96178300  0.81651100  1
  Cu  Cu11  1  0.46367300  0.31552700  0.12292600  1
  Cu  Cu12  1  0.96178300  0.81651100  0.62769500  1
  C  C13  1  0.50000000  0.50000000  0.50000000  1
  C  C14  1  0.11538400  0.11538400  0.11538400  1
  C  C15  1  0.62056600  0.62056600  0.62056600  1
  C  C16  1  0.37943400  0.37943400  0.37943400  1
  C  C17  1  0.88461600  0.88461600  0.88461600  1
  C  C18  1  0.24090300  0.88557300  0.49699100  1
  C  C19  1  0.73911100  0.39138300  0.99493700  1
  C  C20  1  0.88557300  0.49699100  0.24090300  1
  C  C21  1  0.39138300  0.99493700  0.73911100  1
  C  C22  1  0.49699100  0.24090300  0.88557300  1
  C  C23  1  0.99493700  0.73911100  0.39138300  1
  C  C24  1  0.26088900  0.60861700  0.00506300  1
  C  C25  1  0.75909700  0.11442700  0.50300900  1
  C  C26  1  0.60861700  0.00506300  0.26088900  1
  C  C27  1  0.11442700  0.50300900  0.75909700  1
  C  C28  1  0.00506300  0.26088900  0.60861700  1
  C  C29  1  0.50300900  0.75909700  0.11442700  1
