# generated using pymatgen
data_Cu(NiC2)3
_symmetry_space_group_name_H-M   'P 1'
_cell_length_a   5.99795722
_cell_length_b   5.99795722
_cell_length_c   14.78064290
_cell_angle_alpha   88.44642136
_cell_angle_beta   88.44642136
_cell_angle_gamma   59.12791656
_symmetry_Int_Tables_number   1
_chemical_formula_structural   Cu(NiC2)3
_chemical_formula_sum   'Cu4 Ni12 C24'
_cell_volume   456.17942170
_cell_formula_units_Z   4
loop_
 _symmetry_equiv_pos_site_id
 _symmetry_equiv_pos_as_xyz
  1  'x, y, z'
loop_
 _atom_site_type_symbol
 _atom_site_label
 _atom_site_symmetry_multiplicity
 _atom_site_fract_x
 _atom_site_fract_y
 _atom_site_fract_z
 _atom_site_occupancy
  Ni  Ni0  1  0.84046600  0.32834200  0.66454000  1
  Ni  Ni1  1  0.15953400  0.67165800  0.33546000  1
  Ni  Ni2  1  0.50000000  0.00000000  0.00000000  1
  Ni  Ni3  1  0.33091300  0.33091300  0.66736800  1
  Ni  Ni4  1  0.66908700  0.66908700  0.33263200  1
  Ni  Ni5  1  0.00000000  0.00000000  0.00000000  1
  Ni  Ni6  1  0.50000000  0.50000000  0.50000000  1
  Ni  Ni7  1  0.83589000  0.83589000  0.17296100  1
  Ni  Ni8  1  0.16411000  0.16411000  0.82703900  1
  Ni  Ni9  1  0.32834200  0.84046600  0.66454000  1
  Ni  Ni10  1  0.67165800  0.15953400  0.33546000  1
  Ni  Ni11  1  0.00000000  0.50000000  0.00000000  1
  Cu  Cu12  1  0.16568600  0.16568600  0.44576900  1
  Cu  Cu13  1  0.49814000  0.49814000  0.13070200  1
  Cu  Cu14  1  0.83431400  0.83431400  0.55423100  1
  Cu  Cu15  1  0.50186000  0.50186000  0.86929800  1
  C  C16  1  0.16582100  0.16582100  0.56670900  1
  C  C17  1  0.50092600  0.50092600  0.25103800  1
  C  C18  1  0.83747100  0.83747100  0.94415200  1
  C  C19  1  0.66356100  0.17164100  0.59241100  1
  C  C20  1  0.98054600  0.54787200  0.26052000  1
  C  C21  1  0.32919300  0.83965200  0.90874000  1
  C  C22  1  0.17164100  0.66356100  0.59241100  1
  C  C23  1  0.54787200  0.98054600  0.26052000  1
  C  C24  1  0.83965200  0.32919300  0.90874000  1
  C  C25  1  0.66531300  0.66531300  0.59305600  1
  C  C26  1  0.98333800  0.98333800  0.26720400  1
  C  C27  1  0.33670800  0.33670800  0.91809000  1
  C  C28  1  0.33643900  0.82835900  0.40758900  1
  C  C29  1  0.67080700  0.16034800  0.09126000  1
  C  C30  1  0.01945400  0.45212800  0.73948000  1
  C  C31  1  0.83417900  0.83417900  0.43329100  1
  C  C32  1  0.16252900  0.16252900  0.05584800  1
  C  C33  1  0.49907400  0.49907400  0.74896200  1
  C  C34  1  0.82835900  0.33643900  0.40758900  1
  C  C35  1  0.16034800  0.67080700  0.09126000  1
  C  C36  1  0.45212800  0.01945400  0.73948000  1
  C  C37  1  0.33468700  0.33468700  0.40694400  1
  C  C38  1  0.66329200  0.66329200  0.08191000  1
  C  C39  1  0.01666200  0.01666200  0.73279600  1
