# generated using pymatgen
data_Cu4NiC20
_symmetry_space_group_name_H-M   'P 1'
_cell_length_a   6.15203200
_cell_length_b   12.00174200
_cell_length_c   13.39757830
_cell_angle_alpha   80.70686359
_cell_angle_beta   90.00000000
_cell_angle_gamma   90.00000000
_symmetry_Int_Tables_number   1
_chemical_formula_structural   Cu4NiC20
_chemical_formula_sum   'Cu16 Ni4 C80'
_cell_volume   976.22821084
_cell_formula_units_Z   4
loop_
 _symmetry_equiv_pos_site_id
 _symmetry_equiv_pos_as_xyz
  1  'x, y, z'
loop_
 _atom_site_type_symbol
 _atom_site_label
 _atom_site_symmetry_multiplicity
 _atom_site_fract_x
 _atom_site_fract_y
 _atom_site_fract_z
 _atom_site_occupancy
  C  C0  1  0.53206900  0.28099200  0.49699400  1
  C  C1  1  0.03206900  0.21900800  0.50300600  1
  C  C2  1  0.46793100  0.71900800  0.50300600  1
  C  C3  1  0.96793100  0.78099200  0.49699400  1
  C  C4  1  0.37679900  0.33546100  0.39751000  1
  C  C5  1  0.87679900  0.16453900  0.60249000  1
  C  C6  1  0.62320100  0.66453900  0.60249000  1
  C  C7  1  0.12320100  0.83546100  0.39751000  1
  C  C8  1  0.64486800  0.34571200  0.38941400  1
  C  C9  1  0.14486800  0.15428800  0.61058600  1
  C  C10  1  0.35513200  0.65428800  0.61058600  1
  C  C11  1  0.85513200  0.84571200  0.38941400  1
  C  C12  1  0.27544500  0.36368100  0.64275400  1
  C  C13  1  0.77544500  0.13631900  0.35724600  1
  C  C14  1  0.72455500  0.63631900  0.35724600  1
  C  C15  1  0.22455500  0.86368100  0.64275400  1
  C  C16  1  0.14103100  0.48661700  0.62135400  1
  C  C17  1  0.64103100  0.01338300  0.37864600  1
  C  C18  1  0.85896900  0.51338300  0.37864600  1
  C  C19  1  0.35896900  0.98661700  0.62135400  1
  C  C20  1  0.11906500  0.39856500  0.53888900  1
  C  C21  1  0.61906500  0.10143500  0.46111100  1
  C  C22  1  0.88093500  0.60143500  0.46111100  1
  C  C23  1  0.38093500  0.89856500  0.53888900  1
  C  C24  1  0.63453700  0.28557800  0.07393300  1
  C  C25  1  0.13453700  0.21442200  0.92606700  1
  C  C26  1  0.36546300  0.71442200  0.92606700  1
  C  C27  1  0.86546300  0.78557800  0.07393300  1
  C  C28  1  0.80470700  0.34488600  0.98328300  1
  C  C29  1  0.30470700  0.15511400  0.01671700  1
  C  C30  1  0.19529300  0.65511400  0.01671700  1
  C  C31  1  0.69529300  0.84488600  0.98328300  1
  C  C32  1  0.82087700  0.37543200  0.10059700  1
  C  C33  1  0.32087700  0.12456800  0.89940300  1
  C  C34  1  0.17912300  0.62456800  0.89940300  1
  C  C35  1  0.67912300  0.87543200  0.10059700  1
  C  C36  1  0.38690000  0.43229800  0.82686000  1
  C  C37  1  0.88690000  0.06770200  0.17314000  1
  C  C38  1  0.61310000  0.56770200  0.17314000  1
  C  C39  1  0.11310000  0.93229800  0.82686000  1
  C  C40  1  0.54794400  0.54711400  0.80058400  1
  C  C41  1  0.04794400  0.95288600  0.19941600  1
  C  C42  1  0.45205600  0.45288600  0.19941600  1
  C  C43  1  0.95205600  0.04711400  0.80058400  1
  C  C44  1  0.66048800  0.42345600  0.83645000  1
  C  C45  1  0.16048800  0.07654400  0.16355000  1
  C  C46  1  0.33951200  0.57654400  0.16355000  1
  C  C47  1  0.83951200  0.92345600  0.83645000  1
  C  C48  1  0.50000000  0.50000000  0.50000000  1
  C  C49  1  0.00000000  0.00000000  0.50000000  1
  C  C50  1  0.50000000  0.50000000  0.00000000  1
  C  C51  1  0.00000000  0.00000000  0.00000000  1
  Ni  Ni52  1  0.52958800  0.16219200  0.71394900  1
  Ni  Ni53  1  0.02958800  0.33780800  0.28605100  1
  Ni  Ni54  1  0.47041200  0.83780800  0.28605100  1
  Ni  Ni55  1  0.97041200  0.66219200  0.71394900  1
  Cu  Cu56  1  0.51572400  0.34745900  0.43752600  1
  Cu  Cu57  1  0.01572400  0.15254100  0.56247400  1
  Cu  Cu58  1  0.48427600  0.65254100  0.56247400  1
  Cu  Cu59  1  0.98427600  0.84745900  0.43752600  1
  Cu  Cu60  1  0.22556700  0.42938800  0.58673600  1
  Cu  Cu61  1  0.72556700  0.07061200  0.41326400  1
  Cu  Cu62  1  0.77443300  0.57061200  0.41326400  1
  Cu  Cu63  1  0.27443300  0.92938800  0.58673600  1
  Cu  Cu64  1  0.71470200  0.35910400  0.04499200  1
  Cu  Cu65  1  0.21470200  0.14089600  0.95500800  1
  Cu  Cu66  1  0.28529800  0.64089600  0.95500800  1
  Cu  Cu67  1  0.78529800  0.85910400  0.04499200  1
  Cu  Cu68  1  0.52481600  0.47108900  0.84733600  1
  Cu  Cu69  1  0.02481600  0.02891100  0.15266400  1
  Cu  Cu70  1  0.47518400  0.52891100  0.15266400  1
  Cu  Cu71  1  0.97518400  0.97108900  0.84733600  1
  C  C72  1  0.67857500  0.44067800  0.59602200  1
  C  C73  1  0.17857500  0.05932200  0.40397800  1
  C  C74  1  0.32142500  0.55932200  0.40397800  1
  C  C75  1  0.82142500  0.94067800  0.59602200  1
  C  C76  1  0.72658500  0.58960300  0.98169500  1
  C  C77  1  0.22658500  0.91039700  0.01830500  1
  C  C78  1  0.27341500  0.41039700  0.01830500  1
  C  C79  1  0.77341500  0.08960300  0.98169500  1
  C  C80  1  0.75852900  0.16905300  0.74516000  1
  C  C81  1  0.25852900  0.33094700  0.25484000  1
  C  C82  1  0.24147100  0.83094700  0.25484000  1
  C  C83  1  0.74147100  0.66905300  0.74516000  1
  C  C84  1  0.51764600  0.15812900  0.60212100  1
  C  C85  1  0.01764600  0.34187100  0.39787900  1
  C  C86  1  0.48235400  0.84187100  0.39787900  1
  C  C87  1  0.98235400  0.65812900  0.60212100  1
  C  C88  1  0.41831500  0.05675300  0.76954600  1
  C  C89  1  0.91831500  0.44324700  0.23045400  1
  C  C90  1  0.58168500  0.94324700  0.23045400  1
  C  C91  1  0.08168500  0.55675300  0.76954600  1
  C  C92  1  0.39724100  0.25769900  0.73811900  1
  C  C93  1  0.89724100  0.24230100  0.26188100  1
  C  C94  1  0.60275900  0.74230100  0.26188100  1
  C  C95  1  0.10275900  0.75769900  0.73811900  1
  C  C96  1  0.02720200  0.62174500  0.15138500  1
  C  C97  1  0.52720200  0.87825500  0.84861500  1
  C  C98  1  0.97279800  0.37825500  0.84861500  1
  C  C99  1  0.47279800  0.12174500  0.15138500  1
