# generated using pymatgen
data_Cu6Ni2C5
_symmetry_space_group_name_H-M   'P 1'
_cell_length_a   13.32101700
_cell_length_b   13.58449300
_cell_length_c   16.53221300
_cell_angle_alpha   90.00000000
_cell_angle_beta   90.00000000
_cell_angle_gamma   90.00000000
_symmetry_Int_Tables_number   1
_chemical_formula_structural   Cu6Ni2C5
_chemical_formula_sum   'Cu48 Ni16 C40'
_cell_volume   2991.65706684
_cell_formula_units_Z   8
loop_
 _symmetry_equiv_pos_site_id
 _symmetry_equiv_pos_as_xyz
  1  'x, y, z'
loop_
 _atom_site_type_symbol
 _atom_site_label
 _atom_site_symmetry_multiplicity
 _atom_site_fract_x
 _atom_site_fract_y
 _atom_site_fract_z
 _atom_site_occupancy
  C  C0  1  0.30135300  0.48945500  0.11314100  1
  C  C1  1  0.80135300  0.01054500  0.88685900  1
  C  C2  1  0.69864700  0.98945500  0.38685900  1
  C  C3  1  0.19864700  0.51054500  0.61314100  1
  C  C4  1  0.69864700  0.51054500  0.88685900  1
  C  C5  1  0.19864700  0.98945500  0.11314100  1
  C  C6  1  0.30135300  0.01054500  0.61314100  1
  C  C7  1  0.80135300  0.48945500  0.38685900  1
  C  C8  1  0.23129800  0.23712800  0.87239600  1
  C  C9  1  0.73129800  0.26287200  0.12760400  1
  C  C10  1  0.76870200  0.73712800  0.62760400  1
  C  C11  1  0.26870200  0.76287200  0.37239600  1
  C  C12  1  0.76870200  0.76287200  0.12760400  1
  C  C13  1  0.26870200  0.73712800  0.87239600  1
  C  C14  1  0.23129800  0.26287200  0.37239600  1
  C  C15  1  0.73129800  0.23712800  0.62760400  1
  C  C16  1  0.47938900  0.20715200  0.00492300  1
  C  C17  1  0.97938900  0.29284800  0.99507700  1
  C  C18  1  0.52061100  0.70715200  0.49507700  1
  C  C19  1  0.02061100  0.79284800  0.50492300  1
  C  C20  1  0.52061100  0.79284800  0.99507700  1
  C  C21  1  0.02061100  0.70715200  0.00492300  1
  C  C22  1  0.47938900  0.29284800  0.50492300  1
  C  C23  1  0.97938900  0.20715200  0.49507700  1
  C  C24  1  0.48002800  0.24576900  0.75385400  1
  C  C25  1  0.98002800  0.25423100  0.24614600  1
  C  C26  1  0.51997200  0.74576900  0.74614600  1
  C  C27  1  0.01997200  0.75423100  0.25385400  1
  C  C28  1  0.51997200  0.75423100  0.24614600  1
  C  C29  1  0.01997200  0.74576900  0.75385400  1
  C  C30  1  0.48002800  0.25423100  0.25385400  1
  C  C31  1  0.98002800  0.24576900  0.74614600  1
  C  C32  1  0.41033800  0.99229900  0.85504800  1
  C  C33  1  0.91033800  0.50770100  0.14495200  1
  C  C34  1  0.58966200  0.49229900  0.64495200  1
  C  C35  1  0.08966200  0.00770100  0.35504800  1
  C  C36  1  0.58966200  0.00770100  0.14495200  1
  C  C37  1  0.08966200  0.49229900  0.85504800  1
  C  C38  1  0.41033800  0.50770100  0.35504800  1
  C  C39  1  0.91033800  0.99229900  0.64495200  1
  Ni  Ni40  1  0.40149200  0.17204100  0.87309800  1
  Ni  Ni41  1  0.90149200  0.32795900  0.12690200  1
  Ni  Ni42  1  0.59850800  0.67204100  0.62690200  1
  Ni  Ni43  1  0.09850800  0.82795900  0.37309800  1
  Ni  Ni44  1  0.59850800  0.82795900  0.12690200  1
  Ni  Ni45  1  0.09850800  0.67204100  0.87309800  1
  Ni  Ni46  1  0.40149200  0.32795900  0.37309800  1
  Ni  Ni47  1  0.90149200  0.17204100  0.62690200  1
  Ni  Ni48  1  0.06502700  0.31273700  0.86474400  1
  Ni  Ni49  1  0.56502700  0.18726300  0.13525600  1
  Ni  Ni50  1  0.93497300  0.81273700  0.63525600  1
  Ni  Ni51  1  0.43497300  0.68726300  0.36474400  1
  Ni  Ni52  1  0.93497300  0.68726300  0.13525600  1
  Ni  Ni53  1  0.43497300  0.81273700  0.86474400  1
  Ni  Ni54  1  0.06502700  0.18726300  0.36474400  1
  Ni  Ni55  1  0.56502700  0.31273700  0.63525600  1
  Cu  Cu56  1  0.12888700  0.48802700  0.05330700  1
  Cu  Cu57  1  0.62888700  0.01197300  0.94669300  1
  Cu  Cu58  1  0.87111300  0.98802700  0.44669300  1
  Cu  Cu59  1  0.37111300  0.51197300  0.55330700  1
  Cu  Cu60  1  0.87111300  0.51197300  0.94669300  1
  Cu  Cu61  1  0.37111300  0.98802700  0.05330700  1
  Cu  Cu62  1  0.12888700  0.01197300  0.55330700  1
  Cu  Cu63  1  0.62888700  0.48802700  0.44669300  1
  Cu  Cu64  1  0.35924900  0.40283000  0.99122400  1
  Cu  Cu65  1  0.85924900  0.09717000  0.00877600  1
  Cu  Cu66  1  0.64075100  0.90283000  0.50877600  1
  Cu  Cu67  1  0.14075100  0.59717000  0.49122400  1
  Cu  Cu68  1  0.64075100  0.59717000  0.00877600  1
  Cu  Cu69  1  0.14075100  0.90283000  0.99122400  1
  Cu  Cu70  1  0.35924900  0.09717000  0.49122400  1
  Cu  Cu71  1  0.85924900  0.40283000  0.50877600  1
  Cu  Cu72  1  0.47074400  0.48893900  0.17186600  1
  Cu  Cu73  1  0.97074400  0.01106100  0.82813400  1
  Cu  Cu74  1  0.52925600  0.98893900  0.32813400  1
  Cu  Cu75  1  0.02925600  0.51106100  0.67186600  1
  Cu  Cu76  1  0.52925600  0.51106100  0.82813400  1
  Cu  Cu77  1  0.02925600  0.98893900  0.17186600  1
  Cu  Cu78  1  0.47074400  0.01106100  0.67186600  1
  Cu  Cu79  1  0.97074400  0.48893900  0.32813400  1
  Cu  Cu80  1  0.22920300  0.57047200  0.23325600  1
  Cu  Cu81  1  0.72920300  0.92952800  0.76674400  1
  Cu  Cu82  1  0.77079700  0.07047200  0.26674400  1
  Cu  Cu83  1  0.27079700  0.42952800  0.73325600  1
  Cu  Cu84  1  0.77079700  0.42952800  0.76674400  1
  Cu  Cu85  1  0.27079700  0.07047200  0.23325600  1
  Cu  Cu86  1  0.22920300  0.92952800  0.73325600  1
  Cu  Cu87  1  0.72920300  0.57047200  0.26674400  1
  Cu  Cu88  1  0.26683700  0.33084000  0.17814000  1
  Cu  Cu89  1  0.76683700  0.16916000  0.82186000  1
  Cu  Cu90  1  0.73316300  0.83084000  0.32186000  1
  Cu  Cu91  1  0.23316300  0.66916000  0.67814000  1
  Cu  Cu92  1  0.73316300  0.66916000  0.82186000  1
  Cu  Cu93  1  0.23316300  0.83084000  0.17814000  1
  Cu  Cu94  1  0.26683700  0.16916000  0.67814000  1
  Cu  Cu95  1  0.76683700  0.33084000  0.32186000  1
  Cu  Cu96  1  0.33488500  0.64860000  0.04800700  1
  Cu  Cu97  1  0.83488500  0.85140000  0.95199300  1
  Cu  Cu98  1  0.66511500  0.14860000  0.45199300  1
  Cu  Cu99  1  0.16511500  0.35140000  0.54800700  1
  Cu  Cu100  1  0.66511500  0.35140000  0.95199300  1
  Cu  Cu101  1  0.16511500  0.14860000  0.04800700  1
  Cu  Cu102  1  0.33488500  0.85140000  0.54800700  1
  Cu  Cu103  1  0.83488500  0.64860000  0.45199300  1
