# generated using pymatgen
data_CuNi4C35
_symmetry_space_group_name_H-M   'P 1'
_cell_length_a   10.72090200
_cell_length_b   9.85086647
_cell_length_c   10.26503516
_cell_angle_alpha   61.37555196
_cell_angle_beta   83.74101898
_cell_angle_gamma   76.83593883
_symmetry_Int_Tables_number   1
_chemical_formula_structural   CuNi4C35
_chemical_formula_sum   'Cu2 Ni8 C70'
_cell_volume   926.58691611
_cell_formula_units_Z   2
loop_
 _symmetry_equiv_pos_site_id
 _symmetry_equiv_pos_as_xyz
  1  'x, y, z'
loop_
 _atom_site_type_symbol
 _atom_site_label
 _atom_site_symmetry_multiplicity
 _atom_site_fract_x
 _atom_site_fract_y
 _atom_site_fract_z
 _atom_site_occupancy
  C  C0  1  0.00006700  0.49981100  0.99948700  1
  C  C1  1  0.25224300  0.27613800  0.45080800  1
  C  C2  1  0.24775700  0.72386200  0.54919200  1
  C  C3  1  0.49993300  0.50018900  0.00051300  1
  C  C4  1  0.74784600  0.27340600  0.45054700  1
  C  C5  1  0.75215400  0.72659400  0.54945300  1
  Ni  Ni6  1  0.99997100  0.99940600  0.00112400  1
  Ni  Ni7  1  0.25198700  0.08925200  0.82074000  1
  Ni  Ni8  1  0.24801300  0.91074800  0.17926000  1
  Ni  Ni9  1  0.50002900  0.00059400  0.99887600  1
  Ni  Ni10  1  0.49993400  0.18072300  0.63899500  1
  Ni  Ni11  1  0.74782600  0.09047400  0.82063800  1
  Ni  Ni12  1  0.75217400  0.90952600  0.17936200  1
  Ni  Ni13  1  0.00006600  0.81927700  0.36100500  1
  Cu  Cu14  1  0.99994900  0.17838700  0.64363900  1
  Cu  Cu15  1  0.50005100  0.82161300  0.35636100  1
  C  C16  1  0.10156200  0.11793800  0.34177400  1
  C  C17  1  0.10217400  0.45952500  0.65717600  1
  C  C18  1  0.14383100  0.63400400  0.16934500  1
  C  C19  1  0.14354100  0.80268200  0.82812500  1
  C  C20  1  0.35645900  0.19731800  0.17187500  1
  C  C21  1  0.35616900  0.36599600  0.83065500  1
  C  C22  1  0.39782600  0.54047500  0.34282400  1
  C  C23  1  0.39843800  0.88206200  0.65822600  1
  C  C24  1  0.60240900  0.11587800  0.34377700  1
  C  C25  1  0.60121000  0.45996400  0.65862000  1
  C  C26  1  0.64386600  0.63102000  0.17106100  1
  C  C27  1  0.64375700  0.80412700  0.82981700  1
  C  C28  1  0.85624300  0.19587300  0.17018300  1
  C  C29  1  0.85613400  0.36898000  0.82893900  1
  C  C30  1  0.89879000  0.54003600  0.34138000  1
  C  C31  1  0.89759100  0.88412200  0.65622300  1
  C  C32  1  0.03571900  0.52421700  0.24910500  1
  C  C33  1  0.09801600  0.11646100  0.50021500  1
  C  C34  1  0.03461300  0.77511300  0.74849800  1
  C  C35  1  0.10121500  0.60863100  0.49901000  1
  C  C36  1  0.13199100  0.28375400  0.66595200  1
  C  C37  1  0.10682300  0.80403200  0.16656100  1
  C  C38  1  0.14851200  0.65591700  0.99863000  1
  C  C39  1  0.21499500  0.22193600  0.24409700  1
  C  C40  1  0.13674800  0.95246800  0.33551600  1
  C  C41  1  0.10411900  0.97472000  0.82583400  1
  C  C42  1  0.21394000  0.46043500  0.75957800  1
  C  C43  1  0.28606000  0.53956500  0.24042200  1
  C  C44  1  0.35148800  0.34408300  0.00137000  1
  C  C45  1  0.39588100  0.02528000  0.17416600  1
  C  C46  1  0.36325200  0.04753200  0.66448400  1
  C  C47  1  0.28500500  0.77806400  0.75590300  1
  C  C48  1  0.39317700  0.19596800  0.83343900  1
  C  C49  1  0.36800900  0.71624600  0.33404800  1
  C  C50  1  0.39878500  0.39136900  0.50099000  1
  C  C51  1  0.46538700  0.22488700  0.25150200  1
  C  C52  1  0.40198400  0.88353900  0.49978500  1
  C  C53  1  0.46428100  0.47578300  0.75089500  1
  C  C54  1  0.53458400  0.52432200  0.25003700  1
  C  C55  1  0.60179700  0.10717700  0.50187000  1
  C  C56  1  0.53554200  0.77411500  0.75003800  1
  C  C57  1  0.59742200  0.61655100  0.50024500  1
  C  C58  1  0.63664800  0.28838700  0.66463100  1
  C  C59  1  0.60446600  0.80042100  0.17390900  1
  C  C60  1  0.64903500  0.65507900  0.00037800  1
  C  C61  1  0.71405700  0.21912100  0.24135900  1
  C  C62  1  0.63207800  0.94900300  0.33466300  1
  C  C63  1  0.60670400  0.97107300  0.83328000  1
  C  C64  1  0.71498400  0.46631100  0.75600300  1
  C  C65  1  0.78501600  0.53368900  0.24399700  1
  C  C66  1  0.85096500  0.34492100  0.99962200  1
  C  C67  1  0.89329600  0.02892700  0.16672000  1
  C  C68  1  0.86792200  0.05099700  0.66533700  1
  C  C69  1  0.78594300  0.78087900  0.75864100  1
  C  C70  1  0.89553400  0.19957900  0.82609100  1
  C  C71  1  0.86335200  0.71161300  0.33536900  1
  C  C72  1  0.90257800  0.38344900  0.49975500  1
  C  C73  1  0.96445800  0.22588500  0.24996200  1
  C  C74  1  0.89820300  0.89282300  0.49813000  1
  C  C75  1  0.96541600  0.47567800  0.74996300  1
  C  C76  1  0.14715300  0.10255700  0.99919100  1
  C  C77  1  0.35284700  0.89744300  0.00080900  1
  C  C78  1  0.64713000  0.10151900  0.00149300  1
  C  C79  1  0.85287000  0.89848100  0.99850700  1
