# generated using pymatgen
data_CuNiC12
_symmetry_space_group_name_H-M   'P 1'
_cell_length_a   10.18529800
_cell_length_b   10.88677000
_cell_length_c   14.12282100
_cell_angle_alpha   90.00000000
_cell_angle_beta   90.00000000
_cell_angle_gamma   90.00000000
_symmetry_Int_Tables_number   1
_chemical_formula_structural   CuNiC12
_chemical_formula_sum   'Cu8 Ni8 C96'
_cell_volume   1566.00896009
_cell_formula_units_Z   8
loop_
 _symmetry_equiv_pos_site_id
 _symmetry_equiv_pos_as_xyz
  1  'x, y, z'
loop_
 _atom_site_type_symbol
 _atom_site_label
 _atom_site_symmetry_multiplicity
 _atom_site_fract_x
 _atom_site_fract_y
 _atom_site_fract_z
 _atom_site_occupancy
  Ni  Ni0  1  0.96882400  0.50000000  0.25000000  1
  Ni  Ni1  1  0.46882400  0.50000000  0.25000000  1
  Ni  Ni2  1  0.03117600  0.50000000  0.75000000  1
  Ni  Ni3  1  0.00000000  0.00000000  0.00000000  1
  Ni  Ni4  1  0.00000000  0.00000000  0.50000000  1
  Ni  Ni5  1  0.50000000  0.00000000  0.00000000  1
  Ni  Ni6  1  0.50000000  0.00000000  0.50000000  1
  Ni  Ni7  1  0.53117600  0.50000000  0.75000000  1
  Cu  Cu8  1  0.47974400  0.75272900  0.87573500  1
  Cu  Cu9  1  0.47974400  0.24727100  0.62426500  1
  Cu  Cu10  1  0.02025600  0.75272900  0.12426500  1
  Cu  Cu11  1  0.02025600  0.24727100  0.37573500  1
  Cu  Cu12  1  0.52025600  0.24727100  0.12426500  1
  Cu  Cu13  1  0.52025600  0.75272900  0.37573500  1
  Cu  Cu14  1  0.97974400  0.24727100  0.87573500  1
  Cu  Cu15  1  0.97974400  0.75272900  0.62426500  1
  C  C16  1  0.94563800  0.74771300  0.87438000  1
  C  C17  1  0.44563800  0.25228700  0.87438000  1
  C  C18  1  0.05436200  0.74771300  0.37438000  1
  C  C19  1  0.05436200  0.25228700  0.12562000  1
  C  C20  1  0.55436200  0.25228700  0.37438000  1
  C  C21  1  0.55436200  0.74771300  0.12562000  1
  C  C22  1  0.94563800  0.25228700  0.62562000  1
  C  C23  1  0.44563800  0.74771300  0.62562000  1
  C  C24  1  0.26116800  0.95425900  0.64829200  1
  C  C25  1  0.26116800  0.04574100  0.85170800  1
  C  C26  1  0.23883200  0.95425900  0.35170800  1
  C  C27  1  0.23883200  0.04574100  0.14829200  1
  C  C28  1  0.78603900  0.52698400  0.89918800  1
  C  C29  1  0.73883200  0.95425900  0.14829200  1
  C  C30  1  0.76116800  0.04574100  0.64829200  1
  C  C31  1  0.76116800  0.95425900  0.85170800  1
  C  C32  1  0.78603900  0.47301600  0.60081200  1
  C  C33  1  0.71396100  0.52698400  0.10081200  1
  C  C34  1  0.71396100  0.47301600  0.39918800  1
  C  C35  1  0.21396100  0.47301600  0.10081200  1
  C  C36  1  0.21396100  0.52698400  0.39918800  1
  C  C37  1  0.28603900  0.47301600  0.89918800  1
  C  C38  1  0.28603900  0.52698400  0.60081200  1
  C  C39  1  0.73883200  0.04574100  0.35170800  1
  C  C40  1  0.16333300  0.56126500  0.65224800  1
  C  C41  1  0.16333300  0.43873500  0.84775200  1
  C  C42  1  0.33666700  0.56126500  0.34775200  1
  C  C43  1  0.33666700  0.43873500  0.15224800  1
  C  C44  1  0.83666700  0.43873500  0.34775200  1
  C  C45  1  0.83666700  0.56126500  0.15224800  1
  C  C46  1  0.66333300  0.43873500  0.65224800  1
  C  C47  1  0.66333300  0.56126500  0.84775200  1
  C  C48  1  0.38419000  0.55508400  0.85064400  1
  C  C49  1  0.38419000  0.44491600  0.64935600  1
  C  C50  1  0.11581000  0.55508400  0.14935600  1
  C  C51  1  0.11581000  0.44491600  0.35064400  1
  C  C52  1  0.61581000  0.44491600  0.14935600  1
  C  C53  1  0.61581000  0.55508400  0.35064400  1
  C  C54  1  0.88419000  0.44491600  0.85064400  1
  C  C55  1  0.88419000  0.55508400  0.64935600  1
  C  C56  1  0.51871000  0.82467800  0.55504800  1
  C  C57  1  0.51871000  0.17532200  0.94495200  1
  C  C58  1  0.98129000  0.82467800  0.44495200  1
  C  C59  1  0.98129000  0.17532200  0.05504800  1
  C  C60  1  0.48129000  0.17532200  0.44495200  1
  C  C61  1  0.48129000  0.82467800  0.05504800  1
  C  C62  1  0.01871000  0.17532200  0.55504800  1
  C  C63  1  0.01871000  0.82467800  0.94495200  1
  C  C64  1  0.01941100  0.68068100  0.79839700  1
  C  C65  1  0.01941100  0.31931900  0.70160300  1
  C  C66  1  0.48058900  0.68068100  0.20160300  1
  C  C67  1  0.13993900  0.92217000  0.59278300  1
  C  C68  1  0.48058900  0.31931900  0.29839700  1
  C  C69  1  0.98058900  0.68068100  0.29839700  1
  C  C70  1  0.51941100  0.31931900  0.79839700  1
  C  C71  1  0.51941100  0.68068100  0.70160300  1
  C  C72  1  0.35915000  0.95867800  0.89456600  1
  C  C73  1  0.35915000  0.04132200  0.60543400  1
  C  C74  1  0.14085000  0.95867800  0.10543400  1
  C  C75  1  0.14085000  0.04132200  0.39456600  1
  C  C76  1  0.64085000  0.04132200  0.10543400  1
  C  C77  1  0.64085000  0.95867800  0.39456600  1
  C  C78  1  0.85915000  0.04132200  0.89456600  1
  C  C79  1  0.85915000  0.95867800  0.60543400  1
  C  C80  1  0.71019300  0.00000000  0.75000000  1
  C  C81  1  0.78980700  0.00000000  0.25000000  1
  C  C82  1  0.28980700  0.00000000  0.25000000  1
  C  C83  1  0.21019300  0.00000000  0.75000000  1
  C  C84  1  0.83511600  0.82866500  0.82041600  1
  C  C85  1  0.83511600  0.17133500  0.67958400  1
  C  C86  1  0.66488400  0.82866500  0.17958400  1
  C  C87  1  0.66488400  0.17133500  0.32041600  1
  C  C88  1  0.16488400  0.17133500  0.17958400  1
  C  C89  1  0.16488400  0.82866500  0.32041600  1
  C  C90  1  0.33511600  0.17133500  0.82041600  1
  C  C91  1  0.33511600  0.82866500  0.67958400  1
  C  C92  1  0.85969200  0.65095300  0.93507200  1
  C  C93  1  0.85969200  0.34904700  0.56492800  1
  C  C94  1  0.64030800  0.65095300  0.06492800  1
  C  C95  1  0.64030800  0.34904700  0.43507200  1
  C  C96  1  0.14030800  0.34904700  0.06492800  1
  C  C97  1  0.14030800  0.65095300  0.43507200  1
  C  C98  1  0.35969200  0.34904700  0.93507200  1
  C  C99  1  0.35969200  0.65095300  0.56492800  1
  C  C100  1  0.75000000  0.53415700  0.50000000  1
  C  C101  1  0.75000000  0.46584300  0.00000000  1
  C  C102  1  0.25000000  0.46584300  0.50000000  1
  C  C103  1  0.25000000  0.53415700  0.00000000  1
  C  C104  1  0.63993900  0.92217000  0.90721700  1
  C  C105  1  0.63993900  0.07783000  0.59278300  1
  C  C106  1  0.86006100  0.92217000  0.09278300  1
  C  C107  1  0.86006100  0.07783000  0.40721700  1
  C  C108  1  0.36006100  0.07783000  0.09278300  1
  C  C109  1  0.36006100  0.92217000  0.40721700  1
  C  C110  1  0.13993900  0.07783000  0.90721700  1
  C  C111  1  0.98058900  0.31931900  0.20160300  1
