# generated using pymatgen
data_Cu2Ni2C21
_symmetry_space_group_name_H-M   'P 1'
_cell_length_a   10.22243448
_cell_length_b   5.98734001
_cell_length_c   5.06842816
_cell_angle_alpha   89.99337445
_cell_angle_beta   90.03140958
_cell_angle_gamma   90.00464846
_symmetry_Int_Tables_number   1
_chemical_formula_structural   Cu2Ni2C21
_chemical_formula_sum   'Cu2 Ni2 C21'
_cell_volume   310.21406395
_cell_formula_units_Z   1
loop_
 _symmetry_equiv_pos_site_id
 _symmetry_equiv_pos_as_xyz
  1  'x, y, z'
loop_
 _atom_site_type_symbol
 _atom_site_label
 _atom_site_symmetry_multiplicity
 _atom_site_fract_x
 _atom_site_fract_y
 _atom_site_fract_z
 _atom_site_occupancy
  C  C0  1  0.05625900  0.75000600  0.07591900  1
  Ni  Ni1  1  0.23842400  0.74999200  0.49276200  1
  Ni  Ni2  1  0.30237800  0.24997300  0.89423700  1
  Cu  Cu3  1  0.71671300  0.75005400  0.06232600  1
  Cu  Cu4  1  0.76931200  0.24999900  0.53757500  1
  C  C5  1  0.09287400  0.24999600  0.37742900  1
  C  C6  1  0.41061700  0.74998400  0.93747900  1
  C  C7  1  0.60092500  0.25003400  0.09475100  1
  C  C8  1  0.89619500  0.74999300  0.59585100  1
  C  C9  1  0.04269800  0.75000700  0.68951200  1
  C  C10  1  0.14564700  0.24997400  0.66338900  1
  C  C11  1  0.14594900  0.03551700  0.22879200  1
  C  C12  1  0.14593900  0.46452500  0.22880700  1
  C  C13  1  0.33061500  0.55451000  0.79450800  1
  C  C14  1  0.33065300  0.94548400  0.79445800  1
  C  C15  1  0.38733300  0.74999900  0.23109500  1
  C  C16  1  0.44999200  0.25000600  0.13583700  1
  C  C17  1  0.55039800  0.74994200  0.84691000  1
  C  C18  1  0.62867600  0.24998000  0.79855900  1
  C  C19  1  0.66829000  0.05212600  0.24722600  1
  C  C20  1  0.66827100  0.44797400  0.24715200  1
  C  C21  1  0.82605000  0.54482000  0.71845000  1
  C  C22  1  0.82604000  0.95508800  0.71855900  1
  C  C23  1  0.89523600  0.75004600  0.29019700  1
  C  C24  1  0.94326600  0.24997500  0.36691700  1
