# generated using pymatgen
data_Cu10Ni3C4
_symmetry_space_group_name_H-M   'P 1'
_cell_length_a   6.80270900
_cell_length_b   7.17171400
_cell_length_c   33.02885500
_cell_angle_alpha   90.00000000
_cell_angle_beta   90.00000000
_cell_angle_gamma   90.00000000
_symmetry_Int_Tables_number   1
_chemical_formula_structural   Cu10Ni3C4
_chemical_formula_sum   'Cu40 Ni12 C16'
_cell_volume   1611.38150261
_cell_formula_units_Z   4
loop_
 _symmetry_equiv_pos_site_id
 _symmetry_equiv_pos_as_xyz
  1  'x, y, z'
loop_
 _atom_site_type_symbol
 _atom_site_label
 _atom_site_symmetry_multiplicity
 _atom_site_fract_x
 _atom_site_fract_y
 _atom_site_fract_z
 _atom_site_occupancy
  C  C0  1  0.97390200  0.58875000  0.57024000  1
  C  C1  1  0.47390200  0.91125000  0.42976000  1
  C  C2  1  0.02609800  0.08875000  0.92976000  1
  C  C3  1  0.52609800  0.41125000  0.07024000  1
  C  C4  1  0.02609800  0.41125000  0.42976000  1
  C  C5  1  0.52609800  0.08875000  0.57024000  1
  C  C6  1  0.97390200  0.91125000  0.07024000  1
  C  C7  1  0.47390200  0.58875000  0.92976000  1
  C  C8  1  0.51189400  0.91683800  0.70479700  1
  C  C9  1  0.01189400  0.58316200  0.29520300  1
  C  C10  1  0.48810600  0.41683800  0.79520300  1
  C  C11  1  0.98810600  0.08316200  0.20479700  1
  C  C12  1  0.48810600  0.08316200  0.29520300  1
  C  C13  1  0.98810600  0.41683800  0.70479700  1
  C  C14  1  0.51189400  0.58316200  0.20479700  1
  C  C15  1  0.01189400  0.91683800  0.79520300  1
  Ni  Ni16  1  0.50000000  0.50000000  0.50000000  1
  Ni  Ni17  1  0.00000000  0.00000000  0.50000000  1
  Ni  Ni18  1  0.50000000  0.00000000  0.00000000  1
  Ni  Ni19  1  0.00000000  0.50000000  0.00000000  1
  Ni  Ni20  1  0.99633700  0.00036200  0.64573900  1
  Ni  Ni21  1  0.49633700  0.49963800  0.35426100  1
  Ni  Ni22  1  0.00366300  0.50036200  0.85426100  1
  Ni  Ni23  1  0.50366300  0.99963800  0.14573900  1
  Ni  Ni24  1  0.00366300  0.99963800  0.35426100  1
  Ni  Ni25  1  0.50366300  0.50036200  0.64573900  1
  Ni  Ni26  1  0.99633700  0.49963800  0.14573900  1
  Ni  Ni27  1  0.49633700  0.00036200  0.85426100  1
  Cu  Cu28  1  0.13084500  0.95142900  0.57268600  1
  Cu  Cu29  1  0.63084500  0.54857100  0.42731400  1
  Cu  Cu30  1  0.86915500  0.45142900  0.92731400  1
  Cu  Cu31  1  0.36915500  0.04857100  0.07268600  1
  Cu  Cu32  1  0.86915500  0.04857100  0.42731400  1
  Cu  Cu33  1  0.36915500  0.45142900  0.57268600  1
  Cu  Cu34  1  0.13084500  0.54857100  0.07268600  1
  Cu  Cu35  1  0.63084500  0.95142900  0.92731400  1
  Cu  Cu36  1  0.89255400  0.04413600  0.71803800  1
  Cu  Cu37  1  0.39255400  0.45586400  0.28196200  1
  Cu  Cu38  1  0.10744600  0.54413600  0.78196200  1
  Cu  Cu39  1  0.60744600  0.95586400  0.21803800  1
  Cu  Cu40  1  0.10744600  0.95586400  0.28196200  1
  Cu  Cu41  1  0.60744600  0.54413600  0.71803800  1
  Cu  Cu42  1  0.89255400  0.45586400  0.21803800  1
  Cu  Cu43  1  0.39255400  0.04413600  0.78196200  1
  Cu  Cu44  1  0.81629200  0.31463800  0.62463800  1
  Cu  Cu45  1  0.31629200  0.18536200  0.37536200  1
  Cu  Cu46  1  0.18370800  0.81463800  0.87536200  1
  Cu  Cu47  1  0.68370800  0.68536200  0.12463800  1
  Cu  Cu48  1  0.18370800  0.68536200  0.37536200  1
  Cu  Cu49  1  0.68370800  0.81463800  0.62463800  1
  Cu  Cu50  1  0.81629200  0.18536200  0.12463800  1
  Cu  Cu51  1  0.31629200  0.31463800  0.87536200  1
  Cu  Cu52  1  0.19127800  0.70194500  0.66385600  1
  Cu  Cu53  1  0.69127800  0.79805500  0.33614400  1
  Cu  Cu54  1  0.80872200  0.20194500  0.83614400  1
  Cu  Cu55  1  0.30872200  0.29805500  0.16385600  1
  Cu  Cu56  1  0.80872200  0.29805500  0.33614400  1
  Cu  Cu57  1  0.30872200  0.20194500  0.66385600  1
  Cu  Cu58  1  0.19127800  0.79805500  0.16385600  1
  Cu  Cu59  1  0.69127800  0.70194500  0.83614400  1
  Cu  Cu60  1  0.31627800  0.18918700  0.48302900  1
  Cu  Cu61  1  0.81627800  0.31081300  0.51697100  1
  Cu  Cu62  1  0.68372200  0.68918700  0.01697100  1
  Cu  Cu63  1  0.18372200  0.81081300  0.98302900  1
  Cu  Cu64  1  0.68372200  0.81081300  0.51697100  1
  Cu  Cu65  1  0.18372200  0.68918700  0.48302900  1
  Cu  Cu66  1  0.31627800  0.31081300  0.98302900  1
  Cu  Cu67  1  0.81627800  0.18918700  0.01697100  1
