# generated using pymatgen
data_CuNiC17
_symmetry_space_group_name_H-M   'P 1'
_cell_length_a   6.42949932
_cell_length_b   6.42949932
_cell_length_c   6.42949933
_cell_angle_alpha   82.51620078
_cell_angle_beta   82.51620078
_cell_angle_gamma   82.51620453
_symmetry_Int_Tables_number   1
_chemical_formula_structural   CuNiC17
_chemical_formula_sum   'Cu1 Ni1 C17'
_cell_volume   259.53621833
_cell_formula_units_Z   1
loop_
 _symmetry_equiv_pos_site_id
 _symmetry_equiv_pos_as_xyz
  1  'x, y, z'
loop_
 _atom_site_type_symbol
 _atom_site_label
 _atom_site_symmetry_multiplicity
 _atom_site_fract_x
 _atom_site_fract_y
 _atom_site_fract_z
 _atom_site_occupancy
  Ni  Ni0  1  0.65711700  0.65711700  0.65711700  1
  Cu  Cu1  1  0.34054700  0.34054700  0.34054700  1
  C  C2  1  0.34377300  0.84336000  0.34377300  1
  C  C3  1  0.34377300  0.34377300  0.84336000  1
  C  C4  1  0.84336000  0.34377300  0.34377300  1
  C  C5  1  0.65608100  0.15556500  0.65608100  1
  C  C6  1  0.65608100  0.65608100  0.15556500  1
  C  C7  1  0.15556500  0.65608100  0.65608100  1
  C  C8  1  0.70746400  0.29327300  0.00006300  1
  C  C9  1  0.00006300  0.70746400  0.29327300  1
  C  C10  1  0.29327300  0.00006300  0.70746400  1
  C  C11  1  0.00006300  0.29327300  0.70746400  1
  C  C12  1  0.70746400  0.00006300  0.29327300  1
  C  C13  1  0.29327300  0.70746400  0.00006300  1
  C  C14  1  0.00138800  0.00138800  0.49974800  1
  C  C15  1  0.49974800  0.00138800  0.00138800  1
  C  C16  1  0.00138800  0.49974800  0.00138800  1
  C  C17  1  0.90284700  0.90284700  0.90284700  1
  C  C18  1  0.09673200  0.09673200  0.09673200  1
