# generated using pymatgen
data_Cu8NiC5
_symmetry_space_group_name_H-M   'P 1'
_cell_length_a   10.33129983
_cell_length_b   10.33129983
_cell_length_c   10.33129983
_cell_angle_alpha   144.26020196
_cell_angle_beta   140.42741937
_cell_angle_gamma   54.37369586
_symmetry_Int_Tables_number   1
_chemical_formula_structural   Cu8NiC5
_chemical_formula_sum   'Cu16 Ni2 C10'
_cell_volume   407.56025562
_cell_formula_units_Z   2
loop_
 _symmetry_equiv_pos_site_id
 _symmetry_equiv_pos_as_xyz
  1  'x, y, z'
loop_
 _atom_site_type_symbol
 _atom_site_label
 _atom_site_symmetry_multiplicity
 _atom_site_fract_x
 _atom_site_fract_y
 _atom_site_fract_z
 _atom_site_occupancy
  C  C0  1  0.09159700  0.71781800  0.63448800  1
  C  C1  1  0.91666900  0.28218200  0.37377800  1
  C  C2  1  0.59159700  0.95710900  0.37377800  1
  C  C3  1  0.41666900  0.04289100  0.63448800  1
  C  C4  1  0.98379200  0.61981000  0.10360200  1
  C  C5  1  0.48379200  0.38019000  0.36398300  1
  C  C6  1  0.09538300  0.22051100  0.11670300  1
  C  C7  1  0.89619200  0.77948900  0.87487200  1
  C  C8  1  0.59538300  0.47868000  0.87487200  1
  C  C9  1  0.39619200  0.52132000  0.11670300  1
  Ni  Ni10  1  0.24638100  0.98528600  0.73166700  1
  Ni  Ni11  1  0.74638100  0.01471400  0.26109400  1
  Cu  Cu12  1  0.16290700  0.44303000  0.25518700  1
  Cu  Cu13  1  0.81215700  0.55697000  0.71987700  1
  Cu  Cu14  1  0.66290700  0.40772000  0.71987700  1
  Cu  Cu15  1  0.31215700  0.59228000  0.25518700  1
  Cu  Cu16  1  0.80040000  0.64193900  0.21598200  1
  Cu  Cu17  1  0.57404200  0.35806100  0.15846100  1
  Cu  Cu18  1  0.30040000  0.08441900  0.15846100  1
  Cu  Cu19  1  0.07404200  0.91558100  0.21598200  1
  Cu  Cu20  1  0.22712600  0.35330500  0.77105800  1
  Cu  Cu21  1  0.41775300  0.64669500  0.87382100  1
  Cu  Cu22  1  0.72712600  0.95606800  0.87382100  1
  Cu  Cu23  1  0.91775300  0.04393200  0.77105800  1
  Cu  Cu24  1  0.03514100  0.32237200  0.29243200  1
  Cu  Cu25  1  0.97006000  0.67762800  0.71276900  1
  Cu  Cu26  1  0.53514100  0.24271000  0.71276900  1
  Cu  Cu27  1  0.47006000  0.75729000  0.29243200  1
