# generated using pymatgen
data_Cu2NiC10
_symmetry_space_group_name_H-M   'P 1'
_cell_length_a   8.61456401
_cell_length_b   8.61456401
_cell_length_c   17.50207394
_cell_angle_alpha   64.14722417
_cell_angle_beta   64.14722417
_cell_angle_gamma   32.29055955
_symmetry_Int_Tables_number   1
_chemical_formula_structural   Cu2NiC10
_chemical_formula_sum   'Cu8 Ni4 C40'
_cell_volume   618.24116157
_cell_formula_units_Z   4
loop_
 _symmetry_equiv_pos_site_id
 _symmetry_equiv_pos_as_xyz
  1  'x, y, z'
loop_
 _atom_site_type_symbol
 _atom_site_label
 _atom_site_symmetry_multiplicity
 _atom_site_fract_x
 _atom_site_fract_y
 _atom_site_fract_z
 _atom_site_occupancy
  C  C0  1  0.37285300  0.80972500  0.53439000  1
  C  C1  1  0.19027500  0.62714700  0.96561000  1
  C  C2  1  0.62714700  0.19027500  0.46561000  1
  C  C3  1  0.00000000  0.50000000  0.50000000  1
  C  C4  1  0.80972500  0.37285300  0.03439000  1
  C  C5  1  0.67498300  0.32501700  0.25000000  1
  C  C6  1  0.32501700  0.67498300  0.75000000  1
  C  C7  1  0.50000000  0.00000000  0.00000000  1
  Ni  Ni8  1  0.15451300  0.51440200  0.66185100  1
  Ni  Ni9  1  0.48559800  0.84548700  0.83814900  1
  Ni  Ni10  1  0.51440200  0.15451300  0.16185100  1
  Ni  Ni11  1  0.84548700  0.48559800  0.33814900  1
  Cu  Cu12  1  0.50647700  0.93446300  0.63408000  1
  Cu  Cu13  1  0.80932200  0.23471700  0.88046700  1
  Cu  Cu14  1  0.49352300  0.06553700  0.36592000  1
  Cu  Cu15  1  0.23471700  0.80932200  0.38046700  1
  Cu  Cu16  1  0.93446300  0.50647700  0.13408000  1
  Cu  Cu17  1  0.06553700  0.49352300  0.86592000  1
  Cu  Cu18  1  0.19067800  0.76528300  0.11953300  1
  Cu  Cu19  1  0.76528300  0.19067800  0.61953300  1
  C  C20  1  0.15353500  0.32392100  0.38768600  1
  C  C21  1  0.56453100  0.27490400  0.58096400  1
  C  C22  1  0.32392100  0.15353500  0.88768600  1
  C  C23  1  0.67494300  0.16266300  0.94630500  1
  C  C24  1  0.62156900  0.82392700  0.44557300  1
  C  C25  1  0.70612100  0.39467500  0.79306000  1
  C  C26  1  0.83733700  0.32505700  0.55369500  1
  C  C27  1  0.92812400  0.15065000  0.37125500  1
  C  C28  1  0.32505700  0.83733700  0.05369500  1
  C  C29  1  0.72509600  0.43546900  0.91903600  1
  C  C30  1  0.59784500  0.15518700  0.35889800  1
  C  C31  1  0.05535100  0.39165800  0.21502100  1
  C  C32  1  0.43546900  0.72509600  0.41903600  1
  C  C33  1  0.15065000  0.92812400  0.87125500  1
  C  C34  1  0.84646500  0.67607900  0.61231400  1
  C  C35  1  0.40215500  0.84481300  0.64110200  1
  C  C36  1  0.39165800  0.05535100  0.71502100  1
  C  C37  1  0.16266300  0.67494300  0.44630500  1
  C  C38  1  0.15518700  0.59784500  0.85889800  1
  C  C39  1  0.94464900  0.60834200  0.78497900  1
  C  C40  1  0.84935000  0.07187600  0.12874500  1
  C  C41  1  0.82392700  0.62156900  0.94557300  1
  C  C42  1  0.07187600  0.84935000  0.62874500  1
  C  C43  1  0.39467500  0.70612100  0.29306000  1
  C  C44  1  0.27490400  0.56453100  0.08096400  1
  C  C45  1  0.67607900  0.84646500  0.11231400  1
  C  C46  1  0.60834200  0.94464900  0.28497900  1
  C  C47  1  0.17607300  0.37843100  0.05442700  1
  C  C48  1  0.37843100  0.17607300  0.55442700  1
  C  C49  1  0.60532500  0.29387900  0.70694000  1
  C  C50  1  0.29387900  0.60532500  0.20694000  1
  C  C51  1  0.84481300  0.40215500  0.14110200  1
