# generated using pymatgen
data_Cu(NiC5)4
_symmetry_space_group_name_H-M   'P 1'
_cell_length_a   5.60818200
_cell_length_b   5.66845141
_cell_length_c   23.18592534
_cell_angle_alpha   96.81063274
_cell_angle_beta   89.75411786
_cell_angle_gamma   119.56141871
_symmetry_Int_Tables_number   1
_chemical_formula_structural   Cu(NiC5)4
_chemical_formula_sum   'Cu2 Ni8 C40'
_cell_volume   635.34740472
_cell_formula_units_Z   2
loop_
 _symmetry_equiv_pos_site_id
 _symmetry_equiv_pos_as_xyz
  1  'x, y, z'
loop_
 _atom_site_type_symbol
 _atom_site_label
 _atom_site_symmetry_multiplicity
 _atom_site_fract_x
 _atom_site_fract_y
 _atom_site_fract_z
 _atom_site_occupancy
  Ni  Ni0  1  0.81438300  0.08303800  0.54317300  1
  Ni  Ni1  1  0.21000100  0.67502300  0.74421900  1
  Ni  Ni2  1  0.61391300  0.27987600  0.94541700  1
  Ni  Ni3  1  0.11310200  0.78081000  0.44211000  1
  Ni  Ni4  1  0.51232800  0.38031200  0.64340700  1
  Ni  Ni5  1  0.91117100  0.97770600  0.84507900  1
  Ni  Ni6  1  0.31014400  0.57571400  0.04593100  1
  Ni  Ni7  1  0.70951900  0.17650700  0.24566800  1
  Cu  Cu8  1  0.00645900  0.86614100  0.14527500  1
  Cu  Cu9  1  0.39953000  0.45900600  0.34201100  1
  C  C10  1  0.09228700  0.88905000  0.29936400  1
  C  C11  1  0.50093100  0.50361600  0.49615200  1
  C  C12  1  0.89658400  0.09528500  0.69915900  1
  C  C13  1  0.30032900  0.69911900  0.90089200  1
  C  C14  1  0.69563600  0.29353600  0.10151000  1
  C  C15  1  0.00042800  0.99579000  0.00230600  1
  C  C16  1  0.39933000  0.59853000  0.20131700  1
  C  C17  1  0.79845900  0.20255500  0.39694200  1
  C  C18  1  0.20108500  0.79928100  0.59872800  1
  C  C19  1  0.59784300  0.39666200  0.79964700  1
  C  C20  1  0.61047000  0.78493100  0.28987300  1
  C  C21  1  0.01317900  0.39666400  0.48513300  1
  C  C22  1  0.41464800  0.98683700  0.68657600  1
  C  C23  1  0.81667400  0.59166900  0.88847700  1
  C  C24  1  0.21368500  0.19199200  0.08917400  1
  C  C25  1  0.31580300  0.95466200  0.20883400  1
  C  C26  1  0.69960500  0.55360000  0.40440000  1
  C  C27  1  0.10414300  0.15232500  0.60751600  1
  C  C28  1  0.50000100  0.74783200  0.80899500  1
  C  C29  1  0.90472200  0.35059800  0.00977100  1
  C  C30  1  0.19570300  0.60778500  0.37507700  1
  C  C31  1  0.59102300  0.21216300  0.57634500  1
  C  C32  1  0.98940600  0.80580300  0.77769500  1
  C  C33  1  0.39392500  0.41073600  0.97955600  1
  C  C34  1  0.79902600  0.01033700  0.18008400  1
  C  C35  1  0.09866700  0.31573900  0.27944100  1
  C  C36  1  0.49438800  0.91146000  0.47599500  1
  C  C37  1  0.89732000  0.50750100  0.67712400  1
  C  C38  1  0.29562000  0.10971900  0.87888900  1
  C  C39  1  0.68963900  0.70787000  0.07948000  1
  C  C40  1  0.55337000  0.26205900  0.30768400  1
  C  C41  1  0.95486000  0.85357800  0.50578000  1
  C  C42  1  0.35593900  0.44712500  0.70866200  1
  C  C43  1  0.75491500  0.05033300  0.90962200  1
  C  C44  1  0.15315700  0.65758600  0.10869300  1
  C  C45  1  0.17341700  0.10071500  0.38558900  1
  C  C46  1  0.56347300  0.69477700  0.58671800  1
  C  C47  1  0.96045000  0.28737200  0.78715500  1
  C  C48  1  0.36387400  0.89139300  0.98935100  1
  C  C49  1  0.77183700  0.49488200  0.18920100  1
