# generated using pymatgen
data_Cu3(NiC)2
_symmetry_space_group_name_H-M   'P 1'
_cell_length_a   8.36836499
_cell_length_b   8.36836499
_cell_length_c   13.31058665
_cell_angle_alpha   74.67897676
_cell_angle_beta   105.32102324
_cell_angle_gamma   114.86945023
_symmetry_Int_Tables_number   1
_chemical_formula_structural   Cu3(NiC)2
_chemical_formula_sum   'Cu24 Ni16 C16'
_cell_volume   803.05756318
_cell_formula_units_Z   8
loop_
 _symmetry_equiv_pos_site_id
 _symmetry_equiv_pos_as_xyz
  1  'x, y, z'
loop_
 _atom_site_type_symbol
 _atom_site_label
 _atom_site_symmetry_multiplicity
 _atom_site_fract_x
 _atom_site_fract_y
 _atom_site_fract_z
 _atom_site_occupancy
  C  C0  1  0.75498500  0.19498600  0.63922900  1
  C  C1  1  0.19498600  0.75498500  0.86077100  1
  C  C2  1  0.24501500  0.80501400  0.36077100  1
  C  C3  1  0.80501400  0.24501500  0.13922900  1
  C  C4  1  0.26955500  0.22918100  0.09631300  1
  C  C5  1  0.22918100  0.26955500  0.40368700  1
  C  C6  1  0.73044500  0.77081900  0.90368700  1
  C  C7  1  0.77081900  0.73044500  0.59631300  1
  C  C8  1  0.05170700  0.17702000  0.84055700  1
  C  C9  1  0.17702000  0.05170700  0.65944300  1
  C  C10  1  0.94829300  0.82298000  0.15944300  1
  C  C11  1  0.82298000  0.94829300  0.34055700  1
  C  C12  1  0.08231700  0.08732000  0.99952500  1
  C  C13  1  0.08732000  0.08231700  0.50047500  1
  C  C14  1  0.91768300  0.91268000  0.00047400  1
  C  C15  1  0.91268000  0.91768300  0.49952600  1
  Ni  Ni16  1  0.16918400  0.11157400  0.09299200  1
  Ni  Ni17  1  0.11157400  0.16918400  0.40700800  1
  Ni  Ni18  1  0.83081600  0.88842600  0.90700800  1
  Ni  Ni19  1  0.88842600  0.83081600  0.59299200  1
  Ni  Ni20  1  0.12917000  0.19488400  0.91710700  1
  Ni  Ni21  1  0.19488400  0.12917000  0.58289300  1
  Ni  Ni22  1  0.87083000  0.80511600  0.08289300  1
  Ni  Ni23  1  0.80511600  0.87083000  0.41710700  1
  Ni  Ni24  1  0.46720700  0.61267200  0.13557600  1
  Ni  Ni25  1  0.61267200  0.46720700  0.36442400  1
  Ni  Ni26  1  0.53279300  0.38732800  0.86442400  1
  Ni  Ni27  1  0.38732800  0.53279300  0.63557600  1
  Ni  Ni28  1  0.45214200  0.46174100  0.13154400  1
  Ni  Ni29  1  0.46174100  0.45214200  0.36845600  1
  Ni  Ni30  1  0.54785800  0.53825900  0.86845600  1
  Ni  Ni31  1  0.53825900  0.54785800  0.63154400  1
  Cu  Cu32  1  0.84581300  0.17086800  0.52672900  1
  Cu  Cu33  1  0.17086800  0.84581300  0.97327100  1
  Cu  Cu34  1  0.15418700  0.82913200  0.47327100  1
  Cu  Cu35  1  0.82913200  0.15418700  0.02672900  1
  Cu  Cu36  1  0.68844100  0.22030400  0.75831200  1
  Cu  Cu37  1  0.22030400  0.68844100  0.74168800  1
  Cu  Cu38  1  0.31155900  0.77969600  0.24168800  1
  Cu  Cu39  1  0.77969600  0.31155900  0.25831200  1
  Cu  Cu40  1  0.98586000  0.19516300  0.73201500  1
  Cu  Cu41  1  0.19516300  0.98586000  0.76798500  1
  Cu  Cu42  1  0.01414000  0.80483700  0.26798500  1
  Cu  Cu43  1  0.80483700  0.01414000  0.23201500  1
  Cu  Cu44  1  0.66530900  0.94001500  0.67846200  1
  Cu  Cu45  1  0.94001500  0.66530900  0.82153800  1
  Cu  Cu46  1  0.33469100  0.05998500  0.32153800  1
  Cu  Cu47  1  0.05998500  0.33469100  0.17846200  1
  Cu  Cu48  1  0.53497600  0.18909200  0.54909800  1
  Cu  Cu49  1  0.18909200  0.53497600  0.95090200  1
  Cu  Cu50  1  0.46502400  0.81090800  0.45090200  1
  Cu  Cu51  1  0.81090800  0.46502400  0.04909800  1
  Cu  Cu52  1  0.86344100  0.44792400  0.59894200  1
  Cu  Cu53  1  0.44792400  0.86344100  0.90105800  1
  Cu  Cu54  1  0.13655900  0.55207600  0.40105800  1
  Cu  Cu55  1  0.55207600  0.13655900  0.09894200  1
