# generated using pymatgen
data_CuNiC5
_symmetry_space_group_name_H-M   'P 1'
_cell_length_a   8.78566900
_cell_length_b   8.05932300
_cell_length_c   7.85067700
_cell_angle_alpha   90.00000000
_cell_angle_beta   90.00000000
_cell_angle_gamma   90.00000000
_symmetry_Int_Tables_number   1
_chemical_formula_structural   CuNiC5
_chemical_formula_sum   'Cu4 Ni4 C20'
_cell_volume   555.87930833
_cell_formula_units_Z   4
loop_
 _symmetry_equiv_pos_site_id
 _symmetry_equiv_pos_as_xyz
  1  'x, y, z'
loop_
 _atom_site_type_symbol
 _atom_site_label
 _atom_site_symmetry_multiplicity
 _atom_site_fract_x
 _atom_site_fract_y
 _atom_site_fract_z
 _atom_site_occupancy
  C  C0  1  0.25482600  0.75000000  0.84151800  1
  C  C1  1  0.75482600  0.75000000  0.65848200  1
  C  C2  1  0.74517400  0.25000000  0.15848200  1
  C  C3  1  0.24517400  0.25000000  0.34151800  1
  C  C4  1  0.20246400  0.75000000  0.66184100  1
  C  C5  1  0.70246400  0.75000000  0.83815900  1
  C  C6  1  0.79753600  0.25000000  0.33815900  1
  C  C7  1  0.29753600  0.25000000  0.16184100  1
  C  C8  1  0.34467000  0.59712900  0.87390300  1
  C  C9  1  0.84467000  0.90287100  0.62609700  1
  C  C10  1  0.65533000  0.09712900  0.12609700  1
  C  C11  1  0.15533000  0.40287100  0.37390300  1
  C  C12  1  0.65533000  0.40287100  0.12609700  1
  C  C13  1  0.15533000  0.09712900  0.37390300  1
  C  C14  1  0.34467000  0.90287100  0.87390300  1
  C  C15  1  0.84467000  0.59712900  0.62609700  1
  Ni  Ni16  1  0.01402600  0.75000000  0.09380100  1
  Ni  Ni17  1  0.51402600  0.75000000  0.40619900  1
  Ni  Ni18  1  0.98597400  0.25000000  0.90619900  1
  Ni  Ni19  1  0.48597400  0.25000000  0.59380100  1
  Cu  Cu20  1  0.09597200  0.75000000  0.97100200  1
  Cu  Cu21  1  0.59597200  0.75000000  0.52899800  1
  Cu  Cu22  1  0.90402800  0.25000000  0.02899800  1
  Cu  Cu23  1  0.40402800  0.25000000  0.47100200  1
  C  C24  1  0.92819800  0.75000000  0.21058100  1
  C  C25  1  0.42819800  0.75000000  0.28941900  1
  C  C26  1  0.07180200  0.25000000  0.78941900  1
  C  C27  1  0.57180200  0.25000000  0.71058100  1
