# generated using pymatgen
data_Cu4NiC17
_symmetry_space_group_name_H-M   'P 1'
_cell_length_a   7.57492900
_cell_length_b   7.23343100
_cell_length_c   9.57032123
_cell_angle_alpha   68.56884288
_cell_angle_beta   90.00000000
_cell_angle_gamma   90.00000000
_symmetry_Int_Tables_number   1
_chemical_formula_structural   Cu4NiC17
_chemical_formula_sum   'Cu8 Ni2 C34'
_cell_volume   488.12664546
_cell_formula_units_Z   2
loop_
 _symmetry_equiv_pos_site_id
 _symmetry_equiv_pos_as_xyz
  1  'x, y, z'
loop_
 _atom_site_type_symbol
 _atom_site_label
 _atom_site_symmetry_multiplicity
 _atom_site_fract_x
 _atom_site_fract_y
 _atom_site_fract_z
 _atom_site_occupancy
  Ni  Ni0  1  0.00000000  0.50000000  0.00000000  1
  Ni  Ni1  1  0.50000000  0.50000000  0.50000000  1
  C  C2  1  0.13180000  0.81375000  0.51908400  1
  C  C3  1  0.63180000  0.18625000  0.98091600  1
  C  C4  1  0.86820000  0.18625000  0.48091600  1
  C  C5  1  0.36820000  0.81375000  0.01908400  1
  C  C6  1  0.00000000  0.00000000  0.00000000  1
  C  C7  1  0.50000000  0.00000000  0.50000000  1
  Cu  Cu8  1  0.92763900  0.41715900  0.70466700  1
  Cu  Cu9  1  0.42763900  0.58284100  0.79533300  1
  Cu  Cu10  1  0.07236100  0.58284100  0.29533300  1
  Cu  Cu11  1  0.57236100  0.41715900  0.20466700  1
  Cu  Cu12  1  0.20770100  0.13468700  0.68795400  1
  Cu  Cu13  1  0.70770100  0.86531300  0.81204600  1
  Cu  Cu14  1  0.79229900  0.86531300  0.31204600  1
  Cu  Cu15  1  0.29229900  0.13468700  0.18795400  1
  C  C16  1  0.38428400  0.19556000  0.60241800  1
  C  C17  1  0.88428400  0.80444000  0.89758200  1
  C  C18  1  0.61571600  0.80444000  0.39758200  1
  C  C19  1  0.11571600  0.19556000  0.10241800  1
  C  C20  1  0.38720500  0.70255200  0.62491800  1
  C  C21  1  0.88720500  0.29744800  0.87508200  1
  C  C22  1  0.61279500  0.29744800  0.37508200  1
  C  C23  1  0.11279500  0.70255200  0.12491800  1
  C  C24  1  0.79307600  0.37643300  0.60002900  1
  C  C25  1  0.29307600  0.62356700  0.89997100  1
  C  C26  1  0.20692400  0.62356700  0.39997100  1
  C  C27  1  0.70692400  0.37643300  0.10002900  1
  C  C28  1  0.11702000  0.33994400  0.67196900  1
  C  C29  1  0.61702000  0.66005600  0.82803100  1
  C  C30  1  0.88298000  0.66005600  0.32803100  1
  C  C31  1  0.38298000  0.33994400  0.17196900  1
  C  C32  1  0.53131400  0.63052500  0.18225600  1
  C  C33  1  0.03131400  0.36947500  0.31774400  1
  C  C34  1  0.46868600  0.36947500  0.81774400  1
  C  C35  1  0.96868600  0.63052500  0.68225600  1
  C  C36  1  0.78627400  0.97954300  0.14129700  1
  C  C37  1  0.28627400  0.02045700  0.35870300  1
  C  C38  1  0.21372600  0.02045700  0.85870300  1
  C  C39  1  0.71372600  0.97954300  0.64129700  1
  C  C40  1  0.41261000  0.03238200  0.10992000  1
  C  C41  1  0.91261000  0.96761800  0.39008000  1
  C  C42  1  0.58739000  0.96761800  0.89008000  1
  C  C43  1  0.08739000  0.03238200  0.60992000  1
