# generated using pymatgen
data_Cu(NiC2)2
_symmetry_space_group_name_H-M   'P 1'
_cell_length_a   6.06706662
_cell_length_b   6.06706662
_cell_length_c   14.91240400
_cell_angle_alpha   90.00000000
_cell_angle_beta   90.00000000
_cell_angle_gamma   120.00000678
_symmetry_Int_Tables_number   1
_chemical_formula_structural   Cu(NiC2)2
_chemical_formula_sum   'Cu6 Ni12 C24'
_cell_volume   475.37440045
_cell_formula_units_Z   6
loop_
 _symmetry_equiv_pos_site_id
 _symmetry_equiv_pos_as_xyz
  1  'x, y, z'
loop_
 _atom_site_type_symbol
 _atom_site_label
 _atom_site_symmetry_multiplicity
 _atom_site_fract_x
 _atom_site_fract_y
 _atom_site_fract_z
 _atom_site_occupancy
  Ni  Ni0  1  0.83449200  0.16550800  0.16704600  1
  Ni  Ni1  1  0.33101500  0.16550800  0.16704600  1
  Ni  Ni2  1  0.50022100  0.49977900  0.49944200  1
  Ni  Ni3  1  0.83449200  0.66898500  0.16704600  1
  Ni  Ni4  1  0.66666700  0.33333300  0.33312300  1
  Ni  Ni5  1  0.99955900  0.49977900  0.49944200  1
  Ni  Ni6  1  0.16741300  0.83258700  0.83298600  1
  Ni  Ni7  1  0.50022100  0.00044100  0.49944200  1
  Ni  Ni8  1  0.16741300  0.33482600  0.83298600  1
  Ni  Ni9  1  0.33333300  0.66666700  0.66542900  1
  Ni  Ni10  1  0.66517400  0.83258700  0.83298600  1
  Ni  Ni11  1  0.66666700  0.33333300  0.95850300  1
  Cu  Cu12  1  0.33333300  0.66666700  0.04671300  1
  Cu  Cu13  1  0.00000000  0.00000000  0.37494500  1
  Cu  Cu14  1  0.00000000  0.00000000  0.00167000  1
  Cu  Cu15  1  0.66666700  0.33333300  0.70764100  1
  Cu  Cu16  1  0.33333300  0.66666700  0.29063800  1
  Cu  Cu17  1  0.00000000  0.00000000  0.62489400  1
  C  C18  1  0.68934000  0.84467000  0.09154100  1
  C  C19  1  0.00000000  0.00000000  0.24132900  1
  C  C20  1  0.15533000  0.31066000  0.09154100  1
  C  C21  1  0.15533000  0.84467000  0.09154100  1
  C  C22  1  0.51437300  0.48562700  0.24628500  1
  C  C23  1  0.36340400  0.18170200  0.41930700  1
  C  C24  1  0.51437300  0.02874500  0.24628500  1
  C  C25  1  0.66666700  0.33333300  0.08900900  1
  C  C26  1  0.81829800  0.63659600  0.41930700  1
  C  C27  1  0.66666700  0.33333300  0.57181100  1
  C  C28  1  0.97125500  0.48562700  0.24628500  1
  C  C29  1  0.81829800  0.18170200  0.41930700  1
  C  C30  1  0.18073300  0.81926700  0.58032100  1
  C  C31  1  0.02846500  0.51423200  0.75241200  1
  C  C32  1  0.18073300  0.36146500  0.58032100  1
  C  C33  1  0.33333300  0.66666700  0.42775200  1
  C  C34  1  0.33333300  0.66666700  0.90575700  1
  C  C35  1  0.48576800  0.97153500  0.75241200  1
  C  C36  1  0.63853500  0.81926700  0.58032100  1
  C  C37  1  0.48576800  0.51423200  0.75241200  1
  C  C38  1  0.84053700  0.15946300  0.91012900  1
  C  C39  1  0.00000000  0.00000000  0.76192400  1
  C  C40  1  0.84053700  0.68107300  0.91012900  1
  C  C41  1  0.31892700  0.15946300  0.91012900  1
