# generated using pymatgen
data_Cu6Ni3C
_symmetry_space_group_name_H-M   'P 1'
_cell_length_a   6.72818100
_cell_length_b   7.25446000
_cell_length_c   10.89890400
_cell_angle_alpha   90.00000000
_cell_angle_beta   90.00000000
_cell_angle_gamma   90.00000000
_symmetry_Int_Tables_number   1
_chemical_formula_structural   Cu6Ni3C
_chemical_formula_sum   'Cu24 Ni12 C4'
_cell_volume   531.96809230
_cell_formula_units_Z   4
loop_
 _symmetry_equiv_pos_site_id
 _symmetry_equiv_pos_as_xyz
  1  'x, y, z'
loop_
 _atom_site_type_symbol
 _atom_site_label
 _atom_site_symmetry_multiplicity
 _atom_site_fract_x
 _atom_site_fract_y
 _atom_site_fract_z
 _atom_site_occupancy
  C  C0  1  0.37294800  0.70980300  0.25000000  1
  C  C1  1  0.12705200  0.20980300  0.25000000  1
  C  C2  1  0.62705200  0.29019700  0.75000000  1
  C  C3  1  0.87294800  0.79019700  0.75000000  1
  Ni  Ni4  1  0.86602600  0.62696300  0.25000000  1
  Ni  Ni5  1  0.63397400  0.12696300  0.25000000  1
  Ni  Ni6  1  0.13397400  0.37303700  0.75000000  1
  Ni  Ni7  1  0.36602600  0.87303700  0.75000000  1
  Ni  Ni8  1  0.04795900  0.90897400  0.47823500  1
  Ni  Ni9  1  0.45204100  0.40897400  0.02176500  1
  Ni  Ni10  1  0.95204100  0.09102600  0.97823500  1
  Ni  Ni11  1  0.54795900  0.59102600  0.52176500  1
  Ni  Ni12  1  0.95204100  0.09102600  0.52176500  1
  Ni  Ni13  1  0.54795900  0.59102600  0.97823500  1
  Ni  Ni14  1  0.04795900  0.90897400  0.02176500  1
  Ni  Ni15  1  0.45204100  0.40897400  0.47823500  1
  Cu  Cu16  1  0.03644100  0.55047800  0.25000000  1
  Cu  Cu17  1  0.46355900  0.05047800  0.25000000  1
  Cu  Cu18  1  0.96355900  0.44952200  0.75000000  1
  Cu  Cu19  1  0.53644100  0.94952200  0.75000000  1
  Cu  Cu20  1  0.70174000  0.54922500  0.25000000  1
  Cu  Cu21  1  0.79826000  0.04922500  0.25000000  1
  Cu  Cu22  1  0.29826000  0.45077500  0.75000000  1
  Cu  Cu23  1  0.20174000  0.95077500  0.75000000  1
  Cu  Cu24  1  0.14803700  0.91963400  0.37862400  1
  Cu  Cu25  1  0.35196300  0.41963400  0.12137600  1
  Cu  Cu26  1  0.85196300  0.08036600  0.87862400  1
  Cu  Cu27  1  0.64803700  0.58036600  0.62137600  1
  Cu  Cu28  1  0.85196300  0.08036600  0.62137600  1
  Cu  Cu29  1  0.64803700  0.58036600  0.87862400  1
  Cu  Cu30  1  0.14803700  0.91963400  0.12137600  1
  Cu  Cu31  1  0.35196300  0.41963400  0.37862400  1
  Cu  Cu32  1  0.02207800  0.76685600  0.54179200  1
  Cu  Cu33  1  0.47792200  0.26685600  0.95820800  1
  Cu  Cu34  1  0.97792200  0.23314400  0.04179200  1
  Cu  Cu35  1  0.52207800  0.73314400  0.45820800  1
  Cu  Cu36  1  0.97792200  0.23314400  0.45820800  1
  Cu  Cu37  1  0.52207800  0.73314400  0.04179200  1
  Cu  Cu38  1  0.02207800  0.76685600  0.95820800  1
  Cu  Cu39  1  0.47792200  0.26685600  0.54179200  1
