# generated using pymatgen
data_Cu5Ni2C25
_symmetry_space_group_name_H-M   'P 1'
_cell_length_a   5.86603400
_cell_length_b   5.87714617
_cell_length_c   10.11109076
_cell_angle_alpha   88.90525237
_cell_angle_beta   106.73492451
_cell_angle_gamma   119.75796246
_symmetry_Int_Tables_number   1
_chemical_formula_structural   Cu5Ni2C25
_chemical_formula_sum   'Cu5 Ni2 C25'
_cell_volume   286.56883564
_cell_formula_units_Z   1
loop_
 _symmetry_equiv_pos_site_id
 _symmetry_equiv_pos_as_xyz
  1  'x, y, z'
loop_
 _atom_site_type_symbol
 _atom_site_label
 _atom_site_symmetry_multiplicity
 _atom_site_fract_x
 _atom_site_fract_y
 _atom_site_fract_z
 _atom_site_occupancy
  C  C0  1  0.50000000  0.50000000  0.00000000  1
  C  C1  1  0.49397600  0.24580100  0.24522400  1
  C  C2  1  0.50000000  0.00000000  0.50000000  1
  C  C3  1  0.50000000  0.00000000  0.00000000  1
  C  C4  1  0.48120600  0.73180100  0.23780300  1
  C  C5  1  0.50000000  0.50000000  0.50000000  1
  C  C6  1  0.51879400  0.26819900  0.76219700  1
  C  C7  1  0.50602400  0.75419900  0.75477600  1
  C  C8  1  0.00000000  0.50000000  0.00000000  1
  Ni  Ni9  1  0.00000000  0.00000000  0.00000000  1
  Ni  Ni10  1  0.00000000  0.50000000  0.50000000  1
  Cu  Cu11  1  0.99674500  0.74166300  0.24599100  1
  Cu  Cu12  1  0.00325500  0.25833700  0.75400900  1
  Cu  Cu13  1  0.99524200  0.25092300  0.24271000  1
  Cu  Cu14  1  0.00000000  0.00000000  0.50000000  1
  Cu  Cu15  1  0.00475800  0.74907700  0.75729000  1
  C  C16  1  0.23616200  0.11945400  0.88063700  1
  C  C17  1  0.22355900  0.87372200  0.12512800  1
  C  C18  1  0.23159000  0.61263500  0.37829300  1
  C  C19  1  0.22945400  0.62551500  0.86220600  1
  C  C20  1  0.22864900  0.34278700  0.11945400  1
  C  C21  1  0.20337900  0.10222000  0.37146700  1
  C  C22  1  0.21756400  0.85465800  0.60827100  1
  C  C23  1  0.23473100  0.38717000  0.62366200  1
  C  C24  1  0.76383800  0.88054600  0.11936300  1
  C  C25  1  0.76526900  0.61283000  0.37633800  1
  C  C26  1  0.76841000  0.38736500  0.62170700  1
  C  C27  1  0.77054600  0.37448500  0.13779400  1
  C  C28  1  0.78243600  0.14534200  0.39172900  1
  C  C29  1  0.79662100  0.89778000  0.62853300  1
  C  C30  1  0.77135100  0.65721300  0.88054600  1
  C  C31  1  0.77644100  0.12627800  0.87487200  1
