# generated using pymatgen
data_CuNiC16
_symmetry_space_group_name_H-M   'P 1'
_cell_length_a   8.96293505
_cell_length_b   8.96293505
_cell_length_c   8.96293505
_cell_angle_alpha   143.45991877
_cell_angle_beta   143.45991877
_cell_angle_gamma   52.63567289
_symmetry_Int_Tables_number   1
_chemical_formula_structural   CuNiC16
_chemical_formula_sum   'Cu1 Ni1 C16'
_cell_volume   253.71814857
_cell_formula_units_Z   1
loop_
 _symmetry_equiv_pos_site_id
 _symmetry_equiv_pos_as_xyz
  1  'x, y, z'
loop_
 _atom_site_type_symbol
 _atom_site_label
 _atom_site_symmetry_multiplicity
 _atom_site_fract_x
 _atom_site_fract_y
 _atom_site_fract_z
 _atom_site_occupancy
  Ni  Ni0  1  0.00000000  0.00000000  0.00000000  1
  Cu  Cu1  1  0.50000000  0.50000000  0.00000000  1
  C  C2  1  0.62915700  0.12915700  0.50000000  1
  C  C3  1  0.12915700  0.62915700  0.50000000  1
  C  C4  1  0.87084300  0.37084300  0.50000000  1
  C  C5  1  0.37084300  0.87084300  0.50000000  1
  C  C6  1  0.37023100  0.85859900  0.00000000  1
  C  C7  1  0.85859900  0.37023100  0.00000000  1
  C  C8  1  0.62976900  0.14140100  0.00000000  1
  C  C9  1  0.14140100  0.62976900  0.00000000  1
  C  C10  1  0.85859900  0.85859900  0.48836800  1
  C  C11  1  0.37023100  0.37023100  0.51163200  1
  C  C12  1  0.14140100  0.14140100  0.51163200  1
  C  C13  1  0.62976900  0.62976900  0.48836800  1
  C  C14  1  0.50000000  0.00000000  0.50000000  1
  C  C15  1  0.00000000  0.50000000  0.50000000  1
  C  C16  1  0.75000000  0.25000000  0.50000000  1
  C  C17  1  0.25000000  0.75000000  0.50000000  1
