# generated using pymatgen
data_CuNiC3
_symmetry_space_group_name_H-M   'P 1'
_cell_length_a   5.15188718
_cell_length_b   8.82864877
_cell_length_c   10.65300450
_cell_angle_alpha   109.95419617
_cell_angle_beta   97.35024105
_cell_angle_gamma   99.66875859
_symmetry_Int_Tables_number   1
_chemical_formula_structural   CuNiC3
_chemical_formula_sum   'Cu6 Ni6 C18'
_cell_volume   439.92032717
_cell_formula_units_Z   6
loop_
 _symmetry_equiv_pos_site_id
 _symmetry_equiv_pos_as_xyz
  1  'x, y, z'
loop_
 _atom_site_type_symbol
 _atom_site_label
 _atom_site_symmetry_multiplicity
 _atom_site_fract_x
 _atom_site_fract_y
 _atom_site_fract_z
 _atom_site_occupancy
  C  C0  1  0.36237300  0.16287700  0.40300600  1
  C  C1  1  0.63762700  0.83712300  0.59699400  1
  C  C2  1  0.35551600  0.17441900  0.91192700  1
  C  C3  1  0.64448400  0.82558100  0.08807300  1
  C  C4  1  0.00091400  0.47453800  0.24157600  1
  C  C5  1  0.99908600  0.52546200  0.75842400  1
  C  C6  1  0.91050500  0.56696800  0.32868100  1
  C  C7  1  0.08949500  0.43303200  0.67131900  1
  C  C8  1  0.55738100  0.24409700  0.49105500  1
  C  C9  1  0.44261900  0.75590300  0.50894500  1
  C  C10  1  0.17075200  0.55352200  0.20588900  1
  C  C11  1  0.82924800  0.44647800  0.79411100  1
  C  C12  1  0.19417300  0.09886300  0.95523100  1
  C  C13  1  0.80582700  0.90113700  0.04476900  1
  C  C14  1  0.20316500  0.08645600  0.44610400  1
  C  C15  1  0.79683500  0.91354400  0.55389600  1
  C  C16  1  0.25339300  0.26479200  0.86865500  1
  C  C17  1  0.74660700  0.73520800  0.13134500  1
  Ni  Ni18  1  0.13165200  0.35989200  0.30308100  1
  Ni  Ni19  1  0.86834800  0.64010800  0.69691900  1
  Ni  Ni20  1  0.59756600  0.28423900  0.03189800  1
  Ni  Ni21  1  0.40243400  0.71576100  0.96810200  1
  Ni  Ni22  1  0.46264700  0.03741300  0.28539500  1
  Ni  Ni23  1  0.53735300  0.96258700  0.71460500  1
  Cu  Cu24  1  0.54128700  0.94454800  0.20062000  1
  Cu  Cu25  1  0.45871300  0.05545200  0.79938000  1
  Cu  Cu26  1  0.23201900  0.27599300  0.34775800  1
  Cu  Cu27  1  0.76798100  0.72400700  0.65224200  1
  Cu  Cu28  1  0.77248100  0.36705600  0.12249500  1
  Cu  Cu29  1  0.22751900  0.63294400  0.87750500  1
