# generated using pymatgen
data_CuNiC10
_symmetry_space_group_name_H-M   'P 1'
_cell_length_a   5.34935100
_cell_length_b   9.58405000
_cell_length_c   13.55566700
_cell_angle_alpha   90.00000000
_cell_angle_beta   90.00000000
_cell_angle_gamma   90.00000000
_symmetry_Int_Tables_number   1
_chemical_formula_structural   CuNiC10
_chemical_formula_sum   'Cu4 Ni4 C40'
_cell_volume   694.97800126
_cell_formula_units_Z   4
loop_
 _symmetry_equiv_pos_site_id
 _symmetry_equiv_pos_as_xyz
  1  'x, y, z'
loop_
 _atom_site_type_symbol
 _atom_site_label
 _atom_site_symmetry_multiplicity
 _atom_site_fract_x
 _atom_site_fract_y
 _atom_site_fract_z
 _atom_site_occupancy
  Ni  Ni0  1  0.25000000  0.07768700  0.25000000  1
  Ni  Ni1  1  0.25000000  0.42231300  0.75000000  1
  Ni  Ni2  1  0.75000000  0.92231300  0.75000000  1
  Ni  Ni3  1  0.75000000  0.57768700  0.25000000  1
  Cu  Cu4  1  0.17288100  0.75000000  0.50000000  1
  Cu  Cu5  1  0.32711900  0.75000000  0.00000000  1
  Cu  Cu6  1  0.82711900  0.25000000  0.50000000  1
  Cu  Cu7  1  0.67288100  0.25000000  0.00000000  1
  C  C8  1  0.76402100  0.91346000  0.08288700  1
  C  C9  1  0.76402100  0.58654000  0.91711300  1
  C  C10  1  0.73597900  0.91346000  0.41711300  1
  C  C11  1  0.73597900  0.58654000  0.58288700  1
  C  C12  1  0.23597900  0.08654000  0.91711300  1
  C  C13  1  0.23597900  0.41346000  0.08288700  1
  C  C14  1  0.26402100  0.08654000  0.58288700  1
  C  C15  1  0.26402100  0.41346000  0.41711300  1
  C  C16  1  0.01253100  0.84753500  0.09958800  1
  C  C17  1  0.01253100  0.65246500  0.90041200  1
  C  C18  1  0.48746900  0.84753500  0.40041200  1
  C  C19  1  0.48746900  0.65246500  0.59958800  1
  C  C20  1  0.98746900  0.15246500  0.90041200  1
  C  C21  1  0.98746900  0.34753500  0.09958800  1
  C  C22  1  0.51253100  0.15246500  0.59958800  1
  C  C23  1  0.51253100  0.34753500  0.40041200  1
  C  C24  1  0.56517900  0.84258400  0.14237400  1
  C  C25  1  0.56517900  0.65741600  0.85762600  1
  C  C26  1  0.93482100  0.84258400  0.35762600  1
  C  C27  1  0.93482100  0.65741600  0.64237400  1
  C  C28  1  0.43482100  0.15741600  0.85762600  1
  C  C29  1  0.43482100  0.34258400  0.14237400  1
  C  C30  1  0.06517900  0.15741600  0.64237400  1
  C  C31  1  0.06517900  0.34258400  0.35762600  1
  C  C32  1  0.28131800  0.56413600  0.39034100  1
  C  C33  1  0.28131800  0.93586400  0.60965900  1
  C  C34  1  0.21868200  0.56413600  0.10965900  1
  C  C35  1  0.21868200  0.93586400  0.89034100  1
  C  C36  1  0.71868200  0.43586400  0.60965900  1
  C  C37  1  0.71868200  0.06413600  0.39034100  1
  C  C38  1  0.78131800  0.43586400  0.89034100  1
  C  C39  1  0.78131800  0.06413600  0.10965900  1
  C  C40  1  0.18553400  0.39749200  0.52226100  1
  C  C41  1  0.18553400  0.10250800  0.47773900  1
  C  C42  1  0.31446600  0.39749200  0.97773900  1
  C  C43  1  0.31446600  0.10250800  0.02226100  1
  C  C44  1  0.81446600  0.60250800  0.47773900  1
  C  C45  1  0.81446600  0.89749200  0.52226100  1
  C  C46  1  0.68553400  0.60250800  0.02226100  1
  C  C47  1  0.68553400  0.89749200  0.97773900  1
