# generated using pymatgen
data_CuNi2C13
_symmetry_space_group_name_H-M   'P 1'
_cell_length_a   6.90568800
_cell_length_b   8.11658500
_cell_length_c   15.59597269
_cell_angle_alpha   90.00000000
_cell_angle_beta   113.33555304
_cell_angle_gamma   90.00000000
_symmetry_Int_Tables_number   1
_chemical_formula_structural   CuNi2C13
_chemical_formula_sum   'Cu4 Ni8 C52'
_cell_volume   802.65775990
_cell_formula_units_Z   4
loop_
 _symmetry_equiv_pos_site_id
 _symmetry_equiv_pos_as_xyz
  1  'x, y, z'
loop_
 _atom_site_type_symbol
 _atom_site_label
 _atom_site_symmetry_multiplicity
 _atom_site_fract_x
 _atom_site_fract_y
 _atom_site_fract_z
 _atom_site_occupancy
  C  C0  1  0.16150800  0.27744700  0.91219600  1
  C  C1  1  0.16150800  0.22255300  0.41219600  1
  C  C2  1  0.83849200  0.72255300  0.08780400  1
  C  C3  1  0.83849200  0.77744700  0.58780400  1
  C  C4  1  0.45540400  0.07426000  0.08369000  1
  C  C5  1  0.45540400  0.42574000  0.58369000  1
  C  C6  1  0.54459600  0.92574000  0.91631000  1
  C  C7  1  0.54459600  0.57426000  0.41631000  1
  C  C8  1  0.22802500  0.06178100  0.08488900  1
  C  C9  1  0.22802500  0.43821900  0.58488900  1
  C  C10  1  0.77197500  0.93821900  0.91511100  1
  C  C11  1  0.77197500  0.56178100  0.41511100  1
  Ni  Ni12  1  0.85317800  0.45754400  0.71970200  1
  Ni  Ni13  1  0.85317800  0.04245600  0.21970200  1
  Ni  Ni14  1  0.14682200  0.54245600  0.28029800  1
  Ni  Ni15  1  0.14682200  0.95754400  0.78029800  1
  Ni  Ni16  1  0.06926100  0.45149600  0.71286100  1
  Ni  Ni17  1  0.06926100  0.04850400  0.21286100  1
  Ni  Ni18  1  0.93073900  0.54850400  0.28713900  1
  Ni  Ni19  1  0.93073900  0.95149600  0.78713900  1
  Cu  Cu20  1  0.25419700  0.62862200  0.00015900  1
  Cu  Cu21  1  0.25419700  0.87137800  0.50015900  1
  Cu  Cu22  1  0.74580300  0.37137800  0.99984100  1
  Cu  Cu23  1  0.74580300  0.12862100  0.49984100  1
  C  C24  1  0.49161100  0.15682200  0.71994800  1
  C  C25  1  0.49161100  0.34317800  0.21994800  1
  C  C26  1  0.50838900  0.84317800  0.28005200  1
  C  C27  1  0.50838900  0.65682200  0.78005200  1
  C  C28  1  0.26201000  0.46135700  0.04244300  1
  C  C29  1  0.26201000  0.03864300  0.54244300  1
  C  C30  1  0.73799000  0.53864300  0.95755700  1
  C  C31  1  0.73799000  0.96135700  0.45755700  1
  C  C32  1  0.10703700  0.73737900  0.02152200  1
  C  C33  1  0.10703700  0.76262100  0.52152200  1
  C  C34  1  0.89296300  0.26262100  0.97847800  1
  C  C35  1  0.89296300  0.23737900  0.47847800  1
  C  C36  1  0.18268200  0.59669400  0.89829600  1
  C  C37  1  0.18268200  0.90330600  0.39829600  1
  C  C38  1  0.81731800  0.40330600  0.10170400  1
  C  C39  1  0.81731800  0.09669400  0.60170400  1
  C  C40  1  0.46663400  0.70608200  0.03812500  1
  C  C41  1  0.46663400  0.79391800  0.53812500  1
  C  C42  1  0.53336600  0.29391800  0.96187500  1
  C  C43  1  0.53336600  0.20608200  0.46187500  1
  C  C44  1  0.84162000  0.38218400  0.78811100  1
  C  C45  1  0.84162000  0.11781600  0.28811100  1
  C  C46  1  0.15838000  0.61781600  0.21188900  1
  C  C47  1  0.15838000  0.88218400  0.71188900  1
  C  C48  1  0.70910700  0.53511500  0.65489800  1
  C  C49  1  0.70910700  0.96488500  0.15489800  1
  C  C50  1  0.29089300  0.46488500  0.34510200  1
  C  C51  1  0.29089300  0.03511500  0.84510200  1
  C  C52  1  0.20604800  0.36178100  0.77194200  1
  C  C53  1  0.20604800  0.13821900  0.27194200  1
  C  C54  1  0.79395200  0.63821900  0.22805800  1
  C  C55  1  0.79395200  0.86178100  0.72805800  1
  C  C56  1  0.08699200  0.53477700  0.64745400  1
  C  C57  1  0.08699200  0.96522300  0.14745400  1
  C  C58  1  0.91300800  0.46522300  0.35254600  1
  C  C59  1  0.91300800  0.03477700  0.85254600  1
  C  C60  1  0.30687400  0.10694000  0.04916600  1
  C  C61  1  0.30687400  0.39306000  0.54916600  1
  C  C62  1  0.69312600  0.89306000  0.95083400  1
  C  C63  1  0.69312600  0.60694000  0.45083400  1
