# generated using pymatgen
data_CuNi3C23
_symmetry_space_group_name_H-M   'P 1'
_cell_length_a   6.38573500
_cell_length_b   8.77356020
_cell_length_c   10.93310806
_cell_angle_alpha   94.93399089
_cell_angle_beta   100.99475019
_cell_angle_gamma   93.15584247
_symmetry_Int_Tables_number   1
_chemical_formula_structural   CuNi3C23
_chemical_formula_sum   'Cu2 Ni6 C46'
_cell_volume   597.46181872
_cell_formula_units_Z   2
loop_
 _symmetry_equiv_pos_site_id
 _symmetry_equiv_pos_as_xyz
  1  'x, y, z'
loop_
 _atom_site_type_symbol
 _atom_site_label
 _atom_site_symmetry_multiplicity
 _atom_site_fract_x
 _atom_site_fract_y
 _atom_site_fract_z
 _atom_site_occupancy
  C  C0  1  0.12248600  0.31770000  0.56167700  1
  C  C1  1  0.87751400  0.68230000  0.43832300  1
  C  C2  1  0.09050500  0.81871100  0.16974300  1
  C  C3  1  0.90949500  0.18128900  0.83025700  1
  C  C4  1  0.32621900  0.52702800  0.11350000  1
  C  C5  1  0.67378100  0.47297200  0.88650000  1
  C  C6  1  0.31075200  0.03600600  0.40042300  1
  C  C7  1  0.68924800  0.96399400  0.59957700  1
  C  C8  1  0.58650300  0.35230500  0.31725100  1
  C  C9  1  0.41349700  0.64769500  0.68274900  1
  C  C10  1  0.67472800  0.13620200  0.04768400  1
  C  C11  1  0.32527200  0.86379800  0.95231600  1
  Ni  Ni12  1  0.79951200  0.03269400  0.32980500  1
  Ni  Ni13  1  0.20048800  0.96730600  0.67019500  1
  Ni  Ni14  1  0.21474800  0.15677800  0.10876400  1
  Ni  Ni15  1  0.78525200  0.84322200  0.89123600  1
  Ni  Ni16  1  0.36944600  0.66945900  0.42544000  1
  Ni  Ni17  1  0.63055400  0.33054100  0.57456000  1
  C  C18  1  0.50923300  0.78843900  0.16381500  1
  C  C19  1  0.49076700  0.21156100  0.83618500  1
  Cu  Cu20  1  0.15252900  0.48235100  0.83641200  1
  Cu  Cu21  1  0.84747100  0.51764900  0.16358800  1
  C  C22  1  0.00946700  0.11060700  0.41220400  1
  C  C23  1  0.99053300  0.88939300  0.58779600  1
  C  C24  1  0.43875400  0.26681100  0.46507000  1
  C  C25  1  0.56124600  0.73318900  0.53493000  1
  C  C26  1  0.36705300  0.00329900  0.58809700  1
  C  C27  1  0.63294700  0.99670100  0.41190300  1
  C  C28  1  0.32497700  0.31457000  0.17133500  1
  C  C29  1  0.67502300  0.68543000  0.82866500  1
  C  C30  1  0.23946200  0.79560700  0.36283400  1
  C  C31  1  0.76053800  0.20439300  0.63716600  1
  C  C32  1  0.21923200  0.57916700  0.49579900  1
  C  C33  1  0.78076800  0.42083300  0.50420100  1
  C  C34  1  0.46328200  0.57192500  0.32752100  1
  C  C35  1  0.53671800  0.42807500  0.67247900  1
  C  C36  1  0.70353500  0.15022300  0.23802100  1
  C  C37  1  0.29646500  0.84977700  0.76197900  1
  C  C38  1  0.67650000  0.49265900  0.07766700  1
  C  C39  1  0.32350000  0.50734100  0.92233300  1
  C  C40  1  0.16198700  0.12319700  0.73851700  1
  C  C41  1  0.83801300  0.87680300  0.26148300  1
  C  C42  1  0.20651100  0.04675400  0.21108400  1
  C  C43  1  0.79348900  0.95324600  0.78891600  1
  C  C44  1  0.02012500  0.58242200  0.13830900  1
  C  C45  1  0.97987500  0.41757800  0.86169100  1
  C  C46  1  0.36920600  0.75493200  0.11237200  1
  C  C47  1  0.63079400  0.24506800  0.88762800  1
  C  C48  1  0.15685700  0.51850700  0.72529700  1
  C  C49  1  0.84314300  0.48149300  0.27470300  1
  C  C50  1  0.34868400  0.08984200  0.01607000  1
  C  C51  1  0.65131600  0.91015800  0.98393100  1
  C  C52  1  0.98843000  0.17609800  0.03280300  1
  C  C53  1  0.01157000  0.82390200  0.96719700  1
