# generated using pymatgen
data_CuNiC7
_symmetry_space_group_name_H-M   'P 1'
_cell_length_a   7.23604056
_cell_length_b   7.23604056
_cell_length_c   7.23604056
_cell_angle_alpha   120.79638248
_cell_angle_beta   119.07995562
_cell_angle_gamma   90.11354306
_symmetry_Int_Tables_number   1
_chemical_formula_structural   CuNiC7
_chemical_formula_sum   'Cu2 Ni2 C14'
_cell_volume   268.08420203
_cell_formula_units_Z   2
loop_
 _symmetry_equiv_pos_site_id
 _symmetry_equiv_pos_as_xyz
  1  'x, y, z'
loop_
 _atom_site_type_symbol
 _atom_site_label
 _atom_site_symmetry_multiplicity
 _atom_site_fract_x
 _atom_site_fract_y
 _atom_site_fract_z
 _atom_site_occupancy
  C  C0  1  0.62453100  0.87453100  0.75000000  1
  C  C1  1  0.37546900  0.12546900  0.25000000  1
  Ni  Ni2  1  0.00000000  0.50000000  0.00000000  1
  Ni  Ni3  1  0.00000000  0.00000000  0.50000000  1
  Cu  Cu4  1  0.50000000  0.50000000  0.00000000  1
  Cu  Cu5  1  0.00000000  0.50000000  0.50000000  1
  C  C6  1  0.04960600  0.79960600  0.25000000  1
  C  C7  1  0.66930300  0.41930300  0.25000000  1
  C  C8  1  0.05664000  0.83575300  0.63438600  1
  C  C9  1  0.70136700  0.42225400  0.86561400  1
  C  C10  1  0.70136700  0.83575300  0.27911300  1
  C  C11  1  0.05664000  0.42225400  0.22088700  1
  C  C12  1  0.95039400  0.20039400  0.75000000  1
  C  C13  1  0.33069700  0.58069700  0.75000000  1
  C  C14  1  0.94336000  0.16424700  0.36561400  1
  C  C15  1  0.29863300  0.57774600  0.13438600  1
  C  C16  1  0.29863300  0.16424700  0.72088700  1
  C  C17  1  0.94336000  0.57774600  0.77911300  1
