# generated using pymatgen
data_Cu10Ni2C
_symmetry_space_group_name_H-M   'P 1'
_cell_length_a   4.68090700
_cell_length_b   6.37819103
_cell_length_c   6.37819103
_cell_angle_alpha   97.40587617
_cell_angle_beta   111.52741437
_cell_angle_gamma   68.47258563
_symmetry_Int_Tables_number   1
_chemical_formula_structural   Cu10Ni2C
_chemical_formula_sum   'Cu10 Ni2 C1'
_cell_volume   164.78111783
_cell_formula_units_Z   1
loop_
 _symmetry_equiv_pos_site_id
 _symmetry_equiv_pos_as_xyz
  1  'x, y, z'
loop_
 _atom_site_type_symbol
 _atom_site_label
 _atom_site_symmetry_multiplicity
 _atom_site_fract_x
 _atom_site_fract_y
 _atom_site_fract_z
 _atom_site_occupancy
  C  C0  1  0.00000000  0.00000000  0.00000000  1
  Ni  Ni1  1  0.00000000  0.36688800  0.36688800  1
  Ni  Ni2  1  0.00000000  0.63311200  0.63311200  1
  Cu  Cu3  1  0.72517000  0.77483000  0.22517000  1
  Cu  Cu4  1  0.27483000  0.22517000  0.77483000  1
  Cu  Cu5  1  0.50000000  0.77328100  0.77328100  1
  Cu  Cu6  1  0.50000000  0.22671900  0.22671900  1
  Cu  Cu7  1  0.50000000  0.00000000  0.50000000  1
  Cu  Cu8  1  0.00000000  0.00000000  0.50000000  1
  Cu  Cu9  1  0.50000000  0.50000000  0.00000000  1
  Cu  Cu10  1  0.00000000  0.50000000  0.00000000  1
  Cu  Cu11  1  0.64090400  0.35909600  0.64090400  1
  Cu  Cu12  1  0.35909600  0.64090400  0.35909600  1
