# generated using pymatgen
data_Cu2Ni6C17
_symmetry_space_group_name_H-M   'P 1'
_cell_length_a   8.28893476
_cell_length_b   9.00394522
_cell_length_c   11.37111902
_cell_angle_alpha   108.41092368
_cell_angle_beta   69.94052027
_cell_angle_gamma   94.57445995
_symmetry_Int_Tables_number   1
_chemical_formula_structural   Cu2Ni6C17
_chemical_formula_sum   'Cu4 Ni12 C34'
_cell_volume   755.98788260
_cell_formula_units_Z   2
loop_
 _symmetry_equiv_pos_site_id
 _symmetry_equiv_pos_as_xyz
  1  'x, y, z'
loop_
 _atom_site_type_symbol
 _atom_site_label
 _atom_site_symmetry_multiplicity
 _atom_site_fract_x
 _atom_site_fract_y
 _atom_site_fract_z
 _atom_site_occupancy
  C  C0  1  0.99998900  0.00006800  0.55100100  1
  C  C1  1  0.99999600  0.99999900  0.05076800  1
  Ni  Ni2  1  0.66031100  0.64769800  0.55916600  1
  Ni  Ni3  1  0.66020400  0.64768800  0.05914400  1
  Ni  Ni4  1  0.33981900  0.35224100  0.56536000  1
  Ni  Ni5  1  0.33973600  0.35222800  0.06542100  1
  Ni  Ni6  1  0.35052900  0.69233200  0.39925000  1
  Ni  Ni7  1  0.35047800  0.69232800  0.89927200  1
  Ni  Ni8  1  0.64956400  0.30754300  0.22832300  1
  Ni  Ni9  1  0.64954700  0.30755900  0.72834100  1
  Ni  Ni10  1  0.67102400  0.00813100  0.35699400  1
  Ni  Ni11  1  0.67089300  0.00816400  0.85705400  1
  Ni  Ni12  1  0.32918800  0.99180900  0.68839200  1
  Ni  Ni13  1  0.32905200  0.99184600  0.18848100  1
  Cu  Cu14  1  0.98240800  0.71352800  0.77156400  1
  Cu  Cu15  1  0.98243700  0.71359800  0.27174500  1
  Cu  Cu16  1  0.01757700  0.28657300  0.40643000  1
  Cu  Cu17  1  0.01749500  0.28642900  0.90610500  1
  C  C18  1  0.50005700  0.49993800  0.43989900  1
  C  C19  1  0.49989800  0.49998300  0.93994000  1
  C  C20  1  0.49999400  0.50009200  0.68020300  1
  C  C21  1  0.50000800  0.49998000  0.18013100  1
  C  C22  1  0.94773100  0.80509600  0.41534500  1
  C  C23  1  0.94775200  0.80493100  0.91516300  1
  C  C24  1  0.05206500  0.19532000  0.48719000  1
  C  C25  1  0.05189100  0.19517300  0.98686900  1
  C  C26  1  0.91748900  0.81085000  0.71022300  1
  C  C27  1  0.91758400  0.81080800  0.21031000  1
  C  C28  1  0.08237400  0.18903000  0.26400900  1
  C  C29  1  0.08233200  0.18886500  0.76369800  1
  C  C30  1  0.88993800  0.56635700  0.76526700  1
  C  C31  1  0.88995000  0.56640200  0.26549800  1
  C  C32  1  0.11027400  0.43366700  0.42739300  1
  C  C33  1  0.11022900  0.43348600  0.92706800  1
  C  C34  1  0.17255700  0.68651100  0.70392900  1
  C  C35  1  0.17260300  0.68655400  0.20414200  1
  C  C36  1  0.82744300  0.31377900  0.44734800  1
  C  C37  1  0.82737400  0.31367400  0.94699000  1
  C  C38  1  0.23054500  0.94007500  0.52708300  1
  C  C39  1  0.23041300  0.94011800  0.02712400  1
  C  C40  1  0.76964300  0.05990500  0.17229500  1
  C  C41  1  0.76948800  0.05991500  0.67234600  1
  C  C42  1  0.51747700  0.81431400  0.51870700  1
  C  C43  1  0.51739400  0.81433000  0.01871400  1
  C  C44  1  0.48266700  0.18561000  0.37020500  1
  C  C45  1  0.48257300  0.18564400  0.87026400  1
  C  C46  1  0.52399300  0.81893000  0.76589300  1
  C  C47  1  0.52413100  0.81889600  0.26583900  1
  C  C48  1  0.47591600  0.18098700  0.11842200  1
  C  C49  1  0.47596800  0.18101700  0.61840200  1
