# generated using pymatgen
data_Cu11NiC4
_symmetry_space_group_name_H-M   'P 1'
_cell_length_a   5.28938700
_cell_length_b   5.46821232
_cell_length_c   15.63442147
_cell_angle_alpha   99.85584735
_cell_angle_beta   89.96139217
_cell_angle_gamma   90.65774823
_symmetry_Int_Tables_number   1
_chemical_formula_structural   Cu11NiC4
_chemical_formula_sum   'Cu22 Ni2 C8'
_cell_volume   445.49849779
_cell_formula_units_Z   2
loop_
 _symmetry_equiv_pos_site_id
 _symmetry_equiv_pos_as_xyz
  1  'x, y, z'
loop_
 _atom_site_type_symbol
 _atom_site_label
 _atom_site_symmetry_multiplicity
 _atom_site_fract_x
 _atom_site_fract_y
 _atom_site_fract_z
 _atom_site_occupancy
  C  C0  1  0.76820700  0.53984900  0.48696300  1
  C  C1  1  0.18016600  0.69613000  0.84361300  1
  C  C2  1  0.99475500  0.66320600  0.32862500  1
  C  C3  1  0.49641000  0.83871900  0.67547400  1
  C  C4  1  0.50182100  0.49901100  0.00309400  1
  C  C5  1  0.51669500  0.18767900  0.33222900  1
  C  C6  1  0.00210300  0.32889700  0.66360500  1
  C  C7  1  0.99728900  0.00628100  0.00680200  1
  Ni  Ni8  1  0.41085800  0.86013800  0.77809100  1
  Ni  Ni9  1  0.71924500  0.45942000  0.35448000  1
  Cu  Cu10  1  0.79480600  0.96777600  0.35450200  1
  Cu  Cu11  1  0.69552400  0.80936700  0.02461800  1
  Cu  Cu12  1  0.28543200  0.86941600  0.31304500  1
  Cu  Cu13  1  0.93334500  0.94277400  0.88858600  1
  Cu  Cu14  1  0.58860900  0.77972200  0.55552600  1
  Cu  Cu15  1  0.91655200  0.62340900  0.21712600  1
  Cu  Cu16  1  0.06697500  0.70047600  0.44517500  1
  Cu  Cu17  1  0.40771800  0.54165100  0.11259800  1
  Cu  Cu18  1  0.81067400  0.63261600  0.68885400  1
  Cu  Cu19  1  0.79935000  0.31462000  0.02298000  1
  Cu  Cu20  1  0.29344000  0.51707200  0.64050800  1
  Cu  Cu21  1  0.20362800  0.69067600  0.97435100  1
  Cu  Cu22  1  0.21546800  0.37217700  0.30907300  1
  Cu  Cu23  1  0.57099000  0.46779100  0.88962000  1
  Cu  Cu24  1  0.90840600  0.29892700  0.55127800  1
  Cu  Cu25  1  0.57457600  0.10997400  0.21912000  1
  Cu  Cu26  1  0.08907400  0.38058300  0.77832900  1
  Cu  Cu27  1  0.08781300  0.03908900  0.11704300  1
  Cu  Cu28  1  0.42148400  0.20784000  0.44374900  1
  Cu  Cu29  1  0.70870600  0.14754300  0.69029400  1
  Cu  Cu30  1  0.30075200  0.19395400  0.97914300  1
  Cu  Cu31  1  0.19683700  0.03273200  0.64220100  1
