# generated using pymatgen
data_CuNi4C9
_symmetry_space_group_name_H-M   'P 1'
_cell_length_a   3.66951300
_cell_length_b   6.20545480
_cell_length_c   10.43869131
_cell_angle_alpha   90.31692783
_cell_angle_beta   90.00000000
_cell_angle_gamma   90.00000000
_symmetry_Int_Tables_number   1
_chemical_formula_structural   CuNi4C9
_chemical_formula_sum   'Cu1 Ni4 C9'
_cell_volume   237.69577280
_cell_formula_units_Z   1
loop_
 _symmetry_equiv_pos_site_id
 _symmetry_equiv_pos_as_xyz
  1  'x, y, z'
loop_
 _atom_site_type_symbol
 _atom_site_label
 _atom_site_symmetry_multiplicity
 _atom_site_fract_x
 _atom_site_fract_y
 _atom_site_fract_z
 _atom_site_occupancy
  Ni  Ni0  1  0.50000000  0.56469900  0.82188300  1
  Ni  Ni1  1  0.50000000  0.43530100  0.17811700  1
  Ni  Ni2  1  0.50000000  0.06583800  0.67709200  1
  Ni  Ni3  1  0.50000000  0.93416200  0.32290800  1
  C  C4  1  0.00000000  0.50000000  0.50000000  1
  Cu  Cu5  1  0.00000000  0.00000000  0.00000000  1
  C  C6  1  0.00000000  0.35870300  0.69109200  1
  C  C7  1  0.00000000  0.64129700  0.30890800  1
  C  C8  1  0.00000000  0.85205000  0.79359700  1
  C  C9  1  0.00000000  0.14795000  0.20640300  1
  C  C10  1  0.50000000  0.72610900  0.54042000  1
  C  C11  1  0.50000000  0.27389100  0.45958000  1
  C  C12  1  0.50000000  0.24107700  0.95611500  1
  C  C13  1  0.50000000  0.75892300  0.04388500  1
