# generated using pymatgen
data_Cu2(NiC2)5
_symmetry_space_group_name_H-M   'P 1'
_cell_length_a   4.77655700
_cell_length_b   7.90184800
_cell_length_c   10.37437831
_cell_angle_alpha   70.86958369
_cell_angle_beta   90.00000000
_cell_angle_gamma   90.00000000
_symmetry_Int_Tables_number   1
_chemical_formula_structural   Cu2(NiC2)5
_chemical_formula_sum   'Cu4 Ni10 C20'
_cell_volume   369.94242753
_cell_formula_units_Z   2
loop_
 _symmetry_equiv_pos_site_id
 _symmetry_equiv_pos_as_xyz
  1  'x, y, z'
loop_
 _atom_site_type_symbol
 _atom_site_label
 _atom_site_symmetry_multiplicity
 _atom_site_fract_x
 _atom_site_fract_y
 _atom_site_fract_z
 _atom_site_occupancy
  Ni  Ni0  1  0.49135300  0.42106400  0.38642400  1
  Ni  Ni1  1  0.99135300  0.57893600  0.11357600  1
  Ni  Ni2  1  0.50864700  0.57893600  0.61357600  1
  Ni  Ni3  1  0.00864700  0.42106400  0.88642400  1
  Ni  Ni4  1  0.00691300  0.19768700  0.67197500  1
  Ni  Ni5  1  0.50691300  0.80231300  0.82802500  1
  Ni  Ni6  1  0.99308700  0.80231300  0.32802500  1
  Ni  Ni7  1  0.49308700  0.19768700  0.17197500  1
  Ni  Ni8  1  0.50000000  0.00000000  0.50000000  1
  Ni  Ni9  1  0.00000000  0.00000000  0.00000000  1
  Cu  Cu10  1  0.07674000  0.79665300  0.64234600  1
  Cu  Cu11  1  0.57674000  0.20334700  0.85765400  1
  Cu  Cu12  1  0.92326000  0.20334700  0.35765400  1
  Cu  Cu13  1  0.42326000  0.79665300  0.14234600  1
  C  C14  1  0.77592600  0.20717700  0.50193500  1
  C  C15  1  0.27592600  0.79282300  0.99806500  1
  C  C16  1  0.22407400  0.79282300  0.49806500  1
  C  C17  1  0.72407400  0.20717700  0.00193500  1
  C  C18  1  0.27063800  0.62472900  0.25869900  1
  C  C19  1  0.77063800  0.37527100  0.24130100  1
  C  C20  1  0.72936200  0.37527100  0.74130100  1
  C  C21  1  0.22936200  0.62472900  0.75869900  1
  C  C22  1  0.22413900  0.97411200  0.66660300  1
  C  C23  1  0.72413900  0.02588800  0.83339700  1
  C  C24  1  0.77586100  0.02588800  0.33339700  1
  C  C25  1  0.27586100  0.97411200  0.16660300  1
  C  C26  1  0.73525300  0.79334300  0.64471800  1
  C  C27  1  0.23525300  0.20665700  0.85528200  1
  C  C28  1  0.26474700  0.20665700  0.35528200  1
  C  C29  1  0.76474700  0.79334300  0.14471800  1
  C  C30  1  0.27337600  0.39623900  0.55895000  1
  C  C31  1  0.77337600  0.60376100  0.94105000  1
  C  C32  1  0.72662400  0.60376100  0.44105000  1
  C  C33  1  0.22662400  0.39623900  0.05895000  1
