# generated using pymatgen
data_CuNiC6
_symmetry_space_group_name_H-M   'P 1'
_cell_length_a   5.21467000
_cell_length_b   6.43313600
_cell_length_c   10.74221100
_cell_angle_alpha   90.00000000
_cell_angle_beta   90.00000000
_cell_angle_gamma   90.00000000
_symmetry_Int_Tables_number   1
_chemical_formula_structural   CuNiC6
_chemical_formula_sum   'Cu2 Ni2 C12'
_cell_volume   360.36552893
_cell_formula_units_Z   2
loop_
 _symmetry_equiv_pos_site_id
 _symmetry_equiv_pos_as_xyz
  1  'x, y, z'
loop_
 _atom_site_type_symbol
 _atom_site_label
 _atom_site_symmetry_multiplicity
 _atom_site_fract_x
 _atom_site_fract_y
 _atom_site_fract_z
 _atom_site_occupancy
  C  C0  1  0.50000000  0.24924000  0.58391000  1
  C  C1  1  0.50000000  0.75076000  0.58391000  1
  C  C2  1  0.00000000  0.25456500  0.41585400  1
  C  C3  1  0.00000000  0.74543500  0.41585400  1
  C  C4  1  0.00000000  0.00000000  0.66869800  1
  C  C5  1  0.00000000  0.00000000  0.16627600  1
  C  C6  1  0.50000000  0.74924000  0.08391000  1
  C  C7  1  0.50000000  0.25076000  0.08391000  1
  C  C8  1  0.00000000  0.75456500  0.91585400  1
  C  C9  1  0.00000000  0.24543500  0.91585400  1
  C  C10  1  0.00000000  0.50000000  0.16869800  1
  C  C11  1  0.00000000  0.50000000  0.66627600  1
  Ni  Ni12  1  0.50000000  0.00000000  0.83259300  1
  Ni  Ni13  1  0.50000000  0.50000000  0.33259300  1
  Cu  Cu14  1  0.50000000  0.00000000  0.33290900  1
  Cu  Cu15  1  0.50000000  0.50000000  0.83290900  1
