# generated using pymatgen
data_Cu2Ni2C17
_symmetry_space_group_name_H-M   'P 1'
_cell_length_a   5.33234000
_cell_length_b   7.99024849
_cell_length_c   8.24370484
_cell_angle_alpha   116.13536338
_cell_angle_beta   106.61695293
_cell_angle_gamma   85.34746351
_symmetry_Int_Tables_number   1
_chemical_formula_structural   Cu2Ni2C17
_chemical_formula_sum   'Cu2 Ni2 C17'
_cell_volume   301.74564853
_cell_formula_units_Z   1
loop_
 _symmetry_equiv_pos_site_id
 _symmetry_equiv_pos_as_xyz
  1  'x, y, z'
loop_
 _atom_site_type_symbol
 _atom_site_label
 _atom_site_symmetry_multiplicity
 _atom_site_fract_x
 _atom_site_fract_y
 _atom_site_fract_z
 _atom_site_occupancy
  C  C0  1  0.08177100  0.25257800  0.98488200  1
  C  C1  1  0.91822900  0.74742200  0.01511800  1
  C  C2  1  0.00000000  0.00000000  0.50000000  1
  Ni  Ni3  1  0.51621100  0.27068800  0.66016900  1
  Ni  Ni4  1  0.48378900  0.72931200  0.33983100  1
  Cu  Cu5  1  0.76176200  0.24727600  0.25257700  1
  Cu  Cu6  1  0.23823800  0.75272400  0.74742300  1
  C  C7  1  0.88719300  0.40810100  0.25506100  1
  C  C8  1  0.11280700  0.59189900  0.74493900  1
  C  C9  1  0.87071400  0.23072400  0.43100600  1
  C  C10  1  0.12928600  0.76927600  0.56899400  1
  C  C11  1  0.47419200  0.26678900  0.22005100  1
  C  C12  1  0.52580800  0.73321100  0.77994900  1
  C  C13  1  0.82207100  0.07835100  0.09054700  1
  C  C14  1  0.17792900  0.92164900  0.90945300  1
  C  C15  1  0.74922100  0.43792400  0.89232200  1
  C  C16  1  0.25077900  0.56207600  0.10767800  1
  C  C17  1  0.27840100  0.19340000  0.75051300  1
  C  C18  1  0.72159900  0.80660000  0.24948700  1
  C  C19  1  0.75048700  0.07565700  0.66535200  1
  C  C20  1  0.24951300  0.92434300  0.33464800  1
