# generated using pymatgen
data_Cu2NiC18
_symmetry_space_group_name_H-M   'P 1'
_cell_length_a   18.79397800
_cell_length_b   5.59647800
_cell_length_c   6.69527240
_cell_angle_alpha   56.01819447
_cell_angle_beta   90.00000000
_cell_angle_gamma   90.00000000
_symmetry_Int_Tables_number   1
_chemical_formula_structural   Cu2NiC18
_chemical_formula_sum   'Cu4 Ni2 C36'
_cell_volume   583.94100141
_cell_formula_units_Z   2
loop_
 _symmetry_equiv_pos_site_id
 _symmetry_equiv_pos_as_xyz
  1  'x, y, z'
loop_
 _atom_site_type_symbol
 _atom_site_label
 _atom_site_symmetry_multiplicity
 _atom_site_fract_x
 _atom_site_fract_y
 _atom_site_fract_z
 _atom_site_occupancy
  C  C0  1  0.32145600  0.95484300  0.42560200  1
  C  C1  1  0.17854400  0.95484300  0.92560200  1
  C  C2  1  0.67854400  0.04515700  0.57439800  1
  C  C3  1  0.82145600  0.04515700  0.07439800  1
  C  C4  1  0.06481400  0.76528000  0.61410200  1
  C  C5  1  0.43518600  0.76528000  0.11410200  1
  C  C6  1  0.93518600  0.23472000  0.38589800  1
  C  C7  1  0.56481400  0.23472000  0.88589800  1
  Ni  Ni8  1  0.50000000  0.00000000  0.50000000  1
  Ni  Ni9  1  0.00000000  0.00000000  0.00000000  1
  Cu  Cu10  1  0.16848100  0.27560000  0.40651800  1
  Cu  Cu11  1  0.33151900  0.27560000  0.90651800  1
  Cu  Cu12  1  0.83151900  0.72440000  0.59348200  1
  Cu  Cu13  1  0.66848100  0.72440000  0.09348200  1
  C  C14  1  0.44906000  0.76391700  0.80672800  1
  C  C15  1  0.05094000  0.76391700  0.30672800  1
  C  C16  1  0.55094000  0.23608300  0.19327200  1
  C  C17  1  0.94906000  0.23608300  0.69327200  1
  C  C18  1  0.57742700  0.15847400  0.61052200  1
  C  C19  1  0.92257300  0.15847400  0.11052200  1
  C  C20  1  0.42257300  0.84152600  0.38947800  1
  C  C21  1  0.07742700  0.84152600  0.88947800  1
  C  C22  1  0.44257400  0.33385700  0.40514600  1
  C  C23  1  0.05742600  0.33385700  0.90514600  1
  C  C24  1  0.55742600  0.66614300  0.59485400  1
  C  C25  1  0.94257400  0.66614300  0.09485400  1
  C  C26  1  0.28542400  0.00947500  0.97209200  1
  C  C27  1  0.21457600  0.00947500  0.47209200  1
  C  C28  1  0.71457600  0.99052500  0.02790800  1
  C  C29  1  0.78542400  0.99052500  0.52790800  1
  C  C30  1  0.19854500  0.53865200  0.17764200  1
  C  C31  1  0.30145500  0.53865200  0.67764200  1
  C  C32  1  0.80145500  0.46134800  0.82235800  1
  C  C33  1  0.69854500  0.46134800  0.32235800  1
  C  C34  1  0.17260600  0.33973100  0.60670400  1
  C  C35  1  0.32739400  0.33973100  0.10670400  1
  C  C36  1  0.82739400  0.66026900  0.39329600  1
  C  C37  1  0.67260600  0.66026900  0.89329600  1
  C  C38  1  0.09117500  0.19609200  0.37681700  1
  C  C39  1  0.40882500  0.19609200  0.87681700  1
  C  C40  1  0.90882500  0.80390800  0.62318300  1
  C  C41  1  0.59117500  0.80390800  0.12318300  1
