# generated using pymatgen
data_Cu5NiC15
_symmetry_space_group_name_H-M   'P 1'
_cell_length_a   5.98686500
_cell_length_b   5.98686500
_cell_length_c   16.67414800
_cell_angle_alpha   90.00000000
_cell_angle_beta   90.00000000
_cell_angle_gamma   90.00000000
_symmetry_Int_Tables_number   1
_chemical_formula_structural   Cu5NiC15
_chemical_formula_sum   'Cu10 Ni2 C30'
_cell_volume   597.64402555
_cell_formula_units_Z   2
loop_
 _symmetry_equiv_pos_site_id
 _symmetry_equiv_pos_as_xyz
  1  'x, y, z'
loop_
 _atom_site_type_symbol
 _atom_site_label
 _atom_site_symmetry_multiplicity
 _atom_site_fract_x
 _atom_site_fract_y
 _atom_site_fract_z
 _atom_site_occupancy
  C  C0  1  0.00000000  0.00000000  0.50000000  1
  C  C1  1  0.50000000  0.50000000  0.50000000  1
  C  C2  1  0.00000000  0.00000000  0.75428600  1
  C  C3  1  0.50000000  0.50000000  0.75428600  1
  C  C4  1  0.00000000  0.00000000  0.24571400  1
  C  C5  1  0.50000000  0.50000000  0.24571400  1
  Ni  Ni6  1  0.00000000  0.50000000  0.62644600  1
  Ni  Ni7  1  0.50000000  0.00000000  0.37355400  1
  Cu  Cu8  1  0.50000000  0.00000000  0.87874400  1
  Cu  Cu9  1  0.00000000  0.50000000  0.87902200  1
  Cu  Cu10  1  0.50000000  0.00000000  0.12097800  1
  Cu  Cu11  1  0.00000000  0.50000000  0.12125600  1
  Cu  Cu12  1  0.25000000  0.75000000  0.00000000  1
  Cu  Cu13  1  0.75000000  0.25000000  0.00000000  1
  Cu  Cu14  1  0.25000000  0.25000000  0.00000000  1
  Cu  Cu15  1  0.75000000  0.75000000  0.00000000  1
  Cu  Cu16  1  0.50000000  0.00000000  0.62679300  1
  Cu  Cu17  1  0.00000000  0.50000000  0.37320700  1
  C  C18  1  0.25005200  0.75005200  0.87169700  1
  C  C19  1  0.74994800  0.24994800  0.87169700  1
  C  C20  1  0.25005200  0.24994800  0.87169700  1
  C  C21  1  0.74994800  0.75005200  0.87169700  1
  C  C22  1  0.24994800  0.74994800  0.12830300  1
  C  C23  1  0.75005200  0.25005200  0.12830300  1
  C  C24  1  0.24994800  0.25005200  0.12830300  1
  C  C25  1  0.75005200  0.74994800  0.12830300  1
  C  C26  1  0.50000000  0.00000000  0.74606900  1
  C  C27  1  0.00000000  0.50000000  0.74944100  1
  C  C28  1  0.50000000  0.00000000  0.25055900  1
  C  C29  1  0.00000000  0.50000000  0.25393100  1
  C  C30  1  0.50000000  0.00000000  0.50331200  1
  C  C31  1  0.00000000  0.50000000  0.49668800  1
  C  C32  1  0.25492900  0.75492900  0.62376900  1
  C  C33  1  0.74507100  0.24507100  0.62376900  1
  C  C34  1  0.25492900  0.24507100  0.62376900  1
  C  C35  1  0.74507100  0.75492900  0.62376900  1
  C  C36  1  0.24507100  0.74507100  0.37623100  1
  C  C37  1  0.75492900  0.25492900  0.37623100  1
  C  C38  1  0.24507100  0.25492900  0.37623100  1
  C  C39  1  0.75492900  0.74507100  0.37623100  1
  C  C40  1  0.00000000  0.00000000  0.00000000  1
  C  C41  1  0.50000000  0.50000000  0.00000000  1
