# generated using pymatgen
data_Cu9Ni5C3
_symmetry_space_group_name_H-M   'P 1'
_cell_length_a   13.64583936
_cell_length_b   13.64583936
_cell_length_c   9.47852482
_cell_angle_alpha   84.19240982
_cell_angle_beta   84.19240982
_cell_angle_gamma   139.70467965
_symmetry_Int_Tables_number   1
_chemical_formula_structural   Cu9Ni5C3
_chemical_formula_sum   'Cu18 Ni10 C6'
_cell_volume   1091.09733514
_cell_formula_units_Z   2
loop_
 _symmetry_equiv_pos_site_id
 _symmetry_equiv_pos_as_xyz
  1  'x, y, z'
loop_
 _atom_site_type_symbol
 _atom_site_label
 _atom_site_symmetry_multiplicity
 _atom_site_fract_x
 _atom_site_fract_y
 _atom_site_fract_z
 _atom_site_occupancy
  C  C0  1  0.41834600  0.58165400  0.50000000  1
  C  C1  1  0.58165400  0.41834600  0.50000000  1
  C  C2  1  0.02566800  0.45610400  0.23110500  1
  C  C3  1  0.45610400  0.02566800  0.23110500  1
  C  C4  1  0.97433200  0.54389600  0.76889500  1
  C  C5  1  0.54389600  0.97433200  0.76889500  1
  Ni  Ni6  1  0.42727100  0.57272900  0.00000000  1
  Ni  Ni7  1  0.57272900  0.42727100  0.00000000  1
  Ni  Ni8  1  0.92099500  0.07900500  0.50000000  1
  Ni  Ni9  1  0.07900500  0.92099500  0.50000000  1
  Ni  Ni10  1  0.03468900  0.27902900  0.83696200  1
  Ni  Ni11  1  0.27902900  0.03468900  0.83696200  1
  Ni  Ni12  1  0.96531100  0.72097100  0.16303800  1
  Ni  Ni13  1  0.72097100  0.96531100  0.16303800  1
  Ni  Ni14  1  0.89377000  0.89377000  0.86295800  1
  Ni  Ni15  1  0.10623000  0.10623000  0.13704200  1
  Cu  Cu16  1  0.12229100  0.12229100  0.62814600  1
  Cu  Cu17  1  0.87770900  0.87770900  0.37185400  1
  Cu  Cu18  1  0.80845100  0.19154900  0.00000000  1
  Cu  Cu19  1  0.19154900  0.80845100  0.00000000  1
  Cu  Cu20  1  0.24199400  0.55290600  0.83365300  1
  Cu  Cu21  1  0.55290600  0.24199400  0.83365300  1
  Cu  Cu22  1  0.75800600  0.44709400  0.16634700  1
  Cu  Cu23  1  0.44709400  0.75800600  0.16634700  1
  Cu  Cu24  1  0.99109100  0.30653800  0.59894000  1
  Cu  Cu25  1  0.30653800  0.99109100  0.59894000  1
  Cu  Cu26  1  0.00890900  0.69346200  0.40106000  1
  Cu  Cu27  1  0.69346200  0.00890900  0.40106000  1
  Cu  Cu28  1  0.37966900  0.37966900  0.87890700  1
  Cu  Cu29  1  0.62033100  0.62033100  0.12109300  1
  Cu  Cu30  1  0.70121900  0.85139200  0.77211100  1
  Cu  Cu31  1  0.85139200  0.70121900  0.77211100  1
  Cu  Cu32  1  0.29878100  0.14860800  0.22788900  1
  Cu  Cu33  1  0.14860800  0.29878100  0.22788900  1
