# generated using pymatgen
data_Cu2NiC4
_symmetry_space_group_name_H-M   'P 1'
_cell_length_a   6.40075442
_cell_length_b   6.40075442
_cell_length_c   17.19519387
_cell_angle_alpha   88.90036393
_cell_angle_beta   88.90036393
_cell_angle_gamma   59.82047500
_symmetry_Int_Tables_number   1
_chemical_formula_structural   Cu2NiC4
_chemical_formula_sum   'Cu12 Ni6 C24'
_cell_volume   608.84266838
_cell_formula_units_Z   6
loop_
 _symmetry_equiv_pos_site_id
 _symmetry_equiv_pos_as_xyz
  1  'x, y, z'
loop_
 _atom_site_type_symbol
 _atom_site_label
 _atom_site_symmetry_multiplicity
 _atom_site_fract_x
 _atom_site_fract_y
 _atom_site_fract_z
 _atom_site_occupancy
  Ni  Ni0  1  0.84459800  0.84459800  0.94596700  1
  Ni  Ni1  1  0.16530700  0.16530700  0.66507100  1
  Ni  Ni2  1  0.33402700  0.33402700  0.82733600  1
  Ni  Ni3  1  0.83324400  0.83324400  0.33456200  1
  Ni  Ni4  1  0.00008000  0.00008000  0.49886200  1
  Ni  Ni5  1  0.65977100  0.65977100  0.17423900  1
  Cu  Cu6  1  0.84293900  0.33487800  0.83247900  1
  Cu  Cu7  1  0.50384800  0.50384800  0.62580900  1
  Cu  Cu8  1  0.49893800  0.49893800  0.99443900  1
  Cu  Cu9  1  0.33487800  0.84293900  0.83247900  1
  Cu  Cu10  1  0.50013500  0.00058800  0.49912500  1
  Cu  Cu11  1  0.16629700  0.16629700  0.29029500  1
  Cu  Cu12  1  0.00058800  0.50013500  0.49912500  1
  Cu  Cu13  1  0.15541900  0.66499900  0.16784400  1
  Cu  Cu14  1  0.83367400  0.83367400  0.70543500  1
  Cu  Cu15  1  0.66499900  0.15541900  0.16784400  1
  Cu  Cu16  1  0.49685900  0.49685900  0.37221200  1
  Cu  Cu17  1  0.15635500  0.15635500  0.04809700  1
  C  C18  1  0.67939400  0.18454700  0.90663800  1
  C  C19  1  0.50439700  0.50439700  0.78146100  1
  C  C20  1  0.18454700  0.67939400  0.90663800  1
  C  C21  1  0.66982200  0.66982200  0.90124200  1
  C  C22  1  0.32718400  0.86913100  0.57474800  1
  C  C23  1  0.02032400  0.02032400  0.76116300  1
  C  C24  1  0.16956200  0.16956200  0.44082100  1
  C  C25  1  0.46334700  0.00641800  0.75212500  1
  C  C26  1  0.86913100  0.32718400  0.57474800  1
  C  C27  1  0.17420100  0.17420100  0.88791500  1
  C  C28  1  0.31944600  0.31944600  0.56890300  1
  C  C29  1  0.00641800  0.46334700  0.75212500  1
  C  C30  1  0.97917000  0.54000200  0.24289200  1
  C  C31  1  0.68368600  0.68368600  0.42987600  1
  C  C32  1  0.12945800  0.67305500  0.42327200  1
  C  C33  1  0.54000200  0.97917000  0.24289200  1
  C  C34  1  0.84565600  0.84565600  0.09387400  1
  C  C35  1  0.83080200  0.83080200  0.55821300  1
  C  C36  1  0.97329400  0.97329400  0.24138900  1
  C  C37  1  0.67305500  0.12945800  0.42327200  1
  C  C38  1  0.33323500  0.33323500  0.10499700  1
  C  C39  1  0.81995000  0.33394500  0.11040100  1
  C  C40  1  0.48200300  0.48200300  0.22879600  1
  C  C41  1  0.33394500  0.81995000  0.11040100  1
