# generated using pymatgen
data_Cu(NiC5)2
_symmetry_space_group_name_H-M   'P 1'
_cell_length_a   7.60743885
_cell_length_b   7.60743885
_cell_length_c   7.60743864
_cell_angle_alpha   42.33660954
_cell_angle_beta   42.33660954
_cell_angle_gamma   42.33661185
_symmetry_Int_Tables_number   1
_chemical_formula_structural   Cu(NiC5)2
_chemical_formula_sum   'Cu1 Ni2 C10'
_cell_volume   180.76208048
_cell_formula_units_Z   1
loop_
 _symmetry_equiv_pos_site_id
 _symmetry_equiv_pos_as_xyz
  1  'x, y, z'
loop_
 _atom_site_type_symbol
 _atom_site_label
 _atom_site_symmetry_multiplicity
 _atom_site_fract_x
 _atom_site_fract_y
 _atom_site_fract_z
 _atom_site_occupancy
  Ni  Ni0  1  0.20226300  0.20226300  0.20226300  1
  Ni  Ni1  1  0.79773700  0.79773700  0.79773700  1
  Cu  Cu2  1  0.00000000  0.00000000  0.00000000  1
  C  C3  1  0.59861600  0.59861600  0.59861600  1
  C  C4  1  0.40138400  0.40138400  0.40138400  1
  C  C5  1  0.73058700  0.26154000  0.73058700  1
  C  C6  1  0.26154000  0.73058700  0.73058700  1
  C  C7  1  0.73058700  0.73058700  0.26154000  1
  C  C8  1  0.32662100  0.32662100  0.32662100  1
  C  C9  1  0.67337900  0.67337900  0.67337900  1
  C  C10  1  0.73846000  0.26941300  0.26941300  1
  C  C11  1  0.26941300  0.26941300  0.73846000  1
  C  C12  1  0.26941300  0.73846000  0.26941300  1
