# generated using pymatgen
data_CuNi2C11
_symmetry_space_group_name_H-M   'P 1'
_cell_length_a   7.47327230
_cell_length_b   7.47851618
_cell_length_c   7.47524150
_cell_angle_alpha   57.51003375
_cell_angle_beta   57.51546037
_cell_angle_gamma   57.42001952
_symmetry_Int_Tables_number   1
_chemical_formula_structural   CuNi2C11
_chemical_formula_sum   'Cu1 Ni2 C11'
_cell_volume   278.30601658
_cell_formula_units_Z   1
loop_
 _symmetry_equiv_pos_site_id
 _symmetry_equiv_pos_as_xyz
  1  'x, y, z'
loop_
 _atom_site_type_symbol
 _atom_site_label
 _atom_site_symmetry_multiplicity
 _atom_site_fract_x
 _atom_site_fract_y
 _atom_site_fract_z
 _atom_site_occupancy
  Ni  Ni0  1  0.87370900  0.87424100  0.87436700  1
  Ni  Ni1  1  0.12628800  0.12576600  0.12563700  1
  C  C2  1  0.50000600  0.49999500  0.99999300  1
  C  C3  1  0.00000000  0.49998500  0.50001900  1
  C  C4  1  0.49998900  0.00000300  0.50001400  1
  Cu  Cu5  1  0.50000000  0.50000400  0.49998900  1
  C  C6  1  0.74096400  0.74127900  0.74130100  1
  C  C7  1  0.25814900  0.25821500  0.71771000  1
  C  C8  1  0.25799400  0.71782600  0.25825600  1
  C  C9  1  0.71764300  0.25802200  0.25822800  1
  C  C10  1  0.74200000  0.28217300  0.74173100  1
  C  C11  1  0.28236100  0.74198200  0.74176600  1
  C  C12  1  0.25904000  0.25871300  0.25870400  1
  C  C13  1  0.74186200  0.74179200  0.28228500  1
