# generated using pymatgen
data_CuNi7C16
_symmetry_space_group_name_H-M   'P 1'
_cell_length_a   7.67971400
_cell_length_b   7.67971400
_cell_length_c   5.42610900
_cell_angle_alpha   90.00000000
_cell_angle_beta   90.00000000
_cell_angle_gamma   90.00000000
_symmetry_Int_Tables_number   1
_chemical_formula_structural   CuNi7C16
_chemical_formula_sum   'Cu1 Ni7 C16'
_cell_volume   320.02109525
_cell_formula_units_Z   1
loop_
 _symmetry_equiv_pos_site_id
 _symmetry_equiv_pos_as_xyz
  1  'x, y, z'
loop_
 _atom_site_type_symbol
 _atom_site_label
 _atom_site_symmetry_multiplicity
 _atom_site_fract_x
 _atom_site_fract_y
 _atom_site_fract_z
 _atom_site_occupancy
  Ni  Ni0  1  0.24701400  0.24701400  0.50000000  1
  Ni  Ni1  1  0.50000000  0.00000000  0.00000000  1
  Ni  Ni2  1  0.75298600  0.24701400  0.50000000  1
  Ni  Ni3  1  0.00000000  0.50000000  0.00000000  1
  Ni  Ni4  1  0.24701400  0.75298600  0.50000000  1
  Ni  Ni5  1  0.50000000  0.50000000  0.00000000  1
  Ni  Ni6  1  0.75298600  0.75298600  0.50000000  1
  Cu  Cu7  1  0.00000000  0.00000000  0.00000000  1
  C  C8  1  0.00000000  0.24171700  0.24297100  1
  C  C9  1  0.24171700  0.00000000  0.24297100  1
  C  C10  1  0.24171700  0.00000000  0.75702900  1
  C  C11  1  0.00000000  0.24171700  0.75702900  1
  C  C12  1  0.50000000  0.24784200  0.25064800  1
  C  C13  1  0.75828300  0.00000000  0.24297100  1
  C  C14  1  0.75828300  0.00000000  0.75702900  1
  C  C15  1  0.50000000  0.24784200  0.74935200  1
  C  C16  1  0.00000000  0.75828300  0.24297100  1
  C  C17  1  0.24784200  0.50000000  0.25064800  1
  C  C18  1  0.24784200  0.50000000  0.74935200  1
  C  C19  1  0.00000000  0.75828300  0.75702900  1
  C  C20  1  0.50000000  0.75215800  0.25064800  1
  C  C21  1  0.75215800  0.50000000  0.25064800  1
  C  C22  1  0.75215800  0.50000000  0.74935200  1
  C  C23  1  0.50000000  0.75215800  0.74935200  1
