# generated using pymatgen
data_Cu4NiC
_symmetry_space_group_name_H-M   'P 1'
_cell_length_a   9.06606500
_cell_length_b   9.58601600
_cell_length_c   17.58153759
_cell_angle_alpha   79.94197895
_cell_angle_beta   90.00000000
_cell_angle_gamma   90.00000000
_symmetry_Int_Tables_number   1
_chemical_formula_structural   Cu4NiC
_chemical_formula_sum   'Cu64 Ni16 C16'
_cell_volume   1504.48379272
_cell_formula_units_Z   16
loop_
 _symmetry_equiv_pos_site_id
 _symmetry_equiv_pos_as_xyz
  1  'x, y, z'
loop_
 _atom_site_type_symbol
 _atom_site_label
 _atom_site_symmetry_multiplicity
 _atom_site_fract_x
 _atom_site_fract_y
 _atom_site_fract_z
 _atom_site_occupancy
  C  C0  1  0.10998600  0.49644600  0.26508100  1
  C  C1  1  0.60998600  0.00355400  0.73491900  1
  C  C2  1  0.89001400  0.50355400  0.73491900  1
  C  C3  1  0.39001400  0.99644600  0.26508100  1
  C  C4  1  0.93644600  0.96607100  0.24579600  1
  C  C5  1  0.43644600  0.53392900  0.75420400  1
  C  C6  1  0.06355400  0.03392900  0.75420400  1
  C  C7  1  0.56355400  0.46607100  0.24579600  1
  C  C8  1  0.12332100  0.06059500  0.49421800  1
  C  C9  1  0.62332100  0.43940500  0.50578200  1
  C  C10  1  0.87667900  0.93940500  0.50578200  1
  C  C11  1  0.37667900  0.56059500  0.49421800  1
  C  C12  1  0.06490700  0.11148300  0.00972400  1
  C  C13  1  0.56490700  0.38851700  0.99027600  1
  C  C14  1  0.93509300  0.88851700  0.99027600  1
  C  C15  1  0.43509300  0.61148300  0.00972400  1
  Ni  Ni16  1  0.38844400  0.27882500  0.42562700  1
  Ni  Ni17  1  0.88844400  0.22117500  0.57437300  1
  Ni  Ni18  1  0.61155600  0.72117500  0.57437300  1
  Ni  Ni19  1  0.11155600  0.77882500  0.42562700  1
  Ni  Ni20  1  0.91912000  0.14357700  0.35109900  1
  Ni  Ni21  1  0.41912000  0.35642300  0.64890100  1
  Ni  Ni22  1  0.08088000  0.85642300  0.64890100  1
  Ni  Ni23  1  0.58088000  0.64357700  0.35109900  1
  Ni  Ni24  1  0.27523200  0.33142200  0.08524900  1
  Ni  Ni25  1  0.77523200  0.16857800  0.91475100  1
  Ni  Ni26  1  0.72476800  0.66857800  0.91475100  1
  Ni  Ni27  1  0.22476800  0.83142200  0.08524900  1
  Ni  Ni28  1  0.82641900  0.00466500  0.13497500  1
  Ni  Ni29  1  0.32641900  0.49533500  0.86502500  1
  Ni  Ni30  1  0.17358100  0.99533500  0.86502500  1
  Ni  Ni31  1  0.67358100  0.50466500  0.13497500  1
  Cu  Cu32  1  0.30350600  0.41722700  0.42911900  1
  Cu  Cu33  1  0.80350600  0.08277300  0.57088100  1
  Cu  Cu34  1  0.69649400  0.58277300  0.57088100  1
  Cu  Cu35  1  0.19649400  0.91722700  0.42911900  1
  Cu  Cu36  1  0.55279400  0.30027300  0.43904100  1
  Cu  Cu37  1  0.05279400  0.19972700  0.56095900  1
  Cu  Cu38  1  0.44720600  0.69972700  0.56095900  1
  Cu  Cu39  1  0.94720600  0.80027300  0.43904100  1
  Cu  Cu40  1  0.36757400  0.24687200  0.34914100  1
  Cu  Cu41  1  0.86757400  0.25312800  0.65085900  1
  Cu  Cu42  1  0.63242600  0.75312800  0.65085900  1
  Cu  Cu43  1  0.13242600  0.74687200  0.34914100  1
  Cu  Cu44  1  0.33993200  0.16429100  0.48950800  1
  Cu  Cu45  1  0.83993200  0.33570900  0.51049200  1
  Cu  Cu46  1  0.66006800  0.83570900  0.51049200  1
  Cu  Cu47  1  0.16006800  0.66429100  0.48950800  1
  Cu  Cu48  1  0.98313700  0.04202800  0.30628100  1
  Cu  Cu49  1  0.48313700  0.45797200  0.69371900  1
  Cu  Cu50  1  0.01686300  0.95797200  0.69371900  1
  Cu  Cu51  1  0.51686300  0.54202800  0.30628100  1
  Cu  Cu52  1  0.04575500  0.19442300  0.39908900  1
  Cu  Cu53  1  0.54575500  0.30557700  0.60091100  1
  Cu  Cu54  1  0.95424500  0.80557700  0.60091100  1
  Cu  Cu55  1  0.45424500  0.69442300  0.39908900  1
  Cu  Cu56  1  0.80278000  0.07085400  0.40877500  1
  Cu  Cu57  1  0.30278000  0.42914600  0.59122500  1
  Cu  Cu58  1  0.19722000  0.92914600  0.59122500  1
  Cu  Cu59  1  0.69722000  0.57085400  0.40877500  1
  Cu  Cu60  1  0.85408900  0.26797600  0.30589600  1
  Cu  Cu61  1  0.35408900  0.23202400  0.69410400  1
  Cu  Cu62  1  0.14591100  0.73202400  0.69410400  1
  Cu  Cu63  1  0.64591100  0.76797600  0.30589600  1
  Cu  Cu64  1  0.16860100  0.31497600  0.02273400  1
  Cu  Cu65  1  0.66860100  0.18502400  0.97726600  1
  Cu  Cu66  1  0.83139900  0.68502400  0.97726600  1
  Cu  Cu67  1  0.33139900  0.81497600  0.02273400  1
  Cu  Cu68  1  0.22993500  0.26549400  0.16168200  1
  Cu  Cu69  1  0.72993500  0.23450600  0.83831800  1
  Cu  Cu70  1  0.77006500  0.73450600  0.83831800  1
  Cu  Cu71  1  0.27006500  0.76549400  0.16168200  1
  Cu  Cu72  1  0.29229600  0.49164500  0.08443800  1
  Cu  Cu73  1  0.79229600  0.00835500  0.91556200  1
  Cu  Cu74  1  0.70770400  0.50835500  0.91556200  1
  Cu  Cu75  1  0.20770400  0.99164500  0.08443800  1
  Cu  Cu76  1  0.42690100  0.27129200  0.06848300  1
  Cu  Cu77  1  0.92690100  0.22870800  0.93151700  1
  Cu  Cu78  1  0.57309900  0.72870800  0.93151700  1
  Cu  Cu79  1  0.07309900  0.77129200  0.06848300  1
  Cu  Cu80  1  0.69456900  0.05587300  0.16494500  1
  Cu  Cu81  1  0.19456900  0.44412700  0.83505500  1
  Cu  Cu82  1  0.30543100  0.94412700  0.83505500  1
  Cu  Cu83  1  0.80543100  0.55587300  0.16494500  1
  Cu  Cu84  1  0.92089700  0.91466300  0.19755200  1
  Cu  Cu85  1  0.42089700  0.58533700  0.80244800  1
  Cu  Cu86  1  0.07910300  0.08533700  0.80244800  1
  Cu  Cu87  1  0.57910300  0.41466300  0.19755200  1
  Cu  Cu88  1  0.79280900  0.90630200  0.07815900  1
  Cu  Cu89  1  0.29280900  0.59369800  0.92184100  1
  Cu  Cu90  1  0.20719100  0.09369800  0.92184100  1
  Cu  Cu91  1  0.70719100  0.40630200  0.07815900  1
  Cu  Cu92  1  0.91952800  0.13081500  0.09592200  1
  Cu  Cu93  1  0.41952800  0.36918500  0.90407800  1
  Cu  Cu94  1  0.08047200  0.86918500  0.90407800  1
  Cu  Cu95  1  0.58047200  0.63081500  0.09592200  1
