# generated using pymatgen
data_Cu12Ni3C4
_symmetry_space_group_name_H-M   'P 1'
_cell_length_a   9.55401820
_cell_length_b   9.55401820
_cell_length_c   9.55401758
_cell_angle_alpha   66.28520899
_cell_angle_beta   66.28520899
_cell_angle_gamma   66.28520897
_symmetry_Int_Tables_number   1
_chemical_formula_structural   Cu12Ni3C4
_chemical_formula_sum   'Cu24 Ni6 C8'
_cell_volume   700.30654841
_cell_formula_units_Z   2
loop_
 _symmetry_equiv_pos_site_id
 _symmetry_equiv_pos_as_xyz
  1  'x, y, z'
loop_
 _atom_site_type_symbol
 _atom_site_label
 _atom_site_symmetry_multiplicity
 _atom_site_fract_x
 _atom_site_fract_y
 _atom_site_fract_z
 _atom_site_occupancy
  C  C0  1  0.70635600  0.70635600  0.70635600  1
  C  C1  1  0.29364400  0.29364400  0.29364400  1
  C  C2  1  0.03740700  0.76976600  0.76582400  1
  C  C3  1  0.76976600  0.76582400  0.03740700  1
  C  C4  1  0.76582400  0.03740700  0.76976600  1
  C  C5  1  0.96259300  0.23417600  0.23023400  1
  C  C6  1  0.23023400  0.96259300  0.23417600  1
  C  C7  1  0.23417600  0.23023400  0.96259300  1
  Ni  Ni8  1  0.96211100  0.70508100  0.95851800  1
  Ni  Ni9  1  0.70508100  0.95851800  0.96211100  1
  Ni  Ni10  1  0.95851800  0.96211100  0.70508100  1
  Ni  Ni11  1  0.03788900  0.04148200  0.29491900  1
  Ni  Ni12  1  0.29491900  0.03788900  0.04148200  1
  Ni  Ni13  1  0.04148200  0.29491900  0.03788900  1
  Cu  Cu14  1  0.98387800  0.69624900  0.69451200  1
  Cu  Cu15  1  0.69624900  0.69451200  0.98387800  1
  Cu  Cu16  1  0.69451200  0.98387800  0.69624900  1
  Cu  Cu17  1  0.01612200  0.30548800  0.30375100  1
  Cu  Cu18  1  0.30375100  0.01612200  0.30548800  1
  Cu  Cu19  1  0.30548800  0.30375100  0.01612200  1
  Cu  Cu20  1  0.20476100  0.73814300  0.73310300  1
  Cu  Cu21  1  0.73814300  0.73310300  0.20476100  1
  Cu  Cu22  1  0.73310300  0.20476100  0.73814300  1
  Cu  Cu23  1  0.79523900  0.26689700  0.26185700  1
  Cu  Cu24  1  0.26185700  0.79523900  0.26689700  1
  Cu  Cu25  1  0.26689700  0.26185700  0.79523900  1
  Cu  Cu26  1  0.52992400  0.76218000  0.54228300  1
  Cu  Cu27  1  0.76218000  0.54228300  0.52992400  1
  Cu  Cu28  1  0.54228300  0.52992400  0.76218000  1
  Cu  Cu29  1  0.47007600  0.45771700  0.23782000  1
  Cu  Cu30  1  0.23782000  0.47007600  0.45771700  1
  Cu  Cu31  1  0.45771700  0.23782000  0.47007600  1
  Cu  Cu32  1  0.43510800  0.84665200  0.74772100  1
  Cu  Cu33  1  0.84665200  0.74772100  0.43510800  1
  Cu  Cu34  1  0.74772100  0.43510800  0.84665200  1
  Cu  Cu35  1  0.56489200  0.25227900  0.15334800  1
  Cu  Cu36  1  0.15334800  0.56489200  0.25227900  1
  Cu  Cu37  1  0.25227900  0.15334800  0.56489200  1
