# generated using pymatgen
data_Cu6Ni3C25
_symmetry_space_group_name_H-M   'P 1'
_cell_length_a   5.99314600
_cell_length_b   9.52559700
_cell_length_c   17.49995646
_cell_angle_alpha   60.29693606
_cell_angle_beta   90.00000000
_cell_angle_gamma   90.00000000
_symmetry_Int_Tables_number   1
_chemical_formula_structural   Cu6Ni3C25
_chemical_formula_sum   'Cu12 Ni6 C50'
_cell_volume   867.77346065
_cell_formula_units_Z   2
loop_
 _symmetry_equiv_pos_site_id
 _symmetry_equiv_pos_as_xyz
  1  'x, y, z'
loop_
 _atom_site_type_symbol
 _atom_site_label
 _atom_site_symmetry_multiplicity
 _atom_site_fract_x
 _atom_site_fract_y
 _atom_site_fract_z
 _atom_site_occupancy
  C  C0  1  0.33998800  0.50000000  0.25000000  1
  C  C1  1  0.66001200  0.50000000  0.75000000  1
  Ni  Ni2  1  0.70711300  0.33329400  0.41474200  1
  Ni  Ni3  1  0.70711300  0.66670600  0.08525800  1
  Ni  Ni4  1  0.69497400  0.00000000  0.75000000  1
  Ni  Ni5  1  0.29288700  0.66670600  0.58525800  1
  Ni  Ni6  1  0.30502600  0.00000000  0.25000000  1
  Ni  Ni7  1  0.29288700  0.33329400  0.91474200  1
  Cu  Cu8  1  0.82575200  0.91770400  0.58397000  1
  Cu  Cu9  1  0.82566700  0.23476500  0.25244700  1
  Cu  Cu10  1  0.83363200  0.57887800  0.92350000  1
  Cu  Cu11  1  0.83363200  0.42112200  0.57650000  1
  Cu  Cu12  1  0.82566700  0.76523500  0.24755300  1
  Cu  Cu13  1  0.82575200  0.08229600  0.91603000  1
  Cu  Cu14  1  0.17424800  0.08229600  0.41603000  1
  Cu  Cu15  1  0.16636800  0.42112200  0.07650000  1
  Cu  Cu16  1  0.17433300  0.76523500  0.74755300  1
  Cu  Cu17  1  0.16636800  0.57887800  0.42350000  1
  Cu  Cu18  1  0.17424800  0.91770400  0.08397000  1
  Cu  Cu19  1  0.17433300  0.23476500  0.75244700  1
  C  C20  1  0.67286100  0.33525800  0.51923100  1
  C  C21  1  0.65828200  0.66594100  0.19225300  1
  C  C22  1  0.66542900  0.00407400  0.85430500  1
  C  C23  1  0.66542900  0.99592600  0.64569500  1
  C  C24  1  0.65828200  0.33405900  0.30774700  1
  C  C25  1  0.67286100  0.66474200  0.98076900  1
  C  C26  1  0.32713900  0.66474200  0.48076900  1
  C  C27  1  0.33457100  0.99592600  0.14569500  1
  C  C28  1  0.34171800  0.33405900  0.80774700  1
  C  C29  1  0.33457100  0.00407400  0.35430500  1
  C  C30  1  0.32713900  0.33525800  0.01923100  1
  C  C31  1  0.34171800  0.66594100  0.69225300  1
  C  C32  1  0.09934900  0.87397200  0.52377700  1
  C  C33  1  0.09494000  0.20700200  0.18830500  1
  C  C34  1  0.09492200  0.54041000  0.85442800  1
  C  C35  1  0.09492200  0.45959000  0.64557200  1
  C  C36  1  0.09494000  0.79299800  0.31169500  1
  C  C37  1  0.09934900  0.12602800  0.97622300  1
  C  C38  1  0.90065100  0.12602800  0.47622300  1
  C  C39  1  0.90507800  0.45959000  0.14557200  1
  C  C40  1  0.90506000  0.79299800  0.81169500  1
  C  C41  1  0.90507800  0.54041000  0.35442800  1
  C  C42  1  0.90065100  0.87397200  0.02377700  1
  C  C43  1  0.90506000  0.20700200  0.68830500  1
  C  C44  1  0.38614200  0.51840600  0.37180700  1
  C  C45  1  0.39730300  0.84552900  0.04595800  1
  C  C46  1  0.40142600  0.17952200  0.70799300  1
  C  C47  1  0.39730300  0.15447100  0.45404200  1
  C  C48  1  0.38614200  0.48159400  0.12819300  1
  C  C49  1  0.40142600  0.82047800  0.79200700  1
  C  C50  1  0.61385800  0.48159400  0.62819300  1
  C  C51  1  0.59857400  0.82047800  0.29200700  1
  C  C52  1  0.60269700  0.15447100  0.95404200  1
  C  C53  1  0.60269700  0.84552900  0.54595800  1
  C  C54  1  0.59857400  0.17952200  0.20799300  1
  C  C55  1  0.61385800  0.51840600  0.87180700  1
  C  C56  1  0.11057200  0.37408400  0.51871000  1
  C  C57  1  0.10690800  0.70613900  0.18398700  1
  C  C58  1  0.10793700  0.04047800  0.85046000  1
  C  C59  1  0.88942800  0.62591600  0.48129000  1
  C  C60  1  0.89206300  0.95952200  0.14954000  1
  C  C61  1  0.89309200  0.29386100  0.81601300  1
  C  C62  1  0.10793700  0.95952200  0.64954000  1
  C  C63  1  0.10690800  0.29386100  0.31601300  1
  C  C64  1  0.11057200  0.62591600  0.98129000  1
  C  C65  1  0.89206300  0.04047800  0.35046000  1
  C  C66  1  0.88942800  0.37408400  0.01871000  1
  C  C67  1  0.89309200  0.70613900  0.68398700  1
