# generated using pymatgen
data_Cu2Ni3C17
_symmetry_space_group_name_H-M   'P 1'
_cell_length_a   7.55257198
_cell_length_b   7.55257198
_cell_length_c   7.50545808
_cell_angle_alpha   60.68972170
_cell_angle_beta   60.68972170
_cell_angle_gamma   60.55803658
_symmetry_Int_Tables_number   1
_chemical_formula_structural   Cu2Ni3C17
_chemical_formula_sum   'Cu2 Ni3 C17'
_cell_volume   307.14075915
_cell_formula_units_Z   1
loop_
 _symmetry_equiv_pos_site_id
 _symmetry_equiv_pos_as_xyz
  1  'x, y, z'
loop_
 _atom_site_type_symbol
 _atom_site_label
 _atom_site_symmetry_multiplicity
 _atom_site_fract_x
 _atom_site_fract_y
 _atom_site_fract_z
 _atom_site_occupancy
  Ni  Ni0  1  0.00000000  0.00000000  0.00000000  1
  Ni  Ni1  1  0.50000000  0.50000000  0.50000000  1
  Ni  Ni2  1  0.50000000  0.50000000  0.00000000  1
  Cu  Cu3  1  0.50000000  0.00000000  0.50000000  1
  Cu  Cu4  1  0.00000000  0.50000000  0.50000000  1
  C  C5  1  0.00000000  0.00000000  0.50000000  1
  C  C6  1  0.50000000  0.00000000  0.00000000  1
  C  C7  1  0.00000000  0.50000000  0.00000000  1
  C  C8  1  0.68671800  0.68671800  0.08837700  1
  C  C9  1  0.31328200  0.31328200  0.91162300  1
  C  C10  1  0.37704800  0.37704800  0.37858400  1
  C  C11  1  0.62295200  0.62295200  0.62141600  1
  C  C12  1  0.31613600  0.91146900  0.31711400  1
  C  C13  1  0.68386400  0.08853100  0.68288600  1
  C  C14  1  0.08853100  0.68386400  0.68288600  1
  C  C15  1  0.91146900  0.31613600  0.31711400  1
  C  C16  1  0.62999000  0.09392800  0.09597900  1
  C  C17  1  0.37001000  0.90607200  0.90402100  1
  C  C18  1  0.90607200  0.37001000  0.90402100  1
  C  C19  1  0.09392800  0.62999000  0.09597900  1
  C  C20  1  0.90424200  0.90424200  0.36982200  1
  C  C21  1  0.09575800  0.09575800  0.63017800  1
