# generated using pymatgen
data_Cu4Ni2C
_symmetry_space_group_name_H-M   'P 1'
_cell_length_a   7.05832600
_cell_length_b   5.42801143
_cell_length_c   9.33038476
_cell_angle_alpha   96.40697617
_cell_angle_beta   90.00000000
_cell_angle_gamma   130.55487615
_symmetry_Int_Tables_number   1
_chemical_formula_structural   Cu4Ni2C
_chemical_formula_sum   'Cu8 Ni4 C2'
_cell_volume   268.65602942
_cell_formula_units_Z   2
loop_
 _symmetry_equiv_pos_site_id
 _symmetry_equiv_pos_as_xyz
  1  'x, y, z'
loop_
 _atom_site_type_symbol
 _atom_site_label
 _atom_site_symmetry_multiplicity
 _atom_site_fract_x
 _atom_site_fract_y
 _atom_site_fract_z
 _atom_site_occupancy
  C  C0  1  0.20105400  0.40210800  0.19186000  1
  C  C1  1  0.79894600  0.59789200  0.80814000  1
  Ni  Ni2  1  0.43282800  0.86565500  0.25214300  1
  Ni  Ni3  1  0.56717200  0.13434500  0.74785700  1
  Ni  Ni4  1  0.89230500  0.78460900  0.29879600  1
  Ni  Ni5  1  0.10769500  0.21539100  0.70120400  1
  Cu  Cu6  1  0.37010200  0.74020400  0.36616900  1
  Cu  Cu7  1  0.62989800  0.25979600  0.63383100  1
  Cu  Cu8  1  0.03735900  0.07471700  0.33862800  1
  Cu  Cu9  1  0.96264100  0.92528300  0.66137200  1
  Cu  Cu10  1  0.95818200  0.30185600  0.10613700  1
  Cu  Cu11  1  0.34367400  0.30185600  0.10613700  1
  Cu  Cu12  1  0.04181800  0.69814400  0.89386300  1
  Cu  Cu13  1  0.65632600  0.69814400  0.89386300  1
