# generated using pymatgen
data_Cu(NiC6)3
_symmetry_space_group_name_H-M   'P 1'
_cell_length_a   7.55763347
_cell_length_b   7.55763347
_cell_length_c   13.80230038
_cell_angle_alpha   78.01283045
_cell_angle_beta   78.01283045
_cell_angle_gamma   90.33895779
_symmetry_Int_Tables_number   1
_chemical_formula_structural   Cu(NiC6)3
_chemical_formula_sum   'Cu2 Ni6 C36'
_cell_volume   753.35874552
_cell_formula_units_Z   2
loop_
 _symmetry_equiv_pos_site_id
 _symmetry_equiv_pos_as_xyz
  1  'x, y, z'
loop_
 _atom_site_type_symbol
 _atom_site_label
 _atom_site_symmetry_multiplicity
 _atom_site_fract_x
 _atom_site_fract_y
 _atom_site_fract_z
 _atom_site_occupancy
  Ni  Ni0  1  0.62187200  0.24777400  0.50230500  1
  Ni  Ni1  1  0.75222600  0.37812800  0.99769500  1
  Ni  Ni2  1  0.37812800  0.75222600  0.49769500  1
  Ni  Ni3  1  0.24777400  0.62187200  0.00230500  1
  Ni  Ni4  1  0.03212100  0.96787900  0.25000000  1
  Ni  Ni5  1  0.96787900  0.03212100  0.75000000  1
  C  C6  1  0.86843000  0.72648400  0.54697100  1
  C  C7  1  0.27351600  0.13157000  0.95302900  1
  C  C8  1  0.13157000  0.27351600  0.45302900  1
  C  C9  1  0.72648400  0.86843000  0.04697100  1
  C  C10  1  0.94924700  0.46723000  0.25635200  1
  C  C11  1  0.53277000  0.05075300  0.24364800  1
  C  C12  1  0.05075300  0.53277000  0.74364800  1
  C  C13  1  0.46723000  0.94924700  0.75635200  1
  Cu  Cu14  1  0.44459800  0.55540200  0.25000000  1
  Cu  Cu15  1  0.55540200  0.44459800  0.75000000  1
  C  C16  1  0.00826300  0.69998900  0.63959600  1
  C  C17  1  0.30001100  0.99173700  0.86040400  1
  C  C18  1  0.99173700  0.30001100  0.36040400  1
  C  C19  1  0.69998900  0.00826300  0.13959600  1
  C  C20  1  0.69787900  0.57079500  0.58381700  1
  C  C21  1  0.42920500  0.30212100  0.91618300  1
  C  C22  1  0.30212100  0.42920500  0.41618300  1
  C  C23  1  0.57079500  0.69787900  0.08381700  1
  C  C24  1  0.99359000  0.70844400  0.43870700  1
  C  C25  1  0.29155600  0.00641000  0.06129300  1
  C  C26  1  0.00641000  0.29155600  0.56129300  1
  C  C27  1  0.70844400  0.99359000  0.93870700  1
  C  C28  1  0.78674200  0.92673100  0.53648400  1
  C  C29  1  0.07326900  0.21325800  0.96351600  1
  C  C30  1  0.21325800  0.07326900  0.46351600  1
  C  C31  1  0.92673100  0.78674200  0.03648400  1
  C  C32  1  0.12438800  0.61490900  0.21970500  1
  C  C33  1  0.38509100  0.87561200  0.28029500  1
  C  C34  1  0.87561200  0.38509100  0.78029500  1
  C  C35  1  0.61490900  0.12438800  0.71970500  1
  C  C36  1  0.75881000  0.56406400  0.29040100  1
  C  C37  1  0.43593600  0.24119000  0.20959900  1
  C  C38  1  0.24119000  0.43593600  0.70959900  1
  C  C39  1  0.56406400  0.75881000  0.79040100  1
  C  C40  1  0.93883500  0.36657300  0.16347900  1
  C  C41  1  0.63342700  0.06116500  0.33652100  1
  C  C42  1  0.06116500  0.63342700  0.83652100  1
  C  C43  1  0.36657300  0.93883500  0.66347900  1
