# generated using pymatgen
data_Cu8(NiC)3
_symmetry_space_group_name_H-M   'P 1'
_cell_length_a   10.12491800
_cell_length_b   10.37785963
_cell_length_c   15.52760818
_cell_angle_alpha   71.04010930
_cell_angle_beta   75.19145702
_cell_angle_gamma   72.03324253
_symmetry_Int_Tables_number   1
_chemical_formula_structural   Cu8(NiC)3
_chemical_formula_sum   'Cu48 Ni18 C18'
_cell_volume   1445.74406811
_cell_formula_units_Z   6
loop_
 _symmetry_equiv_pos_site_id
 _symmetry_equiv_pos_as_xyz
  1  'x, y, z'
loop_
 _atom_site_type_symbol
 _atom_site_label
 _atom_site_symmetry_multiplicity
 _atom_site_fract_x
 _atom_site_fract_y
 _atom_site_fract_z
 _atom_site_occupancy
  C  C0  1  0.90350900  0.36716000  0.44303600  1
  C  C1  1  0.09649100  0.63284000  0.55696400  1
  C  C2  1  0.72279300  0.36480900  0.71599700  1
  C  C3  1  0.27720700  0.63519100  0.28400300  1
  C  C4  1  0.90573400  0.83719000  0.96678700  1
  C  C5  1  0.09426600  0.16281000  0.03321300  1
  C  C6  1  0.63872500  0.62519400  0.86994300  1
  C  C7  1  0.36127500  0.37480600  0.13005700  1
  C  C8  1  0.63916500  0.04125300  0.37846300  1
  C  C9  1  0.36083500  0.95874700  0.62153700  1
  C  C10  1  0.56479800  0.70116300  0.37874600  1
  C  C11  1  0.43520200  0.29883700  0.62125400  1
  C  C12  1  0.84679500  0.76334300  0.26261300  1
  C  C13  1  0.15320500  0.23665700  0.73738700  1
  C  C14  1  0.55887300  0.89006000  0.16765300  1
  C  C15  1  0.44112700  0.10994000  0.83234700  1
  C  C16  1  0.71497400  0.56910300  0.20987200  1
  C  C17  1  0.28502600  0.43089700  0.79012800  1
  Ni  Ni18  1  0.62610800  0.18340500  0.58203900  1
  Ni  Ni19  1  0.37389200  0.81659500  0.41796100  1
  Ni  Ni20  1  0.62335900  0.68238500  0.49701800  1
  Ni  Ni21  1  0.37664100  0.31761500  0.50298200  1
  Ni  Ni22  1  0.92666900  0.74169700  0.37222700  1
  Ni  Ni23  1  0.07333100  0.25830300  0.62777300  1
  Ni  Ni24  1  0.91535500  0.93364800  0.18917600  1
  Ni  Ni25  1  0.08464500  0.06635200  0.81082400  1
  Ni  Ni26  1  0.61580500  0.06654900  0.09104800  1
  Ni  Ni27  1  0.38419500  0.93345100  0.90895200  1
  Ni  Ni28  1  0.64672700  0.01216700  0.82342100  1
  Ni  Ni29  1  0.35327300  0.98783300  0.17657900  1
  Ni  Ni30  1  0.65721600  0.38349900  0.27992400  1
  Ni  Ni31  1  0.34278400  0.61650100  0.72007600  1
  Ni  Ni32  1  0.66151700  0.57982600  0.08829000  1
  Ni  Ni33  1  0.33848300  0.42017400  0.91171000  1
  Ni  Ni34  1  0.91643100  0.45469300  0.16819600  1
  Ni  Ni35  1  0.08356900  0.54530700  0.83180400  1
  Cu  Cu36  1  0.76284900  0.76405900  0.15486000  1
  Cu  Cu37  1  0.23715100  0.23594100  0.84514000  1
  Cu  Cu38  1  0.52379300  0.69934900  0.25464500  1
  Cu  Cu39  1  0.47620700  0.30065100  0.74535500  1
  Cu  Cu40  1  0.76111200  0.58980900  0.32661000  1
  Cu  Cu41  1  0.23888800  0.41019100  0.67339000  1
  Cu  Cu42  1  0.73304000  0.22317400  0.57834400  1
  Cu  Cu43  1  0.26696000  0.77682600  0.42165600  1
  Cu  Cu44  1  0.63866100  0.07130200  0.56326800  1
  Cu  Cu45  1  0.36133900  0.92869800  0.43673200  1
  Cu  Cu46  1  0.60104000  0.78509700  0.52870600  1
  Cu  Cu47  1  0.39896000  0.21490300  0.47129400  1
  Cu  Cu48  1  0.68859800  0.56253300  0.53767100  1
  Cu  Cu49  1  0.31140200  0.43746700  0.46232900  1
  Cu  Cu50  1  0.98828400  0.37553500  0.59871200  1
  Cu  Cu51  1  0.01171600  0.62446500  0.40128800  1
  Cu  Cu52  1  0.89421500  0.83314500  0.41500300  1
  Cu  Cu53  1  0.10578500  0.16685500  0.58499700  1
  Cu  Cu54  1  0.97920300  0.93482500  0.10819800  1
  Cu  Cu55  1  0.02079700  0.06517500  0.89180200  1
  Cu  Cu56  1  0.89141700  0.03760300  0.21966200  1
  Cu  Cu57  1  0.10858300  0.96239700  0.78033800  1
  Cu  Cu58  1  0.67338600  0.07374600  0.00860600  1
  Cu  Cu59  1  0.32661400  0.92625400  0.99139400  1
  Cu  Cu60  1  0.59809300  0.16396000  0.12657100  1
  Cu  Cu61  1  0.40190700  0.83604000  0.87342900  1
  Cu  Cu62  1  0.68971900  0.88127800  0.85446000  1
  Cu  Cu63  1  0.31028100  0.11872200  0.14554000  1
  Cu  Cu64  1  0.73310900  0.08655500  0.79079100  1
  Cu  Cu65  1  0.26689100  0.91344500  0.20920900  1
  Cu  Cu66  1  0.54697700  0.36383500  0.27108700  1
  Cu  Cu67  1  0.45302300  0.63616500  0.72891300  1
  Cu  Cu68  1  0.73481600  0.29492500  0.33395600  1
  Cu  Cu69  1  0.26518400  0.70507500  0.66604400  1
  Cu  Cu70  1  0.55104200  0.55376700  0.08609800  1
  Cu  Cu71  1  0.44895800  0.44623300  0.91390200  1
  Cu  Cu72  1  0.74388200  0.62060300  0.01664500  1
  Cu  Cu73  1  0.25611800  0.37939700  0.98335500  1
  Cu  Cu74  1  0.98344600  0.52015100  0.81344500  1
  Cu  Cu75  1  0.01655400  0.47984900  0.18655500  1
  Cu  Cu76  1  0.93001100  0.36656400  0.12665300  1
  Cu  Cu77  1  0.06998900  0.63343600  0.87334700  1
  Cu  Cu78  1  0.85920000  0.84099900  0.65631900  1
  Cu  Cu79  1  0.14080000  0.15900100  0.34368100  1
  Cu  Cu80  1  0.81102600  0.73671100  0.67779800  1
  Cu  Cu81  1  0.18897400  0.26328900  0.32220200  1
  Cu  Cu82  1  0.76152400  0.31878500  0.90134100  1
  Cu  Cu83  1  0.23847600  0.68121500  0.09865900  1
