# generated using pymatgen
data_Cu7Ni8C11
_symmetry_space_group_name_H-M   'P 1'
_cell_length_a   18.29983022
_cell_length_b   18.29983022
_cell_length_c   18.29983008
_cell_angle_alpha   30.38134180
_cell_angle_beta   30.38134180
_cell_angle_gamma   30.38134189
_symmetry_Int_Tables_number   1
_chemical_formula_structural   Cu7Ni8C11
_chemical_formula_sum   'Cu14 Ni16 C22'
_cell_volume   1389.28607326
_cell_formula_units_Z   2
loop_
 _symmetry_equiv_pos_site_id
 _symmetry_equiv_pos_as_xyz
  1  'x, y, z'
loop_
 _atom_site_type_symbol
 _atom_site_label
 _atom_site_symmetry_multiplicity
 _atom_site_fract_x
 _atom_site_fract_y
 _atom_site_fract_z
 _atom_site_occupancy
  C  C0  1  0.74905300  0.44960000  0.05001400  1
  C  C1  1  0.44960000  0.05001400  0.74905300  1
  C  C2  1  0.05001400  0.74905300  0.44960000  1
  C  C3  1  0.55001400  0.94960000  0.24905300  1
  C  C4  1  0.94960000  0.24905300  0.55001400  1
  C  C5  1  0.24905300  0.55001400  0.94960000  1
  C  C6  1  0.84382800  0.84382800  0.84382800  1
  C  C7  1  0.34382800  0.34382800  0.34382800  1
  C  C8  1  0.15765800  0.15765800  0.15765800  1
  C  C9  1  0.65765800  0.65765800  0.65765800  1
  C  C10  1  0.34925700  0.66009200  0.55201100  1
  C  C11  1  0.66009200  0.55201100  0.34925700  1
  C  C12  1  0.55201100  0.34925700  0.66009200  1
  C  C13  1  0.05201100  0.16009200  0.84925700  1
  C  C14  1  0.16009200  0.84925700  0.05201100  1
  C  C15  1  0.84925700  0.05201100  0.16009200  1
  C  C16  1  0.65050100  0.33967600  0.44825300  1
  C  C17  1  0.33967600  0.44825300  0.65050100  1
  C  C18  1  0.44825300  0.65050100  0.33967600  1
  C  C19  1  0.94825300  0.83967600  0.15050100  1
  C  C20  1  0.83967600  0.15050100  0.94825300  1
  C  C21  1  0.15050100  0.94825300  0.83967600  1
  Ni  Ni22  1  0.55684600  0.55684600  0.55684600  1
  Ni  Ni23  1  0.05684600  0.05684600  0.05684600  1
  Ni  Ni24  1  0.44312800  0.44312800  0.44312800  1
  Ni  Ni25  1  0.94312800  0.94312800  0.94312800  1
  Ni  Ni26  1  0.26117200  0.45955000  0.83644600  1
  Ni  Ni27  1  0.45955000  0.83644600  0.26117200  1
  Ni  Ni28  1  0.83644600  0.26117200  0.45955000  1
  Ni  Ni29  1  0.33644600  0.95955000  0.76117200  1
  Ni  Ni30  1  0.95955000  0.76117200  0.33644600  1
  Ni  Ni31  1  0.76117200  0.33644600  0.95955000  1
  Ni  Ni32  1  0.73940700  0.53962200  0.16367200  1
  Ni  Ni33  1  0.53962200  0.16367200  0.73940700  1
  Ni  Ni34  1  0.16367200  0.73940700  0.53962200  1
  Ni  Ni35  1  0.66367200  0.03962200  0.23940700  1
  Ni  Ni36  1  0.03962200  0.23940700  0.66367200  1
  Ni  Ni37  1  0.23940700  0.66367200  0.03962200  1
  Cu  Cu38  1  0.14589100  0.86597300  0.63124500  1
  Cu  Cu39  1  0.86597300  0.63124500  0.14589100  1
  Cu  Cu40  1  0.63124500  0.14589100  0.86597300  1
  Cu  Cu41  1  0.13124500  0.36597300  0.64589100  1
  Cu  Cu42  1  0.36597300  0.64589100  0.13124500  1
  Cu  Cu43  1  0.64589100  0.13124500  0.36597300  1
  Cu  Cu44  1  0.85253700  0.12977300  0.37471300  1
  Cu  Cu45  1  0.12977300  0.37471300  0.85253700  1
  Cu  Cu46  1  0.37471300  0.85253700  0.12977300  1
  Cu  Cu47  1  0.87471300  0.62977300  0.35253700  1
  Cu  Cu48  1  0.62977300  0.35253700  0.87471300  1
  Cu  Cu49  1  0.35253700  0.87471300  0.62977300  1
  Cu  Cu50  1  0.23639600  0.23639600  0.23639600  1
  Cu  Cu51  1  0.73639600  0.73639600  0.73639600  1
