# generated using pymatgen
data_Cu4Ni3C4
_symmetry_space_group_name_H-M   'P 1'
_cell_length_a   10.88275708
_cell_length_b   10.88275708
_cell_length_c   7.87657134
_cell_angle_alpha   71.54920921
_cell_angle_beta   71.54920921
_cell_angle_gamma   30.39136768
_symmetry_Int_Tables_number   1
_chemical_formula_structural   Cu4Ni3C4
_chemical_formula_sum   'Cu8 Ni6 C8'
_cell_volume   445.83444903
_cell_formula_units_Z   2
loop_
 _symmetry_equiv_pos_site_id
 _symmetry_equiv_pos_as_xyz
  1  'x, y, z'
loop_
 _atom_site_type_symbol
 _atom_site_label
 _atom_site_symmetry_multiplicity
 _atom_site_fract_x
 _atom_site_fract_y
 _atom_site_fract_z
 _atom_site_occupancy
  C  C0  1  0.93515800  0.20051500  0.32669500  1
  C  C1  1  0.06484200  0.79948500  0.67330500  1
  C  C2  1  0.79948500  0.06484200  0.17330500  1
  C  C3  1  0.45618900  0.20536200  0.90547000  1
  C  C4  1  0.79463800  0.54381100  0.59453000  1
  C  C5  1  0.20536200  0.45618900  0.40547000  1
  C  C6  1  0.20051500  0.93515800  0.82669500  1
  C  C7  1  0.54381100  0.79463800  0.09453000  1
  Ni  Ni8  1  0.30424100  0.03938900  0.43508300  1
  Ni  Ni9  1  0.38469100  0.61530900  0.25000000  1
  Ni  Ni10  1  0.03938900  0.30424100  0.93508300  1
  Ni  Ni11  1  0.69575900  0.96061100  0.56491700  1
  Ni  Ni12  1  0.96061100  0.69575900  0.06491700  1
  Ni  Ni13  1  0.61530900  0.38469100  0.75000000  1
  Cu  Cu14  1  0.57443900  0.30192700  0.52418000  1
  Cu  Cu15  1  0.69807300  0.42556100  0.97582000  1
  Cu  Cu16  1  0.30192700  0.57443900  0.02418000  1
  Cu  Cu17  1  0.42556100  0.69807300  0.47582000  1
  Cu  Cu18  1  0.64184100  0.91426700  0.31889300  1
  Cu  Cu19  1  0.91426700  0.64184100  0.81889300  1
  Cu  Cu20  1  0.35815900  0.08573300  0.68110700  1
  Cu  Cu21  1  0.08573300  0.35815900  0.18110700  1
