# generated using pymatgen
data_Cu2NiC
_symmetry_space_group_name_H-M   'P 1'
_cell_length_a   5.58158440
_cell_length_b   5.58158440
_cell_length_c   15.19617600
_cell_angle_alpha   90.00000000
_cell_angle_beta   90.00000000
_cell_angle_gamma   120.00000475
_symmetry_Int_Tables_number   1
_chemical_formula_structural   Cu2NiC
_chemical_formula_sum   'Cu12 Ni6 C6'
_cell_volume   409.99628181
_cell_formula_units_Z   6
loop_
 _symmetry_equiv_pos_site_id
 _symmetry_equiv_pos_as_xyz
  1  'x, y, z'
loop_
 _atom_site_type_symbol
 _atom_site_label
 _atom_site_symmetry_multiplicity
 _atom_site_fract_x
 _atom_site_fract_y
 _atom_site_fract_z
 _atom_site_occupancy
  C  C0  1  0.33333300  0.66666700  0.53910100  1
  C  C1  1  0.66666700  0.33333300  0.46089900  1
  C  C2  1  0.66666700  0.33333300  0.03910100  1
  C  C3  1  0.33333300  0.66666700  0.96089900  1
  C  C4  1  0.33333300  0.66666700  0.75000000  1
  C  C5  1  0.66666700  0.33333300  0.25000000  1
  Ni  Ni6  1  0.00000000  0.00000000  0.25000000  1
  Ni  Ni7  1  0.00000000  0.00000000  0.75000000  1
  Ni  Ni8  1  0.33333300  0.66666700  0.25000000  1
  Ni  Ni9  1  0.66666700  0.33333300  0.75000000  1
  Ni  Ni10  1  0.00000000  0.00000000  0.00000000  1
  Ni  Ni11  1  0.00000000  0.00000000  0.50000000  1
  Cu  Cu12  1  0.16745600  0.33491200  0.13052300  1
  Cu  Cu13  1  0.83254400  0.66508800  0.86947700  1
  Cu  Cu14  1  0.66508800  0.83254400  0.13052300  1
  Cu  Cu15  1  0.83254400  0.66508800  0.63052300  1
  Cu  Cu16  1  0.33491200  0.16745600  0.86947700  1
  Cu  Cu17  1  0.16745600  0.33491200  0.36947700  1
  Cu  Cu18  1  0.16745600  0.83254400  0.13052300  1
  Cu  Cu19  1  0.33491200  0.16745600  0.63052300  1
  Cu  Cu20  1  0.83254400  0.16745600  0.86947700  1
  Cu  Cu21  1  0.66508800  0.83254400  0.36947700  1
  Cu  Cu22  1  0.83254400  0.16745600  0.63052300  1
  Cu  Cu23  1  0.16745600  0.83254400  0.36947700  1
