# generated using pymatgen
data_CuNiC4
_symmetry_space_group_name_H-M   'P 1'
_cell_length_a   9.53028620
_cell_length_b   9.53028620
_cell_length_c   9.53028620
_cell_angle_alpha   60.00000000
_cell_angle_beta   60.00000000
_cell_angle_gamma   60.00000000
_symmetry_Int_Tables_number   1
_chemical_formula_structural   CuNiC4
_chemical_formula_sum   'Cu4 Ni4 C16'
_cell_volume   612.07244911
_cell_formula_units_Z   4
loop_
 _symmetry_equiv_pos_site_id
 _symmetry_equiv_pos_as_xyz
  1  'x, y, z'
loop_
 _atom_site_type_symbol
 _atom_site_label
 _atom_site_symmetry_multiplicity
 _atom_site_fract_x
 _atom_site_fract_y
 _atom_site_fract_z
 _atom_site_occupancy
  C  C0  1  0.59850000  0.59850000  0.59850000  1
  C  C1  1  0.59850000  0.59850000  0.20450100  1
  C  C2  1  0.59850000  0.20450100  0.59850000  1
  C  C3  1  0.20450100  0.59850000  0.59850000  1
  C  C4  1  0.06188200  0.43811800  0.43811800  1
  C  C5  1  0.43811800  0.06188200  0.06188200  1
  C  C6  1  0.43811800  0.06188200  0.43811800  1
  C  C7  1  0.06188200  0.43811800  0.06188200  1
  C  C8  1  0.43811800  0.43811800  0.06188200  1
  C  C9  1  0.06188200  0.06188200  0.43811800  1
  C  C10  1  0.18593400  0.81406600  0.81406600  1
  C  C11  1  0.81406600  0.18593400  0.18593400  1
  C  C12  1  0.81406600  0.18593400  0.81406600  1
  C  C13  1  0.18593400  0.81406600  0.18593400  1
  C  C14  1  0.81406600  0.81406600  0.18593400  1
  C  C15  1  0.18593400  0.18593400  0.81406600  1
  Ni  Ni16  1  0.83142700  0.83142700  0.83142700  1
  Ni  Ni17  1  0.83142700  0.83142700  0.50571900  1
  Ni  Ni18  1  0.83142700  0.50571900  0.83142700  1
  Ni  Ni19  1  0.50571900  0.83142700  0.83142700  1
  Cu  Cu20  1  0.39231000  0.39231000  0.39231000  1
  Cu  Cu21  1  0.39231000  0.39231000  0.82307000  1
  Cu  Cu22  1  0.39231000  0.82307000  0.39231000  1
  Cu  Cu23  1  0.82307000  0.39231000  0.39231000  1
