# generated using pymatgen
data_Cu2(Ni2C9)7
_symmetry_space_group_name_H-M   'P 1'
_cell_length_a   10.81638751
_cell_length_b   15.08097539
_cell_length_c   10.67103402
_cell_angle_alpha   89.99489958
_cell_angle_beta   90.39370699
_cell_angle_gamma   89.99424543
_symmetry_Int_Tables_number   1
_chemical_formula_structural   Cu2(Ni2C9)7
_chemical_formula_sum   'Cu4 Ni28 C126'
_cell_volume   1740.63582161
_cell_formula_units_Z   2
loop_
 _symmetry_equiv_pos_site_id
 _symmetry_equiv_pos_as_xyz
  1  'x, y, z'
loop_
 _atom_site_type_symbol
 _atom_site_label
 _atom_site_symmetry_multiplicity
 _atom_site_fract_x
 _atom_site_fract_y
 _atom_site_fract_z
 _atom_site_occupancy
  C  C0  1  0.02227248  0.12528791  0.49733314  1
  C  C1  1  0.02061720  0.12036982  0.99254945  1
  C  C2  1  0.02396634  0.62520436  0.49492566  1
  C  C3  1  0.02353019  0.62507969  0.99634388  1
  C  C4  1  0.52540744  0.12838986  0.49707023  1
  C  C5  1  0.52501721  0.12537253  0.99597579  1
  C  C6  1  0.52309059  0.62445179  0.49543236  1
  C  C7  1  0.52191140  0.62496307  0.99679810  1
  C  C8  1  0.47755149  0.37615437  0.00558062  1
  C  C9  1  0.47647957  0.37453245  0.50450991  1
  C  C10  1  0.47612107  0.87430514  0.00226300  1
  C  C11  1  0.47946568  0.87077758  0.50674484  1
  C  C12  1  0.97430126  0.37820115  0.00212534  1
  C  C13  1  0.97856794  0.37538653  0.50331130  1
  C  C14  1  0.97706166  0.87467255  0.00531344  1
  C  C15  1  0.97458914  0.87496145  0.50381648  1
  C  C16  1  0.23434226  0.37839608  0.25101221  1
  C  C17  1  0.22754399  0.37518224  0.74721616  1
  C  C18  1  0.22824392  0.87568069  0.24597079  1
  C  C19  1  0.22901816  0.87593669  0.74792210  1
  C  C20  1  0.72628412  0.37311606  0.24396298  1
  C  C21  1  0.72723959  0.37463771  0.74570183  1
  C  C22  1  0.72977164  0.87374754  0.24563124  1
  C  C23  1  0.72676210  0.87542736  0.74497239  1
  C  C24  1  0.26497579  0.12826946  0.24936798  1
  C  C25  1  0.27093810  0.12593478  0.75045064  1
  C  C26  1  0.27312031  0.62530887  0.25413173  1
  C  C27  1  0.27254190  0.62517551  0.75439632  1
  C  C28  1  0.77069754  0.12188449  0.25580298  1
  C  C29  1  0.77304497  0.12494832  0.75477534  1
  C  C30  1  0.77325482  0.62493744  0.25468370  1
  C  C31  1  0.77282031  0.62520891  0.75458612  1
  Ni  Ni32  1  0.00382365  0.00292688  0.24984921  1
  Ni  Ni33  1  0.99727431  0.99872197  0.75096485  1
  Ni  Ni34  1  0.00041114  0.49828028  0.24929700  1
  Ni  Ni35  1  0.00006379  0.50011618  0.74928146  1
  Ni  Ni36  1  0.49828398  0.00021620  0.74809233  1
  Ni  Ni37  1  0.50066068  0.50051070  0.25005665  1
  Ni  Ni38  1  0.50015998  0.49953620  0.74998967  1
  Ni  Ni39  1  0.25054026  0.00234439  0.00338607  1
  Ni  Ni40  1  0.24926541  0.49813403  0.99973911  1
  Ni  Ni41  1  0.25037592  0.50040024  0.50073711  1
  Ni  Ni42  1  0.75093294  0.99916012  0.99745906  1
  Ni  Ni43  1  0.74766638  0.00021639  0.49865959  1
  Ni  Ni44  1  0.74953635  0.50038773  0.99975527  1
  Ni  Ni45  1  0.75040477  0.49936474  0.49967720  1
  Ni  Ni46  1  0.24939938  0.24805515  0.49769229  1
  Ni  Ni47  1  0.24981423  0.75010002  0.00025075  1
  Ni  Ni48  1  0.25066748  0.75245162  0.49905868  1
  Ni  Ni49  1  0.75225759  0.24961913  0.00166808  1
  Ni  Ni50  1  0.74939268  0.24982431  0.50269356  1
  Ni  Ni51  1  0.74978447  0.75008307  0.00003048  1
  Ni  Ni52  1  0.75043139  0.74959573  0.50013286  1
  Ni  Ni53  1  0.00146178  0.24949219  0.75210285  1
  Ni  Ni54  1  0.00063947  0.75051264  0.24993857  1
  Ni  Ni55  1  0.00011553  0.75028273  0.74994547  1
  Ni  Ni56  1  0.49651235  0.24835657  0.24950103  1
  Ni  Ni57  1  0.50259718  0.24926180  0.74903377  1
  Ni  Ni58  1  0.49945822  0.75292433  0.25104419  1
  Ni  Ni59  1  0.50002954  0.74959349  0.75051805  1
  Cu  Cu60  1  0.51386933  0.99883178  0.23003584  1
  Cu  Cu61  1  0.23019832  0.99615119  0.51331207  1
  Cu  Cu62  1  0.26955872  0.24652489  0.98560688  1
  Cu  Cu63  1  0.98507731  0.24899980  0.26955701  1
  C  C64  1  0.10519583  0.26758649  0.60395911  1
  C  C65  1  0.10384350  0.77028101  0.10288645  1
  C  C66  1  0.10446554  0.77160060  0.60265512  1
  C  C67  1  0.60395794  0.26862157  0.10403772  1
  C  C68  1  0.60298213  0.26966309  0.60185121  1
  C  C69  1  0.60417981  0.77173195  0.10387731  1
  C  C70  1  0.60535479  0.76898306  0.60459836  1
  C  C71  1  0.39494379  0.22944108  0.39609906  1
  C  C72  1  0.40169641  0.22966841  0.89071454  1
  C  C73  1  0.39625356  0.73076830  0.39720816  1
  C  C74  1  0.39586900  0.72980057  0.89705229  1
  C  C75  1  0.89049207  0.22958317  0.40274567  1
  C  C76  1  0.89757314  0.22974549  0.89852966  1
  C  C77  1  0.89581118  0.72971157  0.39675179  1
  C  C78  1  0.89587815  0.72924070  0.89697547  1
  C  C79  1  0.14118876  0.23306657  0.34979441  1
  C  C80  1  0.14151481  0.23139664  0.86511697  1
  C  C81  1  0.14647294  0.73021928  0.35277085  1
  C  C82  1  0.14643061  0.72977432  0.85295871  1
  C  C83  1  0.64565813  0.22935028  0.35229370  1
  C  C84  1  0.64914576  0.22952012  0.85259342  1
  C  C85  1  0.64577820  0.73058173  0.35374157  1
  C  C86  1  0.64576362  0.72929262  0.85358201  1
  C  C87  1  0.34898504  0.26819474  0.14246392  1
  C  C88  1  0.35323074  0.26942580  0.64658023  1
  C  C89  1  0.35360349  0.77080629  0.14729197  1
  C  C90  1  0.35444440  0.77121816  0.64700277  1
  C  C91  1  0.86727705  0.27032402  0.14145385  1
  C  C92  1  0.85401341  0.27105932  0.64915393  1
  C  C93  1  0.85396764  0.77048801  0.14692525  1
  C  C94  1  0.85434429  0.77078463  0.64703755  1
  C  C95  1  0.35496119  0.48015091  0.14615752  1
  C  C96  1  0.35384002  0.47944512  0.64762472  1
  C  C97  1  0.35745696  0.98328816  0.15131305  1
  C  C98  1  0.35817754  0.98163552  0.63428979  1
  C  C99  1  0.85332314  0.47913390  0.14690166  1
  C  C100  1  0.85387594  0.47922311  0.64688066  1
  C  C101  1  0.85532455  0.98082350  0.14702946  1
  C  C102  1  0.85113481  0.97952088  0.64689788  1
  C  C103  1  0.15043528  0.01904615  0.35705278  1
  C  C104  1  0.14602778  0.02054508  0.85377549  1
  C  C105  1  0.14636065  0.51976095  0.35324352  1
  C  C106  1  0.14608832  0.52015362  0.85261819  1
  C  C107  1  0.63249064  0.02047978  0.35853549  1
  C  C108  1  0.64562392  0.02086573  0.85073649  1
  C  C109  1  0.64628658  0.52050403  0.35285845  1
  C  C110  1  0.64607768  0.52097339  0.85309543  1
  C  C111  1  0.39501872  0.02126602  0.89627731  1
  C  C112  1  0.39562709  0.52006720  0.39665434  1
  C  C113  1  0.39526372  0.51800719  0.89721742  1
  C  C114  1  0.89462180  0.02213661  0.39521375  1
  C  C115  1  0.89498586  0.01927743  0.89583490  1
  C  C116  1  0.89726104  0.51811206  0.39677084  1
  C  C117  1  0.89665681  0.51934227  0.89776571  1
  C  C118  1  0.10383170  0.47920732  0.10289497  1
  C  C119  1  0.10416421  0.47959554  0.60313301  1
  C  C120  1  0.10495914  0.98093266  0.10378544  1
  C  C121  1  0.09836258  0.97993940  0.60919945  1
  C  C122  1  0.60430517  0.47956477  0.10334627  1
  C  C123  1  0.60404872  0.47960212  0.60297624  1
  C  C124  1  0.60957993  0.97977335  0.09740293  1
  C  C125  1  0.60244891  0.97934592  0.60146172  1
  C  C126  1  0.01509293  0.37071624  0.27693886  1
  C  C127  1  0.01012014  0.37525135  0.78891113  1
  C  C128  1  0.01019103  0.87601961  0.28948694  1
  C  C129  1  0.00992445  0.87435664  0.79154299  1
  C  C130  1  0.50812508  0.37439454  0.28874329  1
  C  C131  1  0.51019938  0.37483726  0.78987494  1
  C  C132  1  0.50587096  0.88030096  0.28822794  1
  C  C133  1  0.50926149  0.87504176  0.78869470  1
  C  C134  1  0.48440221  0.12076691  0.22243569  1
  C  C135  1  0.49043503  0.12482901  0.70892974  1
  C  C136  1  0.49058623  0.62613217  0.21137149  1
  C  C137  1  0.48952032  0.62474014  0.71059492  1
  C  C138  1  0.99593488  0.13042034  0.21183735  1
  C  C139  1  0.99067081  0.12487468  0.71152620  1
  C  C140  1  0.99033960  0.62434803  0.21100078  1
  C  C141  1  0.98976776  0.62505655  0.70998150  1
  C  C142  1  0.23751411  0.12987735  0.03666613  1
  C  C143  1  0.25069833  0.12033982  0.52778778  1
  C  C144  1  0.24044901  0.62429145  0.03901826  1
  C  C145  1  0.24077173  0.62603554  0.53919741  1
  C  C146  1  0.74060234  0.12506724  0.04032555  1
  C  C147  1  0.73876025  0.12489082  0.54126719  1
  C  C148  1  0.73991953  0.62526338  0.03987546  1
  C  C149  1  0.74080513  0.62481341  0.53930848  1
  C  C150  1  0.25978848  0.37463021  0.46264141  1
  C  C151  1  0.24823985  0.37040047  0.97068105  1
  C  C152  1  0.26185005  0.87958913  0.46202285  1
  C  C153  1  0.26002373  0.87603590  0.96251111  1
  C  C154  1  0.76011229  0.37496011  0.46006479  1
  C  C155  1  0.75890239  0.37526543  0.96080920  1
  C  C156  1  0.75935482  0.87526610  0.45972578  1
  C  C157  1  0.76158686  0.87454330  0.95862809  1
