# generated using pymatgen
data_Cu9NiC6
_symmetry_space_group_name_H-M   'P 1'
_cell_length_a   6.82665000
_cell_length_b   8.48048223
_cell_length_c   11.08476109
_cell_angle_alpha   109.44343649
_cell_angle_beta   90.00000000
_cell_angle_gamma   90.00000000
_symmetry_Int_Tables_number   1
_chemical_formula_structural   Cu9NiC6
_chemical_formula_sum   'Cu36 Ni4 C24'
_cell_volume   605.13554343
_cell_formula_units_Z   4
loop_
 _symmetry_equiv_pos_site_id
 _symmetry_equiv_pos_as_xyz
  1  'x, y, z'
loop_
 _atom_site_type_symbol
 _atom_site_label
 _atom_site_symmetry_multiplicity
 _atom_site_fract_x
 _atom_site_fract_y
 _atom_site_fract_z
 _atom_site_occupancy
  Ni  Ni0  1  0.38992200  0.31838700  0.25154700  1
  Ni  Ni1  1  0.88992200  0.18161300  0.74845300  1
  Ni  Ni2  1  0.61007800  0.68161300  0.74845300  1
  Ni  Ni3  1  0.11007800  0.81838700  0.25154700  1
  Cu  Cu4  1  0.63880000  0.71496700  0.50346400  1
  Cu  Cu5  1  0.13880000  0.78503300  0.49653600  1
  Cu  Cu6  1  0.36120000  0.28503300  0.49653600  1
  Cu  Cu7  1  0.86120000  0.21496700  0.50346400  1
  Cu  Cu8  1  0.48943500  0.80916300  0.42057100  1
  Cu  Cu9  1  0.98943500  0.69083700  0.57942900  1
  Cu  Cu10  1  0.51056500  0.19083700  0.57942900  1
  Cu  Cu11  1  0.01056500  0.30916300  0.42057100  1
  Cu  Cu12  1  0.73080000  0.76328100  0.37635500  1
  Cu  Cu13  1  0.23080000  0.73671900  0.62364500  1
  Cu  Cu14  1  0.26920000  0.23671900  0.62364500  1
  Cu  Cu15  1  0.76920000  0.26328100  0.37635500  1
  Cu  Cu16  1  0.67664300  0.91608100  0.51727400  1
  Cu  Cu17  1  0.17664300  0.58391900  0.48272600  1
  Cu  Cu18  1  0.32335700  0.08391900  0.48272600  1
  Cu  Cu19  1  0.82335700  0.41608100  0.51727400  1
  Cu  Cu20  1  0.01849300  0.30460400  0.12365200  1
  Cu  Cu21  1  0.51849300  0.19539600  0.87634800  1
  Cu  Cu22  1  0.98150700  0.69539600  0.87634800  1
  Cu  Cu23  1  0.48150700  0.80460400  0.12365200  1
  Cu  Cu24  1  0.88611400  0.48764800  0.17099300  1
  Cu  Cu25  1  0.38611400  0.01235200  0.82900700  1
  Cu  Cu26  1  0.11388600  0.51235200  0.82900700  1
  Cu  Cu27  1  0.61388600  0.98764800  0.17099300  1
  Cu  Cu28  1  0.83236600  0.33603400  0.02815100  1
  Cu  Cu29  1  0.33236600  0.16396600  0.97184900  1
  Cu  Cu30  1  0.16763400  0.66396600  0.97184900  1
  Cu  Cu31  1  0.66763400  0.83603400  0.02815100  1
  Cu  Cu32  1  0.77891300  0.30586100  0.16908200  1
  Cu  Cu33  1  0.27891300  0.19413900  0.83091800  1
  Cu  Cu34  1  0.22108700  0.69413900  0.83091800  1
  Cu  Cu35  1  0.72108700  0.80586100  0.16908200  1
  Cu  Cu36  1  0.38041200  0.55753100  0.18216600  1
  Cu  Cu37  1  0.88041200  0.94246900  0.81783400  1
  Cu  Cu38  1  0.61958800  0.44246900  0.81783400  1
  Cu  Cu39  1  0.11958800  0.05753100  0.18216600  1
  C  C40  1  0.63012300  0.80031000  0.45329700  1
  C  C41  1  0.13012300  0.69969000  0.54670300  1
  C  C42  1  0.36987700  0.19969000  0.54670300  1
  C  C43  1  0.86987700  0.30031000  0.45329700  1
  C  C44  1  0.87980000  0.35851800  0.12270700  1
  C  C45  1  0.37980000  0.14148200  0.87729300  1
  C  C46  1  0.12020000  0.64148200  0.87729300  1
  C  C47  1  0.62020000  0.85851800  0.12270700  1
  C  C48  1  0.47986500  0.49480100  0.21622000  1
  C  C49  1  0.97986500  0.00519900  0.78378000  1
  C  C50  1  0.52013500  0.50519900  0.78378000  1
  C  C51  1  0.02013500  0.99480100  0.21622000  1
  C  C52  1  0.60071800  0.21201000  0.25591600  1
  C  C53  1  0.10071800  0.28799000  0.74408400  1
  C  C54  1  0.39928200  0.78799000  0.74408400  1
  C  C55  1  0.89928200  0.71201000  0.25591600  1
  C  C56  1  0.26778800  0.38498300  0.39495100  1
  C  C57  1  0.76778800  0.11501700  0.60504900  1
  C  C58  1  0.73221200  0.61501700  0.60504900  1
  C  C59  1  0.23221200  0.88498300  0.39495100  1
  C  C60  1  0.23998700  0.20174800  0.13004900  1
  C  C61  1  0.73998700  0.29825200  0.86995100  1
  C  C62  1  0.76001300  0.79825200  0.86995100  1
  C  C63  1  0.26001300  0.70174800  0.13004900  1
