# generated using pymatgen
data_Cu3Ni5C16
_symmetry_space_group_name_H-M   'P 1'
_cell_length_a   5.83421900
_cell_length_b   5.84056322
_cell_length_c   19.35827538
_cell_angle_alpha   98.60148437
_cell_angle_beta   90.07533470
_cell_angle_gamma   119.91765303
_symmetry_Int_Tables_number   1
_chemical_formula_structural   Cu3Ni5C16
_chemical_formula_sum   'Cu6 Ni10 C32'
_cell_volume   563.08211319
_cell_formula_units_Z   2
loop_
 _symmetry_equiv_pos_site_id
 _symmetry_equiv_pos_as_xyz
  1  'x, y, z'
loop_
 _atom_site_type_symbol
 _atom_site_label
 _atom_site_symmetry_multiplicity
 _atom_site_fract_x
 _atom_site_fract_y
 _atom_site_fract_z
 _atom_site_occupancy
  Ni  Ni0  1  0.75003000  0.62506300  0.62498900  1
  Ni  Ni1  1  0.24995100  0.87504400  0.87504800  1
  Ni  Ni2  1  0.49990600  0.99982100  0.99998700  1
  Ni  Ni3  1  0.99950800  0.74957400  0.75025200  1
  Ni  Ni4  1  0.75001100  0.87494600  0.87502700  1
  Ni  Ni5  1  0.50060300  0.50066000  0.49974400  1
  Ni  Ni6  1  0.75017100  0.37596500  0.37508200  1
  Ni  Ni7  1  0.24975200  0.12395000  0.12491900  1
  Ni  Ni8  1  0.25071400  0.37589700  0.37505700  1
  Ni  Ni9  1  0.74922100  0.12396700  0.12491900  1
  Cu  Cu10  1  0.74968200  0.37475400  0.87506900  1
  Cu  Cu11  1  0.25011800  0.62511500  0.62498700  1
  Cu  Cu12  1  0.25004700  0.12503400  0.62494600  1
  Cu  Cu13  1  0.75017500  0.87521500  0.37518200  1
  Cu  Cu14  1  0.00002800  0.25008200  0.24999300  1
  Cu  Cu15  1  0.25015300  0.62495100  0.12475700  1
  C  C16  1  0.39657000  0.16706300  0.93381400  1
  C  C17  1  0.83630400  0.16680000  0.93392000  1
  C  C18  1  0.88324300  0.69210400  0.92609100  1
  C  C19  1  0.66305400  0.58298500  0.81633100  1
  C  C20  1  0.10314400  0.58275700  0.81632800  1
  C  C21  1  0.10191500  0.02106200  0.81638000  1
  C  C22  1  0.39787900  0.72920000  0.93379700  1
  C  C23  1  0.89649800  0.48022700  0.68429300  1
  C  C24  1  0.83704700  0.66782900  0.43370200  1
  C  C25  1  0.33493200  0.91776400  0.68414400  1
  C  C26  1  0.61670400  0.05781000  0.82395900  1
  C  C27  1  0.11587700  0.80739900  0.57416400  1
  C  C28  1  0.38417500  0.44267500  0.67576800  1
  C  C29  1  0.60363600  0.76997200  0.56571600  1
  C  C30  1  0.10367000  0.08421900  0.31656100  1
  C  C31  1  0.60375900  0.33341600  0.56620800  1
  C  C32  1  0.89645700  0.91681400  0.68372500  1
  C  C33  1  0.39742700  0.66793500  0.43371700  1
  C  C34  1  0.39807200  0.22911300  0.43383400  1
  C  C35  1  0.61667300  0.55767000  0.32379800  1
  C  C36  1  0.66426500  0.08432100  0.31647300  1
  C  C37  1  0.88356900  0.19258300  0.42593300  1
  C  C38  1  0.38315700  0.94199600  0.17616700  1
  C  C39  1  0.16518400  0.33247100  0.56579100  1
  C  C40  1  0.60199600  0.27056600  0.06605100  1
  C  C41  1  0.10216000  0.52188900  0.31716800  1
  C  C42  1  0.89629700  0.41575100  0.18345100  1
  C  C43  1  0.89781500  0.97797900  0.18279000  1
  C  C44  1  0.11652100  0.30765100  0.07413200  1
  C  C45  1  0.33578100  0.41547200  0.18354400  1
  C  C46  1  0.16358500  0.83238000  0.06610000  1
  C  C47  1  0.60255900  0.83208400  0.06619600  1
