# generated using pymatgen
data_CuNiC11
_symmetry_space_group_name_H-M   'P 1'
_cell_length_a   3.85756600
_cell_length_b   3.85756600
_cell_length_c   12.99053900
_cell_angle_alpha   90.00000000
_cell_angle_beta   90.00000000
_cell_angle_gamma   90.00000000
_symmetry_Int_Tables_number   1
_chemical_formula_structural   CuNiC11
_chemical_formula_sum   'Cu1 Ni1 C11'
_cell_volume   193.30981338
_cell_formula_units_Z   1
loop_
 _symmetry_equiv_pos_site_id
 _symmetry_equiv_pos_as_xyz
  1  'x, y, z'
loop_
 _atom_site_type_symbol
 _atom_site_label
 _atom_site_symmetry_multiplicity
 _atom_site_fract_x
 _atom_site_fract_y
 _atom_site_fract_z
 _atom_site_occupancy
  C  C0  1  0.50000000  0.50000000  0.20459500  1
  C  C1  1  0.50000000  0.50000000  0.79540500  1
  Ni  Ni2  1  0.50000000  0.50000000  0.50000000  1
  Cu  Cu3  1  0.00000000  0.00000000  0.00000000  1
  C  C4  1  0.00000000  0.00000000  0.38459400  1
  C  C5  1  0.00000000  0.00000000  0.61540600  1
  C  C6  1  0.00000000  0.00000000  0.16852900  1
  C  C7  1  0.00000000  0.50000000  0.40273100  1
  C  C8  1  0.50000000  0.00000000  0.40273100  1
  C  C9  1  0.50000000  0.00000000  0.59726900  1
  C  C10  1  0.50000000  0.50000000  0.00000000  1
  C  C11  1  0.00000000  0.50000000  0.59726900  1
  C  C12  1  0.00000000  0.00000000  0.83147100  1
