# generated using pymatgen
data_CuNi3C22
_symmetry_space_group_name_H-M   'P 1'
_cell_length_a   12.12219800
_cell_length_b   12.12219850
_cell_length_c   5.75004700
_cell_angle_alpha   90.00000000
_cell_angle_beta   90.00000000
_cell_angle_gamma   120.00000335
_symmetry_Int_Tables_number   1
_chemical_formula_structural   CuNi3C22
_chemical_formula_sum   'Cu2 Ni6 C44'
_cell_volume   731.75344611
_cell_formula_units_Z   2
loop_
 _symmetry_equiv_pos_site_id
 _symmetry_equiv_pos_as_xyz
  1  'x, y, z'
loop_
 _atom_site_type_symbol
 _atom_site_label
 _atom_site_symmetry_multiplicity
 _atom_site_fract_x
 _atom_site_fract_y
 _atom_site_fract_z
 _atom_site_occupancy
  Ni  Ni0  1  0.93514600  0.47416200  0.71951900  1
  Ni  Ni1  1  0.06485400  0.52583800  0.21951900  1
  Ni  Ni2  1  0.52583800  0.46098400  0.71951900  1
  Ni  Ni3  1  0.47416200  0.53901600  0.21951900  1
  Ni  Ni4  1  0.46098400  0.93514600  0.21951900  1
  Ni  Ni5  1  0.53901600  0.06485400  0.71951900  1
  Cu  Cu6  1  0.33333300  0.66666700  0.62489800  1
  Cu  Cu7  1  0.66666700  0.33333300  0.12489800  1
  C  C8  1  0.03688400  0.75014400  0.22966700  1
  C  C9  1  0.28674000  0.03688400  0.72966700  1
  C  C10  1  0.75014400  0.71326000  0.72966700  1
  C  C11  1  0.24985600  0.28674000  0.22966700  1
  C  C12  1  0.71326000  0.96311600  0.22966700  1
  C  C13  1  0.96311600  0.24985600  0.72966700  1
  C  C14  1  0.29200600  0.03730700  0.22979100  1
  C  C15  1  0.25469700  0.29200600  0.72979100  1
  C  C16  1  0.03730700  0.74530300  0.72979100  1
  C  C17  1  0.96269300  0.25469700  0.22979100  1
  C  C18  1  0.74530300  0.70799400  0.22979100  1
  C  C19  1  0.70799400  0.96269300  0.72979100  1
  C  C20  1  0.33333300  0.66666700  0.23048100  1
  C  C21  1  0.66666700  0.33333300  0.73048100  1
  C  C22  1  0.71656900  0.26068900  0.75309300  1
  C  C23  1  0.45588000  0.71656900  0.25309300  1
  C  C24  1  0.62365900  0.95865500  0.96657400  1
  C  C25  1  0.62241500  0.95750100  0.49290400  1
  C  C26  1  0.71483100  0.83441800  0.72903800  1
  C  C27  1  0.75255700  0.84432300  0.22767300  1
  C  C28  1  0.83441800  0.11958700  0.22903800  1
  C  C29  1  0.66491500  0.62241500  0.99290400  1
  C  C30  1  0.66500400  0.62365900  0.46657400  1
  C  C31  1  0.84432300  0.09176600  0.72767300  1
  C  C32  1  0.95865500  0.33499600  0.46657400  1
  C  C33  1  0.95750100  0.33508500  0.99290400  1
  C  C34  1  0.26068900  0.54412000  0.25309300  1
  C  C35  1  0.90823400  0.75255700  0.72767300  1
  C  C36  1  0.88041300  0.71483100  0.22903800  1
  C  C37  1  0.11958700  0.28516900  0.72903800  1
  C  C38  1  0.09176600  0.24744300  0.22767300  1
  C  C39  1  0.73931100  0.45588000  0.75309300  1
  C  C40  1  0.04249900  0.66491500  0.49290400  1
  C  C41  1  0.04134500  0.66500400  0.96657400  1
  C  C42  1  0.15567700  0.90823400  0.22767300  1
  C  C43  1  0.33499600  0.37634100  0.96657400  1
  C  C44  1  0.33508500  0.37758500  0.49290400  1
  C  C45  1  0.16558100  0.88041300  0.72903800  1
  C  C46  1  0.24744300  0.15567700  0.72767300  1
  C  C47  1  0.28516900  0.16558100  0.22903800  1
  C  C48  1  0.37758500  0.04249900  0.99290400  1
  C  C49  1  0.37634100  0.04134500  0.46657400  1
  C  C50  1  0.54412000  0.28343100  0.75309300  1
  C  C51  1  0.28343100  0.73931100  0.25309300  1
