# generated using pymatgen
data_CuNi2C11
_symmetry_space_group_name_H-M   'P 1'
_cell_length_a   4.04612800
_cell_length_b   3.89163900
_cell_length_c   12.88516600
_cell_angle_alpha   90.00000000
_cell_angle_beta   90.00000000
_cell_angle_gamma   90.00000000
_symmetry_Int_Tables_number   1
_chemical_formula_structural   CuNi2C11
_chemical_formula_sum   'Cu1 Ni2 C11'
_cell_volume   202.89071966
_cell_formula_units_Z   1
loop_
 _symmetry_equiv_pos_site_id
 _symmetry_equiv_pos_as_xyz
  1  'x, y, z'
loop_
 _atom_site_type_symbol
 _atom_site_label
 _atom_site_symmetry_multiplicity
 _atom_site_fract_x
 _atom_site_fract_y
 _atom_site_fract_z
 _atom_site_occupancy
  Ni  Ni0  1  0.50000000  0.50000000  0.89737700  1
  Ni  Ni1  1  0.50000000  0.50000000  0.19328500  1
  C  C2  1  0.00000000  0.50000000  0.74173400  1
  Cu  Cu3  1  0.50000000  0.50000000  0.48691700  1
  C  C4  1  0.00000000  0.00000000  0.62266400  1
  C  C5  1  0.00000000  0.00000000  0.35072100  1
  C  C6  1  0.00000000  0.00000000  0.04179500  1
  C  C7  1  0.50000000  0.00000000  0.59370100  1
  C  C8  1  0.00000000  0.50000000  0.59815900  1
  C  C9  1  0.50000000  0.00000000  0.34964800  1
  C  C10  1  0.00000000  0.50000000  0.35521600  1
  C  C11  1  0.00000000  0.50000000  0.04623400  1
  C  C12  1  0.50000000  0.00000000  0.04533500  1
  C  C13  1  0.00000000  0.00000000  0.80521400  1
