# generated using pymatgen
data_CuNi4C21
_symmetry_space_group_name_H-M   'P 1'
_cell_length_a   12.90053455
_cell_length_b   12.90053455
_cell_length_c   12.90053455
_cell_angle_alpha   155.72209008
_cell_angle_beta   155.72209008
_cell_angle_gamma   34.60127501
_symmetry_Int_Tables_number   1
_chemical_formula_structural   CuNi4C21
_chemical_formula_sum   'Cu1 Ni4 C21'
_cell_volume   362.56490161
_cell_formula_units_Z   1
loop_
 _symmetry_equiv_pos_site_id
 _symmetry_equiv_pos_as_xyz
  1  'x, y, z'
loop_
 _atom_site_type_symbol
 _atom_site_label
 _atom_site_symmetry_multiplicity
 _atom_site_fract_x
 _atom_site_fract_y
 _atom_site_fract_z
 _atom_site_occupancy
  Ni  Ni0  1  0.14834200  0.14834200  0.00000000  1
  Ni  Ni1  1  0.64632000  0.64632000  0.00000000  1
  Ni  Ni2  1  0.85165800  0.85165800  0.00000000  1
  Ni  Ni3  1  0.35368000  0.35368000  0.00000000  1
  Cu  Cu4  1  0.50000000  0.50000000  0.00000000  1
  C  C5  1  0.00000000  0.00000000  0.00000000  1
  C  C6  1  0.25000000  0.75000000  0.50000000  1
  C  C7  1  0.75000000  0.25000000  0.50000000  1
  C  C8  1  0.57154000  0.07154000  0.50000000  1
  C  C9  1  0.07154000  0.57154000  0.50000000  1
  C  C10  1  0.42846000  0.92846000  0.50000000  1
  C  C11  1  0.92846000  0.42846000  0.50000000  1
  C  C12  1  0.66394700  0.16394700  0.50000000  1
  C  C13  1  0.16394700  0.66394700  0.50000000  1
  C  C14  1  0.33605300  0.83605300  0.50000000  1
  C  C15  1  0.83605300  0.33605300  0.50000000  1
  C  C16  1  0.81299200  0.81299200  0.49707900  1
  C  C17  1  0.31591300  0.31591300  0.50292100  1
  C  C18  1  0.81299200  0.31591300  0.00000000  1
  C  C19  1  0.31591300  0.81299200  0.00000000  1
  C  C20  1  0.68408700  0.68408700  0.49707900  1
  C  C21  1  0.18700800  0.18700800  0.50292100  1
  C  C22  1  0.68408700  0.18700800  0.00000000  1
  C  C23  1  0.18700800  0.68408700  0.00000000  1
  C  C24  1  0.74978300  0.74978300  0.00000000  1
  C  C25  1  0.25021700  0.25021700  0.00000000  1
