# generated using pymatgen
data_Cu2NiC41
_symmetry_space_group_name_H-M   'P 1'
_cell_length_a   7.41730012
_cell_length_b   10.34206392
_cell_length_c   7.37094962
_cell_angle_alpha   90.39979415
_cell_angle_beta   90.63113439
_cell_angle_gamma   90.00798116
_symmetry_Int_Tables_number   1
_chemical_formula_structural   Cu2NiC41
_chemical_formula_sum   'Cu2 Ni1 C41'
_cell_volume   565.37887886
_cell_formula_units_Z   1
loop_
 _symmetry_equiv_pos_site_id
 _symmetry_equiv_pos_as_xyz
  1  'x, y, z'
loop_
 _atom_site_type_symbol
 _atom_site_label
 _atom_site_symmetry_multiplicity
 _atom_site_fract_x
 _atom_site_fract_y
 _atom_site_fract_z
 _atom_site_occupancy
  Ni  Ni0  1  0.52085129  0.76088480  0.50236546  1
  Cu  Cu1  1  0.81258506  0.27771791  0.72576450  1
  Cu  Cu2  1  0.92094686  0.99592422  0.58199158  1
  C  C3  1  0.21728285  0.76368608  0.23966776  1
  C  C4  1  0.76692672  0.23709280  0.23883859  1
  C  C5  1  0.22524416  0.76188653  0.76405890  1
  C  C6  1  0.50191826  0.48841881  0.98449312  1
  C  C7  1  0.00286565  0.49019596  0.00120498  1
  C  C8  1  0.48646699  0.05076573  0.51572125  1
  C  C9  1  0.24899728  0.25332957  0.24512924  1
  C  C10  1  0.75860161  0.74544903  0.76163081  1
  C  C11  1  0.75975732  0.74908667  0.23839837  1
  C  C12  1  0.24265063  0.25179831  0.74986870  1
  C  C13  1  0.50163348  0.99386902  0.00508351  1
  C  C14  1  0.00675928  0.50236822  0.49797865  1
  C  C15  1  0.99370767  0.00494180  0.99998730  1
  C  C16  1  0.50048491  0.48925423  0.49985141  1
  C  C17  1  0.24642848  0.91743318  0.99919359  1
  C  C18  1  0.75424183  0.40882561  0.51457793  1
  C  C19  1  0.24453390  0.33402002  0.99867480  1
  C  C20  1  0.76808599  0.83690243  0.50340912  1
  C  C21  1  0.55967477  0.62441801  0.31013023  1
  C  C22  1  0.00840868  0.12973239  0.77117735  1
  C  C23  1  0.95791968  0.62618262  0.70181255  1
  C  C24  1  0.44106786  0.12133795  0.20206096  1
  C  C25  1  0.54804720  0.62174041  0.70228141  1
  C  C26  1  0.04224594  0.14262184  0.17461869  1
  C  C27  1  0.95933479  0.62710260  0.29478585  1
  C  C28  1  0.41525309  0.10983258  0.80197016  1
  C  C29  1  0.74339784  0.06869150  0.01972036  1
  C  C30  1  0.25541019  0.56820721  0.49244778  1
  C  C31  1  0.74715024  0.66331351  0.00044557  1
  C  C32  1  0.25422250  0.18240727  0.49663321  1
  C  C33  1  0.44383239  0.37256311  0.70820410  1
  C  C34  1  0.95497301  0.87280108  0.18358673  1
  C  C35  1  0.03834946  0.37689971  0.28866548  1
  C  C36  1  0.55253219  0.87053854  0.79793511  1
  C  C37  1  0.45562212  0.37093919  0.29251399  1
  C  C38  1  0.95682163  0.87334334  0.80363125  1
  C  C39  1  0.05472202  0.38318019  0.70614154  1
  C  C40  1  0.55063748  0.86954038  0.19884533  1
  C  C41  1  0.75424082  0.34780815  0.98030210  1
  C  C42  1  0.30491566  0.88175999  0.50276906  1
  C  C43  1  0.25173524  0.62493745  0.00142766  1
