# generated using pymatgen
data_CuNiC4
_symmetry_space_group_name_H-M   'P 1'
_cell_length_a   3.39950775
_cell_length_b   3.39950775
_cell_length_c   38.89044500
_cell_angle_alpha   90.00000000
_cell_angle_beta   90.00000000
_cell_angle_gamma   119.99999514
_symmetry_Int_Tables_number   1
_chemical_formula_structural   CuNiC4
_chemical_formula_sum   'Cu2 Ni2 C8'
_cell_volume   389.22939999
_cell_formula_units_Z   2
loop_
 _symmetry_equiv_pos_site_id
 _symmetry_equiv_pos_as_xyz
  1  'x, y, z'
loop_
 _atom_site_type_symbol
 _atom_site_label
 _atom_site_symmetry_multiplicity
 _atom_site_fract_x
 _atom_site_fract_y
 _atom_site_fract_z
 _atom_site_occupancy
  C  C0  1  0.00000000  0.00000000  0.33009100  1
  C  C1  1  0.33333300  0.66666700  0.42133700  1
  C  C2  1  0.33333300  0.66666700  0.51805500  1
  C  C3  1  0.00000000  0.00000000  0.23336800  1
  C  C4  1  0.00000000  0.00000000  0.09395000  1
  C  C5  1  0.00000000  0.00000000  0.46971300  1
  C  C6  1  0.33333300  0.66666700  0.28172700  1
  C  C7  1  0.33333300  0.66666700  0.65754600  1
  Ni  Ni8  1  0.00000000  0.00000000  0.69999100  1
  Ni  Ni9  1  0.00000000  0.00000000  0.61508800  1
  Cu  Cu10  1  0.33333300  0.66666700  0.05526400  1
  Cu  Cu11  1  0.33333300  0.66666700  0.13262000  1
