# generated using pymatgen
data_Cu2NiC27
_symmetry_space_group_name_H-M   'P 1'
_cell_length_a   5.38969300
_cell_length_b   7.13454710
_cell_length_c   10.90698580
_cell_angle_alpha   108.99237842
_cell_angle_beta   96.16186947
_cell_angle_gamma   89.99043537
_symmetry_Int_Tables_number   1
_chemical_formula_structural   Cu2NiC27
_chemical_formula_sum   'Cu2 Ni1 C27'
_cell_volume   394.01396344
_cell_formula_units_Z   1
loop_
 _symmetry_equiv_pos_site_id
 _symmetry_equiv_pos_as_xyz
  1  'x, y, z'
loop_
 _atom_site_type_symbol
 _atom_site_label
 _atom_site_symmetry_multiplicity
 _atom_site_fract_x
 _atom_site_fract_y
 _atom_site_fract_z
 _atom_site_occupancy
  Ni  Ni0  1  0.73820400  0.71906900  0.43633400  1
  C  C1  1  0.25968900  0.27922900  0.55677400  1
  Cu  Cu2  1  0.00115500  0.00202300  0.00140700  1
  Cu  Cu3  1  0.50054300  0.74399200  0.00061800  1
  C  C4  1  0.29840700  0.86542200  0.71592100  1
  C  C5  1  0.70065800  0.14980400  0.28296600  1
  C  C6  1  0.00176500  0.50349300  0.00137600  1
  C  C7  1  0.49959400  0.27758000  0.99958100  1
  C  C8  1  0.80420800  0.58053400  0.72671500  1
  C  C9  1  0.79045000  0.14221600  0.72378900  1
  C  C10  1  0.21068900  0.42255600  0.27762600  1
  C  C11  1  0.19578600  0.85255500  0.27509800  1
  C  C12  1  0.84776300  0.64682000  0.88580800  1
  C  C13  1  0.79862600  0.22172700  0.88289900  1
  C  C14  1  0.20269700  0.34308900  0.11761700  1
  C  C15  1  0.15289500  0.76063900  0.11506100  1
  C  C16  1  0.72574100  0.50189500  0.09066400  1
  C  C17  1  0.27319600  0.40807100  0.90528800  1
  C  C18  1  0.78390700  0.33151800  0.66359900  1
  C  C19  1  0.21578600  0.66809100  0.33656300  1
  C  C20  1  0.04084200  0.64490800  0.66595200  1
  C  C21  1  0.03147400  0.02159400  0.66610900  1
  C  C22  1  0.97277300  0.35175400  0.33470700  1
  C  C23  1  0.96269600  0.98436800  0.33547800  1
  C  C24  1  0.34463500  0.97714900  0.88428900  1
  C  C25  1  0.65257800  0.09539900  0.11427900  1
  C  C26  1  0.53650200  0.64788600  0.67349900  1
  C  C27  1  0.52916500  0.01691300  0.65450800  1
  C  C28  1  0.46805500  0.35950300  0.34743300  1
  C  C29  1  0.45952100  0.98020400  0.32804100  1
