# generated using pymatgen
data_Cu3(NiC5)4
_symmetry_space_group_name_H-M   'P 1'
_cell_length_a   7.75853783
_cell_length_b   8.30977200
_cell_length_c   10.81071915
_cell_angle_alpha   90.00000000
_cell_angle_beta   101.69799733
_cell_angle_gamma   90.00000000
_symmetry_Int_Tables_number   1
_chemical_formula_structural   Cu3(NiC5)4
_chemical_formula_sum   'Cu6 Ni8 C40'
_cell_volume   682.50877613
_cell_formula_units_Z   2
loop_
 _symmetry_equiv_pos_site_id
 _symmetry_equiv_pos_as_xyz
  1  'x, y, z'
loop_
 _atom_site_type_symbol
 _atom_site_label
 _atom_site_symmetry_multiplicity
 _atom_site_fract_x
 _atom_site_fract_y
 _atom_site_fract_z
 _atom_site_occupancy
  C  C0  1  0.56383300  0.54325700  0.36066000  1
  C  C1  1  0.43616700  0.04325700  0.63934000  1
  C  C2  1  0.43616700  0.45674200  0.63934000  1
  C  C3  1  0.56383300  0.95674300  0.36066000  1
  C  C4  1  0.19059600  0.45294800  0.10998700  1
  C  C5  1  0.80940400  0.95294800  0.89001300  1
  C  C6  1  0.80940400  0.54705200  0.89001300  1
  C  C7  1  0.19059600  0.04705200  0.10998700  1
  C  C8  1  0.55716700  0.75000000  0.11106500  1
  C  C9  1  0.44283300  0.25000000  0.88893500  1
  Ni  Ni10  1  0.53421000  0.42790600  0.13813600  1
  Ni  Ni11  1  0.46579000  0.92790600  0.86186400  1
  Ni  Ni12  1  0.46579000  0.57209400  0.86186400  1
  Ni  Ni13  1  0.53421000  0.07209400  0.13813600  1
  Ni  Ni14  1  0.12222800  0.25000000  0.92048700  1
  Ni  Ni15  1  0.87777200  0.75000000  0.07951300  1
  Ni  Ni16  1  0.82685300  0.75000000  0.32757900  1
  Ni  Ni17  1  0.17314700  0.25000000  0.67242100  1
  Cu  Cu18  1  0.26209800  0.25000000  0.38995300  1
  Cu  Cu19  1  0.73790200  0.75000000  0.61004700  1
  Cu  Cu20  1  0.82778000  0.25000000  0.11859800  1
  Cu  Cu21  1  0.17222000  0.75000000  0.88140200  1
  Cu  Cu22  1  0.17934700  0.75000000  0.32445600  1
  Cu  Cu23  1  0.82065300  0.25000000  0.67554400  1
  C  C24  1  0.24073400  0.25000000  0.24434300  1
  C  C25  1  0.75926600  0.75000000  0.75565700  1
  C  C26  1  0.38205600  0.39859600  0.43308500  1
  C  C27  1  0.61794400  0.89859600  0.56691500  1
  C  C28  1  0.61794400  0.60140400  0.56691500  1
  C  C29  1  0.38205600  0.10140400  0.43308500  1
  C  C30  1  0.89563700  0.39747100  0.05353300  1
  C  C31  1  0.10436300  0.89747100  0.94646700  1
  C  C32  1  0.10436300  0.60252900  0.94646700  1
  C  C33  1  0.89563700  0.10252900  0.05353300  1
  C  C34  1  0.62639000  0.25000000  0.06928600  1
  C  C35  1  0.37361000  0.75000000  0.93071400  1
  C  C36  1  0.38692200  0.75000000  0.33761800  1
  C  C37  1  0.61307800  0.25000000  0.66238200  1
  C  C38  1  0.11594500  0.60259500  0.24530300  1
  C  C39  1  0.88405500  0.10259500  0.75469700  1
  C  C40  1  0.88405500  0.39740500  0.75469700  1
  C  C41  1  0.11594500  0.89740500  0.24530300  1
  C  C42  1  0.46595600  0.51896600  0.16228300  1
  C  C43  1  0.53404400  0.01896600  0.83771700  1
  C  C44  1  0.53404400  0.48103400  0.83771700  1
  C  C45  1  0.46595600  0.98103400  0.16228300  1
  C  C46  1  0.22929000  0.25000000  0.98653700  1
  C  C47  1  0.77071000  0.75000000  0.01346300  1
  C  C48  1  0.69842500  0.75000000  0.30900300  1
  C  C49  1  0.30157500  0.25000000  0.69099700  1
  C  C50  1  0.73518000  0.40792300  0.36657100  1
  C  C51  1  0.26482000  0.90792300  0.63342900  1
  C  C52  1  0.26482000  0.59207700  0.63342900  1
  C  C53  1  0.73518000  0.09207700  0.36657100  1
