# generated using pymatgen
data_CuNiC5
_symmetry_space_group_name_H-M   'P 1'
_cell_length_a   5.91411100
_cell_length_b   7.91167400
_cell_length_c   10.44420000
_cell_angle_alpha   90.00000000
_cell_angle_beta   90.00000000
_cell_angle_gamma   90.00000000
_symmetry_Int_Tables_number   1
_chemical_formula_structural   CuNiC5
_chemical_formula_sum   'Cu4 Ni4 C20'
_cell_volume   488.68953052
_cell_formula_units_Z   4
loop_
 _symmetry_equiv_pos_site_id
 _symmetry_equiv_pos_as_xyz
  1  'x, y, z'
loop_
 _atom_site_type_symbol
 _atom_site_label
 _atom_site_symmetry_multiplicity
 _atom_site_fract_x
 _atom_site_fract_y
 _atom_site_fract_z
 _atom_site_occupancy
  Ni  Ni0  1  0.75000000  0.66007700  0.08139000  1
  Ni  Ni1  1  0.75000000  0.16007700  0.41861000  1
  Ni  Ni2  1  0.25000000  0.33992300  0.91861000  1
  Ni  Ni3  1  0.25000000  0.83992300  0.58139000  1
  Cu  Cu4  1  0.75000000  0.99222200  0.80778000  1
  Cu  Cu5  1  0.75000000  0.49222200  0.69222000  1
  Cu  Cu6  1  0.25000000  0.00777800  0.19222000  1
  Cu  Cu7  1  0.25000000  0.50777800  0.30778000  1
  C  C8  1  0.75000000  0.23228400  0.08191300  1
  C  C9  1  0.75000000  0.73228400  0.41808700  1
  C  C10  1  0.25000000  0.76771600  0.91808700  1
  C  C11  1  0.25000000  0.26771600  0.58191300  1
  C  C12  1  0.75000000  0.30422700  0.92578800  1
  C  C13  1  0.75000000  0.80422700  0.57421200  1
  C  C14  1  0.25000000  0.69577300  0.07421200  1
  C  C15  1  0.25000000  0.19577300  0.42578800  1
  C  C16  1  0.98997200  0.30087500  0.15834800  1
  C  C17  1  0.51002800  0.80087500  0.34165200  1
  C  C18  1  0.48997200  0.69912500  0.84165200  1
  C  C19  1  0.01002800  0.19912500  0.65834800  1
  C  C20  1  0.01002800  0.69912500  0.84165200  1
  C  C21  1  0.48997200  0.19912500  0.65834800  1
  C  C22  1  0.51002800  0.30087500  0.15834800  1
  C  C23  1  0.98997200  0.80087500  0.34165200  1
  C  C24  1  0.75000000  0.01549000  0.07934700  1
  C  C25  1  0.75000000  0.51549000  0.42065300  1
  C  C26  1  0.25000000  0.98451000  0.92065300  1
  C  C27  1  0.25000000  0.48451000  0.57934700  1
