# generated using pymatgen
data_Cu2Ni2C11
_symmetry_space_group_name_H-M   'P 1'
_cell_length_a   5.04079446
_cell_length_b   5.04079446
_cell_length_c   13.26828500
_cell_angle_alpha   90.00000000
_cell_angle_beta   90.00000000
_cell_angle_gamma   104.34493767
_symmetry_Int_Tables_number   1
_chemical_formula_structural   Cu2Ni2C11
_chemical_formula_sum   'Cu4 Ni4 C22'
_cell_volume   326.63042263
_cell_formula_units_Z   2
loop_
 _symmetry_equiv_pos_site_id
 _symmetry_equiv_pos_as_xyz
  1  'x, y, z'
loop_
 _atom_site_type_symbol
 _atom_site_label
 _atom_site_symmetry_multiplicity
 _atom_site_fract_x
 _atom_site_fract_y
 _atom_site_fract_z
 _atom_site_occupancy
  C  C0  1  0.35517700  0.64482300  0.25000000  1
  C  C1  1  0.64482300  0.35517700  0.75000000  1
  Ni  Ni2  1  0.00000000  0.50000000  0.50000000  1
  Ni  Ni3  1  0.50000000  0.00000000  0.50000000  1
  Ni  Ni4  1  0.00000000  0.50000000  0.00000000  1
  Ni  Ni5  1  0.50000000  0.00000000  0.00000000  1
  Cu  Cu6  1  0.96903100  0.03096900  0.36476600  1
  Cu  Cu7  1  0.03096900  0.96903100  0.63523400  1
  Cu  Cu8  1  0.96903100  0.03096900  0.13523400  1
  Cu  Cu9  1  0.03096900  0.96903100  0.86476600  1
  C  C10  1  0.05416700  0.94583300  0.25000000  1
  C  C11  1  0.94583300  0.05416700  0.75000000  1
  C  C12  1  0.07253100  0.36009000  0.37860100  1
  C  C13  1  0.36009000  0.07253100  0.62139900  1
  C  C14  1  0.07253100  0.36009000  0.12139900  1
  C  C15  1  0.36009000  0.07253100  0.87860100  1
  C  C16  1  0.92746900  0.63991000  0.62139900  1
  C  C17  1  0.63991000  0.92746900  0.37860100  1
  C  C18  1  0.92746900  0.63991000  0.87860100  1
  C  C19  1  0.63991000  0.92746900  0.12139900  1
  C  C20  1  0.13466500  0.86533500  0.44123100  1
  C  C21  1  0.86533500  0.13466500  0.55876900  1
  C  C22  1  0.13466500  0.86533500  0.05876900  1
  C  C23  1  0.86533500  0.13466500  0.94123100  1
  C  C24  1  0.57933400  0.42066600  0.47178900  1
  C  C25  1  0.42066600  0.57933400  0.52821100  1
  C  C26  1  0.57933400  0.42066600  0.02821100  1
  C  C27  1  0.42066600  0.57933400  0.97178900  1
  C  C28  1  0.65100200  0.34899800  0.25000000  1
  C  C29  1  0.34899800  0.65100200  0.75000000  1
