# generated using pymatgen
data_Cu5Ni7C5
_symmetry_space_group_name_H-M   'P 1'
_cell_length_a   9.95552611
_cell_length_b   9.95552611
_cell_length_c   11.33892109
_cell_angle_alpha   72.92701391
_cell_angle_beta   72.92701391
_cell_angle_gamma   54.24369150
_symmetry_Int_Tables_number   1
_chemical_formula_structural   Cu5Ni7C5
_chemical_formula_sum   'Cu10 Ni14 C10'
_cell_volume   860.95278826
_cell_formula_units_Z   2
loop_
 _symmetry_equiv_pos_site_id
 _symmetry_equiv_pos_as_xyz
  1  'x, y, z'
loop_
 _atom_site_type_symbol
 _atom_site_label
 _atom_site_symmetry_multiplicity
 _atom_site_fract_x
 _atom_site_fract_y
 _atom_site_fract_z
 _atom_site_occupancy
  C  C0  1  0.75284500  0.84135500  0.85458800  1
  C  C1  1  0.15864500  0.24715500  0.64541200  1
  C  C2  1  0.24715500  0.15864500  0.14541200  1
  C  C3  1  0.84135500  0.75284500  0.35458800  1
  C  C4  1  0.21335400  0.79109300  0.52584100  1
  C  C5  1  0.20890700  0.78664600  0.97415900  1
  C  C6  1  0.78664600  0.20890700  0.47415900  1
  C  C7  1  0.79109300  0.21335400  0.02584100  1
  C  C8  1  0.46731400  0.53268600  0.25000000  1
  C  C9  1  0.53268600  0.46731400  0.75000000  1
  Ni  Ni10  1  0.06523100  0.64653000  0.61612700  1
  Ni  Ni11  1  0.35347000  0.93476900  0.88387300  1
  Ni  Ni12  1  0.93476900  0.35347000  0.38387300  1
  Ni  Ni13  1  0.64653000  0.06523100  0.11612700  1
  Ni  Ni14  1  0.36326200  0.93141500  0.46423200  1
  Ni  Ni15  1  0.06858500  0.63673800  0.03576800  1
  Ni  Ni16  1  0.63673800  0.06858500  0.53576800  1
  Ni  Ni17  1  0.93141500  0.36326200  0.96423200  1
  Ni  Ni18  1  0.29131800  0.42131400  0.32303100  1
  Ni  Ni19  1  0.57868600  0.70868200  0.17696900  1
  Ni  Ni20  1  0.70868200  0.57868600  0.67696900  1
  Ni  Ni21  1  0.42131400  0.29131800  0.82303100  1
  Ni  Ni22  1  0.09656400  0.90343600  0.75000000  1
  Ni  Ni23  1  0.90343600  0.09656400  0.25000000  1
  Cu  Cu24  1  0.28886300  0.71223800  0.37910400  1
  Cu  Cu25  1  0.28776200  0.71113700  0.12089600  1
  Cu  Cu26  1  0.71113700  0.28776200  0.62089600  1
  Cu  Cu27  1  0.71223800  0.28886300  0.87910400  1
  Cu  Cu28  1  0.39740800  0.60354000  0.62581100  1
  Cu  Cu29  1  0.39646000  0.60259200  0.87418900  1
  Cu  Cu30  1  0.60259200  0.39646000  0.37418900  1
  Cu  Cu31  1  0.60354000  0.39740800  0.12581100  1
  Cu  Cu32  1  0.00000000  0.00000000  0.50000000  1
  Cu  Cu33  1  0.00000000  0.00000000  0.00000000  1
