# generated using pymatgen
data_Cu4NiC24
_symmetry_space_group_name_H-M   'P 1'
_cell_length_a   5.81566997
_cell_length_b   8.81036069
_cell_length_c   11.74218605
_cell_angle_alpha   92.82659587
_cell_angle_beta   117.39301683
_cell_angle_gamma   90.23337933
_symmetry_Int_Tables_number   1
_chemical_formula_structural   Cu4NiC24
_chemical_formula_sum   'Cu4 Ni1 C24'
_cell_volume   533.29307083
_cell_formula_units_Z   1
loop_
 _symmetry_equiv_pos_site_id
 _symmetry_equiv_pos_as_xyz
  1  'x, y, z'
loop_
 _atom_site_type_symbol
 _atom_site_label
 _atom_site_symmetry_multiplicity
 _atom_site_fract_x
 _atom_site_fract_y
 _atom_site_fract_z
 _atom_site_occupancy
  C  C0  1  0.15218100  0.70922400  0.86712700  1
  C  C1  1  0.45251400  0.50548900  0.69837900  1
  C  C2  1  0.22910400  0.83122100  0.42050400  1
  C  C3  1  0.51601200  0.98947000  0.77453600  1
  C  C4  1  0.39757200  0.05533900  0.18265700  1
  C  C5  1  0.80077400  0.17415700  0.59819800  1
  C  C6  1  0.52628600  0.44387100  0.34291900  1
  C  C7  1  0.77212700  0.30608900  0.07862700  1
  Ni  Ni8  1  0.60902900  0.73422000  0.21114100  1
  Cu  Cu9  1  0.14579900  0.27075300  0.92630400  1
  Cu  Cu10  1  0.13770100  0.25204300  0.43434800  1
  Cu  Cu11  1  0.84755900  0.73857400  0.56032700  1
  Cu  Cu12  1  0.89299500  0.73930600  0.07875400  1
  C  C13  1  0.26303000  0.09946700  0.92109600  1
  C  C14  1  0.25871600  0.39947300  0.86554600  1
  C  C15  1  0.26145600  0.20687900  0.58724800  1
  C  C16  1  0.17486000  0.76864600  0.63215300  1
  C  C17  1  0.17119400  0.43774600  0.42955700  1
  C  C18  1  0.30203000  0.15953500  0.36921500  1
  C  C19  1  0.82313300  0.25857600  0.84736000  1
  C  C20  1  0.72635500  0.73178700  0.91830300  1
  C  C21  1  0.24463300  0.32138200  0.08211500  1
  C  C22  1  0.22736600  0.75173100  0.13111100  1
  C  C23  1  0.71684200  0.87658300  0.61804400  1
  C  C24  1  0.77893600  0.56355500  0.59357600  1
  C  C25  1  0.82289700  0.20509400  0.35367700  1
  C  C26  1  0.71275800  0.74873400  0.39130500  1
  C  C27  1  0.79168000  0.59402500  0.14325000  1
  C  C28  1  0.78613100  0.88536300  0.14818000  1
