# generated using pymatgen
data_CuNiC5
_symmetry_space_group_name_H-M   'P 1'
_cell_length_a   5.05885500
_cell_length_b   6.47101000
_cell_length_c   11.39348800
_cell_angle_alpha   90.00000000
_cell_angle_beta   90.00000000
_cell_angle_gamma   90.00000000
_symmetry_Int_Tables_number   1
_chemical_formula_structural   CuNiC5
_chemical_formula_sum   'Cu4 Ni4 C20'
_cell_volume   372.97609856
_cell_formula_units_Z   4
loop_
 _symmetry_equiv_pos_site_id
 _symmetry_equiv_pos_as_xyz
  1  'x, y, z'
loop_
 _atom_site_type_symbol
 _atom_site_label
 _atom_site_symmetry_multiplicity
 _atom_site_fract_x
 _atom_site_fract_y
 _atom_site_fract_z
 _atom_site_occupancy
  C  C0  1  0.01126000  0.75000000  0.72512600  1
  C  C1  1  0.98874000  0.25000000  0.27487400  1
  C  C2  1  0.51126000  0.25000000  0.77487400  1
  C  C3  1  0.48874000  0.75000000  0.22512600  1
  Ni  Ni4  1  0.50000000  0.50000000  0.50000000  1
  Ni  Ni5  1  0.00000000  0.50000000  0.00000000  1
  Ni  Ni6  1  0.50000000  0.00000000  0.50000000  1
  Ni  Ni7  1  0.00000000  0.00000000  0.00000000  1
  Cu  Cu8  1  0.57613000  0.75000000  0.91772300  1
  Cu  Cu9  1  0.42387000  0.25000000  0.08227700  1
  Cu  Cu10  1  0.07613000  0.25000000  0.58227700  1
  Cu  Cu11  1  0.92387000  0.75000000  0.41772300  1
  C  C12  1  0.22594700  0.75000000  0.91873400  1
  C  C13  1  0.77405300  0.25000000  0.08126600  1
  C  C14  1  0.72594700  0.25000000  0.58126600  1
  C  C15  1  0.27405300  0.75000000  0.41873400  1
  C  C16  1  0.73088300  0.53294600  0.84923000  1
  C  C17  1  0.26911700  0.46705400  0.15077000  1
  C  C18  1  0.23088300  0.46705400  0.65077000  1
  C  C19  1  0.26911700  0.03294600  0.15077000  1
  C  C20  1  0.76911700  0.53294600  0.34923000  1
  C  C21  1  0.73088300  0.96705400  0.84923000  1
  C  C22  1  0.76911700  0.96705400  0.34923000  1
  C  C23  1  0.23088300  0.03294600  0.65077000  1
  C  C24  1  0.75073500  0.75000000  0.55619100  1
  C  C25  1  0.24926500  0.25000000  0.44380900  1
  C  C26  1  0.25073500  0.25000000  0.94380900  1
  C  C27  1  0.74926500  0.75000000  0.05619100  1
