# generated using pymatgen
data_Cu(Ni8C7)2
_symmetry_space_group_name_H-M   'P 1'
_cell_length_a   8.06825073
_cell_length_b   8.25676083
_cell_length_c   8.39665988
_cell_angle_alpha   85.66168633
_cell_angle_beta   86.06508752
_cell_angle_gamma   88.25733124
_symmetry_Int_Tables_number   1
_chemical_formula_structural   Cu(Ni8C7)2
_chemical_formula_sum   'Cu2 Ni32 C28'
_cell_volume   556.26906987
_cell_formula_units_Z   2
loop_
 _symmetry_equiv_pos_site_id
 _symmetry_equiv_pos_as_xyz
  1  'x, y, z'
loop_
 _atom_site_type_symbol
 _atom_site_label
 _atom_site_symmetry_multiplicity
 _atom_site_fract_x
 _atom_site_fract_y
 _atom_site_fract_z
 _atom_site_occupancy
  C  C0  1  0.00000000  0.00000000  0.00000000  1
  C  C1  1  0.50000000  0.00000000  0.50000000  1
  C  C2  1  0.63705600  0.59382100  0.32122300  1
  C  C3  1  0.36294400  0.40617900  0.67877700  1
  Ni  Ni4  1  0.66180700  0.92388200  0.19139300  1
  Ni  Ni5  1  0.33819300  0.07611800  0.80860700  1
  Ni  Ni6  1  0.62254700  0.25809100  0.22348600  1
  Ni  Ni7  1  0.37745300  0.74190900  0.77651400  1
  Ni  Ni8  1  0.55397000  0.66617800  0.00887800  1
  Ni  Ni9  1  0.44603000  0.33382200  0.99112200  1
  Ni  Ni10  1  0.96949600  0.90551400  0.67478000  1
  Ni  Ni11  1  0.03050400  0.09448600  0.32522000  1
  Ni  Ni12  1  0.80506000  0.30961700  0.15390600  1
  Ni  Ni13  1  0.19494000  0.69038300  0.84609400  1
  Ni  Ni14  1  0.90900900  0.08637900  0.65268300  1
  Ni  Ni15  1  0.09099100  0.91362100  0.34731700  1
  Ni  Ni16  1  0.79674900  0.91916200  0.31569500  1
  Ni  Ni17  1  0.20325100  0.08083800  0.68430500  1
  Ni  Ni18  1  0.39063700  0.59369500  0.09578200  1
  Ni  Ni19  1  0.60936300  0.40630500  0.90421800  1
  Ni  Ni20  1  0.67162600  0.94298300  0.88913300  1
  Ni  Ni21  1  0.32837400  0.05701700  0.11086700  1
  Ni  Ni22  1  0.91925500  0.66207600  0.94950900  1
  Ni  Ni23  1  0.08074500  0.33792400  0.05049100  1
  Ni  Ni24  1  0.64399700  0.11653100  0.94933000  1
  Ni  Ni25  1  0.35600300  0.88346900  0.05067000  1
  Ni  Ni26  1  0.01510600  0.66718200  0.10430700  1
  Ni  Ni27  1  0.98489400  0.33281800  0.89569300  1
  Ni  Ni28  1  0.99821900  0.48582500  0.33495100  1
  Ni  Ni29  1  0.00178100  0.51417500  0.66504900  1
  Ni  Ni30  1  0.25039800  0.76081800  0.55770400  1
  Ni  Ni31  1  0.74960200  0.23918200  0.44229600  1
  Ni  Ni32  1  0.94287100  0.64646800  0.41558500  1
  Ni  Ni33  1  0.05712900  0.35353200  0.58441500  1
  Ni  Ni34  1  0.29361300  0.69777400  0.39095400  1
  Ni  Ni35  1  0.70638700  0.30222600  0.60904600  1
  Cu  Cu36  1  0.70969300  0.66684700  0.70650800  1
  Cu  Cu37  1  0.29030700  0.33315300  0.29349200  1
  C  C38  1  0.69939000  0.00946800  0.97539400  1
  C  C39  1  0.30061000  0.99053200  0.02460600  1
  C  C40  1  0.01816100  0.70834500  0.99060800  1
  C  C41  1  0.98183900  0.29165500  0.00939200  1
  C  C42  1  0.99575600  0.01554400  0.70217100  1
  C  C43  1  0.00424400  0.98445600  0.29782900  1
  C  C44  1  0.68088400  0.88642700  0.30345100  1
  C  C45  1  0.31911600  0.11357300  0.69654900  1
  C  C46  1  0.60598300  0.81866300  0.71438400  1
  C  C47  1  0.39401700  0.18133700  0.28561600  1
  C  C48  1  0.26627100  0.79879100  0.44268700  1
  C  C49  1  0.73372900  0.20120900  0.55731300  1
  C  C50  1  0.63223200  0.54874200  0.61028600  1
  C  C51  1  0.36776800  0.45125800  0.38971400  1
  C  C52  1  0.71922600  0.32111900  0.24333200  1
  C  C53  1  0.28077400  0.67888100  0.75666800  1
  C  C54  1  0.46494600  0.68748700  0.09221900  1
  C  C55  1  0.53505400  0.31251300  0.90778100  1
  C  C56  1  0.94381700  0.59365100  0.31414500  1
  C  C57  1  0.05618300  0.40634900  0.68585500  1
  C  C58  1  0.88128000  0.70420100  0.63492000  1
  C  C59  1  0.11872000  0.29579900  0.36508000  1
  C  C60  1  0.72386700  0.59246900  0.87564100  1
  C  C61  1  0.27613300  0.40753100  0.12435900  1
