# generated using pymatgen
data_Cu12Ni24C31
_symmetry_space_group_name_H-M   'P 1'
_cell_length_a   13.26403107
_cell_length_b   13.26401317
_cell_length_c   19.71380637
_cell_angle_alpha   90.00007715
_cell_angle_beta   89.99996143
_cell_angle_gamma   119.99995525
_symmetry_Int_Tables_number   1
_chemical_formula_structural   Cu12Ni24C31
_chemical_formula_sum   'Cu24 Ni48 C62'
_cell_volume   3003.66703963
_cell_formula_units_Z   2
loop_
 _symmetry_equiv_pos_site_id
 _symmetry_equiv_pos_as_xyz
  1  'x, y, z'
loop_
 _atom_site_type_symbol
 _atom_site_label
 _atom_site_symmetry_multiplicity
 _atom_site_fract_x
 _atom_site_fract_y
 _atom_site_fract_z
 _atom_site_occupancy
  C  C0  1  0.66661940  0.33330970  0.25000000  1
  C  C1  1  0.33338060  0.66669030  0.75000000  1
  C  C2  1  0.25482212  0.66677451  0.18091303  1
  C  C3  1  0.33322566  0.58804762  0.18091313  1
  C  C4  1  0.41195229  0.74517800  0.18091300  1
  C  C5  1  0.74517788  0.41195239  0.68091303  1
  C  C6  1  0.58804771  0.33322571  0.68091300  1
  C  C7  1  0.66677434  0.25482196  0.68091313  1
  C  C8  1  0.74517788  0.33322549  0.81908697  1
  C  C9  1  0.66677434  0.41195238  0.81908687  1
  C  C10  1  0.58804771  0.25482200  0.81908700  1
  C  C11  1  0.25482212  0.58804761  0.31908697  1
  C  C12  1  0.41195229  0.66677429  0.31908700  1
  C  C13  1  0.33322566  0.74517804  0.31908687  1
  C  C14  1  0.20583736  0.53937390  0.23374451  1
  C  C15  1  0.46062610  0.66646333  0.23374460  1
  C  C16  1  0.33353673  0.79416277  0.23374465  1
  C  C17  1  0.79416264  0.33353654  0.73374451  1
  C  C18  1  0.66646327  0.46062604  0.73374465  1
  C  C19  1  0.53937390  0.20583723  0.73374460  1
  C  C20  1  0.79416264  0.46062610  0.76625549  1
  C  C21  1  0.53937390  0.33353667  0.76625540  1
  C  C22  1  0.66646327  0.20583723  0.76625535  1
  C  C23  1  0.20583736  0.66646346  0.26625549  1
  C  C24  1  0.33353673  0.53937396  0.26625535  1
  C  C25  1  0.46062610  0.79416277  0.26625540  1
  C  C26  1  0.07985414  0.00105882  0.93081010  1
  C  C27  1  0.99894117  0.07879537  0.93081004  1
  C  C28  1  0.92120467  0.92014580  0.93081011  1
  C  C29  1  0.92014586  0.92120468  0.43081010  1
  C  C30  1  0.07879533  0.99894113  0.43081011  1
  C  C31  1  0.00105883  0.07985420  0.43081004  1
  C  C32  1  0.92014586  0.99894118  0.06918990  1
  C  C33  1  0.00105883  0.92120463  0.06918996  1
  C  C34  1  0.07879533  0.07985420  0.06918989  1
  C  C35  1  0.07985414  0.07879532  0.56918990  1
  C  C36  1  0.92120467  0.00105887  0.56918989  1
  C  C37  1  0.99894117  0.92014580  0.56918996  1
  C  C38  1  0.00575368  0.87579973  0.98280810  1
  C  C39  1  0.12420010  0.12995370  0.98280816  1
  C  C40  1  0.87004627  0.99424641  0.98280828  1
  C  C41  1  0.99424632  0.87004605  0.48280810  1
  C  C42  1  0.12995373  0.12420014  0.48280828  1
  C  C43  1  0.87579990  0.00575359  0.48280816  1
  C  C44  1  0.99424632  0.12420027  0.01719190  1
  C  C45  1  0.87579990  0.87004630  0.01719184  1
  C  C46  1  0.12995373  0.00575359  0.01719172  1
  C  C47  1  0.00575368  0.12995395  0.51719190  1
  C  C48  1  0.87004627  0.87579986  0.51719172  1
  C  C49  1  0.12420010  0.99424641  0.51719184  1
  C  C50  1  0.85214414  0.51491687  0.10817160  1
  C  C51  1  0.48508098  0.33722680  0.10816971  1
  C  C52  1  0.66277419  0.14785617  0.10817070  1
  C  C53  1  0.14785586  0.66277273  0.60817160  1
  C  C54  1  0.33722581  0.48508198  0.60817070  1
  C  C55  1  0.51491902  0.85214582  0.60816971  1
  C  C56  1  0.14785586  0.48508313  0.89182840  1
  C  C57  1  0.51491902  0.66277320  0.89183029  1
  C  C58  1  0.33722581  0.85214383  0.89182930  1
  C  C59  1  0.85214414  0.33722727  0.39182840  1
  C  C60  1  0.66277419  0.51491802  0.39182930  1
  C  C61  1  0.48508098  0.14785418  0.39183029  1
  Ni  Ni62  1  0.16772525  0.66643085  0.10129376  1
  Ni  Ni63  1  0.33356933  0.50129407  0.10129382  1
  Ni  Ni64  1  0.49870568  0.83227515  0.10129374  1
  Ni  Ni65  1  0.83227475  0.49870561  0.60129376  1
  Ni  Ni66  1  0.50129432  0.33356947  0.60129374  1
  Ni  Ni67  1  0.66643067  0.16772474  0.60129382  1
  Ni  Ni68  1  0.83227475  0.33356915  0.89870624  1
  Ni  Ni69  1  0.66643067  0.49870593  0.89870618  1
  Ni  Ni70  1  0.50129432  0.16772485  0.89870626  1
  Ni  Ni71  1  0.16772525  0.50129439  0.39870624  1
  Ni  Ni72  1  0.49870568  0.66643053  0.39870626  1
  Ni  Ni73  1  0.33356933  0.83227526  0.39870618  1
  Ni  Ni74  1  0.06093182  0.39623401  0.21557602  1
  Ni  Ni75  1  0.60376586  0.66469777  0.21557615  1
  Ni  Ni76  1  0.33530270  0.93906854  0.21557603  1
  Ni  Ni77  1  0.93906818  0.33530219  0.71557602  1
  Ni  Ni78  1  0.66469730  0.60376584  0.71557603  1
  Ni  Ni79  1  0.39623414  0.06093191  0.71557615  1
  Ni  Ni80  1  0.93906818  0.60376599  0.78442398  1
  Ni  Ni81  1  0.39623414  0.33530223  0.78442385  1
  Ni  Ni82  1  0.66469730  0.06093146  0.78442397  1
  Ni  Ni83  1  0.06093182  0.66469781  0.28442398  1
  Ni  Ni84  1  0.33530270  0.39623416  0.28442397  1
  Ni  Ni85  1  0.60376586  0.93906809  0.28442385  1
  Ni  Ni86  1  0.16690776  0.00281215  0.85119778  1
  Ni  Ni87  1  0.99718795  0.16409593  0.85119799  1
  Ni  Ni88  1  0.83590424  0.83309136  0.85119811  1
  Ni  Ni89  1  0.83309224  0.83590439  0.35119778  1
  Ni  Ni90  1  0.16409576  0.99718712  0.35119811  1
  Ni  Ni91  1  0.00281205  0.16690799  0.35119799  1
  Ni  Ni92  1  0.83309224  0.99718785  0.14880222  1
  Ni  Ni93  1  0.00281205  0.83590407  0.14880201  1
  Ni  Ni94  1  0.16409576  0.16690864  0.14880189  1
  Ni  Ni95  1  0.16690776  0.16409561  0.64880222  1
  Ni  Ni96  1  0.83590424  0.00281288  0.64880189  1
  Ni  Ni97  1  0.99718795  0.83309201  0.64880201  1
  Ni  Ni98  1  0.01237044  0.73555215  0.96311732  1
  Ni  Ni99  1  0.26444824  0.27681813  0.96311737  1
  Ni  Ni100  1  0.72318172  0.98762984  0.96311737  1
  Ni  Ni101  1  0.98762956  0.72318171  0.46311732  1
  Ni  Ni102  1  0.27681828  0.26444812  0.46311737  1
  Ni  Ni103  1  0.73555176  0.01236989  0.46311737  1
  Ni  Ni104  1  0.98762956  0.26444785  0.03688268  1
  Ni  Ni105  1  0.73555176  0.72318187  0.03688263  1
  Ni  Ni106  1  0.27681828  0.01237016  0.03688263  1
  Ni  Ni107  1  0.01237044  0.27681829  0.53688268  1
  Ni  Ni108  1  0.72318172  0.73555188  0.53688263  1
  Ni  Ni109  1  0.26444824  0.98763011  0.53688263  1
  Cu  Cu110  1  0.80065318  0.49079415  0.17554125  1
  Cu  Cu111  1  0.50920152  0.30985898  0.17553981  1
  Cu  Cu112  1  0.69013910  0.19934377  0.17554094  1
  Cu  Cu113  1  0.19934682  0.69014097  0.67554125  1
  Cu  Cu114  1  0.30986090  0.50920466  0.67554094  1
  Cu  Cu115  1  0.49079848  0.80065746  0.67553981  1
  Cu  Cu116  1  0.19934682  0.50920585  0.82445875  1
  Cu  Cu117  1  0.49079848  0.69014102  0.82446019  1
  Cu  Cu118  1  0.30986090  0.80065623  0.82445906  1
  Cu  Cu119  1  0.80065318  0.30985903  0.32445875  1
  Cu  Cu120  1  0.69013910  0.49079534  0.32445906  1
  Cu  Cu121  1  0.50920152  0.19934254  0.32446019  1
  Cu  Cu122  1  0.84261064  0.41690162  0.07009351  1
  Cu  Cu123  1  0.58309838  0.42570978  0.07009322  1
  Cu  Cu124  1  0.57429013  0.15738863  0.07009347  1
  Cu  Cu125  1  0.15738936  0.57429098  0.57009351  1
  Cu  Cu126  1  0.42570987  0.58309850  0.57009347  1
  Cu  Cu127  1  0.41690162  0.84261140  0.57009322  1
  Cu  Cu128  1  0.15738936  0.58309838  0.92990649  1
  Cu  Cu129  1  0.41690162  0.57429022  0.92990678  1
  Cu  Cu130  1  0.42570987  0.84261137  0.92990653  1
  Cu  Cu131  1  0.84261064  0.42570902  0.42990649  1
  Cu  Cu132  1  0.57429013  0.41690150  0.42990653  1
  Cu  Cu133  1  0.58309838  0.15738860  0.42990678  1
