# generated using pymatgen
data_CuNi5C2
_symmetry_space_group_name_H-M   'P 1'
_cell_length_a   5.58295600
_cell_length_b   8.24550824
_cell_length_c   8.24550824
_cell_angle_alpha   83.41870090
_cell_angle_beta   70.21172980
_cell_angle_gamma   70.21172980
_symmetry_Int_Tables_number   1
_chemical_formula_structural   CuNi5C2
_chemical_formula_sum   'Cu2 Ni10 C4'
_cell_volume   336.07193595
_cell_formula_units_Z   2
loop_
 _symmetry_equiv_pos_site_id
 _symmetry_equiv_pos_as_xyz
  1  'x, y, z'
loop_
 _atom_site_type_symbol
 _atom_site_label
 _atom_site_symmetry_multiplicity
 _atom_site_fract_x
 _atom_site_fract_y
 _atom_site_fract_z
 _atom_site_occupancy
  Ni  Ni0  1  0.06969000  0.12952800  0.73109100  1
  Ni  Ni1  1  0.93031000  0.87047200  0.26890900  1
  Ni  Ni2  1  0.80078100  0.26890900  0.12952800  1
  Ni  Ni3  1  0.43031000  0.26890900  0.87047200  1
  Ni  Ni4  1  0.19921900  0.73109100  0.87047200  1
  Ni  Ni5  1  0.56969000  0.73109100  0.12952800  1
  Ni  Ni6  1  0.69921900  0.87047200  0.73109100  1
  Ni  Ni7  1  0.30078100  0.12952800  0.26890900  1
  Ni  Ni8  1  0.25000000  0.50000000  0.50000000  1
  Ni  Ni9  1  0.75000000  0.50000000  0.50000000  1
  Cu  Cu10  1  0.25000000  0.00000000  0.00000000  1
  Cu  Cu11  1  0.75000000  0.00000000  0.00000000  1
  C  C12  1  0.16428500  0.50000000  0.17142900  1
  C  C13  1  0.83571500  0.50000000  0.82857100  1
  C  C14  1  0.33571500  0.82857100  0.50000000  1
  C  C15  1  0.66428500  0.17142900  0.50000000  1
