# generated using pymatgen
data_Cu(Ni4C5)2
_symmetry_space_group_name_H-M   'P 1'
_cell_length_a   9.37407300
_cell_length_b   9.37407300
_cell_length_c   5.60878800
_cell_angle_alpha   90.00000000
_cell_angle_beta   90.00000000
_cell_angle_gamma   90.00000000
_symmetry_Int_Tables_number   1
_chemical_formula_structural   Cu(Ni4C5)2
_chemical_formula_sum   'Cu2 Ni16 C20'
_cell_volume   492.86239989
_cell_formula_units_Z   2
loop_
 _symmetry_equiv_pos_site_id
 _symmetry_equiv_pos_as_xyz
  1  'x, y, z'
loop_
 _atom_site_type_symbol
 _atom_site_label
 _atom_site_symmetry_multiplicity
 _atom_site_fract_x
 _atom_site_fract_y
 _atom_site_fract_z
 _atom_site_occupancy
  C  C0  1  0.94494800  0.73466800  0.50000000  1
  C  C1  1  0.05505200  0.26533200  0.50000000  1
  C  C2  1  0.44494800  0.76533200  0.00000000  1
  C  C3  1  0.55505200  0.23466800  0.00000000  1
  C  C4  1  0.26533200  0.94494800  0.50000000  1
  C  C5  1  0.73466800  0.05505200  0.50000000  1
  C  C6  1  0.23466800  0.44494800  0.00000000  1
  C  C7  1  0.76533200  0.55505200  0.00000000  1
  C  C8  1  0.00000000  0.00000000  0.18260200  1
  C  C9  1  0.50000000  0.50000000  0.68260200  1
  C  C10  1  0.00000000  0.00000000  0.81739800  1
  C  C11  1  0.50000000  0.50000000  0.31739800  1
  C  C12  1  0.62040500  0.73085300  0.50000000  1
  C  C13  1  0.37959500  0.26914700  0.50000000  1
  C  C14  1  0.12040500  0.76914700  0.00000000  1
  C  C15  1  0.87959500  0.23085300  0.00000000  1
  C  C16  1  0.26914700  0.62040500  0.50000000  1
  C  C17  1  0.73085300  0.37959500  0.50000000  1
  C  C18  1  0.23085300  0.12040500  0.00000000  1
  C  C19  1  0.76914700  0.87959500  0.00000000  1
  Ni  Ni20  1  0.43705800  0.70454800  0.50000000  1
  Ni  Ni21  1  0.56294200  0.29545200  0.50000000  1
  Ni  Ni22  1  0.93705800  0.79545200  0.00000000  1
  Ni  Ni23  1  0.06294200  0.20454800  0.00000000  1
  Ni  Ni24  1  0.29545200  0.43705800  0.50000000  1
  Ni  Ni25  1  0.70454800  0.56294200  0.50000000  1
  Ni  Ni26  1  0.20454800  0.93705800  0.00000000  1
  Ni  Ni27  1  0.79545200  0.06294200  0.00000000  1
  Ni  Ni28  1  0.67419200  0.82580800  0.25000000  1
  Ni  Ni29  1  0.32580800  0.17419200  0.25000000  1
  Ni  Ni30  1  0.17419200  0.67419200  0.75000000  1
  Ni  Ni31  1  0.82580800  0.32580800  0.75000000  1
  Ni  Ni32  1  0.17419200  0.67419200  0.25000000  1
  Ni  Ni33  1  0.82580800  0.32580800  0.25000000  1
  Ni  Ni34  1  0.32580800  0.17419200  0.75000000  1
  Ni  Ni35  1  0.67419200  0.82580800  0.75000000  1
  Cu  Cu36  1  0.00000000  0.00000000  0.50000000  1
  Cu  Cu37  1  0.50000000  0.50000000  0.00000000  1
