# generated using pymatgen
data_CuNiC
_symmetry_space_group_name_H-M   'P 1'
_cell_length_a   4.50191200
_cell_length_b   7.17284400
_cell_length_c   7.96346200
_cell_angle_alpha   90.00000000
_cell_angle_beta   90.00000000
_cell_angle_gamma   90.00000000
_symmetry_Int_Tables_number   1
_chemical_formula_structural   CuNiC
_chemical_formula_sum   'Cu4 Ni4 C4'
_cell_volume   257.15223254
_cell_formula_units_Z   4
loop_
 _symmetry_equiv_pos_site_id
 _symmetry_equiv_pos_as_xyz
  1  'x, y, z'
loop_
 _atom_site_type_symbol
 _atom_site_label
 _atom_site_symmetry_multiplicity
 _atom_site_fract_x
 _atom_site_fract_y
 _atom_site_fract_z
 _atom_site_occupancy
  C  C0  1  0.25000000  0.51419900  0.18892000  1
  C  C1  1  0.75000000  0.48580100  0.81108000  1
  C  C2  1  0.75000000  0.98580100  0.68892000  1
  C  C3  1  0.25000000  0.01419900  0.31108000  1
  Ni  Ni4  1  0.25000000  0.67448400  0.58625000  1
  Ni  Ni5  1  0.75000000  0.32551600  0.41375000  1
  Ni  Ni6  1  0.75000000  0.82551600  0.08625000  1
  Ni  Ni7  1  0.25000000  0.17448400  0.91375000  1
  Cu  Cu8  1  0.25000000  0.78809300  0.90781200  1
  Cu  Cu9  1  0.75000000  0.21190700  0.09218800  1
  Cu  Cu10  1  0.75000000  0.71190700  0.40781200  1
  Cu  Cu11  1  0.25000000  0.28809300  0.59218800  1
