# generated using pymatgen
data_Cu3NiC6
_symmetry_space_group_name_H-M   'P 1'
_cell_length_a   5.80352245
_cell_length_b   5.80352245
_cell_length_c   12.55670700
_cell_angle_alpha   90.00000000
_cell_angle_beta   90.00000000
_cell_angle_gamma   120.00000510
_symmetry_Int_Tables_number   1
_chemical_formula_structural   Cu3NiC6
_chemical_formula_sum   'Cu6 Ni2 C12'
_cell_volume   366.26018212
_cell_formula_units_Z   2
loop_
 _symmetry_equiv_pos_site_id
 _symmetry_equiv_pos_as_xyz
  1  'x, y, z'
loop_
 _atom_site_type_symbol
 _atom_site_label
 _atom_site_symmetry_multiplicity
 _atom_site_fract_x
 _atom_site_fract_y
 _atom_site_fract_z
 _atom_site_occupancy
  Ni  Ni0  1  0.33333300  0.66666700  0.25000000  1
  Ni  Ni1  1  0.66666700  0.33333300  0.75000000  1
  Cu  Cu2  1  0.00000000  0.00000000  0.50000000  1
  Cu  Cu3  1  0.00000000  0.00000000  0.00000000  1
  Cu  Cu4  1  0.33333300  0.66666700  0.99802900  1
  Cu  Cu5  1  0.66666700  0.33333300  0.00197100  1
  Cu  Cu6  1  0.66666700  0.33333300  0.49802900  1
  Cu  Cu7  1  0.33333300  0.66666700  0.50197100  1
  C  C8  1  0.33197200  0.33417200  0.37352500  1
  C  C9  1  0.66582800  0.99780000  0.37352500  1
  C  C10  1  0.00220000  0.66802800  0.37352500  1
  C  C11  1  0.33417200  0.33197200  0.62647500  1
  C  C12  1  0.99780000  0.66582800  0.62647500  1
  C  C13  1  0.66802800  0.00220000  0.62647500  1
  C  C14  1  0.66802800  0.66582800  0.87352500  1
  C  C15  1  0.33417200  0.00220000  0.87352500  1
  C  C16  1  0.99780000  0.33197200  0.87352500  1
  C  C17  1  0.66582800  0.66802800  0.12647500  1
  C  C18  1  0.00220000  0.33417200  0.12647500  1
  C  C19  1  0.33197200  0.99780000  0.12647500  1
