# generated using pymatgen
data_CuNiC16
_symmetry_space_group_name_H-M   'P 1'
_cell_length_a   5.48711896
_cell_length_b   5.48711896
_cell_length_c   7.38496626
_cell_angle_alpha   90.00000000
_cell_angle_beta   90.00000000
_cell_angle_gamma   85.72094039
_symmetry_Int_Tables_number   1
_chemical_formula_structural   CuNiC16
_chemical_formula_sum   'Cu1 Ni1 C16'
_cell_volume   221.73026087
_cell_formula_units_Z   1
loop_
 _symmetry_equiv_pos_site_id
 _symmetry_equiv_pos_as_xyz
  1  'x, y, z'
loop_
 _atom_site_type_symbol
 _atom_site_label
 _atom_site_symmetry_multiplicity
 _atom_site_fract_x
 _atom_site_fract_y
 _atom_site_fract_z
 _atom_site_occupancy
  Ni  Ni0  1  0.00473660  0.00473660  0.50000000  1
  Cu  Cu1  1  0.53448082  0.53448082  -0.00000000  1
  C  C2  1  0.52398582  0.02449191  0.75155589  1
  C  C3  1  0.52398582  0.02449191  0.24844411  1
  C  C4  1  0.02449191  0.52398582  0.24844411  1
  C  C5  1  0.02449191  0.52398582  0.75155589  1
  C  C6  1  0.75841706  0.21137899  0.76110966  1
  C  C7  1  0.21137899  0.75841706  0.76110966  1
  C  C8  1  0.21137899  0.75841706  0.23889034  1
  C  C9  1  0.75841706  0.21137899  0.23889034  1
  C  C10  1  0.71468525  0.71468525  0.72951804  1
  C  C11  1  0.27678584  0.27678584  0.79195925  1
  C  C12  1  0.27678584  0.27678584  0.20804075  1
  C  C13  1  0.71468525  0.71468525  0.27048196  1
  C  C14  1  0.50874968  0.93944834  0.00000000  1
  C  C15  1  0.46812386  0.02427096  0.50000000  1
  C  C16  1  0.93944834  0.50874968  0.00000000  1
  C  C17  1  0.02427096  0.46812386  0.50000000  1
