# generated using pymatgen
data_Cu12Ni13C79
_symmetry_space_group_name_H-M   'P 1'
_cell_length_a   14.63308652
_cell_length_b   14.63308652
_cell_length_c   14.63308652
_cell_angle_alpha   60.00000000
_cell_angle_beta   60.00000000
_cell_angle_gamma   60.00000000
_symmetry_Int_Tables_number   1
_chemical_formula_structural   Cu12Ni13C79
_chemical_formula_sum   'Cu24 Ni26 C158'
_cell_volume   2215.60748523
_cell_formula_units_Z   2
loop_
 _symmetry_equiv_pos_site_id
 _symmetry_equiv_pos_as_xyz
  1  'x, y, z'
loop_
 _atom_site_type_symbol
 _atom_site_label
 _atom_site_symmetry_multiplicity
 _atom_site_fract_x
 _atom_site_fract_y
 _atom_site_fract_z
 _atom_site_occupancy
  C  C0  1  0.50000000  0.50000000  -0.00000000  1
  C  C1  1  -0.00000000  0.50000000  0.50000000  1
  C  C2  1  0.50000000  0.00000000  0.50000000  1
  C  C3  1  0.50000000  0.50000000  0.50000000  1
  C  C4  1  -0.00000000  0.00000000  0.50000000  1
  C  C5  1  0.50000000  0.00000000  -0.00000000  1
  C  C6  1  -0.00000000  0.50000000  -0.00000000  1
  C  C7  1  -0.00000000  0.00000000  -0.00000000  1
  C  C8  1  0.17001921  0.34019829  0.56982846  1
  C  C9  1  0.56982846  0.41995404  0.17001921  1
  C  C10  1  0.41995404  0.56982846  0.34019829  1
  C  C11  1  0.34019829  0.17001921  0.41995404  1
  C  C12  1  0.34019829  0.56982846  0.17001921  1
  C  C13  1  0.41995404  0.17001921  0.56982846  1
  C  C14  1  0.56982846  0.34019829  0.41995404  1
  C  C15  1  0.17001921  0.41995404  0.34019829  1
  C  C16  1  0.56982846  0.17001921  0.34019829  1
  C  C17  1  0.17001921  0.56982846  0.41995404  1
  C  C18  1  0.34019829  0.41995404  0.56982846  1
  C  C19  1  0.41995404  0.34019829  0.17001921  1
  C  C20  1  0.82998079  0.65980171  0.43017154  1
  C  C21  1  0.43017154  0.58004596  0.82998079  1
  C  C22  1  0.58004596  0.43017154  0.65980171  1
  C  C23  1  0.65980171  0.82998079  0.58004596  1
  C  C24  1  0.65980171  0.43017154  0.82998079  1
  C  C25  1  0.58004596  0.82998079  0.43017154  1
  C  C26  1  0.43017154  0.65980171  0.58004596  1
  C  C27  1  0.82998079  0.58004596  0.65980171  1
  C  C28  1  0.43017154  0.82998079  0.65980171  1
  C  C29  1  0.82998079  0.43017154  0.58004596  1
  C  C30  1  0.65980171  0.58004596  0.43017154  1
  C  C31  1  0.58004596  0.65980171  0.82998079  1
  C  C32  1  0.12720727  0.44712928  0.61096399  1
  C  C33  1  0.61096399  0.31469945  0.12720727  1
  C  C34  1  0.31469945  0.61096399  0.44712928  1
  C  C35  1  0.44712928  0.12720727  0.31469945  1
  C  C36  1  0.44712928  0.61096399  0.12720727  1
  C  C37  1  0.31469945  0.12720727  0.61096399  1
  C  C38  1  0.61096399  0.44712928  0.31469945  1
  C  C39  1  0.12720727  0.31469945  0.44712928  1
  C  C40  1  0.61096399  0.12720727  0.44712928  1
  C  C41  1  0.12720727  0.61096399  0.31469945  1
  C  C42  1  0.44712928  0.31469945  0.61096399  1
  C  C43  1  0.31469945  0.44712928  0.12720727  1
  C  C44  1  0.87279273  0.55287072  0.38903601  1
  C  C45  1  0.38903601  0.68530055  0.87279273  1
  C  C46  1  0.68530055  0.38903601  0.55287072  1
  C  C47  1  0.55287072  0.87279273  0.68530055  1
  C  C48  1  0.55287072  0.38903601  0.87279273  1
  C  C49  1  0.68530055  0.87279273  0.38903601  1
  C  C50  1  0.38903601  0.55287072  0.68530055  1
  C  C51  1  0.87279273  0.68530055  0.55287072  1
  C  C52  1  0.38903601  0.87279273  0.55287072  1
  C  C53  1  0.87279273  0.38903601  0.68530055  1
  C  C54  1  0.55287072  0.68530055  0.38903601  1
  C  C55  1  0.68530055  0.55287072  0.87279273  1
  C  C56  1  0.05914628  0.35644215  0.68176458  1
  C  C57  1  0.68176458  0.40264699  0.05914628  1
  C  C58  1  0.40264699  0.68176458  0.35644215  1
  C  C59  1  0.35644215  0.05914628  0.40264699  1
  C  C60  1  0.35644215  0.68176458  0.05914628  1
  C  C61  1  0.40264699  0.05914628  0.68176458  1
  C  C62  1  0.68176458  0.35644215  0.40264699  1
  C  C63  1  0.05914628  0.40264699  0.35644215  1
  C  C64  1  0.68176458  0.05914628  0.35644215  1
  C  C65  1  0.05914628  0.68176458  0.40264699  1
  C  C66  1  0.35644215  0.40264699  0.68176458  1
  C  C67  1  0.40264699  0.35644215  0.05914628  1
  C  C68  1  0.94085372  0.64355785  0.31823542  1
  C  C69  1  0.31823542  0.59735301  0.94085372  1
  C  C70  1  0.59735301  0.31823542  0.64355785  1
  C  C71  1  0.64355785  0.94085372  0.59735301  1
  C  C72  1  0.64355785  0.31823542  0.94085372  1
  C  C73  1  0.59735301  0.94085372  0.31823542  1
  C  C74  1  0.31823542  0.64355785  0.59735301  1
  C  C75  1  0.94085372  0.59735301  0.64355785  1
  C  C76  1  0.31823542  0.94085372  0.64355785  1
  C  C77  1  0.94085372  0.31823542  0.59735301  1
  C  C78  1  0.64355785  0.59735301  0.31823542  1
  C  C79  1  0.59735301  0.64355785  0.94085372  1
  C  C80  1  0.41008138  0.95677531  0.90784576  1
  C  C81  1  0.90784576  0.22529754  0.41008138  1
  C  C82  1  0.22529754  0.90784576  0.95677531  1
  C  C83  1  0.95677531  0.41008138  0.22529754  1
  C  C84  1  0.95677531  0.90784576  0.41008138  1
  C  C85  1  0.22529754  0.41008138  0.90784576  1
  C  C86  1  0.90784576  0.95677531  0.22529754  1
  C  C87  1  0.41008138  0.22529754  0.95677531  1
  C  C88  1  0.90784576  0.41008138  0.95677531  1
  C  C89  1  0.41008138  0.90784576  0.22529754  1
  C  C90  1  0.95677531  0.22529754  0.90784576  1
  C  C91  1  0.22529754  0.95677531  0.41008138  1
  C  C92  1  0.58991862  0.04322469  0.09215424  1
  C  C93  1  0.09215424  0.77470246  0.58991862  1
  C  C94  1  0.77470246  0.09215424  0.04322469  1
  C  C95  1  0.04322469  0.58991862  0.77470246  1
  C  C96  1  0.04322469  0.09215424  0.58991862  1
  C  C97  1  0.77470246  0.58991862  0.09215424  1
  C  C98  1  0.09215424  0.04322469  0.77470246  1
  C  C99  1  0.58991862  0.77470246  0.04322469  1
  C  C100  1  0.09215424  0.58991862  0.04322469  1
  C  C101  1  0.58991862  0.09215424  0.77470246  1
  C  C102  1  0.04322469  0.77470246  0.09215424  1
  C  C103  1  0.77470246  0.04322469  0.58991862  1
  C  C104  1  0.34721881  0.08687785  0.89294819  1
  C  C105  1  0.89294819  0.17295516  0.34721881  1
  C  C106  1  0.17295516  0.89294819  0.08687785  1
  C  C107  1  0.08687785  0.34721881  0.17295516  1
  C  C108  1  0.08687785  0.89294819  0.34721881  1
  C  C109  1  0.17295516  0.34721881  0.89294819  1
  C  C110  1  0.89294819  0.08687785  0.17295516  1
  C  C111  1  0.34721881  0.17295516  0.08687785  1
  C  C112  1  0.89294819  0.34721881  0.08687785  1
  C  C113  1  0.34721881  0.89294819  0.17295516  1
  C  C114  1  0.08687785  0.17295516  0.89294819  1
  C  C115  1  0.17295516  0.08687785  0.34721881  1
  C  C116  1  0.65278119  0.91312215  0.10705181  1
  C  C117  1  0.10705181  0.82704484  0.65278119  1
  C  C118  1  0.82704484  0.10705181  0.91312215  1
  C  C119  1  0.91312215  0.65278119  0.82704484  1
  C  C120  1  0.91312215  0.10705181  0.65278119  1
  C  C121  1  0.82704484  0.65278119  0.10705181  1
  C  C122  1  0.10705181  0.91312215  0.82704484  1
  C  C123  1  0.65278119  0.82704484  0.91312215  1
  C  C124  1  0.10705181  0.65278119  0.91312215  1
  C  C125  1  0.65278119  0.10705181  0.82704484  1
  C  C126  1  0.91312215  0.82704484  0.10705181  1
  C  C127  1  0.82704484  0.91312215  0.65278119  1
  C  C128  1  0.15394459  0.15394459  0.03816624  1
  C  C129  1  0.03816624  0.15394459  0.15394459  1
  C  C130  1  0.15394459  0.03816624  0.15394459  1
  C  C131  1  0.15394459  0.15394459  0.15394459  1
  C  C132  1  0.84605541  0.84605541  0.96183376  1
  C  C133  1  0.96183376  0.84605541  0.84605541  1
  C  C134  1  0.84605541  0.96183376  0.84605541  1
  C  C135  1  0.84605541  0.84605541  0.84605541  1
  Ni  Ni136  1  0.10080659  0.39887006  0.60261113  1
  Ni  Ni137  1  0.60261113  0.39771222  0.10080659  1
  Ni  Ni138  1  0.39771222  0.60261113  0.39887006  1
  Ni  Ni139  1  0.39887006  0.10080659  0.39771222  1
  Ni  Ni140  1  0.39887006  0.60261113  0.10080659  1
  Ni  Ni141  1  0.39771222  0.10080659  0.60261113  1
  Ni  Ni142  1  0.60261113  0.39887006  0.39771222  1
  Ni  Ni143  1  0.10080659  0.39771222  0.39887006  1
  Ni  Ni144  1  0.60261113  0.10080659  0.39887006  1
  Ni  Ni145  1  0.10080659  0.60261113  0.39771222  1
  Ni  Ni146  1  0.39887006  0.39771222  0.60261113  1
  Ni  Ni147  1  0.39771222  0.39887006  0.10080659  1
  Ni  Ni148  1  0.89919341  0.60112994  0.39738887  1
  Ni  Ni149  1  0.39738887  0.60228778  0.89919341  1
  Ni  Ni150  1  0.60228778  0.39738887  0.60112994  1
  Ni  Ni151  1  0.60112994  0.89919341  0.60228778  1
  Ni  Ni152  1  0.60112994  0.39738887  0.89919341  1
  Ni  Ni153  1  0.60228778  0.89919341  0.39738887  1
  Ni  Ni154  1  0.39738887  0.60112994  0.60228778  1
  Ni  Ni155  1  0.89919341  0.60228778  0.60112994  1
  Ni  Ni156  1  0.39738887  0.89919341  0.60112994  1
  Ni  Ni157  1  0.89919341  0.39738887  0.60228778  1
  Ni  Ni158  1  0.60112994  0.60228778  0.39738887  1
  Ni  Ni159  1  0.60228778  0.60112994  0.89919341  1
  Ni  Ni160  1  0.12500000  0.12500000  0.12500000  1
  Ni  Ni161  1  0.87500000  0.87500000  0.87500000  1
  C  C162  1  0.22426710  0.22426710  0.82719870  1
  C  C163  1  0.82719870  0.22426710  0.22426710  1
  C  C164  1  0.22426710  0.82719870  0.22426710  1
  C  C165  1  0.22426710  0.22426710  0.22426710  1
  C  C166  1  0.77573290  0.77573290  0.17280130  1
  C  C167  1  0.17280130  0.77573290  0.77573290  1
  C  C168  1  0.77573290  0.17280130  0.77573290  1
  C  C169  1  0.77573290  0.77573290  0.77573290  1
  C  C170  1  0.85054531  0.39945469  0.85054531  1
  C  C171  1  0.39945469  0.85054531  0.39945469  1
  C  C172  1  0.39945469  0.85054531  0.85054531  1
  C  C173  1  0.85054531  0.39945469  0.39945469  1
  C  C174  1  0.85054531  0.85054531  0.39945469  1
  C  C175  1  0.39945469  0.39945469  0.85054531  1
  C  C176  1  0.14945469  0.60054531  0.14945469  1
  C  C177  1  0.60054531  0.14945469  0.60054531  1
  C  C178  1  0.60054531  0.14945469  0.14945469  1
  C  C179  1  0.14945469  0.60054531  0.60054531  1
  C  C180  1  0.14945469  0.14945469  0.60054531  1
  C  C181  1  0.60054531  0.60054531  0.14945469  1
  C  C182  1  0.62500000  0.62500000  0.62500000  1
  C  C183  1  0.37500000  0.37500000  0.37500000  1
  Cu  Cu184  1  0.39873070  0.01667368  0.92905424  1
  Cu  Cu185  1  0.92905424  0.15554138  0.39873070  1
  Cu  Cu186  1  0.15554138  0.92905424  0.01667368  1
  Cu  Cu187  1  0.01667368  0.39873070  0.15554138  1
  Cu  Cu188  1  0.01667368  0.92905424  0.39873070  1
  Cu  Cu189  1  0.15554138  0.39873070  0.92905424  1
  Cu  Cu190  1  0.92905424  0.01667368  0.15554138  1
  Cu  Cu191  1  0.39873070  0.15554138  0.01667368  1
  Cu  Cu192  1  0.92905424  0.39873070  0.01667368  1
  Cu  Cu193  1  0.39873070  0.92905424  0.15554138  1
  Cu  Cu194  1  0.01667368  0.15554138  0.92905424  1
  Cu  Cu195  1  0.15554138  0.01667368  0.39873070  1
  Cu  Cu196  1  0.60126930  0.98332632  0.07094576  1
  Cu  Cu197  1  0.07094576  0.84445862  0.60126930  1
  Cu  Cu198  1  0.84445862  0.07094576  0.98332632  1
  Cu  Cu199  1  0.98332632  0.60126930  0.84445862  1
  Cu  Cu200  1  0.98332632  0.07094576  0.60126930  1
  Cu  Cu201  1  0.84445862  0.60126930  0.07094576  1
  Cu  Cu202  1  0.07094576  0.98332632  0.84445862  1
  Cu  Cu203  1  0.60126930  0.84445862  0.98332632  1
  Cu  Cu204  1  0.07094576  0.60126930  0.98332632  1
  Cu  Cu205  1  0.60126930  0.07094576  0.84445862  1
  Cu  Cu206  1  0.98332632  0.84445862  0.07094576  1
  Cu  Cu207  1  0.84445862  0.98332632  0.60126930  1
