# generated using pymatgen
data_CuNi3C4
_symmetry_space_group_name_H-M   'P 1'
_cell_length_a   4.07502600
_cell_length_b   8.49162200
_cell_length_c   15.74793800
_cell_angle_alpha   90.00000000
_cell_angle_beta   90.00000000
_cell_angle_gamma   90.00000000
_symmetry_Int_Tables_number   1
_chemical_formula_structural   CuNi3C4
_chemical_formula_sum   'Cu4 Ni12 C16'
_cell_volume   544.93503922
_cell_formula_units_Z   4
loop_
 _symmetry_equiv_pos_site_id
 _symmetry_equiv_pos_as_xyz
  1  'x, y, z'
loop_
 _atom_site_type_symbol
 _atom_site_label
 _atom_site_symmetry_multiplicity
 _atom_site_fract_x
 _atom_site_fract_y
 _atom_site_fract_z
 _atom_site_occupancy
  C  C0  1  0.25000000  0.82565700  0.55277600  1
  C  C1  1  0.25000000  0.32565700  0.94722400  1
  C  C2  1  0.75000000  0.17434300  0.44722400  1
  C  C3  1  0.75000000  0.67434300  0.05277600  1
  C  C4  1  0.95313700  0.50970200  0.68815100  1
  C  C5  1  0.54686300  0.00970200  0.81184900  1
  C  C6  1  0.45313700  0.49029800  0.31184900  1
  C  C7  1  0.04686300  0.99029800  0.18815100  1
  C  C8  1  0.04686300  0.49029800  0.31184900  1
  C  C9  1  0.45313700  0.99029800  0.18815100  1
  C  C10  1  0.54686300  0.50970200  0.68815100  1
  C  C11  1  0.95313700  0.00970200  0.81184900  1
  C  C12  1  0.75000000  0.33338700  0.68160400  1
  C  C13  1  0.75000000  0.83338700  0.81839600  1
  C  C14  1  0.25000000  0.66661300  0.31839600  1
  C  C15  1  0.25000000  0.16661300  0.18160400  1
  Ni  Ni16  1  0.25000000  0.67731800  0.71069600  1
  Ni  Ni17  1  0.25000000  0.17731800  0.78930400  1
  Ni  Ni18  1  0.75000000  0.32268200  0.28930400  1
  Ni  Ni19  1  0.75000000  0.82268200  0.21069600  1
  Ni  Ni20  1  0.75000000  0.67043300  0.49589300  1
  Ni  Ni21  1  0.75000000  0.17043300  0.00410700  1
  Ni  Ni22  1  0.25000000  0.32956700  0.50410700  1
  Ni  Ni23  1  0.25000000  0.82956700  0.99589300  1
  Ni  Ni24  1  0.75000000  0.02186400  0.60407300  1
  Ni  Ni25  1  0.75000000  0.52186400  0.89592700  1
  Ni  Ni26  1  0.25000000  0.97813600  0.39592700  1
  Ni  Ni27  1  0.25000000  0.47813600  0.10407300  1
  Cu  Cu28  1  0.75000000  0.44660400  0.66755900  1
  Cu  Cu29  1  0.75000000  0.94660400  0.83244100  1
  Cu  Cu30  1  0.25000000  0.55339600  0.33244100  1
  Cu  Cu31  1  0.25000000  0.05339600  0.16755900  1
