# generated using pymatgen
data_Cu12NiC24
_symmetry_space_group_name_H-M   'P 1'
_cell_length_a   3.13638616
_cell_length_b   9.72192075
_cell_length_c   13.12757420
_cell_angle_alpha   92.33559091
_cell_angle_beta   90.00022595
_cell_angle_gamma   90.00010357
_symmetry_Int_Tables_number   1
_chemical_formula_structural   Cu12NiC24
_chemical_formula_sum   'Cu12 Ni1 C24'
_cell_volume   399.94949900
_cell_formula_units_Z   1
loop_
 _symmetry_equiv_pos_site_id
 _symmetry_equiv_pos_as_xyz
  1  'x, y, z'
loop_
 _atom_site_type_symbol
 _atom_site_label
 _atom_site_symmetry_multiplicity
 _atom_site_fract_x
 _atom_site_fract_y
 _atom_site_fract_z
 _atom_site_occupancy
  Ni  Ni0  1  0.50001626  0.42660388  0.08975345  1
  Cu  Cu1  1  0.50000098  0.98424134  0.23386714  1
  Cu  Cu2  1  0.50000064  0.01108748  0.77617328  1
  Cu  Cu3  1  0.50000213  0.49564865  0.70865731  1
  Cu  Cu4  1  0.49999410  0.50148208  0.29577345  1
  Cu  Cu5  1  0.49999942  0.99831700  0.50419712  1
  Cu  Cu6  1  0.49999323  0.54729175  0.91969675  1
  Cu  Cu7  1  0.99999690  0.23768589  0.39808059  1
  Cu  Cu8  1  0.00000053  0.75986938  0.61055245  1
  Cu  Cu9  1  0.00000260  0.25718229  0.88996186  1
  Cu  Cu10  1  0.99999848  0.73959123  0.11840552  1
  Cu  Cu11  1  0.00000049  0.99452066  0.00448373  1
  Cu  Cu12  1  0.99999889  0.49888930  0.50300671  1
  C  C13  1  0.00000257  0.24149713  0.16113729  1
  C  C14  1  0.99999902  0.74914468  0.84789531  1
  C  C15  1  0.00000032  0.22702128  0.64088519  1
  C  C16  1  0.99999883  0.76932340  0.36677409  1
  C  C17  1  0.00001437  0.30699551  0.06639311  1
  C  C18  1  0.99999489  0.68491264  0.94368466  1
  C  C19  1  0.00000057  0.15179788  0.54846649  1
  C  C20  1  0.99999855  0.84426005  0.45935740  1
  C  C21  1  0.00000015  0.10268281  0.16123762  1
  C  C22  1  0.00000058  0.88911866  0.84858547  1
  C  C23  1  0.00000033  0.37183165  0.63895761  1
  C  C24  1  0.99999729  0.62453635  0.36719940  1
  C  C25  1  0.49999670  0.10843637  0.36924784  1
  C  C26  1  0.50000160  0.88917497  0.63971896  1
  C  C27  1  0.50000174  0.37797943  0.84211169  1
  C  C28  1  0.49999767  0.60513021  0.15509991  1
  C  C29  1  0.99998975  0.33332935  0.24623103  1
  C  C30  1  0.00000219  0.66194740  0.76032873  1
  C  C31  1  -0.00000028  0.16152596  0.73346970  1
  C  C32  1  0.00000063  0.83468607  0.27439497  1
  C  C33  1  0.49999730  0.38595596  0.42855561  1
  C  C34  1  0.50000021  0.61256191  0.57771459  1
  C  C35  1  0.50000171  0.11573224  0.92605310  1
  C  C36  1  0.49999966  0.87995316  0.08451588  1
