# generated using pymatgen
data_Cu2Ni2C15
_symmetry_space_group_name_H-M   'P 1'
_cell_length_a   10.59323098
_cell_length_b   10.59323098
_cell_length_c   10.59323098
_cell_angle_alpha   108.97226079
_cell_angle_beta   108.97226079
_cell_angle_gamma   110.47381642
_symmetry_Int_Tables_number   1
_chemical_formula_structural   Cu2Ni2C15
_chemical_formula_sum   'Cu8 Ni8 C60'
_cell_volume   914.87863754
_cell_formula_units_Z   4
loop_
 _symmetry_equiv_pos_site_id
 _symmetry_equiv_pos_as_xyz
  1  'x, y, z'
loop_
 _atom_site_type_symbol
 _atom_site_label
 _atom_site_symmetry_multiplicity
 _atom_site_fract_x
 _atom_site_fract_y
 _atom_site_fract_z
 _atom_site_occupancy
  C  C0  1  0.00000000  0.50000000  0.50000000  1
  C  C1  1  0.75000000  0.75000000  0.00000000  1
  C  C2  1  0.37500000  0.75229600  0.87729600  1
  C  C3  1  0.87500000  0.49770400  0.12270400  1
  C  C4  1  0.74770400  0.12500000  0.12270400  1
  C  C5  1  0.00229600  0.62500000  0.87729600  1
  C  C6  1  0.25000000  0.25000000  0.00000000  1
  C  C7  1  0.50000000  0.00000000  0.50000000  1
  C  C8  1  0.87500000  0.99770400  0.62270400  1
  C  C9  1  0.37500000  0.25229600  0.37729600  1
  C  C10  1  0.50229600  0.62500000  0.37729600  1
  C  C11  1  0.24770400  0.12500000  0.62270400  1
  Ni  Ni12  1  0.12500000  0.37500000  0.75000000  1
  Ni  Ni13  1  0.62500000  0.37500000  0.25000000  1
  Ni  Ni14  1  0.62500000  0.87500000  0.75000000  1
  Ni  Ni15  1  0.12500000  0.87500000  0.25000000  1
  Ni  Ni16  1  0.12500000  0.87500000  0.75000000  1
  Ni  Ni17  1  0.62500000  0.87500000  0.25000000  1
  Ni  Ni18  1  0.12500000  0.37500000  0.25000000  1
  Ni  Ni19  1  0.62500000  0.37500000  0.75000000  1
  Cu  Cu20  1  0.37500000  0.00384400  0.12884400  1
  Cu  Cu21  1  0.87500000  0.24615600  0.87115600  1
  Cu  Cu22  1  0.99615600  0.12500000  0.37115600  1
  Cu  Cu23  1  0.75384400  0.62500000  0.62884400  1
  Cu  Cu24  1  0.87500000  0.74615600  0.37115600  1
  Cu  Cu25  1  0.37500000  0.50384400  0.62884400  1
  Cu  Cu26  1  0.25384400  0.62500000  0.12884400  1
  Cu  Cu27  1  0.49615600  0.12500000  0.87115600  1
  C  C28  1  0.49817900  0.44490900  0.17505200  1
  C  C29  1  0.26985700  0.32312600  0.82494800  1
  C  C30  1  0.25182100  0.92687400  0.44673100  1
  C  C31  1  0.48014300  0.80509100  0.55326900  1
  C  C32  1  0.01231500  0.26243200  0.82383200  1
  C  C33  1  0.73768500  0.06151700  0.75011700  1
  C  C34  1  0.31140000  0.98756800  0.24988300  1
  C  C35  1  0.43860000  0.18848300  0.17616800  1
  C  C36  1  0.72035100  0.77072800  0.64643200  1
  C  C37  1  0.62570400  0.47927200  0.44962200  1
  C  C38  1  0.12429600  0.07391900  0.35356800  1
  C  C39  1  0.02964900  0.17608200  0.55037800  1
  C  C40  1  0.75182100  0.30509100  0.32494800  1
  C  C41  1  0.98014300  0.42687400  0.67505200  1
  C  C42  1  0.99817900  0.82312600  0.05326900  1
  C  C43  1  0.76985700  0.94490900  0.94673100  1
  C  C44  1  0.23768500  0.48756800  0.67616800  1
  C  C45  1  0.51231500  0.68848300  0.74988300  1
  C  C46  1  0.93860000  0.76243200  0.25011700  1
  C  C47  1  0.81140000  0.56151700  0.32383200  1
  C  C48  1  0.52964900  0.97927200  0.85356800  1
  C  C49  1  0.62429600  0.27072800  0.05037800  1
  C  C50  1  0.12570400  0.67608100  0.14643200  1
  C  C51  1  0.22035100  0.57391900  0.94962200  1
  C  C52  1  0.52072800  0.97035100  0.14643200  1
  C  C53  1  0.22927200  0.87570400  0.94962200  1
  C  C54  1  0.82391900  0.37429600  0.85356800  1
  C  C55  1  0.92608200  0.27964900  0.05037800  1
  C  C56  1  0.19490900  0.74817900  0.67505200  1
  C  C57  1  0.07312600  0.51985700  0.32494800  1
  C  C58  1  0.67687400  0.50182100  0.94673100  1
  C  C59  1  0.55509100  0.73014300  0.05326900  1
  C  C60  1  0.01243200  0.26231500  0.32383200  1
  C  C61  1  0.81151700  0.98768500  0.25011700  1
  C  C62  1  0.73756800  0.56140000  0.74988300  1
  C  C63  1  0.93848300  0.68860000  0.67616800  1
  C  C64  1  0.72927200  0.77964900  0.35356800  1
  C  C65  1  0.02072800  0.87429600  0.55037800  1
  C  C66  1  0.42608200  0.37570400  0.64643200  1
  C  C67  1  0.32391900  0.47035100  0.44962200  1
  C  C68  1  0.05509100  0.00182100  0.82494800  1
  C  C69  1  0.17687400  0.23014300  0.17505200  1
  C  C70  1  0.57312600  0.24817900  0.55326900  1
  C  C71  1  0.69490900  0.01985700  0.44673100  1
  C  C72  1  0.23756800  0.48768500  0.17616800  1
  C  C73  1  0.43848300  0.76231500  0.24988300  1
  C  C74  1  0.51243200  0.18860000  0.75011700  1
  C  C75  1  0.31151700  0.06140000  0.82383200  1
