# generated using pymatgen
data_Cu4(NiC3)3
_symmetry_space_group_name_H-M   'P 1'
_cell_length_a   9.16862340
_cell_length_b   9.16862340
_cell_length_c   9.16862328
_cell_angle_alpha   38.88120365
_cell_angle_beta   38.88120365
_cell_angle_gamma   38.88120524
_symmetry_Int_Tables_number   1
_chemical_formula_structural   Cu4(NiC3)3
_chemical_formula_sum   'Cu4 Ni3 C9'
_cell_volume   273.05027525
_cell_formula_units_Z   1
loop_
 _symmetry_equiv_pos_site_id
 _symmetry_equiv_pos_as_xyz
  1  'x, y, z'
loop_
 _atom_site_type_symbol
 _atom_site_label
 _atom_site_symmetry_multiplicity
 _atom_site_fract_x
 _atom_site_fract_y
 _atom_site_fract_z
 _atom_site_occupancy
  Ni  Ni0  1  0.99985200  0.99985200  0.99985200  1
  Ni  Ni1  1  0.83482000  0.83482000  0.83482000  1
  Ni  Ni2  1  0.42155300  0.42155300  0.42155300  1
  Cu  Cu3  1  0.57382100  0.57382100  0.57382100  1
  Cu  Cu4  1  0.13516400  0.13516400  0.13516400  1
  Cu  Cu5  1  0.26062200  0.26062200  0.26062200  1
  Cu  Cu6  1  0.69876300  0.69876300  0.69876300  1
  C  C7  1  0.42194300  0.95763300  0.53767900  1
  C  C8  1  0.95763300  0.53767900  0.42194300  1
  C  C9  1  0.53767900  0.42194300  0.95763300  1
  C  C10  1  0.30510800  0.87230200  0.40310100  1
  C  C11  1  0.87230200  0.40310100  0.30510800  1
  C  C12  1  0.40310100  0.30510800  0.87230200  1
  C  C13  1  0.41830400  0.85995500  0.97318000  1
  C  C14  1  0.97318000  0.41830400  0.85995500  1
  C  C15  1  0.85995500  0.97318000  0.41830400  1
