# generated using pymatgen
data_Cu8NiC19
_symmetry_space_group_name_H-M   'P 1'
_cell_length_a   12.75294065
_cell_length_b   12.75294065
_cell_length_c   12.75294021
_cell_angle_alpha   33.69452762
_cell_angle_beta   33.69452762
_cell_angle_gamma   33.69452654
_symmetry_Int_Tables_number   1
_chemical_formula_structural   Cu8NiC19
_chemical_formula_sum   'Cu8 Ni1 C19'
_cell_volume   568.70907446
_cell_formula_units_Z   1
loop_
 _symmetry_equiv_pos_site_id
 _symmetry_equiv_pos_as_xyz
  1  'x, y, z'
loop_
 _atom_site_type_symbol
 _atom_site_label
 _atom_site_symmetry_multiplicity
 _atom_site_fract_x
 _atom_site_fract_y
 _atom_site_fract_z
 _atom_site_occupancy
  Ni  Ni0  1  0.56236500  0.56236500  0.56236500  1
  Cu  Cu1  1  0.25129900  0.25129900  0.25129900  1
  Cu  Cu2  1  0.74974400  0.74974400  0.74974400  1
  Cu  Cu3  1  0.99767900  0.50266200  0.99767900  1
  Cu  Cu4  1  0.49916400  0.00259400  0.49916400  1
  Cu  Cu5  1  0.49916400  0.49916400  0.00259400  1
  Cu  Cu6  1  0.99767900  0.99767900  0.50266200  1
  Cu  Cu7  1  0.50266200  0.99767900  0.99767900  1
  Cu  Cu8  1  0.00259400  0.49916400  0.49916400  1
  C  C9  1  0.06247300  0.06247300  0.06247300  1
  C  C10  1  0.93758400  0.93758400  0.93758400  1
  C  C11  1  0.43752800  0.43752800  0.43752800  1
  C  C12  1  0.63031000  0.63031000  0.63031000  1
  C  C13  1  0.12899100  0.12899100  0.12899100  1
  C  C14  1  0.35965200  0.90058400  0.35965200  1
  C  C15  1  0.86329000  0.39440400  0.86329000  1
  C  C16  1  0.35965200  0.35965200  0.90058400  1
  C  C17  1  0.86329000  0.86329000  0.39440400  1
  C  C18  1  0.90058400  0.35965200  0.35965200  1
  C  C19  1  0.39440400  0.86329000  0.86329000  1
  C  C20  1  0.87093600  0.87093600  0.87093600  1
  C  C21  1  0.37112900  0.37112900  0.37112900  1
  C  C22  1  0.13663900  0.60588600  0.13663900  1
  C  C23  1  0.63667900  0.10530400  0.63667900  1
  C  C24  1  0.13663900  0.13663900  0.60588600  1
  C  C25  1  0.63667900  0.63667900  0.10530400  1
  C  C26  1  0.60588600  0.13663900  0.13663900  1
  C  C27  1  0.10530400  0.63667900  0.63667900  1
