# generated using pymatgen
data_Cu13Ni3C
_symmetry_space_group_name_H-M   'P 1'
_cell_length_a   11.76675249
_cell_length_b   12.95501494
_cell_length_c   13.48263510
_cell_angle_alpha   90.00000000
_cell_angle_beta   90.00000000
_cell_angle_gamma   90.00000000
_symmetry_Int_Tables_number   1
_chemical_formula_structural   Cu13Ni3C
_chemical_formula_sum   'Cu104 Ni24 C8'
_cell_volume   2055.27205458
_cell_formula_units_Z   8
loop_
 _symmetry_equiv_pos_site_id
 _symmetry_equiv_pos_as_xyz
  1  'x, y, z'
loop_
 _atom_site_type_symbol
 _atom_site_label
 _atom_site_symmetry_multiplicity
 _atom_site_fract_x
 _atom_site_fract_y
 _atom_site_fract_z
 _atom_site_occupancy
  C  C0  1  0.66412839  0.21562699  0.38102392  1
  C  C1  1  0.16412839  0.28437301  0.61897608  1
  C  C2  1  0.33587161  0.71562699  0.11897608  1
  C  C3  1  0.83587161  0.78437301  0.88102392  1
  C  C4  1  0.33587161  0.78437301  0.61897608  1
  C  C5  1  0.83587161  0.71562699  0.38102392  1
  C  C6  1  0.66412839  0.28437301  0.88102392  1
  C  C7  1  0.16412839  0.21562699  0.11897608  1
  Ni  Ni8  1  0.53246030  0.01515619  0.36256172  1
  Ni  Ni9  1  0.03246030  0.48484381  0.63743828  1
  Ni  Ni10  1  0.46753970  0.51515619  0.13743828  1
  Ni  Ni11  1  0.96753970  0.98484381  0.86256172  1
  Ni  Ni12  1  0.46753970  0.98484381  0.63743828  1
  Ni  Ni13  1  0.96753970  0.51515619  0.36256172  1
  Ni  Ni14  1  0.53246030  0.48484381  0.86256172  1
  Ni  Ni15  1  0.03246030  0.01515619  0.13743828  1
  Ni  Ni16  1  0.63081861  0.20333065  0.13602465  1
  Ni  Ni17  1  0.13081861  0.29666935  0.86397535  1
  Ni  Ni18  1  0.36918139  0.70333065  0.36397535  1
  Ni  Ni19  1  0.86918139  0.79666935  0.63602465  1
  Ni  Ni20  1  0.36918139  0.79666935  0.86397535  1
  Ni  Ni21  1  0.86918139  0.70333065  0.13602465  1
  Ni  Ni22  1  0.63081861  0.29666935  0.63602465  1
  Ni  Ni23  1  0.13081861  0.20333065  0.36397535  1
  Ni  Ni24  1  0.50497603  0.40720469  0.38305321  1
  Ni  Ni25  1  0.00497603  0.09279531  0.61694679  1
  Ni  Ni26  1  0.49502397  0.90720469  0.11694679  1
  Ni  Ni27  1  0.99502397  0.59279531  0.88305321  1
  Ni  Ni28  1  0.49502397  0.59279531  0.61694679  1
  Ni  Ni29  1  0.99502397  0.90720469  0.38305321  1
  Ni  Ni30  1  0.50497603  0.09279531  0.88305321  1
  Ni  Ni31  1  0.00497603  0.40720469  0.11694679  1
  Cu  Cu32  1  0.47068488  0.94152702  0.34387333  1
  Cu  Cu33  1  0.97068488  0.55847298  0.65612667  1
  Cu  Cu34  1  0.52931512  0.44152702  0.15612667  1
  Cu  Cu35  1  0.02931512  0.05847298  0.84387333  1
  Cu  Cu36  1  0.52931512  0.05847298  0.65612667  1
  Cu  Cu37  1  0.02931512  0.44152702  0.34387333  1
  Cu  Cu38  1  0.47068488  0.55847298  0.84387333  1
  Cu  Cu39  1  0.97068488  0.94152702  0.15612667  1
  Cu  Cu40  1  0.63613889  0.02038277  0.33371757  1
  Cu  Cu41  1  0.13613889  0.47961723  0.66628243  1
  Cu  Cu42  1  0.36386111  0.52038277  0.16628243  1
  Cu  Cu43  1  0.86386111  0.97961723  0.83371757  1
  Cu  Cu44  1  0.36386111  0.97961723  0.66628243  1
  Cu  Cu45  1  0.86386111  0.52038277  0.33371757  1
  Cu  Cu46  1  0.63613889  0.47961723  0.83371757  1
  Cu  Cu47  1  0.13613889  0.02038277  0.16628243  1
  Cu  Cu48  1  0.49641840  0.09364893  0.41203201  1
  Cu  Cu49  1  0.99641840  0.40635107  0.58796799  1
  Cu  Cu50  1  0.50358160  0.59364893  0.08796799  1
  Cu  Cu51  1  0.00358160  0.90635107  0.91203201  1
  Cu  Cu52  1  0.50358160  0.90635107  0.58796799  1
  Cu  Cu53  1  0.00358160  0.59364893  0.41203201  1
  Cu  Cu54  1  0.49641840  0.40635107  0.91203201  1
  Cu  Cu55  1  0.99641840  0.09364893  0.08796799  1
  Cu  Cu56  1  0.73150468  0.17586603  0.14798845  1
  Cu  Cu57  1  0.23150468  0.32413397  0.85201155  1
  Cu  Cu58  1  0.26849532  0.67586603  0.35201155  1
  Cu  Cu59  1  0.76849532  0.82413397  0.64798845  1
  Cu  Cu60  1  0.26849532  0.82413397  0.85201155  1
  Cu  Cu61  1  0.76849532  0.67586603  0.14798845  1
  Cu  Cu62  1  0.73150468  0.32413397  0.64798845  1
  Cu  Cu63  1  0.23150468  0.17586603  0.35201155  1
  Cu  Cu64  1  0.59081036  0.22441922  0.05180302  1
  Cu  Cu65  1  0.09081036  0.27558078  0.94819698  1
  Cu  Cu66  1  0.40918964  0.72441922  0.44819698  1
  Cu  Cu67  1  0.90918964  0.77558078  0.55180302  1
  Cu  Cu68  1  0.40918964  0.77558078  0.94819698  1
  Cu  Cu69  1  0.90918964  0.72441922  0.05180302  1
  Cu  Cu70  1  0.59081036  0.27558078  0.55180302  1
  Cu  Cu71  1  0.09081036  0.22441922  0.44819698  1
  Cu  Cu72  1  0.56556565  0.21059936  0.21103146  1
  Cu  Cu73  1  0.06556565  0.28940064  0.78896854  1
  Cu  Cu74  1  0.43443435  0.71059936  0.28896854  1
  Cu  Cu75  1  0.93443435  0.78940064  0.71103146  1
  Cu  Cu76  1  0.43443435  0.78940064  0.78896854  1
  Cu  Cu77  1  0.93443435  0.71059936  0.21103146  1
  Cu  Cu78  1  0.56556565  0.28940064  0.71103146  1
  Cu  Cu79  1  0.06556565  0.21059936  0.28896854  1
  Cu  Cu80  1  0.47078536  0.31402019  0.37387423  1
  Cu  Cu81  1  0.97078536  0.18597981  0.62612577  1
  Cu  Cu82  1  0.52921464  0.81402019  0.12612577  1
  Cu  Cu83  1  0.02921464  0.68597981  0.87387423  1
  Cu  Cu84  1  0.52921464  0.68597981  0.62612577  1
  Cu  Cu85  1  0.02921464  0.81402019  0.37387423  1
  Cu  Cu86  1  0.47078536  0.18597981  0.87387423  1
  Cu  Cu87  1  0.97078536  0.31402019  0.12612577  1
  Cu  Cu88  1  0.61156689  0.42232225  0.37841536  1
  Cu  Cu89  1  0.11156689  0.07767775  0.62158464  1
  Cu  Cu90  1  0.38843311  0.92232225  0.12158464  1
  Cu  Cu91  1  0.88843311  0.57767775  0.87841536  1
  Cu  Cu92  1  0.38843311  0.57767775  0.62158464  1
  Cu  Cu93  1  0.88843311  0.92232225  0.37841536  1
  Cu  Cu94  1  0.61156689  0.07767775  0.87841536  1
  Cu  Cu95  1  0.11156689  0.42232225  0.12158464  1
  Cu  Cu96  1  0.43681654  0.47796170  0.39669258  1
  Cu  Cu97  1  0.93681654  0.02203830  0.60330742  1
  Cu  Cu98  1  0.56318346  0.97796170  0.10330742  1
  Cu  Cu99  1  0.06318346  0.52203830  0.89669258  1
  Cu  Cu100  1  0.56318346  0.52203830  0.60330742  1
  Cu  Cu101  1  0.06318346  0.97796170  0.39669258  1
  Cu  Cu102  1  0.43681654  0.02203830  0.89669258  1
  Cu  Cu103  1  0.93681654  0.47796170  0.10330742  1
  Cu  Cu104  1  0.74331904  0.10244611  0.48778562  1
  Cu  Cu105  1  0.24331904  0.39755389  0.51221438  1
  Cu  Cu106  1  0.25668096  0.60244611  0.01221438  1
  Cu  Cu107  1  0.75668096  0.89755389  0.98778562  1
  Cu  Cu108  1  0.25668096  0.89755389  0.51221438  1
  Cu  Cu109  1  0.75668096  0.60244611  0.48778562  1
  Cu  Cu110  1  0.74331904  0.39755389  0.98778562  1
  Cu  Cu111  1  0.24331904  0.10244611  0.01221438  1
  Cu  Cu112  1  0.83622125  0.14230578  0.35491660  1
  Cu  Cu113  1  0.33622125  0.35769422  0.64508340  1
  Cu  Cu114  1  0.16377875  0.64230578  0.14508340  1
  Cu  Cu115  1  0.66377875  0.85769422  0.85491660  1
  Cu  Cu116  1  0.16377875  0.85769422  0.64508340  1
  Cu  Cu117  1  0.66377875  0.64230578  0.35491660  1
  Cu  Cu118  1  0.83622125  0.35769422  0.85491660  1
  Cu  Cu119  1  0.33622125  0.14230578  0.14508340  1
  Cu  Cu120  1  0.81743726  0.28899744  0.44227031  1
  Cu  Cu121  1  0.31743726  0.21100256  0.55772969  1
  Cu  Cu122  1  0.18256274  0.78899744  0.05772969  1
  Cu  Cu123  1  0.68256274  0.71100256  0.94227031  1
  Cu  Cu124  1  0.18256274  0.71100256  0.55772969  1
  Cu  Cu125  1  0.68256274  0.78899744  0.44227031  1
  Cu  Cu126  1  0.81743726  0.21100256  0.94227031  1
  Cu  Cu127  1  0.31743726  0.28899744  0.05772969  1
  Cu  Cu128  1  0.77676452  0.31771504  0.28709821  1
  Cu  Cu129  1  0.27676452  0.18228496  0.71290179  1
  Cu  Cu130  1  0.22323548  0.81771504  0.21290179  1
  Cu  Cu131  1  0.72323548  0.68228496  0.78709821  1
  Cu  Cu132  1  0.22323548  0.68228496  0.71290179  1
  Cu  Cu133  1  0.72323548  0.81771504  0.28709821  1
  Cu  Cu134  1  0.77676452  0.18228496  0.78709821  1
  Cu  Cu135  1  0.27676452  0.31771504  0.21290179  1
