# generated using pymatgen
data_Cu4NiC2
_symmetry_space_group_name_H-M   'P 1'
_cell_length_a   6.88698600
_cell_length_b   6.88698600
_cell_length_c   3.63502100
_cell_angle_alpha   90.00000000
_cell_angle_beta   90.00000000
_cell_angle_gamma   90.00000000
_symmetry_Int_Tables_number   1
_chemical_formula_structural   Cu4NiC2
_chemical_formula_sum   'Cu8 Ni2 C4'
_cell_volume   172.41114040
_cell_formula_units_Z   2
loop_
 _symmetry_equiv_pos_site_id
 _symmetry_equiv_pos_as_xyz
  1  'x, y, z'
loop_
 _atom_site_type_symbol
 _atom_site_label
 _atom_site_symmetry_multiplicity
 _atom_site_fract_x
 _atom_site_fract_y
 _atom_site_fract_z
 _atom_site_occupancy
  Ni  Ni0  1  0.50000000  0.50000000  0.00000000  1
  Ni  Ni1  1  0.00000000  0.00000000  0.50000000  1
  Cu  Cu2  1  0.58654300  0.15814900  0.50000000  1
  Cu  Cu3  1  0.41345700  0.84185100  0.50000000  1
  Cu  Cu4  1  0.08654300  0.34185100  0.00000000  1
  Cu  Cu5  1  0.91345700  0.65814900  0.00000000  1
  Cu  Cu6  1  0.15814900  0.58654300  0.50000000  1
  Cu  Cu7  1  0.84185100  0.41345700  0.50000000  1
  Cu  Cu8  1  0.34185100  0.08654300  0.00000000  1
  Cu  Cu9  1  0.65814900  0.91345700  0.00000000  1
  C  C10  1  0.71700800  0.71700800  0.50000000  1
  C  C11  1  0.28299200  0.28299200  0.50000000  1
  C  C12  1  0.21700800  0.78299200  0.00000000  1
  C  C13  1  0.78299200  0.21700800  0.00000000  1
