# generated using pymatgen
data_Cu8NiC6
_symmetry_space_group_name_H-M   'P 1'
_cell_length_a   6.99269500
_cell_length_b   8.17810900
_cell_length_c   9.55342500
_cell_angle_alpha   90.00000000
_cell_angle_beta   90.00000000
_cell_angle_gamma   90.00000000
_symmetry_Int_Tables_number   1
_chemical_formula_structural   Cu8NiC6
_chemical_formula_sum   'Cu16 Ni2 C12'
_cell_volume   546.33192483
_cell_formula_units_Z   2
loop_
 _symmetry_equiv_pos_site_id
 _symmetry_equiv_pos_as_xyz
  1  'x, y, z'
loop_
 _atom_site_type_symbol
 _atom_site_label
 _atom_site_symmetry_multiplicity
 _atom_site_fract_x
 _atom_site_fract_y
 _atom_site_fract_z
 _atom_site_occupancy
  C  C0  1  0.67865300  0.50000000  0.50000000  1
  C  C1  1  0.32134700  0.00000000  0.00000000  1
  C  C2  1  0.00000000  0.25000000  0.75000000  1
  C  C3  1  0.00000000  0.25000000  0.25000000  1
  C  C4  1  0.00000000  0.75000000  0.75000000  1
  C  C5  1  0.85031100  0.00000000  0.00000000  1
  C  C6  1  0.14968900  0.50000000  0.50000000  1
  C  C7  1  0.00000000  0.75000000  0.25000000  1
  C  C8  1  0.54581700  0.00000000  0.69037200  1
  C  C9  1  0.45418300  0.50000000  0.80962800  1
  C  C10  1  0.54581700  0.00000000  0.30962800  1
  C  C11  1  0.45418300  0.50000000  0.19037200  1
  Ni  Ni12  1  0.92089900  0.50000000  0.00000000  1
  Ni  Ni13  1  0.07910100  0.00000000  0.50000000  1
  Cu  Cu14  1  0.86007400  0.50000000  0.63985300  1
  Cu  Cu15  1  0.47392900  0.50000000  0.62334700  1
  Cu  Cu16  1  0.52607100  0.00000000  0.12334700  1
  Cu  Cu17  1  0.69204800  0.16570600  0.66965200  1
  Cu  Cu18  1  0.30795200  0.33429400  0.16965200  1
  Cu  Cu19  1  0.30795200  0.66570600  0.16965200  1
  Cu  Cu20  1  0.13992600  0.00000000  0.86014700  1
  Cu  Cu21  1  0.69204800  0.83429400  0.66965200  1
  Cu  Cu22  1  0.69204800  0.83429400  0.33034800  1
  Cu  Cu23  1  0.30795200  0.66570600  0.83034800  1
  Cu  Cu24  1  0.86007400  0.50000000  0.36014700  1
  Cu  Cu25  1  0.13992600  0.00000000  0.13985300  1
  Cu  Cu26  1  0.30795200  0.33429400  0.83034800  1
  Cu  Cu27  1  0.69204800  0.16570600  0.33034800  1
  Cu  Cu28  1  0.52607100  0.00000000  0.87665300  1
  Cu  Cu29  1  0.47392900  0.50000000  0.37665300  1
