# generated using pymatgen
data_Cu19Ni8C5
_symmetry_space_group_name_H-M   'P 1'
_cell_length_a   10.70034583
_cell_length_b   10.70034583
_cell_length_c   12.27366200
_cell_angle_alpha   90.00000000
_cell_angle_beta   90.00000000
_cell_angle_gamma   137.93351781
_symmetry_Int_Tables_number   1
_chemical_formula_structural   Cu19Ni8C5
_chemical_formula_sum   'Cu38 Ni16 C10'
_cell_volume   941.54199854
_cell_formula_units_Z   2
loop_
 _symmetry_equiv_pos_site_id
 _symmetry_equiv_pos_as_xyz
  1  'x, y, z'
loop_
 _atom_site_type_symbol
 _atom_site_label
 _atom_site_symmetry_multiplicity
 _atom_site_fract_x
 _atom_site_fract_y
 _atom_site_fract_z
 _atom_site_occupancy
  C  C0  1  0.44375500  0.92028300  0.84180600  1
  C  C1  1  0.92028300  0.44375500  0.15819400  1
  C  C2  1  0.55624500  0.07971700  0.34180600  1
  C  C3  1  0.07971700  0.55624500  0.65819400  1
  C  C4  1  0.36864600  0.36864600  0.50000000  1
  C  C5  1  0.63135400  0.63135400  0.00000000  1
  C  C6  1  0.92549000  0.07451000  0.75000000  1
  C  C7  1  0.07451000  0.92549000  0.25000000  1
  C  C8  1  0.10948200  0.89051800  0.75000000  1
  C  C9  1  0.89051800  0.10948200  0.25000000  1
  Ni  Ni10  1  0.32635700  0.28014800  0.84092100  1
  Ni  Ni11  1  0.28014800  0.32635700  0.15907900  1
  Ni  Ni12  1  0.67364300  0.71985200  0.34092100  1
  Ni  Ni13  1  0.71985200  0.67364300  0.65907900  1
  Ni  Ni14  1  0.27611100  0.01927100  0.51628200  1
  Ni  Ni15  1  0.01927100  0.27611100  0.48371800  1
  Ni  Ni16  1  0.72388900  0.98072900  0.01628200  1
  Ni  Ni17  1  0.98072900  0.72388900  0.98371800  1
  Ni  Ni18  1  0.46045700  0.26624900  0.85990900  1
  Ni  Ni19  1  0.26624900  0.46045700  0.14009100  1
  Ni  Ni20  1  0.53954300  0.73375100  0.35990900  1
  Ni  Ni21  1  0.73375100  0.53954300  0.64009100  1
  Ni  Ni22  1  0.35358900  0.95380700  0.56527100  1
  Ni  Ni23  1  0.95380700  0.35358900  0.43472900  1
  Ni  Ni24  1  0.64641100  0.04619300  0.06527100  1
  Ni  Ni25  1  0.04619300  0.64641100  0.93472900  1
  Cu  Cu26  1  0.17694700  0.13803100  0.78763200  1
  Cu  Cu27  1  0.13803100  0.17694700  0.21236800  1
  Cu  Cu28  1  0.82305300  0.86196900  0.28763200  1
  Cu  Cu29  1  0.86196900  0.82305300  0.71236800  1
  Cu  Cu30  1  0.18191400  0.01664900  0.58466300  1
  Cu  Cu31  1  0.01664900  0.18191400  0.41533700  1
  Cu  Cu32  1  0.81808600  0.98335100  0.08466300  1
  Cu  Cu33  1  0.98335100  0.81808600  0.91533700  1
  Cu  Cu34  1  0.38964800  0.10823200  0.82736800  1
  Cu  Cu35  1  0.10823200  0.38964800  0.17263200  1
  Cu  Cu36  1  0.61035200  0.89176800  0.32736800  1
  Cu  Cu37  1  0.89176800  0.61035200  0.67263200  1
  Cu  Cu38  1  0.28587000  0.87869700  0.66160000  1
  Cu  Cu39  1  0.87869700  0.28587000  0.33840000  1
  Cu  Cu40  1  0.71413000  0.12130300  0.16160000  1
  Cu  Cu41  1  0.12130300  0.71413000  0.83840000  1
  Cu  Cu42  1  0.36660300  0.41525900  0.87432100  1
  Cu  Cu43  1  0.41525900  0.36660300  0.12567900  1
  Cu  Cu44  1  0.63339700  0.58474100  0.37432100  1
  Cu  Cu45  1  0.58474100  0.63339700  0.62567900  1
  Cu  Cu46  1  0.30743900  0.06984700  0.41927700  1
  Cu  Cu47  1  0.06984700  0.30743900  0.58072300  1
  Cu  Cu48  1  0.69256100  0.93015300  0.91927700  1
  Cu  Cu49  1  0.93015300  0.69256100  0.08072300  1
  Cu  Cu50  1  0.61504100  0.39969800  0.90052400  1
  Cu  Cu51  1  0.39969800  0.61504100  0.09947600  1
  Cu  Cu52  1  0.38495900  0.60030200  0.40052400  1
  Cu  Cu53  1  0.60030200  0.38495900  0.59947600  1
  Cu  Cu54  1  0.46536200  0.97048100  0.51523400  1
  Cu  Cu55  1  0.97048100  0.46536200  0.48476600  1
  Cu  Cu56  1  0.53463800  0.02951900  0.01523400  1
  Cu  Cu57  1  0.02951900  0.53463800  0.98476600  1
  Cu  Cu58  1  0.78258700  0.21741300  0.75000000  1
  Cu  Cu59  1  0.21741300  0.78258700  0.25000000  1
  Cu  Cu60  1  0.68714700  0.05178000  0.70968500  1
  Cu  Cu61  1  0.05178000  0.68714700  0.29031500  1
  Cu  Cu62  1  0.31285300  0.94822000  0.20968500  1
  Cu  Cu63  1  0.94822000  0.31285300  0.79031500  1
