# generated using pymatgen
data_Cu2Ni3C
_symmetry_space_group_name_H-M   'P 1'
_cell_length_a   7.07940200
_cell_length_b   7.07940200
_cell_length_c   7.07940200
_cell_angle_alpha   90.00000000
_cell_angle_beta   90.00000000
_cell_angle_gamma   90.00000000
_symmetry_Int_Tables_number   1
_chemical_formula_structural   Cu2Ni3C
_chemical_formula_sum   'Cu8 Ni12 C4'
_cell_volume   354.80499283
_cell_formula_units_Z   4
loop_
 _symmetry_equiv_pos_site_id
 _symmetry_equiv_pos_as_xyz
  1  'x, y, z'
loop_
 _atom_site_type_symbol
 _atom_site_label
 _atom_site_symmetry_multiplicity
 _atom_site_fract_x
 _atom_site_fract_y
 _atom_site_fract_z
 _atom_site_occupancy
  Ni  Ni0  1  0.79549800  0.95450200  0.37500000  1
  Ni  Ni1  1  0.70450200  0.04549800  0.87500000  1
  Ni  Ni2  1  0.20450200  0.45450200  0.12500000  1
  Ni  Ni3  1  0.29549800  0.54549800  0.62500000  1
  Ni  Ni4  1  0.95450200  0.37500000  0.79549800  1
  Ni  Ni5  1  0.04549800  0.87500000  0.70450200  1
  Ni  Ni6  1  0.45450200  0.12500000  0.20450200  1
  Ni  Ni7  1  0.54549800  0.62500000  0.29549800  1
  Ni  Ni8  1  0.37500000  0.79549800  0.95450200  1
  Ni  Ni9  1  0.87500000  0.70450200  0.04549800  1
  Ni  Ni10  1  0.12500000  0.20450200  0.45450200  1
  Ni  Ni11  1  0.62500000  0.29549800  0.54549800  1
  Cu  Cu12  1  0.17918300  0.82081700  0.32081700  1
  Cu  Cu13  1  0.32081700  0.17918300  0.82081700  1
  Cu  Cu14  1  0.82081700  0.32081700  0.17918300  1
  Cu  Cu15  1  0.67918300  0.67918300  0.67918300  1
  Cu  Cu16  1  0.57081700  0.42918300  0.92918300  1
  Cu  Cu17  1  0.42918300  0.92918300  0.57081700  1
  Cu  Cu18  1  0.92918300  0.57081700  0.42918300  1
  Cu  Cu19  1  0.07081700  0.07081700  0.07081700  1
  C  C20  1  0.87500000  0.12500000  0.62500000  1
  C  C21  1  0.62500000  0.87500000  0.12500000  1
  C  C22  1  0.12500000  0.62500000  0.87500000  1
  C  C23  1  0.37500000  0.37500000  0.37500000  1
