# generated using pymatgen
data_Cu2NiC4
_symmetry_space_group_name_H-M   'P 1'
_cell_length_a   6.30584419
_cell_length_b   6.30584419
_cell_length_c   6.30584436
_cell_angle_alpha   61.36555054
_cell_angle_beta   61.36555054
_cell_angle_gamma   61.36555237
_symmetry_Int_Tables_number   1
_chemical_formula_structural   Cu2NiC4
_chemical_formula_sum   'Cu4 Ni2 C8'
_cell_volume   182.74241617
_cell_formula_units_Z   2
loop_
 _symmetry_equiv_pos_site_id
 _symmetry_equiv_pos_as_xyz
  1  'x, y, z'
loop_
 _atom_site_type_symbol
 _atom_site_label
 _atom_site_symmetry_multiplicity
 _atom_site_fract_x
 _atom_site_fract_y
 _atom_site_fract_z
 _atom_site_occupancy
  Ni  Ni0  1  0.00802300  0.00802300  0.00802300  1
  Ni  Ni1  1  0.62636000  0.62636000  0.62636000  1
  Cu  Cu2  1  0.24369300  0.24369300  0.24369300  1
  Cu  Cu3  1  0.62609700  0.12300400  0.62609700  1
  Cu  Cu4  1  0.62609700  0.62609700  0.12300400  1
  Cu  Cu5  1  0.12300400  0.62609700  0.62609700  1
  C  C6  1  0.82574900  0.38769900  0.38769900  1
  C  C7  1  0.38769900  0.38769900  0.82574900  1
  C  C8  1  0.38769900  0.82574900  0.38769900  1
  C  C9  1  0.37983300  0.37983300  0.37983300  1
  C  C10  1  0.87896100  0.87896100  0.87896100  1
  C  C11  1  0.86665900  0.40346900  0.86665900  1
  C  C12  1  0.86665900  0.86665900  0.40346900  1
  C  C13  1  0.40346900  0.86665900  0.86665900  1
