# generated using pymatgen
data_Cu20NiC9
_symmetry_space_group_name_H-M   'P 1'
_cell_length_a   8.36189300
_cell_length_b   18.59299600
_cell_length_c   13.01618562
_cell_angle_alpha   90.00000000
_cell_angle_beta   129.96879438
_cell_angle_gamma   90.00000000
_symmetry_Int_Tables_number   1
_chemical_formula_structural   Cu20NiC9
_chemical_formula_sum   'Cu80 Ni4 C36'
_cell_volume   1550.92232638
_cell_formula_units_Z   4
loop_
 _symmetry_equiv_pos_site_id
 _symmetry_equiv_pos_as_xyz
  1  'x, y, z'
loop_
 _atom_site_type_symbol
 _atom_site_label
 _atom_site_symmetry_multiplicity
 _atom_site_fract_x
 _atom_site_fract_y
 _atom_site_fract_z
 _atom_site_occupancy
  C  C0  1  0.50211200  0.70231400  0.65982000  1
  C  C1  1  0.50211200  0.79768600  0.15982000  1
  C  C2  1  0.49788800  0.29768600  0.34018000  1
  C  C3  1  0.49788800  0.20231400  0.84018000  1
  C  C4  1  0.60686200  0.75625200  0.92105400  1
  C  C5  1  0.60686200  0.74374800  0.42105400  1
  C  C6  1  0.39313800  0.24374800  0.07894600  1
  C  C7  1  0.39313800  0.25625200  0.57894600  1
  C  C8  1  0.07475700  0.75426700  0.38797700  1
  C  C9  1  0.07475700  0.74573300  0.88797700  1
  C  C10  1  0.92524300  0.24573300  0.61202300  1
  C  C11  1  0.92524300  0.25426700  0.11202300  1
  C  C12  1  0.34374600  0.52799000  0.53376200  1
  C  C13  1  0.34374600  0.97201000  0.03376200  1
  C  C14  1  0.65625400  0.47201000  0.46623800  1
  C  C15  1  0.65625400  0.02799000  0.96623800  1
  C  C16  1  0.67937600  0.51651300  0.75525000  1
  C  C17  1  0.67937600  0.98348700  0.25525000  1
  C  C18  1  0.32062400  0.48348700  0.24475000  1
  C  C19  1  0.32062400  0.01651300  0.74475000  1
  C  C20  1  0.96926400  0.78837800  0.52215700  1
  C  C21  1  0.96926400  0.71162200  0.02215700  1
  C  C22  1  0.03073600  0.21162200  0.47784300  1
  C  C23  1  0.03073600  0.28837800  0.97784300  1
  C  C24  1  0.88964000  0.70637000  0.65530700  1
  C  C25  1  0.88964000  0.79363000  0.15530700  1
  C  C26  1  0.11036000  0.29363000  0.34469300  1
  C  C27  1  0.11036000  0.20637000  0.84469300  1
  C  C28  1  0.23026000  0.71075000  0.28477600  1
  C  C29  1  0.23026000  0.78925000  0.78477600  1
  C  C30  1  0.76974000  0.28925000  0.71522400  1
  C  C31  1  0.76974000  0.21075000  0.21522400  1
  C  C32  1  0.13307000  0.59861700  0.15208400  1
  C  C33  1  0.13307000  0.90138300  0.65208400  1
  C  C34  1  0.86693000  0.40138300  0.84791600  1
  C  C35  1  0.86693000  0.09861700  0.34791600  1
  Ni  Ni36  1  0.62899100  0.88995600  0.64011300  1
  Ni  Ni37  1  0.62899100  0.61004400  0.14011300  1
  Ni  Ni38  1  0.37100900  0.11004400  0.35988700  1
  Ni  Ni39  1  0.37100900  0.38995600  0.85988700  1
  Cu  Cu40  1  0.97967400  0.63822600  0.66478400  1
  Cu  Cu41  1  0.97967400  0.86177400  0.16478400  1
  Cu  Cu42  1  0.02032600  0.36177400  0.33521600  1
  Cu  Cu43  1  0.02032600  0.13822600  0.83521600  1
  Cu  Cu44  1  0.02414600  0.75972100  0.65280100  1
  Cu  Cu45  1  0.02414600  0.74027900  0.15280100  1
  Cu  Cu46  1  0.97585400  0.24027900  0.34719900  1
  Cu  Cu47  1  0.97585400  0.25972100  0.84719900  1
  Cu  Cu48  1  0.74870000  0.72812300  0.91071600  1
  Cu  Cu49  1  0.74870000  0.77187700  0.41071600  1
  Cu  Cu50  1  0.25130000  0.27187700  0.08928400  1
  Cu  Cu51  1  0.25130000  0.22812300  0.58928400  1
  Cu  Cu52  1  0.23817500  0.73042800  0.39688500  1
  Cu  Cu53  1  0.23817500  0.76957200  0.89688500  1
  Cu  Cu54  1  0.76182500  0.26957200  0.60311500  1
  Cu  Cu55  1  0.76182500  0.23042800  0.10311500  1
  Cu  Cu56  1  0.66761300  0.71412500  0.53810600  1
  Cu  Cu57  1  0.66761300  0.78587500  0.03810600  1
  Cu  Cu58  1  0.33238700  0.28587500  0.46189400  1
  Cu  Cu59  1  0.33238700  0.21412500  0.96189400  1
  Cu  Cu60  1  0.89669100  0.71781300  0.76984500  1
  Cu  Cu61  1  0.89669100  0.78218700  0.26984500  1
  Cu  Cu62  1  0.10330900  0.28218700  0.23015500  1
  Cu  Cu63  1  0.10330900  0.21781300  0.73015500  1
  Cu  Cu64  1  0.40553700  0.75388400  0.80277600  1
  Cu  Cu65  1  0.40553700  0.74611600  0.30277600  1
  Cu  Cu66  1  0.59446300  0.24611600  0.19722400  1
  Cu  Cu67  1  0.59446300  0.25388400  0.69722400  1
  Cu  Cu68  1  0.10418700  0.74918100  0.50409200  1
  Cu  Cu69  1  0.10418700  0.75081900  0.00409200  1
  Cu  Cu70  1  0.89581300  0.25081900  0.49590800  1
  Cu  Cu71  1  0.89581300  0.24918100  0.99590800  1
  Cu  Cu72  1  0.52913100  0.82265200  0.65320900  1
  Cu  Cu73  1  0.52913100  0.67734800  0.15320900  1
  Cu  Cu74  1  0.47086900  0.17734800  0.34679100  1
  Cu  Cu75  1  0.47086900  0.32265200  0.84679100  1
  Cu  Cu76  1  0.68249700  0.59121000  0.77093200  1
  Cu  Cu77  1  0.68249700  0.90879000  0.27093200  1
  Cu  Cu78  1  0.31750300  0.40879000  0.22906800  1
  Cu  Cu79  1  0.31750300  0.09121000  0.72906800  1
  Cu  Cu80  1  0.36035000  0.61586900  0.70066700  1
  Cu  Cu81  1  0.36035000  0.88413100  0.20066700  1
  Cu  Cu82  1  0.63965000  0.38413100  0.29933300  1
  Cu  Cu83  1  0.63965000  0.11586900  0.79933300  1
  Cu  Cu84  1  0.50309500  0.48658100  0.63786800  1
  Cu  Cu85  1  0.50309500  0.01341900  0.13786800  1
  Cu  Cu86  1  0.49690500  0.51341900  0.36213200  1
  Cu  Cu87  1  0.49690500  0.98658100  0.86213200  1
  Cu  Cu88  1  0.36056300  0.60236500  0.53234400  1
  Cu  Cu89  1  0.36056300  0.89763500  0.03234400  1
  Cu  Cu90  1  0.63943700  0.39763500  0.46765600  1
  Cu  Cu91  1  0.63943700  0.10236500  0.96765600  1
  Cu  Cu92  1  0.00755800  0.86426200  0.53348900  1
  Cu  Cu93  1  0.00755800  0.63573800  0.03348900  1
  Cu  Cu94  1  0.99244200  0.13573800  0.46651100  1
  Cu  Cu95  1  0.99244200  0.36426200  0.96651100  1
  Cu  Cu96  1  0.23353800  0.63480300  0.27067200  1
  Cu  Cu97  1  0.23353800  0.86519700  0.77067200  1
  Cu  Cu98  1  0.76646200  0.36519700  0.72932800  1
  Cu  Cu99  1  0.76646200  0.13480300  0.22932800  1
  Cu  Cu100  1  0.84432500  0.47499900  0.85142500  1
  Cu  Cu101  1  0.84432500  0.02500100  0.35142500  1
  Cu  Cu102  1  0.15567500  0.52500100  0.14857500  1
  Cu  Cu103  1  0.15567500  0.97499900  0.64857500  1
  Cu  Cu104  1  0.16409000  0.49919000  0.42281300  1
  Cu  Cu105  1  0.16409000  0.00081000  0.92281300  1
  Cu  Cu106  1  0.83591000  0.50081000  0.57718700  1
  Cu  Cu107  1  0.83591000  0.99919000  0.07718700  1
  Cu  Cu108  1  0.51560400  0.95068400  0.63021300  1
  Cu  Cu109  1  0.51560400  0.54931600  0.13021300  1
  Cu  Cu110  1  0.48439600  0.04931600  0.36978700  1
  Cu  Cu111  1  0.48439600  0.45068400  0.86978700  1
  Cu  Cu112  1  0.60223000  0.87833700  0.52046500  1
  Cu  Cu113  1  0.60223000  0.62166300  0.02046500  1
  Cu  Cu114  1  0.39777000  0.12166300  0.47953500  1
  Cu  Cu115  1  0.39777000  0.37833700  0.97953500  1
  Cu  Cu116  1  0.84484000  0.88960400  0.75958100  1
  Cu  Cu117  1  0.84484000  0.61039600  0.25958100  1
  Cu  Cu118  1  0.15516000  0.11039600  0.24041900  1
  Cu  Cu119  1  0.15516000  0.38960400  0.74041900  1
