# generated using pymatgen
data_Cu4NiC11
_symmetry_space_group_name_H-M   'P 1'
_cell_length_a   5.92271800
_cell_length_b   7.77779700
_cell_length_c   11.89373000
_cell_angle_alpha   90.00000000
_cell_angle_beta   90.00000000
_cell_angle_gamma   90.00000000
_symmetry_Int_Tables_number   1
_chemical_formula_structural   Cu4NiC11
_chemical_formula_sum   'Cu16 Ni4 C44'
_cell_volume   547.89297775
_cell_formula_units_Z   4
loop_
 _symmetry_equiv_pos_site_id
 _symmetry_equiv_pos_as_xyz
  1  'x, y, z'
loop_
 _atom_site_type_symbol
 _atom_site_label
 _atom_site_symmetry_multiplicity
 _atom_site_fract_x
 _atom_site_fract_y
 _atom_site_fract_z
 _atom_site_occupancy
  C  C0  1  0.25458800  0.67323700  0.43484800  1
  C  C1  1  0.75458800  0.32676300  0.56515200  1
  C  C2  1  0.75458800  0.82676300  0.93484800  1
  C  C3  1  0.25458800  0.17323700  0.06515200  1
  C  C4  1  0.23458900  0.77724800  0.12317900  1
  C  C5  1  0.73458900  0.22275200  0.87682100  1
  C  C6  1  0.73458900  0.72275200  0.62317900  1
  C  C7  1  0.23458900  0.27724800  0.37682100  1
  C  C8  1  0.23971600  0.56352800  0.15550300  1
  C  C9  1  0.73971600  0.43647200  0.84449700  1
  C  C10  1  0.73971600  0.93647200  0.65550300  1
  C  C11  1  0.23971600  0.06352800  0.34449700  1
  C  C12  1  0.08896400  0.63658200  0.04382800  1
  C  C13  1  0.58896400  0.36341800  0.95617200  1
  C  C14  1  0.58896400  0.86341800  0.54382800  1
  C  C15  1  0.08896400  0.13658200  0.45617200  1
  C  C16  1  0.37037900  0.64072000  0.03806200  1
  C  C17  1  0.87037900  0.35928000  0.96193800  1
  C  C18  1  0.87037900  0.85928000  0.53806200  1
  C  C19  1  0.37037900  0.14072000  0.46193800  1
  C  C20  1  0.21400000  0.08104700  0.71053000  1
  C  C21  1  0.71400000  0.91895300  0.28947000  1
  C  C22  1  0.71400000  0.41895300  0.21053000  1
  C  C23  1  0.21400000  0.58104700  0.78947000  1
  C  C24  1  0.38202900  0.01197500  0.81773000  1
  C  C25  1  0.88202900  0.98802500  0.18227000  1
  C  C26  1  0.88202900  0.48802500  0.31773000  1
  C  C27  1  0.38202900  0.51197500  0.68227000  1
  C  C28  1  0.10049800  0.98678600  0.82459900  1
  C  C29  1  0.60049800  0.01321400  0.17540100  1
  C  C30  1  0.60049800  0.51321400  0.32459900  1
  C  C31  1  0.10049800  0.48678600  0.67540100  1
  C  C32  1  0.25201400  0.87251100  0.73077900  1
  C  C33  1  0.75201400  0.12748900  0.26922100  1
  C  C34  1  0.75201400  0.62748900  0.23077900  1
  C  C35  1  0.25201400  0.37251100  0.76922100  1
  C  C36  1  0.73799600  0.51119000  0.27158700  1
  C  C37  1  0.23799600  0.48881000  0.72841300  1
  C  C38  1  0.23799600  0.98881000  0.77158700  1
  C  C39  1  0.73799600  0.01119000  0.22841300  1
  C  C40  1  0.23315500  0.65285500  0.09121300  1
  C  C41  1  0.73315500  0.34714500  0.90878700  1
  C  C42  1  0.73315500  0.84714500  0.59121300  1
  C  C43  1  0.23315500  0.15285500  0.40878700  1
  Ni  Ni44  1  0.45185700  0.80251300  0.38307800  1
  Ni  Ni45  1  0.95185700  0.19748700  0.61692200  1
  Ni  Ni46  1  0.95185700  0.69748700  0.88307800  1
  Ni  Ni47  1  0.45185700  0.30251300  0.11692200  1
  Cu  Cu48  1  0.22508900  0.00234200  0.18610100  1
  Cu  Cu49  1  0.72508900  0.99765800  0.81389900  1
  Cu  Cu50  1  0.72508900  0.49765800  0.68610100  1
  Cu  Cu51  1  0.22508900  0.50234200  0.31389900  1
  Cu  Cu52  1  0.71592500  0.72269300  0.08222600  1
  Cu  Cu53  1  0.21592500  0.27730700  0.91777400  1
  Cu  Cu54  1  0.21592500  0.77730700  0.58222600  1
  Cu  Cu55  1  0.71592500  0.22269300  0.41777400  1
  Cu  Cu56  1  0.46617600  0.50365900  0.50226600  1
  Cu  Cu57  1  0.96617600  0.49634100  0.49773400  1
  Cu  Cu58  1  0.96617600  0.99634100  0.00226600  1
  Cu  Cu59  1  0.46617600  0.00365900  0.99773400  1
  Cu  Cu60  1  0.98922600  0.79559400  0.38521400  1
  Cu  Cu61  1  0.48922600  0.20440600  0.61478600  1
  Cu  Cu62  1  0.48922600  0.70440600  0.88521400  1
  Cu  Cu63  1  0.98922600  0.29559400  0.11478600  1
