# generated using pymatgen
data_Cu8NiC30
_symmetry_space_group_name_H-M   'P 1'
_cell_length_a   13.17397000
_cell_length_b   7.14658700
_cell_length_c   13.61870014
_cell_angle_alpha   65.69296786
_cell_angle_beta   90.00000000
_cell_angle_gamma   90.00000000
_symmetry_Int_Tables_number   1
_chemical_formula_structural   Cu8NiC30
_chemical_formula_sum   'Cu16 Ni2 C60'
_cell_volume   1168.52370566
_cell_formula_units_Z   2
loop_
 _symmetry_equiv_pos_site_id
 _symmetry_equiv_pos_as_xyz
  1  'x, y, z'
loop_
 _atom_site_type_symbol
 _atom_site_label
 _atom_site_symmetry_multiplicity
 _atom_site_fract_x
 _atom_site_fract_y
 _atom_site_fract_z
 _atom_site_occupancy
  C  C0  1  0.63516300  0.64068200  0.15903800  1
  C  C1  1  0.86483700  0.64068200  0.65903800  1
  C  C2  1  0.36483700  0.35931800  0.84096200  1
  C  C3  1  0.13516300  0.35931800  0.34096200  1
  Ni  Ni4  1  0.50000000  0.00000000  0.50000000  1
  Ni  Ni5  1  0.00000000  0.00000000  0.00000000  1
  Cu  Cu6  1  0.52922700  0.18103500  0.10694300  1
  Cu  Cu7  1  0.97077300  0.18103500  0.60694300  1
  Cu  Cu8  1  0.47077300  0.81896500  0.89305700  1
  Cu  Cu9  1  0.02922700  0.81896500  0.39305700  1
  Cu  Cu10  1  0.41664900  0.25874700  0.27455600  1
  Cu  Cu11  1  0.08335100  0.25874700  0.77455600  1
  Cu  Cu12  1  0.58335100  0.74125300  0.72544400  1
  Cu  Cu13  1  0.91664900  0.74125300  0.22544400  1
  Cu  Cu14  1  0.71498600  0.12385500  0.41185100  1
  Cu  Cu15  1  0.78501400  0.12385500  0.91185100  1
  Cu  Cu16  1  0.28501400  0.87614500  0.58814900  1
  Cu  Cu17  1  0.21498600  0.87614500  0.08814900  1
  Cu  Cu18  1  0.64478500  0.72424700  0.44180000  1
  Cu  Cu19  1  0.85521500  0.72424700  0.94180000  1
  Cu  Cu20  1  0.35521500  0.27575300  0.55820000  1
  Cu  Cu21  1  0.14478500  0.27575300  0.05820000  1
  C  C22  1  0.47459900  0.07880100  0.35956300  1
  C  C23  1  0.02540100  0.07880100  0.85956300  1
  C  C24  1  0.52540100  0.92119900  0.64043700  1
  C  C25  1  0.97459900  0.92119900  0.14043700  1
  C  C26  1  0.60377200  0.30738400  0.12888000  1
  C  C27  1  0.89622800  0.30738400  0.62888000  1
  C  C28  1  0.39622800  0.69261600  0.87112000  1
  C  C29  1  0.10377200  0.69261600  0.37112000  1
  C  C30  1  0.61840000  0.13518900  0.47030000  1
  C  C31  1  0.88160000  0.13518900  0.97030000  1
  C  C32  1  0.38160000  0.86481100  0.52970000  1
  C  C33  1  0.11840000  0.86481100  0.02970000  1
  C  C34  1  0.41860000  0.20137100  0.17464900  1
  C  C35  1  0.08140000  0.20137100  0.67464900  1
  C  C36  1  0.58140000  0.79862900  0.82535100  1
  C  C37  1  0.91860000  0.79862900  0.32535100  1
  C  C38  1  0.54850000  0.96281800  0.15716700  1
  C  C39  1  0.95150000  0.96281800  0.65716700  1
  C  C40  1  0.45150000  0.03718200  0.84283300  1
  C  C41  1  0.04850000  0.03718200  0.34283300  1
  C  C42  1  0.31048800  0.25076700  0.30110800  1
  C  C43  1  0.18951200  0.25076700  0.80110800  1
  C  C44  1  0.68951200  0.74923300  0.69889200  1
  C  C45  1  0.81048800  0.74923300  0.19889200  1
  C  C46  1  0.46908000  0.44973600  0.25079300  1
  C  C47  1  0.03092000  0.44973600  0.75079300  1
  C  C48  1  0.53092000  0.55026400  0.74920700  1
  C  C49  1  0.96908000  0.55026400  0.24920700  1
  C  C50  1  0.79714900  0.04128700  0.48609200  1
  C  C51  1  0.70285100  0.04128700  0.98609200  1
  C  C52  1  0.20285100  0.95871300  0.51390800  1
  C  C53  1  0.29714900  0.95871300  0.01390800  1
  C  C54  1  0.73024500  0.30908100  0.31723900  1
  C  C55  1  0.76975500  0.30908100  0.81723900  1
  C  C56  1  0.26975500  0.69091900  0.68276100  1
  C  C57  1  0.23024500  0.69091900  0.18276100  1
  C  C58  1  0.48887500  0.26019700  0.99891900  1
  C  C59  1  0.01112500  0.26019700  0.49891900  1
  C  C60  1  0.51112500  0.73980300  0.00108100  1
  C  C61  1  0.98887500  0.73980300  0.50108100  1
  C  C62  1  0.68584300  0.95473200  0.36182800  1
  C  C63  1  0.81415700  0.95473200  0.86182800  1
  C  C64  1  0.31415700  0.04526800  0.63817200  1
  C  C65  1  0.18584300  0.04526800  0.13817200  1
  C  C66  1  0.55579600  0.77068800  0.49999300  1
  C  C67  1  0.94420400  0.77068800  0.99999300  1
  C  C68  1  0.44420400  0.22931200  0.50000700  1
  C  C69  1  0.05579600  0.22931200  0.00000700  1
  C  C70  1  0.61171400  0.64073400  0.36831600  1
  C  C71  1  0.88828600  0.64073400  0.86831600  1
  C  C72  1  0.38828600  0.35926600  0.63168400  1
  C  C73  1  0.11171400  0.35926600  0.13168400  1
  C  C74  1  0.72342200  0.61903100  0.51757900  1
  C  C75  1  0.77657800  0.61903100  0.01757900  1
  C  C76  1  0.27657800  0.38096900  0.48242100  1
  C  C77  1  0.22342200  0.38096900  0.98242100  1
