# generated using pymatgen
data_Cu(NiC9)3
_symmetry_space_group_name_H-M   'P 1'
_cell_length_a   7.27135822
_cell_length_b   7.27135822
_cell_length_c   17.42291700
_cell_angle_alpha   90.00000000
_cell_angle_beta   90.00000000
_cell_angle_gamma   120.00000199
_symmetry_Int_Tables_number   1
_chemical_formula_structural   Cu(NiC9)3
_chemical_formula_sum   'Cu2 Ni6 C54'
_cell_volume   797.77894732
_cell_formula_units_Z   2
loop_
 _symmetry_equiv_pos_site_id
 _symmetry_equiv_pos_as_xyz
  1  'x, y, z'
loop_
 _atom_site_type_symbol
 _atom_site_label
 _atom_site_symmetry_multiplicity
 _atom_site_fract_x
 _atom_site_fract_y
 _atom_site_fract_z
 _atom_site_occupancy
  Ni  Ni0  1  0.66666700  0.33333300  0.86784900  1
  Ni  Ni1  1  0.33333300  0.66666700  0.13215100  1
  Ni  Ni2  1  0.33333300  0.66666700  0.36784900  1
  Ni  Ni3  1  0.66666700  0.33333300  0.63215100  1
  Ni  Ni4  1  0.00000000  0.00000000  0.75000000  1
  Ni  Ni5  1  0.00000000  0.00000000  0.25000000  1
  Cu  Cu6  1  0.00000000  0.00000000  0.00000000  1
  Cu  Cu7  1  0.00000000  0.00000000  0.50000000  1
  C  C8  1  0.55067200  0.83460000  0.91843900  1
  C  C9  1  0.44932800  0.16540000  0.08156100  1
  C  C10  1  0.28392800  0.44932800  0.91843900  1
  C  C11  1  0.44932800  0.16540000  0.41843900  1
  C  C12  1  0.71607200  0.55067200  0.08156100  1
  C  C13  1  0.55067200  0.83460000  0.58156100  1
  C  C14  1  0.16540000  0.71607200  0.91843900  1
  C  C15  1  0.71607200  0.55067200  0.41843900  1
  C  C16  1  0.83460000  0.28392800  0.08156100  1
  C  C17  1  0.28392800  0.44932800  0.58156100  1
  C  C18  1  0.83460000  0.28392800  0.41843900  1
  C  C19  1  0.16540000  0.71607200  0.58156100  1
  C  C20  1  0.50480400  0.62215400  0.75000000  1
  C  C21  1  0.49519600  0.37784600  0.25000000  1
  C  C22  1  0.11735000  0.49519600  0.75000000  1
  C  C23  1  0.88265000  0.50480400  0.25000000  1
  C  C24  1  0.37784600  0.88265000  0.75000000  1
  C  C25  1  0.62215400  0.11735000  0.25000000  1
  C  C26  1  0.54196000  0.83296600  0.75000000  1
  C  C27  1  0.45804000  0.16703400  0.25000000  1
  C  C28  1  0.29100600  0.45804000  0.75000000  1
  C  C29  1  0.70899400  0.54196000  0.25000000  1
  C  C30  1  0.16703400  0.70899400  0.75000000  1
  C  C31  1  0.83296600  0.29100600  0.25000000  1
  C  C32  1  0.91983400  0.33277200  0.75000000  1
  C  C33  1  0.08016600  0.66722800  0.25000000  1
  C  C34  1  0.41293800  0.08016600  0.75000000  1
  C  C35  1  0.58706200  0.91983400  0.25000000  1
  C  C36  1  0.66722800  0.58706200  0.75000000  1
  C  C37  1  0.33277200  0.41293800  0.25000000  1
  C  C38  1  0.75074800  0.99430700  0.91987500  1
  C  C39  1  0.24925200  0.00569300  0.08012500  1
  C  C40  1  0.24355900  0.24925200  0.91987500  1
  C  C41  1  0.24925200  0.00569300  0.41987500  1
  C  C42  1  0.75644100  0.75074800  0.08012500  1
  C  C43  1  0.75074800  0.99430700  0.58012500  1
  C  C44  1  0.00569300  0.75644100  0.91987500  1
  C  C45  1  0.75644100  0.75074800  0.41987500  1
  C  C46  1  0.99430700  0.24355900  0.08012500  1
  C  C47  1  0.24355900  0.24925200  0.58012500  1
  C  C48  1  0.99430700  0.24355900  0.41987500  1
  C  C49  1  0.00569300  0.75644100  0.58012500  1
  C  C50  1  0.49607300  0.61910900  0.91802700  1
  C  C51  1  0.50392700  0.38089100  0.08197300  1
  C  C52  1  0.12303600  0.50392700  0.91802700  1
  C  C53  1  0.50392700  0.38089100  0.41802700  1
  C  C54  1  0.87696400  0.49607300  0.08197300  1
  C  C55  1  0.49607300  0.61910900  0.58197300  1
  C  C56  1  0.38089100  0.87696400  0.91802700  1
  C  C57  1  0.87696400  0.49607300  0.41802700  1
  C  C58  1  0.61910900  0.12303600  0.08197300  1
  C  C59  1  0.12303600  0.50392700  0.58197300  1
  C  C60  1  0.61910900  0.12303600  0.41802700  1
  C  C61  1  0.38089100  0.87696400  0.58197300  1
