# generated using pymatgen
data_Cu4NiC16
_symmetry_space_group_name_H-M   'P 1'
_cell_length_a   6.15719197
_cell_length_b   8.54094400
_cell_length_c   5.87282362
_cell_angle_alpha   90.00000000
_cell_angle_beta   90.73624521
_cell_angle_gamma   90.00000000
_symmetry_Int_Tables_number   1
_chemical_formula_structural   Cu4NiC16
_chemical_formula_sum   'Cu4 Ni1 C16'
_cell_volume   308.81591262
_cell_formula_units_Z   1
loop_
 _symmetry_equiv_pos_site_id
 _symmetry_equiv_pos_as_xyz
  1  'x, y, z'
loop_
 _atom_site_type_symbol
 _atom_site_label
 _atom_site_symmetry_multiplicity
 _atom_site_fract_x
 _atom_site_fract_y
 _atom_site_fract_z
 _atom_site_occupancy
  Ni  Ni0  1  0.74410700  0.25000000  0.08736100  1
  C  C1  1  0.17219200  0.25000000  0.91897800  1
  C  C2  1  0.42648200  0.75000000  0.45759400  1
  C  C3  1  0.55615900  0.25000000  0.56690500  1
  C  C4  1  0.94284200  0.75000000  0.01434200  1
  Cu  Cu5  1  0.98785800  0.99472300  0.50102500  1
  Cu  Cu6  1  0.98785800  0.50527700  0.50102500  1
  Cu  Cu7  1  0.48509400  0.96916200  0.98292800  1
  Cu  Cu8  1  0.48509400  0.53083800  0.98292800  1
  C  C9  1  0.05908600  0.75000000  0.63912900  1
  C  C10  1  0.19565000  0.58418000  0.19322500  1
  C  C11  1  0.19565000  0.91582000  0.19322500  1
  C  C12  1  0.30306400  0.45184700  0.67359800  1
  C  C13  1  0.30306400  0.04815300  0.67359800  1
  C  C14  1  0.40145800  0.25000000  0.20851800  1
  C  C15  1  0.56517100  0.75000000  0.83109400  1
  C  C16  1  0.69525100  0.92156000  0.28474300  1
  C  C17  1  0.69525100  0.57844000  0.28474300  1
  C  C18  1  0.81022200  0.05779800  0.82221400  1
  C  C19  1  0.81022200  0.44220200  0.82221400  1
  C  C20  1  0.91780800  0.25000000  0.42311300  1
