# generated using pymatgen
data_Cu2NiC5
_symmetry_space_group_name_H-M   'P 1'
_cell_length_a   5.90739676
_cell_length_b   5.90739676
_cell_length_c   10.92714000
_cell_angle_alpha   90.00000000
_cell_angle_beta   90.00000000
_cell_angle_gamma   136.88741947
_symmetry_Int_Tables_number   1
_chemical_formula_structural   Cu2NiC5
_chemical_formula_sum   'Cu4 Ni2 C10'
_cell_volume   260.61260630
_cell_formula_units_Z   2
loop_
 _symmetry_equiv_pos_site_id
 _symmetry_equiv_pos_as_xyz
  1  'x, y, z'
loop_
 _atom_site_type_symbol
 _atom_site_label
 _atom_site_symmetry_multiplicity
 _atom_site_fract_x
 _atom_site_fract_y
 _atom_site_fract_z
 _atom_site_occupancy
  Ni  Ni0  1  0.18286600  0.81713400  0.75000000  1
  Ni  Ni1  1  0.81713400  0.18286600  0.25000000  1
  Cu  Cu2  1  0.85980800  0.14019200  0.57055800  1
  Cu  Cu3  1  0.14019200  0.85980800  0.42944200  1
  Cu  Cu4  1  0.14019200  0.85980800  0.07055800  1
  Cu  Cu5  1  0.85980800  0.14019200  0.92944200  1
  C  C6  1  0.24078500  0.75921500  0.25000000  1
  C  C7  1  0.75921500  0.24078500  0.75000000  1
  C  C8  1  0.69665900  0.30334100  0.07976400  1
  C  C9  1  0.30334100  0.69665900  0.92023600  1
  C  C10  1  0.30334100  0.69665900  0.57976400  1
  C  C11  1  0.69665900  0.30334100  0.42023600  1
  C  C12  1  0.05433800  0.94566200  0.61466100  1
  C  C13  1  0.94566200  0.05433800  0.38533900  1
  C  C14  1  0.05433800  0.94566200  0.88533900  1
  C  C15  1  0.94566200  0.05433800  0.11466100  1
