# generated using pymatgen
data_CuNiC7
_symmetry_space_group_name_H-M   'P 1'
_cell_length_a   7.33439854
_cell_length_b   7.33439854
_cell_length_c   7.33439854
_cell_angle_alpha   120.35222953
_cell_angle_beta   119.89192866
_cell_angle_gamma   89.78914649
_symmetry_Int_Tables_number   1
_chemical_formula_structural   CuNiC7
_chemical_formula_sum   'Cu2 Ni2 C14'
_cell_volume   278.46102695
_cell_formula_units_Z   2
loop_
 _symmetry_equiv_pos_site_id
 _symmetry_equiv_pos_as_xyz
  1  'x, y, z'
loop_
 _atom_site_type_symbol
 _atom_site_label
 _atom_site_symmetry_multiplicity
 _atom_site_fract_x
 _atom_site_fract_y
 _atom_site_fract_z
 _atom_site_occupancy
  Ni  Ni0  1  0.36802100  0.61802100  0.75000000  1
  Ni  Ni1  1  0.63197900  0.38197900  0.25000000  1
  C  C2  1  0.00000000  0.00000000  0.00000000  1
  C  C3  1  0.50000000  0.00000000  0.50000000  1
  Cu  Cu4  1  0.00000000  0.00000000  0.50000000  1
  Cu  Cu5  1  0.00000000  0.50000000  0.00000000  1
  C  C6  1  0.31781400  0.06781400  0.25000000  1
  C  C7  1  0.92285700  0.67285700  0.25000000  1
  C  C8  1  0.32932600  0.68429800  0.25891300  1
  C  C9  1  0.92538500  0.07041300  0.24108700  1
  C  C10  1  0.32932600  0.07041300  0.64502800  1
  C  C11  1  0.92538500  0.68429800  0.85497200  1
  C  C12  1  0.68218600  0.93218600  0.75000000  1
  C  C13  1  0.07714300  0.32714300  0.75000000  1
  C  C14  1  0.67067400  0.31570200  0.74108700  1
  C  C15  1  0.07461500  0.92958700  0.75891300  1
  C  C16  1  0.67067400  0.92958700  0.35497200  1
  C  C17  1  0.07461500  0.31570200  0.14502800  1
