# generated using pymatgen
data_Cu3(NiC9)2
_symmetry_space_group_name_H-M   'P 1'
_cell_length_a   4.08370514
_cell_length_b   4.08370533
_cell_length_c   23.50479919
_cell_angle_alpha   94.98354497
_cell_angle_beta   94.98354643
_cell_angle_gamma   89.99999906
_symmetry_Int_Tables_number   1
_chemical_formula_structural   Cu3(NiC9)2
_chemical_formula_sum   'Cu3 Ni2 C18'
_cell_volume   389.01200442
_cell_formula_units_Z   1
loop_
 _symmetry_equiv_pos_site_id
 _symmetry_equiv_pos_as_xyz
  1  'x, y, z'
loop_
 _atom_site_type_symbol
 _atom_site_label
 _atom_site_symmetry_multiplicity
 _atom_site_fract_x
 _atom_site_fract_y
 _atom_site_fract_z
 _atom_site_occupancy
  Ni  Ni0  1  0.16930800  0.16930800  0.33861400  1
  Ni  Ni1  1  0.83069200  0.83069200  0.66138600  1
  Cu  Cu2  1  0.07736800  0.07736800  0.15473600  1
  Cu  Cu3  1  0.92263200  0.92263200  0.84526400  1
  Cu  Cu4  1  0.00000000  0.00000000  0.00000000  1
  C  C5  1  0.72695500  0.72695500  0.45390900  1
  C  C6  1  0.27304500  0.27304500  0.54609100  1
  C  C7  1  0.53812800  0.53812800  0.07625600  1
  C  C8  1  0.38908400  0.38908400  0.77816800  1
  C  C9  1  0.61091600  0.61091600  0.22183200  1
  C  C10  1  0.46187200  0.46187200  0.92374400  1
  C  C11  1  0.39420900  0.89420900  0.78841800  1
  C  C12  1  0.53507300  0.03507300  0.07014800  1
  C  C13  1  0.22141300  0.22141300  0.44282500  1
  C  C14  1  0.96492700  0.46492700  0.92985200  1
  C  C15  1  0.77858700  0.77858700  0.55717500  1
  C  C16  1  0.10579100  0.60579100  0.21158200  1
  C  C17  1  0.60579100  0.10579100  0.21158200  1
  C  C18  1  0.34506100  0.34506100  0.69012200  1
  C  C19  1  0.89420900  0.39420900  0.78841800  1
  C  C20  1  0.03507300  0.53507300  0.07014800  1
  C  C21  1  0.46492700  0.96492700  0.92985200  1
  C  C22  1  0.65493900  0.65493900  0.30987800  1
