# generated using pymatgen
data_Cu(NiC5)2
_symmetry_space_group_name_H-M   'P 1'
_cell_length_a   8.47572500
_cell_length_b   11.39486800
_cell_length_c   13.99815300
_cell_angle_alpha   90.00000000
_cell_angle_beta   90.00000000
_cell_angle_gamma   90.00000000
_symmetry_Int_Tables_number   1
_chemical_formula_structural   Cu(NiC5)2
_chemical_formula_sum   'Cu8 Ni16 C80'
_cell_volume   1351.93836328
_cell_formula_units_Z   8
loop_
 _symmetry_equiv_pos_site_id
 _symmetry_equiv_pos_as_xyz
  1  'x, y, z'
loop_
 _atom_site_type_symbol
 _atom_site_label
 _atom_site_symmetry_multiplicity
 _atom_site_fract_x
 _atom_site_fract_y
 _atom_site_fract_z
 _atom_site_occupancy
  C  C0  1  0.66711200  0.77339200  0.14545300  1
  C  C1  1  0.16711200  0.72660800  0.85454700  1
  C  C2  1  0.33288800  0.27339200  0.35454700  1
  C  C3  1  0.83288800  0.22660800  0.64545300  1
  C  C4  1  0.33288800  0.22660800  0.85454700  1
  C  C5  1  0.83288800  0.27339200  0.14545300  1
  C  C6  1  0.66711200  0.72660800  0.64545300  1
  C  C7  1  0.16711200  0.77339200  0.35454700  1
  Ni  Ni8  1  0.50426500  0.97620100  0.32546000  1
  Ni  Ni9  1  0.00426500  0.52379900  0.67454000  1
  Ni  Ni10  1  0.49573500  0.47620100  0.17454000  1
  Ni  Ni11  1  0.99573500  0.02379900  0.82546000  1
  Ni  Ni12  1  0.49573500  0.02379900  0.67454000  1
  Ni  Ni13  1  0.99573500  0.47620100  0.32546000  1
  Ni  Ni14  1  0.50426500  0.52379900  0.82546000  1
  Ni  Ni15  1  0.00426500  0.97620100  0.17454000  1
  Ni  Ni16  1  0.75296500  0.80707400  0.40067800  1
  Ni  Ni17  1  0.25296500  0.69292600  0.59932200  1
  Ni  Ni18  1  0.24703500  0.30707400  0.09932200  1
  Ni  Ni19  1  0.74703500  0.19292600  0.90067800  1
  Ni  Ni20  1  0.24703500  0.19292600  0.59932200  1
  Ni  Ni21  1  0.74703500  0.30707400  0.40067800  1
  Ni  Ni22  1  0.75296500  0.69292600  0.90067800  1
  Ni  Ni23  1  0.25296500  0.80707400  0.09932200  1
  C  C24  1  0.76237300  0.01665300  0.38130200  1
  C  C25  1  0.26237300  0.48334700  0.61869800  1
  C  C26  1  0.23762700  0.51665300  0.11869800  1
  C  C27  1  0.73762700  0.98334700  0.88130200  1
  C  C28  1  0.23762700  0.98334700  0.61869800  1
  C  C29  1  0.73762700  0.51665300  0.38130200  1
  C  C30  1  0.76237300  0.48334700  0.88130200  1
  C  C31  1  0.26237300  0.01665300  0.11869800  1
  C  C32  1  0.64045400  0.97585600  0.47842300  1
  C  C33  1  0.14045400  0.52414400  0.52157700  1
  C  C34  1  0.35954600  0.47585600  0.02157700  1
  C  C35  1  0.85954600  0.02414400  0.97842300  1
  C  C36  1  0.35954600  0.02414400  0.52157700  1
  C  C37  1  0.85954600  0.47585600  0.47842300  1
  C  C38  1  0.64045400  0.52414400  0.97842300  1
  C  C39  1  0.14045400  0.97585600  0.02157700  1
  Cu  Cu40  1  0.67138200  0.95415800  0.40459600  1
  Cu  Cu41  1  0.17138200  0.54584200  0.59540400  1
  Cu  Cu42  1  0.32861800  0.45415800  0.09540400  1
  Cu  Cu43  1  0.82861800  0.04584200  0.90459600  1
  Cu  Cu44  1  0.32861800  0.04584200  0.59540400  1
  Cu  Cu45  1  0.82861800  0.45415800  0.40459600  1
  Cu  Cu46  1  0.67138200  0.54584200  0.90459600  1
  Cu  Cu47  1  0.17138200  0.95415800  0.09540400  1
  C  C48  1  0.55320600  0.93563900  0.22548100  1
  C  C49  1  0.05320600  0.56436100  0.77451900  1
  C  C50  1  0.44679400  0.43563900  0.27451900  1
  C  C51  1  0.94679400  0.06436100  0.72548100  1
  C  C52  1  0.44679400  0.06436100  0.77451900  1
  C  C53  1  0.94679400  0.43563900  0.22548100  1
  C  C54  1  0.55320600  0.56436100  0.72548100  1
  C  C55  1  0.05320600  0.93563900  0.27451900  1
  C  C56  1  0.93439700  0.81694100  0.41336700  1
  C  C57  1  0.43439700  0.68305900  0.58663300  1
  C  C58  1  0.06560300  0.31694100  0.08663300  1
  C  C59  1  0.56560300  0.18305900  0.91336700  1
  C  C60  1  0.06560300  0.18305900  0.58663300  1
  C  C61  1  0.56560300  0.31694100  0.41336700  1
  C  C62  1  0.93439700  0.68305900  0.91336700  1
  C  C63  1  0.43439700  0.81694100  0.08663300  1
  C  C64  1  0.71373400  0.75355700  0.30239300  1
  C  C65  1  0.21373400  0.74644300  0.69760700  1
  C  C66  1  0.28626600  0.25355700  0.19760700  1
  C  C67  1  0.78626600  0.24644300  0.80239300  1
  C  C68  1  0.28626600  0.24644300  0.69760700  1
  C  C69  1  0.78626600  0.25355700  0.30239300  1
  C  C70  1  0.71373400  0.74644300  0.80239300  1
  C  C71  1  0.21373400  0.75355700  0.19760700  1
  C  C72  1  0.35811300  0.90937000  0.36392800  1
  C  C73  1  0.85811300  0.59063000  0.63607200  1
  C  C74  1  0.64188700  0.40937000  0.13607200  1
  C  C75  1  0.14188700  0.09063000  0.86392800  1
  C  C76  1  0.64188700  0.09063000  0.63607200  1
  C  C77  1  0.14188700  0.40937000  0.36392800  1
  C  C78  1  0.35811300  0.59063000  0.86392800  1
  C  C79  1  0.85811300  0.90937000  0.13607200  1
  C  C80  1  0.83266900  0.67283300  0.13225900  1
  C  C81  1  0.33266900  0.82716700  0.86774100  1
  C  C82  1  0.16733100  0.17283300  0.36774100  1
  C  C83  1  0.66733100  0.32716700  0.63225900  1
  C  C84  1  0.16733100  0.32716700  0.86774100  1
  C  C85  1  0.66733100  0.17283300  0.13225900  1
  C  C86  1  0.83266900  0.82716700  0.63225900  1
  C  C87  1  0.33266900  0.67283300  0.36774100  1
  C  C88  1  0.46971000  0.10972300  0.33023800  1
  C  C89  1  0.96971000  0.39027700  0.66976200  1
  C  C90  1  0.53029000  0.60972300  0.16976200  1
  C  C91  1  0.03029000  0.89027700  0.83023800  1
  C  C92  1  0.53029000  0.89027700  0.66976200  1
  C  C93  1  0.03029000  0.60972300  0.33023800  1
  C  C94  1  0.46971000  0.39027700  0.83023800  1
  C  C95  1  0.96971000  0.10972300  0.16976200  1
  C  C96  1  0.68064000  0.73360200  0.48165500  1
  C  C97  1  0.18064000  0.76639800  0.51834500  1
  C  C98  1  0.31936000  0.23360200  0.01834500  1
  C  C99  1  0.81936000  0.26639800  0.98165500  1
  C  C100  1  0.31936000  0.26639800  0.51834500  1
  C  C101  1  0.81936000  0.23360200  0.48165500  1
  C  C102  1  0.68064000  0.76639800  0.98165500  1
  C  C103  1  0.18064000  0.73360200  0.01834500  1
