# generated using pymatgen
data_CuNi3C11
_symmetry_space_group_name_H-M   'P 1'
_cell_length_a   5.91215615
_cell_length_b   5.91215615
_cell_length_c   9.53594400
_cell_angle_alpha   90.00000000
_cell_angle_beta   90.00000000
_cell_angle_gamma   121.59044063
_symmetry_Int_Tables_number   1
_chemical_formula_structural   CuNi3C11
_chemical_formula_sum   'Cu2 Ni6 C22'
_cell_volume   283.92290775
_cell_formula_units_Z   2
loop_
 _symmetry_equiv_pos_site_id
 _symmetry_equiv_pos_as_xyz
  1  'x, y, z'
loop_
 _atom_site_type_symbol
 _atom_site_label
 _atom_site_symmetry_multiplicity
 _atom_site_fract_x
 _atom_site_fract_y
 _atom_site_fract_z
 _atom_site_occupancy
  C  C0  1  0.34853300  0.17557100  0.94305900  1
  C  C1  1  0.82442900  0.65146700  0.94305900  1
  C  C2  1  0.82550800  0.17449200  0.94396700  1
  C  C3  1  0.17449200  0.82550800  0.44396700  1
  C  C4  1  0.17557100  0.34853300  0.44305900  1
  C  C5  1  0.65146700  0.82442900  0.44305900  1
  Ni  Ni6  1  0.33478700  0.16712300  0.21351900  1
  Ni  Ni7  1  0.83287700  0.66521300  0.21351900  1
  Ni  Ni8  1  0.83225100  0.16774900  0.21542800  1
  Ni  Ni9  1  0.16774900  0.83225100  0.71542800  1
  Ni  Ni10  1  0.16712300  0.33478700  0.71351900  1
  Ni  Ni11  1  0.66521300  0.83287700  0.71351900  1
  Cu  Cu12  1  0.66465100  0.33534900  0.49678000  1
  Cu  Cu13  1  0.33534900  0.66465100  0.99678000  1
  C  C14  1  0.31209000  0.16150000  0.60342800  1
  C  C15  1  0.51660500  0.48339500  0.33320100  1
  C  C16  1  0.65096100  0.34903900  0.09513000  1
  C  C17  1  0.51166900  0.03251900  0.33498900  1
  C  C18  1  0.83850000  0.68791000  0.60342800  1
  C  C19  1  0.96748100  0.48833100  0.33498900  1
  C  C20  1  0.84296000  0.15704000  0.59868400  1
  C  C21  1  0.15704000  0.84296000  0.09868400  1
  C  C22  1  0.03251900  0.51166900  0.83498900  1
  C  C23  1  0.34903900  0.65096100  0.59513000  1
  C  C24  1  0.16150000  0.31209000  0.10342800  1
  C  C25  1  0.01620000  0.98380000  0.32793600  1
  C  C26  1  0.98380000  0.01620000  0.82793600  1
  C  C27  1  0.48833100  0.96748100  0.83498900  1
  C  C28  1  0.48339500  0.51660500  0.83320100  1
  C  C29  1  0.68791000  0.83850000  0.10342800  1
