# generated using pymatgen
data_Cu4Ni8C39
_symmetry_space_group_name_H-M   'P 1'
_cell_length_a   8.67565340
_cell_length_b   8.67565340
_cell_length_c   12.49754102
_cell_angle_alpha   74.00126376
_cell_angle_beta   74.00126376
_cell_angle_gamma   53.91387008
_symmetry_Int_Tables_number   1
_chemical_formula_structural   Cu4Ni8C39
_chemical_formula_sum   'Cu4 Ni8 C39'
_cell_volume   722.91755705
_cell_formula_units_Z   1
loop_
 _symmetry_equiv_pos_site_id
 _symmetry_equiv_pos_as_xyz
  1  'x, y, z'
loop_
 _atom_site_type_symbol
 _atom_site_label
 _atom_site_symmetry_multiplicity
 _atom_site_fract_x
 _atom_site_fract_y
 _atom_site_fract_z
 _atom_site_occupancy
  Ni  Ni0  1  0.17656300  0.17656300  0.81149900  1
  Ni  Ni1  1  0.42021800  0.42021800  0.81762900  1
  Ni  Ni2  1  0.67085400  0.67085400  0.81829300  1
  Ni  Ni3  1  0.91749200  0.91749200  0.81221600  1
  Ni  Ni4  1  0.32914600  0.32914600  0.18170700  1
  Ni  Ni5  1  0.57978200  0.57978200  0.18237100  1
  Ni  Ni6  1  0.82343700  0.82343700  0.18850100  1
  Ni  Ni7  1  0.08250800  0.08250800  0.18778400  1
  Cu  Cu8  1  0.50000000  0.50000000  0.50000000  1
  Cu  Cu9  1  0.00000000  0.00000000  0.50000000  1
  Cu  Cu10  1  0.74977200  0.74977200  0.50111600  1
  Cu  Cu11  1  0.25022800  0.25022800  0.49888400  1
  C  C12  1  0.33835700  0.83943800  0.64435400  1
  C  C13  1  0.83943800  0.33835700  0.64435400  1
  C  C14  1  0.58864900  0.08889300  0.64508600  1
  C  C15  1  0.08889300  0.58864900  0.64508600  1
  C  C16  1  0.41135100  0.91110700  0.35491400  1
  C  C17  1  0.91110700  0.41135100  0.35491400  1
  C  C18  1  0.66164300  0.16056200  0.35564600  1
  C  C19  1  0.16056200  0.66164300  0.35564600  1
  C  C20  1  0.26121900  0.73878100  0.00000000  1
  C  C21  1  0.73878100  0.26121900  0.00000000  1
  C  C22  1  0.50000000  0.00000000  0.00000000  1
  C  C23  1  0.00000000  0.50000000  0.00000000  1
  C  C24  1  0.21937500  0.71903300  0.62352700  1
  C  C25  1  0.71903300  0.21937500  0.62352700  1
  C  C26  1  0.46917100  0.96893700  0.62354100  1
  C  C27  1  0.96893700  0.46917100  0.62354100  1
  C  C28  1  0.28096700  0.78062500  0.37647300  1
  C  C29  1  0.78062500  0.28096700  0.37647300  1
  C  C30  1  0.53082900  0.03106300  0.37645900  1
  C  C31  1  0.03106300  0.53082900  0.37645900  1
  C  C32  1  0.59393600  0.59393600  0.62411700  1
  C  C33  1  0.09469600  0.09469600  0.62173800  1
  C  C34  1  0.84419700  0.84419700  0.62403500  1
  C  C35  1  0.34404800  0.34404800  0.62329000  1
  C  C36  1  0.65595200  0.65595200  0.37671000  1
  C  C37  1  0.15580300  0.15580300  0.37596500  1
  C  C38  1  0.90530400  0.90530400  0.37826200  1
  C  C39  1  0.40606400  0.40606400  0.37588300  1
  C  C40  1  0.27014300  0.80600100  0.84796600  1
  C  C41  1  0.80600100  0.27014300  0.84796600  1
  C  C42  1  0.53951800  0.03973800  0.84159900  1
  C  C43  1  0.03973800  0.53951800  0.84159900  1
  C  C44  1  0.46048200  0.96026200  0.15840100  1
  C  C45  1  0.96026200  0.46048200  0.15840100  1
  C  C46  1  0.72985700  0.19399900  0.15203400  1
  C  C47  1  0.19399900  0.72985700  0.15203400  1
  C  C48  1  0.24851900  0.24851900  0.00009500  1
  C  C49  1  0.50000000  0.50000000  0.00000000  1
  C  C50  1  0.75148100  0.75148100  0.99990500  1
