# generated using pymatgen
data_Cu3Ni2C19
_symmetry_space_group_name_H-M   'P 1'
_cell_length_a   6.54294470
_cell_length_b   6.54294470
_cell_length_c   11.80639238
_cell_angle_alpha   76.84190733
_cell_angle_beta   76.84190733
_cell_angle_gamma   25.77877820
_symmetry_Int_Tables_number   1
_chemical_formula_structural   Cu3Ni2C19
_chemical_formula_sum   'Cu3 Ni2 C19'
_cell_volume   213.73415266
_cell_formula_units_Z   1
loop_
 _symmetry_equiv_pos_site_id
 _symmetry_equiv_pos_as_xyz
  1  'x, y, z'
loop_
 _atom_site_type_symbol
 _atom_site_label
 _atom_site_symmetry_multiplicity
 _atom_site_fract_x
 _atom_site_fract_y
 _atom_site_fract_z
 _atom_site_occupancy
  C  C0  1  0.99787800  0.99787800  0.25588900  1
  C  C1  1  0.66617700  0.66617700  0.08112800  1
  C  C2  1  0.33382300  0.33382300  0.91887200  1
  C  C3  1  0.00212200  0.00212200  0.74411100  1
  C  C4  1  0.65881000  0.65881000  0.58516000  1
  C  C5  1  0.34119000  0.34119000  0.41484000  1
  C  C6  1  0.00000000  0.00000000  0.50000000  1
  Ni  Ni7  1  0.34006000  0.34006000  0.66261300  1
  Ni  Ni8  1  0.65994000  0.65994000  0.33738700  1
  Cu  Cu9  1  0.33446600  0.33446500  0.16666300  1
  Cu  Cu10  1  0.00000000  0.00000000  0.00000000  1
  Cu  Cu11  1  0.66553500  0.66553500  0.83333700  1
  C  C12  1  0.83543000  0.83543000  0.04751000  1
  C  C13  1  0.50362600  0.50362600  0.88297500  1
  C  C14  1  0.17442100  0.17442100  0.71435600  1
  C  C15  1  0.83146900  0.83146900  0.55741700  1
  C  C16  1  0.51302800  0.51302800  0.36858800  1
  C  C17  1  0.17067000  0.17067000  0.22023400  1
  C  C18  1  0.16853100  0.16853100  0.44258300  1
  C  C19  1  0.82557900  0.82557900  0.28564400  1
  C  C20  1  0.49637400  0.49637400  0.11702500  1
  C  C21  1  0.16457000  0.16457000  0.95249000  1
  C  C22  1  0.82933000  0.82933000  0.77976600  1
  C  C23  1  0.48697200  0.48697200  0.63141200  1
