# generated using pymatgen
data_CuNiC5
_symmetry_space_group_name_H-M   'P 1'
_cell_length_a   4.81819900
_cell_length_b   6.14530700
_cell_length_c   10.51627800
_cell_angle_alpha   90.00009565
_cell_angle_beta   89.99988606
_cell_angle_gamma   89.99978109
_symmetry_Int_Tables_number   1
_chemical_formula_structural   CuNiC5
_chemical_formula_sum   'Cu4 Ni4 C20'
_cell_volume   311.37975682
_cell_formula_units_Z   4
loop_
 _symmetry_equiv_pos_site_id
 _symmetry_equiv_pos_as_xyz
  1  'x, y, z'
loop_
 _atom_site_type_symbol
 _atom_site_label
 _atom_site_symmetry_multiplicity
 _atom_site_fract_x
 _atom_site_fract_y
 _atom_site_fract_z
 _atom_site_occupancy
  Ni  Ni0  1  0.49999700  0.99999900  0.50000000  1
  Ni  Ni1  1  0.99999700  0.50000100  0.99999900  1
  Ni  Ni2  1  0.49999700  0.50000100  0.49999800  1
  Ni  Ni3  1  0.99999900  0.99999800  0.99999900  1
  C  C4  1  0.51205600  0.24999400  0.77826700  1
  C  C5  1  0.98799700  0.25001100  0.27824000  1
  C  C6  1  0.48797200  0.74999000  0.22176600  1
  C  C7  1  0.01203500  0.75000800  0.72175100  1
  Cu  Cu8  1  0.92693600  0.74999800  0.40652200  1
  Cu  Cu9  1  0.57305900  0.74999700  0.90652200  1
  Cu  Cu10  1  0.07306000  0.24999600  0.59348000  1
  Cu  Cu11  1  0.42693500  0.24999900  0.09348000  1
  C  C12  1  0.26547500  0.75000000  0.41293200  1
  C  C13  1  0.23452000  0.75000000  0.91293200  1
  C  C14  1  0.73451800  0.25000100  0.58706700  1
  C  C15  1  0.76547600  0.24999900  0.08706700  1
  C  C16  1  0.72755100  0.75000000  0.04909200  1
  C  C17  1  0.77244300  0.75000000  0.54909200  1
  C  C18  1  0.27244800  0.24999900  0.95090400  1
  C  C19  1  0.22754700  0.25000100  0.45090400  1
  C  C20  1  0.78253900  0.96517200  0.33797200  1
  C  C21  1  0.71745300  0.53483000  0.83797300  1
  C  C22  1  0.21746500  0.46517300  0.66202500  1
  C  C23  1  0.28253200  0.03483100  0.16202300  1
  C  C24  1  0.21745100  0.03481700  0.66202200  1
  C  C25  1  0.28254300  0.46518600  0.16202300  1
  C  C26  1  0.78255300  0.53481400  0.33797500  1
  C  C27  1  0.71744400  0.96518900  0.83797200  1
