# generated using pymatgen
data_Cu5Ni3C
_symmetry_space_group_name_H-M   'P 1'
_cell_length_a   7.10757600
_cell_length_b   8.19412200
_cell_length_c   15.66675700
_cell_angle_alpha   90.00000000
_cell_angle_beta   90.00000000
_cell_angle_gamma   90.00000000
_symmetry_Int_Tables_number   1
_chemical_formula_structural   Cu5Ni3C
_chemical_formula_sum   'Cu20 Ni12 C4'
_cell_volume   912.43733065
_cell_formula_units_Z   4
loop_
 _symmetry_equiv_pos_site_id
 _symmetry_equiv_pos_as_xyz
  1  'x, y, z'
loop_
 _atom_site_type_symbol
 _atom_site_label
 _atom_site_symmetry_multiplicity
 _atom_site_fract_x
 _atom_site_fract_y
 _atom_site_fract_z
 _atom_site_occupancy
  C  C0  1  0.86690500  0.75000000  0.42743900  1
  C  C1  1  0.63309500  0.75000000  0.92743900  1
  C  C2  1  0.13309500  0.25000000  0.57256100  1
  C  C3  1  0.36690500  0.25000000  0.07256100  1
  Ni  Ni4  1  0.98643600  0.75000000  0.50768800  1
  Ni  Ni5  1  0.51356400  0.75000000  0.00768800  1
  Ni  Ni6  1  0.01356400  0.25000000  0.49231200  1
  Ni  Ni7  1  0.48643600  0.25000000  0.99231200  1
  Ni  Ni8  1  0.78491600  0.92100700  0.16430300  1
  Ni  Ni9  1  0.71508400  0.57899300  0.66430300  1
  Ni  Ni10  1  0.21508400  0.42100700  0.83569700  1
  Ni  Ni11  1  0.28491600  0.07899300  0.33569700  1
  Ni  Ni12  1  0.21508400  0.07899300  0.83569700  1
  Ni  Ni13  1  0.28491600  0.42100700  0.33569700  1
  Ni  Ni14  1  0.78491600  0.57899300  0.16430300  1
  Ni  Ni15  1  0.71508400  0.92100700  0.66430300  1
  Cu  Cu16  1  0.71814500  0.75000000  0.18262200  1
  Cu  Cu17  1  0.78185500  0.75000000  0.68262200  1
  Cu  Cu18  1  0.28185500  0.25000000  0.81737800  1
  Cu  Cu19  1  0.21814500  0.25000000  0.31737800  1
  Cu  Cu20  1  0.80965400  0.49135600  0.39529700  1
  Cu  Cu21  1  0.69034600  0.00864400  0.89529700  1
  Cu  Cu22  1  0.19034600  0.99135600  0.60470300  1
  Cu  Cu23  1  0.30965400  0.50864400  0.10470300  1
  Cu  Cu24  1  0.19034600  0.50864400  0.60470300  1
  Cu  Cu25  1  0.30965400  0.99135600  0.10470300  1
  Cu  Cu26  1  0.80965400  0.00864400  0.39529700  1
  Cu  Cu27  1  0.69034600  0.49135600  0.89529700  1
  Cu  Cu28  1  0.58199100  0.75000000  0.47952700  1
  Cu  Cu29  1  0.91800900  0.75000000  0.97952700  1
  Cu  Cu30  1  0.41800900  0.25000000  0.52047300  1
  Cu  Cu31  1  0.08199100  0.25000000  0.02047300  1
  Cu  Cu32  1  0.07529300  0.75000000  0.32643700  1
  Cu  Cu33  1  0.42470700  0.75000000  0.82643700  1
  Cu  Cu34  1  0.92470700  0.25000000  0.67356300  1
  Cu  Cu35  1  0.57529300  0.25000000  0.17356300  1
