# generated using pymatgen
data_Cu8NiC7
_symmetry_space_group_name_H-M   'P 1'
_cell_length_a   5.55269300
_cell_length_b   8.87498900
_cell_length_c   14.83997400
_cell_angle_alpha   90.00000000
_cell_angle_beta   90.00000000
_cell_angle_gamma   90.00000000
_symmetry_Int_Tables_number   1
_chemical_formula_structural   Cu8NiC7
_chemical_formula_sum   'Cu32 Ni4 C28'
_cell_volume   731.31524386
_cell_formula_units_Z   4
loop_
 _symmetry_equiv_pos_site_id
 _symmetry_equiv_pos_as_xyz
  1  'x, y, z'
loop_
 _atom_site_type_symbol
 _atom_site_label
 _atom_site_symmetry_multiplicity
 _atom_site_fract_x
 _atom_site_fract_y
 _atom_site_fract_z
 _atom_site_occupancy
  C  C0  1  0.25000000  0.49490900  0.65586900  1
  C  C1  1  0.25000000  0.00509100  0.15586900  1
  C  C2  1  0.75000000  0.50509100  0.34413100  1
  C  C3  1  0.75000000  0.99490900  0.84413100  1
  C  C4  1  0.25000000  0.74604800  0.83686300  1
  C  C5  1  0.25000000  0.75395200  0.33686300  1
  C  C6  1  0.75000000  0.25395200  0.16313700  1
  C  C7  1  0.75000000  0.24604800  0.66313700  1
  C  C8  1  0.25000000  0.31981700  0.43677600  1
  C  C9  1  0.25000000  0.18018300  0.93677600  1
  C  C10  1  0.75000000  0.68018300  0.56322400  1
  C  C11  1  0.75000000  0.81981700  0.06322400  1
  C  C12  1  0.09888600  0.89498700  0.63779000  1
  C  C13  1  0.40111400  0.60501300  0.13779000  1
  C  C14  1  0.59888600  0.10501300  0.36221000  1
  C  C15  1  0.90111400  0.39498700  0.86221000  1
  C  C16  1  0.90111400  0.10501300  0.36221000  1
  C  C17  1  0.59888600  0.39498700  0.86221000  1
  C  C18  1  0.40111400  0.89498700  0.63779000  1
  C  C19  1  0.09888600  0.60501300  0.13779000  1
  C  C20  1  0.25000000  0.01020100  0.56605000  1
  C  C21  1  0.25000000  0.48979900  0.06605000  1
  C  C22  1  0.75000000  0.98979900  0.43395000  1
  C  C23  1  0.75000000  0.51020100  0.93395000  1
  C  C24  1  0.25000000  0.04409500  0.67832200  1
  C  C25  1  0.25000000  0.45590500  0.17832200  1
  C  C26  1  0.75000000  0.95590500  0.32167800  1
  C  C27  1  0.75000000  0.54409500  0.82167800  1
  Ni  Ni28  1  0.25000000  0.96150500  0.62987500  1
  Ni  Ni29  1  0.25000000  0.53849500  0.12987500  1
  Ni  Ni30  1  0.75000000  0.03849500  0.37012500  1
  Ni  Ni31  1  0.75000000  0.46150500  0.87012500  1
  Cu  Cu32  1  0.25000000  0.57891100  0.78184300  1
  Cu  Cu33  1  0.25000000  0.92108900  0.28184300  1
  Cu  Cu34  1  0.75000000  0.42108900  0.21815700  1
  Cu  Cu35  1  0.75000000  0.07891100  0.71815700  1
  Cu  Cu36  1  0.25000000  0.42623500  0.52898200  1
  Cu  Cu37  1  0.25000000  0.07376500  0.02898200  1
  Cu  Cu38  1  0.75000000  0.57376500  0.47101800  1
  Cu  Cu39  1  0.75000000  0.92623500  0.97101800  1
  Cu  Cu40  1  0.00270400  0.84621600  0.80854200  1
  Cu  Cu41  1  0.49729600  0.65378400  0.30854200  1
  Cu  Cu42  1  0.50270400  0.15378400  0.19145800  1
  Cu  Cu43  1  0.99729600  0.34621600  0.69145800  1
  Cu  Cu44  1  0.99729600  0.15378400  0.19145800  1
  Cu  Cu45  1  0.50270400  0.34621600  0.69145800  1
  Cu  Cu46  1  0.49729600  0.84621600  0.80854200  1
  Cu  Cu47  1  0.00270400  0.65378400  0.30854200  1
  Cu  Cu48  1  0.25000000  0.71253900  0.94331700  1
  Cu  Cu49  1  0.25000000  0.78746100  0.44331700  1
  Cu  Cu50  1  0.75000000  0.28746100  0.05668300  1
  Cu  Cu51  1  0.75000000  0.21253900  0.55668300  1
  Cu  Cu52  1  0.00288100  0.35367100  0.37375900  1
  Cu  Cu53  1  0.49711900  0.14632900  0.87375900  1
  Cu  Cu54  1  0.50288100  0.64632900  0.62624100  1
  Cu  Cu55  1  0.99711900  0.85367100  0.12624100  1
  Cu  Cu56  1  0.99711900  0.64632900  0.62624100  1
  Cu  Cu57  1  0.50288100  0.85367100  0.12624100  1
  Cu  Cu58  1  0.49711900  0.35367100  0.37375900  1
  Cu  Cu59  1  0.00288100  0.14632900  0.87375900  1
  Cu  Cu60  1  0.25000000  0.14085800  0.46204100  1
  Cu  Cu61  1  0.25000000  0.35914200  0.96204100  1
  Cu  Cu62  1  0.75000000  0.85914200  0.53795900  1
  Cu  Cu63  1  0.75000000  0.64085800  0.03795900  1
