# generated using pymatgen
data_Cu2NiC4
_symmetry_space_group_name_H-M   'P 1'
_cell_length_a   4.03931900
_cell_length_b   12.28285400
_cell_length_c   14.52575300
_cell_angle_alpha   90.00000000
_cell_angle_beta   90.00000000
_cell_angle_gamma   90.00000000
_symmetry_Int_Tables_number   1
_chemical_formula_structural   Cu2NiC4
_chemical_formula_sum   'Cu8 Ni4 C16'
_cell_volume   720.68601903
_cell_formula_units_Z   4
loop_
 _symmetry_equiv_pos_site_id
 _symmetry_equiv_pos_as_xyz
  1  'x, y, z'
loop_
 _atom_site_type_symbol
 _atom_site_label
 _atom_site_symmetry_multiplicity
 _atom_site_fract_x
 _atom_site_fract_y
 _atom_site_fract_z
 _atom_site_occupancy
  Ni  Ni0  1  0.25000000  0.75627300  0.33936900  1
  Ni  Ni1  1  0.25000000  0.25627300  0.16063100  1
  Ni  Ni2  1  0.75000000  0.24372700  0.66063100  1
  Ni  Ni3  1  0.75000000  0.74372700  0.83936900  1
  Cu  Cu4  1  0.25000000  0.43144700  0.39130100  1
  Cu  Cu5  1  0.25000000  0.93144700  0.10869900  1
  Cu  Cu6  1  0.75000000  0.56855300  0.60869900  1
  Cu  Cu7  1  0.75000000  0.06855300  0.89130100  1
  Cu  Cu8  1  0.25000000  0.42225000  0.89804100  1
  Cu  Cu9  1  0.25000000  0.92225000  0.60195900  1
  Cu  Cu10  1  0.75000000  0.57775000  0.10195900  1
  Cu  Cu11  1  0.75000000  0.07775000  0.39804100  1
  C  C12  1  0.25000000  0.20810800  0.83721800  1
  C  C13  1  0.25000000  0.70810800  0.66278200  1
  C  C14  1  0.75000000  0.79189200  0.16278200  1
  C  C15  1  0.75000000  0.29189200  0.33721800  1
  C  C16  1  0.25000000  0.12390100  0.52233200  1
  C  C17  1  0.25000000  0.62390100  0.97766800  1
  C  C18  1  0.75000000  0.87609900  0.47766800  1
  C  C19  1  0.75000000  0.37609900  0.02233200  1
  C  C20  1  0.25000000  0.02159300  0.28284700  1
  C  C21  1  0.25000000  0.52159300  0.21715300  1
  C  C22  1  0.75000000  0.97840700  0.71715300  1
  C  C23  1  0.75000000  0.47840700  0.78284700  1
  C  C24  1  0.25000000  0.42053100  0.57629500  1
  C  C25  1  0.25000000  0.92053100  0.92370500  1
  C  C26  1  0.75000000  0.57946900  0.42370500  1
  C  C27  1  0.75000000  0.07946900  0.07629500  1
