# generated using pymatgen
data_Cu4Ni7C16
_symmetry_space_group_name_H-M   'P 1'
_cell_length_a   7.63244447
_cell_length_b   7.63244447
_cell_length_c   12.44208174
_cell_angle_alpha   67.95472336
_cell_angle_beta   67.95472336
_cell_angle_gamma   70.68758488
_symmetry_Int_Tables_number   1
_chemical_formula_structural   Cu4Ni7C16
_chemical_formula_sum   'Cu8 Ni14 C32'
_cell_volume   607.30112689
_cell_formula_units_Z   2
loop_
 _symmetry_equiv_pos_site_id
 _symmetry_equiv_pos_as_xyz
  1  'x, y, z'
loop_
 _atom_site_type_symbol
 _atom_site_label
 _atom_site_symmetry_multiplicity
 _atom_site_fract_x
 _atom_site_fract_y
 _atom_site_fract_z
 _atom_site_occupancy
  Ni  Ni0  1  0.97298400  0.12394200  0.11257900  1
  Ni  Ni1  1  0.87605800  0.02701600  0.38742100  1
  Ni  Ni2  1  0.02701600  0.87605800  0.88742100  1
  Ni  Ni3  1  0.12394200  0.97298400  0.61257900  1
  Ni  Ni4  1  0.03524100  0.23841500  0.96901900  1
  Ni  Ni5  1  0.76158500  0.96475900  0.53098100  1
  Ni  Ni6  1  0.96475900  0.76158500  0.03098100  1
  Ni  Ni7  1  0.23841500  0.03524100  0.46901900  1
  Ni  Ni8  1  0.00000000  0.00000000  0.00000000  1
  Ni  Ni9  1  0.00000000  0.00000000  0.50000000  1
  Ni  Ni10  1  0.69973900  0.16888900  0.25629800  1
  Ni  Ni11  1  0.83111100  0.30026100  0.24370200  1
  Ni  Ni12  1  0.30026100  0.83111100  0.74370200  1
  Ni  Ni13  1  0.16888900  0.69973900  0.75629800  1
  C  C14  1  0.00000000  0.50000000  0.50000000  1
  C  C15  1  0.50000000  0.00000000  0.00000000  1
  Cu  Cu16  1  0.41569900  0.47597000  0.40173100  1
  Cu  Cu17  1  0.52403000  0.58430100  0.09826900  1
  Cu  Cu18  1  0.58430100  0.52403000  0.59826900  1
  Cu  Cu19  1  0.47597000  0.41569900  0.90173100  1
  Cu  Cu20  1  0.97889200  0.58519400  0.25742500  1
  Cu  Cu21  1  0.41480600  0.02110800  0.24257500  1
  Cu  Cu22  1  0.02110800  0.41480600  0.74257500  1
  Cu  Cu23  1  0.58519400  0.97889200  0.75742500  1
  C  C24  1  0.55932900  0.54686000  0.34174600  1
  C  C25  1  0.45314000  0.44067100  0.15825400  1
  C  C26  1  0.44067100  0.45314000  0.65825400  1
  C  C27  1  0.54686000  0.55932900  0.84174600  1
  C  C28  1  0.41472000  0.30329700  0.45428500  1
  C  C29  1  0.69670300  0.58528000  0.04571500  1
  C  C30  1  0.58528000  0.69670300  0.54571500  1
  C  C31  1  0.30329700  0.41472000  0.95428500  1
  C  C32  1  0.24509000  0.60950100  0.40679900  1
  C  C33  1  0.39049900  0.75491000  0.09320100  1
  C  C34  1  0.75491000  0.39049900  0.59320100  1
  C  C35  1  0.60950100  0.24509000  0.90679900  1
  C  C36  1  0.97990400  0.53816000  0.17158300  1
  C  C37  1  0.46184000  0.02009600  0.32841700  1
  C  C38  1  0.02009600  0.46184000  0.82841700  1
  C  C39  1  0.53816000  0.97990400  0.67158300  1
  C  C40  1  0.95310500  0.75074300  0.26103500  1
  C  C41  1  0.24925700  0.04689500  0.23896500  1
  C  C42  1  0.04689500  0.24925700  0.73896500  1
  C  C43  1  0.75074300  0.95310500  0.76103500  1
  C  C44  1  0.00944800  0.43180600  0.35324300  1
  C  C45  1  0.56819400  0.99055200  0.14675700  1
  C  C46  1  0.99055200  0.56819400  0.64675700  1
  C  C47  1  0.43180600  0.00944800  0.85324300  1
  C  C48  1  0.04740100  0.10934300  0.02914800  1
  C  C49  1  0.89065700  0.95259900  0.47085200  1
  C  C50  1  0.95259900  0.89065700  0.97085200  1
  C  C51  1  0.10934300  0.04740100  0.52914800  1
  C  C52  1  0.83259700  0.16740300  0.25000000  1
  C  C53  1  0.16740300  0.83259700  0.75000000  1
