# generated using pymatgen
data_Cu4NiC12
_symmetry_space_group_name_H-M   'P 1'
_cell_length_a   7.26863400
_cell_length_b   4.59348300
_cell_length_c   9.34457750
_cell_angle_alpha   89.61178448
_cell_angle_beta   90.00000000
_cell_angle_gamma   90.00000000
_symmetry_Int_Tables_number   1
_chemical_formula_structural   Cu4NiC12
_chemical_formula_sum   'Cu8 Ni2 C24'
_cell_volume   311.99283165
_cell_formula_units_Z   2
loop_
 _symmetry_equiv_pos_site_id
 _symmetry_equiv_pos_as_xyz
  1  'x, y, z'
loop_
 _atom_site_type_symbol
 _atom_site_label
 _atom_site_symmetry_multiplicity
 _atom_site_fract_x
 _atom_site_fract_y
 _atom_site_fract_z
 _atom_site_occupancy
  C  C0  1  0.39601400  0.00371600  0.83495400  1
  C  C1  1  0.89601400  0.99628400  0.66504600  1
  C  C2  1  0.10398600  0.00371600  0.33495400  1
  C  C3  1  0.60398600  0.99628400  0.16504600  1
  Ni  Ni4  1  0.00000000  0.00000000  0.00000000  1
  Ni  Ni5  1  0.50000000  0.00000000  0.50000000  1
  Cu  Cu6  1  0.26833700  0.53941300  0.08036100  1
  Cu  Cu7  1  0.76833700  0.46058700  0.41963900  1
  Cu  Cu8  1  0.73166300  0.46058700  0.91963900  1
  Cu  Cu9  1  0.23166300  0.53941300  0.58036100  1
  Cu  Cu10  1  0.59837900  0.52820800  0.66237100  1
  Cu  Cu11  1  0.09837900  0.47179200  0.83762900  1
  Cu  Cu12  1  0.90162100  0.52820800  0.16237100  1
  Cu  Cu13  1  0.40162100  0.47179200  0.33762900  1
  C  C14  1  0.22265200  0.35853200  0.95222700  1
  C  C15  1  0.72265200  0.64146800  0.54777300  1
  C  C16  1  0.83516900  0.65799400  0.30076000  1
  C  C17  1  0.33516900  0.34200600  0.19924000  1
  C  C18  1  0.16483100  0.34200600  0.69924000  1
  C  C19  1  0.66483100  0.65799400  0.80076000  1
  C  C20  1  0.08785900  0.67736800  0.13822400  1
  C  C21  1  0.58785900  0.32263200  0.36177600  1
  C  C22  1  0.91214100  0.32263200  0.86177600  1
  C  C23  1  0.41214100  0.67736800  0.63822400  1
  C  C24  1  0.91055600  0.21423700  0.16644600  1
  C  C25  1  0.41055600  0.78576300  0.33355400  1
  C  C26  1  0.08944400  0.78576300  0.83355400  1
  C  C27  1  0.58944400  0.21423700  0.66644600  1
  C  C28  1  0.11086200  0.77127700  0.54176800  1
  C  C29  1  0.61086200  0.22872300  0.95823200  1
  C  C30  1  0.88913800  0.22872300  0.45823200  1
  C  C31  1  0.38913800  0.77127700  0.04176800  1
  C  C32  1  0.77734800  0.64146800  0.04777300  1
  C  C33  1  0.27734800  0.35853200  0.45222700  1
