# generated using pymatgen
data_CuNi2C11
_symmetry_space_group_name_H-M   'P 1'
_cell_length_a   5.36500100
_cell_length_b   9.41138300
_cell_length_c   16.50156035
_cell_angle_alpha   55.75885633
_cell_angle_beta   90.00000000
_cell_angle_gamma   90.00000000
_symmetry_Int_Tables_number   1
_chemical_formula_structural   CuNi2C11
_chemical_formula_sum   'Cu4 Ni8 C44'
_cell_volume   688.78547684
_cell_formula_units_Z   4
loop_
 _symmetry_equiv_pos_site_id
 _symmetry_equiv_pos_as_xyz
  1  'x, y, z'
loop_
 _atom_site_type_symbol
 _atom_site_label
 _atom_site_symmetry_multiplicity
 _atom_site_fract_x
 _atom_site_fract_y
 _atom_site_fract_z
 _atom_site_occupancy
  C  C0  1  0.49228600  0.44394600  0.40617300  1
  C  C1  1  0.00771400  0.44394600  0.90617300  1
  C  C2  1  0.97665400  0.88028200  0.43508900  1
  C  C3  1  0.50771400  0.55605400  0.59382700  1
  C  C4  1  0.99228600  0.55605400  0.09382700  1
  C  C5  1  0.47665400  0.11971800  0.06491100  1
  C  C6  1  0.52334600  0.88028200  0.93508900  1
  C  C7  1  0.02334600  0.11971800  0.56491100  1
  Ni  Ni8  1  0.02018400  0.83920900  0.83417100  1
  Ni  Ni9  1  0.00194900  0.67532100  0.66681800  1
  Ni  Ni10  1  0.97981600  0.16079100  0.16582900  1
  Ni  Ni11  1  0.47981600  0.83920900  0.33417100  1
  Ni  Ni12  1  0.99805100  0.32467900  0.33318200  1
  Ni  Ni13  1  0.50194900  0.32467900  0.83318200  1
  Ni  Ni14  1  0.52018400  0.16079100  0.66582900  1
  Ni  Ni15  1  0.49805100  0.67532100  0.16681800  1
  Cu  Cu16  1  0.50000000  0.00000000  0.50000000  1
  Cu  Cu17  1  0.00000000  0.00000000  0.00000000  1
  Cu  Cu18  1  0.50000000  0.50000000  0.00000000  1
  Cu  Cu19  1  0.00000000  0.50000000  0.50000000  1
  C  C20  1  0.78877000  0.12094700  0.42489600  1
  C  C21  1  0.70945100  0.32589500  0.10117700  1
  C  C22  1  0.29313000  0.19816900  0.42530400  1
  C  C23  1  0.79313000  0.80183100  0.07469600  1
  C  C24  1  0.78593600  0.64680800  0.94692900  1
  C  C25  1  0.57460400  0.73808500  0.25720700  1
  C  C26  1  0.70687000  0.80183100  0.57469600  1
  C  C27  1  0.92539600  0.73808500  0.75720700  1
  C  C28  1  0.92351000  0.07792100  0.08121700  1
  C  C29  1  0.57071000  0.40443600  0.92696800  1
  C  C30  1  0.20687000  0.19816900  0.92530400  1
  C  C31  1  0.20945100  0.67410500  0.39882300  1
  C  C32  1  0.29561100  0.01445100  0.21987200  1
  C  C33  1  0.07649000  0.92207900  0.91878300  1
  C  C34  1  0.21123000  0.87905300  0.57510400  1
  C  C35  1  0.21985500  0.53318500  0.25144400  1
  C  C36  1  0.29054900  0.67410500  0.89882300  1
  C  C37  1  0.07071000  0.59556400  0.57303200  1
  C  C38  1  0.79561100  0.98554900  0.28012800  1
  C  C39  1  0.28593600  0.35319200  0.55307100  1
  C  C40  1  0.71406400  0.64680800  0.44692900  1
  C  C41  1  0.79054900  0.32589500  0.60117700  1
  C  C42  1  0.07460400  0.26191500  0.24279300  1
  C  C43  1  0.71985500  0.46681500  0.24855600  1
  C  C44  1  0.78014500  0.46681500  0.74855600  1
  C  C45  1  0.28877000  0.87905300  0.07510400  1
  C  C46  1  0.42351000  0.92207900  0.41878300  1
  C  C47  1  0.21406400  0.35319200  0.05307100  1
  C  C48  1  0.70438900  0.98554900  0.78012800  1
  C  C49  1  0.57649000  0.07792100  0.58121700  1
  C  C50  1  0.92929000  0.40443600  0.42696800  1
  C  C51  1  0.20438900  0.01445100  0.71987200  1
  C  C52  1  0.28014500  0.53318500  0.75144400  1
  C  C53  1  0.42539600  0.26191500  0.74279300  1
  C  C54  1  0.42929000  0.59556400  0.07303200  1
  C  C55  1  0.71123000  0.12094700  0.92489600  1
