# generated using pymatgen
data_CuNi2C7
_symmetry_space_group_name_H-M   'P 1'
_cell_length_a   10.48316400
_cell_length_b   11.22512100
_cell_length_c   14.33120600
_cell_angle_alpha   90.00000000
_cell_angle_beta   90.00000000
_cell_angle_gamma   90.00000000
_symmetry_Int_Tables_number   1
_chemical_formula_structural   CuNi2C7
_chemical_formula_sum   'Cu12 Ni24 C84'
_cell_volume   1686.42157571
_cell_formula_units_Z   12
loop_
 _symmetry_equiv_pos_site_id
 _symmetry_equiv_pos_as_xyz
  1  'x, y, z'
loop_
 _atom_site_type_symbol
 _atom_site_label
 _atom_site_symmetry_multiplicity
 _atom_site_fract_x
 _atom_site_fract_y
 _atom_site_fract_z
 _atom_site_occupancy
  C  C0  1  0.21544000  0.25000000  0.97858900  1
  C  C1  1  0.71544000  0.25000000  0.52141100  1
  C  C2  1  0.78456000  0.75000000  0.02141100  1
  C  C3  1  0.28456000  0.75000000  0.47858900  1
  C  C4  1  0.02191400  0.25000000  0.87228600  1
  C  C5  1  0.52191400  0.25000000  0.62771400  1
  C  C6  1  0.97808600  0.75000000  0.12771400  1
  C  C7  1  0.47808600  0.75000000  0.37228600  1
  C  C8  1  0.40299600  0.25000000  0.09108200  1
  C  C9  1  0.90299600  0.25000000  0.40891800  1
  C  C10  1  0.59700400  0.75000000  0.90891800  1
  C  C11  1  0.09700400  0.75000000  0.59108200  1
  C  C12  1  0.84095000  0.37707600  0.83179500  1
  C  C13  1  0.34095000  0.12292400  0.66820500  1
  C  C14  1  0.15905000  0.87707600  0.16820500  1
  C  C15  1  0.65905000  0.62292400  0.33179500  1
  C  C16  1  0.15905000  0.62292400  0.16820500  1
  C  C17  1  0.65905000  0.87707600  0.33179500  1
  C  C18  1  0.84095000  0.12292400  0.83179500  1
  C  C19  1  0.34095000  0.37707600  0.66820500  1
  C  C20  1  0.87248800  0.37816300  0.95480900  1
  C  C21  1  0.37248800  0.12183700  0.54519100  1
  C  C22  1  0.12751200  0.87816300  0.04519100  1
  C  C23  1  0.62751200  0.62183700  0.45480900  1
  C  C24  1  0.12751200  0.62183700  0.04519100  1
  C  C25  1  0.62751200  0.87816300  0.45480900  1
  C  C26  1  0.87248800  0.12183700  0.95480900  1
  C  C27  1  0.37248800  0.37816300  0.54519100  1
  C  C28  1  0.97132400  0.46108700  0.87774600  1
  C  C29  1  0.47132400  0.03891300  0.62225400  1
  C  C30  1  0.02867600  0.96108700  0.12225400  1
  C  C31  1  0.52867600  0.53891300  0.37774600  1
  C  C32  1  0.02867600  0.53891300  0.12225400  1
  C  C33  1  0.52867600  0.96108700  0.37774600  1
  C  C34  1  0.97132400  0.03891300  0.87774600  1
  C  C35  1  0.47132400  0.46108700  0.62225400  1
  C  C36  1  0.11457400  0.17046500  0.73036500  1
  C  C37  1  0.61457400  0.32953500  0.76963500  1
  C  C38  1  0.88542600  0.67046500  0.26963500  1
  C  C39  1  0.38542600  0.82953500  0.23036500  1
  C  C40  1  0.88542600  0.82953500  0.26963500  1
  C  C41  1  0.38542600  0.67046500  0.23036500  1
  C  C42  1  0.11457400  0.32953500  0.73036500  1
  C  C43  1  0.61457400  0.17046500  0.76963500  1
  C  C44  1  0.97022500  0.25000000  0.70591700  1
  C  C45  1  0.47022500  0.25000000  0.79408300  1
  C  C46  1  0.02977500  0.75000000  0.29408300  1
  C  C47  1  0.52977500  0.75000000  0.20591700  1
  C  C48  1  0.31945300  0.11833800  0.21095900  1
  C  C49  1  0.81945300  0.38166200  0.28904100  1
  C  C50  1  0.68054700  0.61833800  0.78904100  1
  C  C51  1  0.18054700  0.88166200  0.71095900  1
  C  C52  1  0.68054700  0.88166200  0.78904100  1
  C  C53  1  0.18054700  0.61833800  0.71095900  1
  C  C54  1  0.31945300  0.38166200  0.21095900  1
  C  C55  1  0.81945300  0.11833800  0.28904100  1
  C  C56  1  0.41526000  0.03995100  0.12816200  1
  C  C57  1  0.91526000  0.46004900  0.37183800  1
  C  C58  1  0.58474000  0.53995100  0.87183800  1
  C  C59  1  0.08474000  0.96004900  0.62816200  1
  C  C60  1  0.58474000  0.96004900  0.87183800  1
  C  C61  1  0.08474000  0.53995100  0.62816200  1
  C  C62  1  0.41526000  0.46004900  0.12816200  1
  C  C63  1  0.91526000  0.03995100  0.37183800  1
  C  C64  1  0.48994000  0.12735400  0.21703200  1
  C  C65  1  0.98994000  0.37264600  0.28296800  1
  C  C66  1  0.51006000  0.62735400  0.78296800  1
  C  C67  1  0.01006000  0.87264600  0.71703200  1
  C  C68  1  0.51006000  0.87264600  0.78296800  1
  C  C69  1  0.01006000  0.62735400  0.71703200  1
  C  C70  1  0.48994000  0.37264600  0.21703200  1
  C  C71  1  0.98994000  0.12735400  0.28296800  1
  C  C72  1  0.57433300  0.17033100  0.99578500  1
  C  C73  1  0.07433300  0.32966900  0.50421500  1
  C  C74  1  0.42566700  0.67033100  0.00421500  1
  C  C75  1  0.92566700  0.82966900  0.49578500  1
  C  C76  1  0.42566700  0.82966900  0.00421500  1
  C  C77  1  0.92566700  0.67033100  0.49578500  1
  C  C78  1  0.57433300  0.32966900  0.99578500  1
  C  C79  1  0.07433300  0.17033100  0.50421500  1
  C  C80  1  0.63594500  0.25000000  0.09392900  1
  C  C81  1  0.13594500  0.25000000  0.40607100  1
  C  C82  1  0.36405500  0.75000000  0.90607100  1
  C  C83  1  0.86405500  0.75000000  0.59392900  1
  Ni  Ni84  1  0.91622400  0.37854200  0.88520600  1
  Ni  Ni85  1  0.41622400  0.12145800  0.61479400  1
  Ni  Ni86  1  0.08377600  0.87854200  0.11479400  1
  Ni  Ni87  1  0.58377600  0.62145800  0.38520600  1
  Ni  Ni88  1  0.08377600  0.62145800  0.11479400  1
  Ni  Ni89  1  0.58377600  0.87854200  0.38520600  1
  Ni  Ni90  1  0.91622400  0.12145800  0.88520600  1
  Ni  Ni91  1  0.41622400  0.37854200  0.61479400  1
  Ni  Ni92  1  0.05829100  0.25000000  0.74744200  1
  Ni  Ni93  1  0.55829100  0.25000000  0.75255800  1
  Ni  Ni94  1  0.94170900  0.75000000  0.25255800  1
  Ni  Ni95  1  0.44170900  0.75000000  0.24744200  1
  Ni  Ni96  1  0.40776000  0.12167400  0.16968000  1
  Ni  Ni97  1  0.90776000  0.37832600  0.33032000  1
  Ni  Ni98  1  0.59224000  0.62167400  0.83032000  1
  Ni  Ni99  1  0.09224000  0.87832600  0.66968000  1
  Ni  Ni100  1  0.59224000  0.87832600  0.83032000  1
  Ni  Ni101  1  0.09224000  0.62167400  0.66968000  1
  Ni  Ni102  1  0.40776000  0.37832600  0.16968000  1
  Ni  Ni103  1  0.90776000  0.12167400  0.33032000  1
  Ni  Ni104  1  0.56240700  0.25000000  0.03922000  1
  Ni  Ni105  1  0.06240700  0.25000000  0.46078000  1
  Ni  Ni106  1  0.43759300  0.75000000  0.96078000  1
  Ni  Ni107  1  0.93759300  0.75000000  0.53922000  1
  Cu  Cu108  1  0.28122100  0.08179700  0.91590900  1
  Cu  Cu109  1  0.78122100  0.41820300  0.58409100  1
  Cu  Cu110  1  0.71877900  0.58179700  0.08409100  1
  Cu  Cu111  1  0.21877900  0.91820300  0.41590900  1
  Cu  Cu112  1  0.71877900  0.91820300  0.08409100  1
  Cu  Cu113  1  0.21877900  0.58179700  0.41590900  1
  Cu  Cu114  1  0.28122100  0.41820300  0.91590900  1
  Cu  Cu115  1  0.78122100  0.08179700  0.58409100  1
  Cu  Cu116  1  0.08752000  0.25000000  0.10042200  1
  Cu  Cu117  1  0.58751900  0.25000000  0.39957800  1
  Cu  Cu118  1  0.91248100  0.75000000  0.89957800  1
  Cu  Cu119  1  0.41248100  0.75000000  0.60042200  1
