# generated using pymatgen
data_Cu2NiC3
_symmetry_space_group_name_H-M   'P 1'
_cell_length_a   13.43104237
_cell_length_b   13.43104237
_cell_length_c   3.74213900
_cell_angle_alpha   90.00000000
_cell_angle_beta   90.00000000
_cell_angle_gamma   120.00000183
_symmetry_Int_Tables_number   1
_chemical_formula_structural   Cu2NiC3
_chemical_formula_sum   'Cu12 Ni6 C18'
_cell_volume   584.61503088
_cell_formula_units_Z   6
loop_
 _symmetry_equiv_pos_site_id
 _symmetry_equiv_pos_as_xyz
  1  'x, y, z'
loop_
 _atom_site_type_symbol
 _atom_site_label
 _atom_site_symmetry_multiplicity
 _atom_site_fract_x
 _atom_site_fract_y
 _atom_site_fract_z
 _atom_site_occupancy
  C  C0  1  0.39791400  0.88349600  0.75000000  1
  C  C1  1  0.48558200  0.60208600  0.75000000  1
  C  C2  1  0.11650400  0.51441800  0.75000000  1
  C  C3  1  0.60208600  0.11650400  0.25000000  1
  C  C4  1  0.51441800  0.39791400  0.25000000  1
  C  C5  1  0.88349600  0.48558200  0.25000000  1
  C  C6  1  0.05519300  0.76615900  0.75000000  1
  C  C7  1  0.71096500  0.94480700  0.75000000  1
  C  C8  1  0.23384100  0.28903500  0.75000000  1
  C  C9  1  0.94480700  0.23384100  0.25000000  1
  C  C10  1  0.28903500  0.05519300  0.25000000  1
  C  C11  1  0.76615900  0.71096500  0.25000000  1
  C  C12  1  0.71905200  0.51264900  0.75000000  1
  C  C13  1  0.79359700  0.28094800  0.75000000  1
  C  C14  1  0.48735100  0.20640300  0.75000000  1
  C  C15  1  0.28094800  0.48735100  0.25000000  1
  C  C16  1  0.20640300  0.71905200  0.25000000  1
  C  C17  1  0.51264900  0.79359700  0.25000000  1
  Ni  Ni18  1  0.98575200  0.57337100  0.75000000  1
  Ni  Ni19  1  0.58761900  0.01424800  0.75000000  1
  Ni  Ni20  1  0.42662900  0.41238100  0.75000000  1
  Ni  Ni21  1  0.01424800  0.42662900  0.25000000  1
  Ni  Ni22  1  0.41238100  0.98575200  0.25000000  1
  Ni  Ni23  1  0.57337100  0.58761900  0.25000000  1
  Cu  Cu24  1  0.89401100  0.79279500  0.75000000  1
  Cu  Cu25  1  0.89878400  0.10598900  0.75000000  1
  Cu  Cu26  1  0.20720500  0.10121600  0.75000000  1
  Cu  Cu27  1  0.10598900  0.20720500  0.25000000  1
  Cu  Cu28  1  0.10121600  0.89401100  0.25000000  1
  Cu  Cu29  1  0.79279500  0.89878400  0.25000000  1
  Cu  Cu30  1  0.24752200  0.93333200  0.75000000  1
  Cu  Cu31  1  0.68581000  0.75247800  0.75000000  1
  Cu  Cu32  1  0.06666800  0.31419000  0.75000000  1
  Cu  Cu33  1  0.75247800  0.06666800  0.25000000  1
  Cu  Cu34  1  0.31419000  0.24752200  0.25000000  1
  Cu  Cu35  1  0.93333200  0.68581000  0.25000000  1
