# generated using pymatgen
data_CuNi2C9
_symmetry_space_group_name_H-M   'P 1'
_cell_length_a   7.44716600
_cell_length_b   7.44716600
_cell_length_c   4.92947000
_cell_angle_alpha   90.00000000
_cell_angle_beta   90.00000000
_cell_angle_gamma   90.00000000
_symmetry_Int_Tables_number   1
_chemical_formula_structural   CuNi2C9
_chemical_formula_sum   'Cu2 Ni4 C18'
_cell_volume   273.38979351
_cell_formula_units_Z   2
loop_
 _symmetry_equiv_pos_site_id
 _symmetry_equiv_pos_as_xyz
  1  'x, y, z'
loop_
 _atom_site_type_symbol
 _atom_site_label
 _atom_site_symmetry_multiplicity
 _atom_site_fract_x
 _atom_site_fract_y
 _atom_site_fract_z
 _atom_site_occupancy
  C  C0  1  0.16136100  0.33863900  0.50367500  1
  C  C1  1  0.83863900  0.66136100  0.50367500  1
  C  C2  1  0.66136100  0.16136100  0.49632500  1
  C  C3  1  0.33863900  0.83863900  0.49632500  1
  Ni  Ni4  1  0.63621200  0.86378800  0.95525900  1
  Ni  Ni5  1  0.36378800  0.13621200  0.95525900  1
  Ni  Ni6  1  0.13621200  0.63621200  0.04474100  1
  Ni  Ni7  1  0.86378800  0.36378800  0.04474100  1
  Cu  Cu8  1  0.00000000  0.00000000  0.00000000  1
  Cu  Cu9  1  0.50000000  0.50000000  0.00000000  1
  C  C10  1  0.00000000  0.50000000  0.17518900  1
  C  C11  1  0.50000000  0.00000000  0.82481100  1
  C  C12  1  0.63936500  0.86063500  0.28528800  1
  C  C13  1  0.36063500  0.13936500  0.28528800  1
  C  C14  1  0.13936500  0.63936500  0.71471200  1
  C  C15  1  0.86063500  0.36063500  0.71471200  1
  C  C16  1  0.07704700  0.83551800  0.19084800  1
  C  C17  1  0.92295300  0.16448200  0.19084800  1
  C  C18  1  0.16448200  0.07704700  0.80915200  1
  C  C19  1  0.42295300  0.33551800  0.80915200  1
  C  C20  1  0.83551800  0.92295300  0.80915200  1
  C  C21  1  0.57704700  0.66448200  0.80915200  1
  C  C22  1  0.33551800  0.57704700  0.19084800  1
  C  C23  1  0.66448200  0.42295300  0.19084800  1
