# generated using pymatgen
data_Cu(NiC9)3
_symmetry_space_group_name_H-M   'P 1'
_cell_length_a   7.33385548
_cell_length_b   7.33385548
_cell_length_c   17.85176000
_cell_angle_alpha   90.00000000
_cell_angle_beta   90.00000000
_cell_angle_gamma   119.99999528
_symmetry_Int_Tables_number   1
_chemical_formula_structural   Cu(NiC9)3
_chemical_formula_sum   'Cu2 Ni6 C54'
_cell_volume   831.52705965
_cell_formula_units_Z   2
loop_
 _symmetry_equiv_pos_site_id
 _symmetry_equiv_pos_as_xyz
  1  'x, y, z'
loop_
 _atom_site_type_symbol
 _atom_site_label
 _atom_site_symmetry_multiplicity
 _atom_site_fract_x
 _atom_site_fract_y
 _atom_site_fract_z
 _atom_site_occupancy
  Ni  Ni0  1  0.66666700  0.33333300  0.86386000  1
  Ni  Ni1  1  0.33333300  0.66666700  0.13614000  1
  Ni  Ni2  1  0.33333300  0.66666700  0.36386000  1
  Ni  Ni3  1  0.66666700  0.33333300  0.63614000  1
  Ni  Ni4  1  0.00000000  0.00000000  0.75000000  1
  Ni  Ni5  1  0.00000000  0.00000000  0.25000000  1
  Cu  Cu6  1  0.00000000  0.00000000  0.00000000  1
  Cu  Cu7  1  0.00000000  0.00000000  0.50000000  1
  C  C8  1  0.54627600  0.83704800  0.91665500  1
  C  C9  1  0.45372400  0.16295200  0.08334500  1
  C  C10  1  0.29077300  0.45372400  0.91665500  1
  C  C11  1  0.45372400  0.16295200  0.41665500  1
  C  C12  1  0.70922700  0.54627600  0.08334500  1
  C  C13  1  0.54627600  0.83704800  0.58334500  1
  C  C14  1  0.16295200  0.70922700  0.91665500  1
  C  C15  1  0.70922700  0.54627600  0.41665500  1
  C  C16  1  0.83704800  0.29077300  0.08334500  1
  C  C17  1  0.29077300  0.45372400  0.58334500  1
  C  C18  1  0.83704800  0.29077300  0.41665500  1
  C  C19  1  0.16295200  0.70922700  0.58334500  1
  C  C20  1  0.50325800  0.62231900  0.75000000  1
  C  C21  1  0.49674200  0.37768100  0.25000000  1
  C  C22  1  0.11906100  0.49674200  0.75000000  1
  C  C23  1  0.88093900  0.50325800  0.25000000  1
  C  C24  1  0.37768100  0.88093900  0.75000000  1
  C  C25  1  0.62231900  0.11906100  0.25000000  1
  C  C26  1  0.54029200  0.83143600  0.75000000  1
  C  C27  1  0.45970800  0.16856400  0.25000000  1
  C  C28  1  0.29114500  0.45970800  0.75000000  1
  C  C29  1  0.70885500  0.54029200  0.25000000  1
  C  C30  1  0.16856400  0.70885500  0.75000000  1
  C  C31  1  0.83143600  0.29114500  0.25000000  1
  C  C32  1  0.92253100  0.33516100  0.75000000  1
  C  C33  1  0.07746900  0.66483900  0.25000000  1
  C  C34  1  0.41263000  0.07746900  0.75000000  1
  C  C35  1  0.58737000  0.92253100  0.25000000  1
  C  C36  1  0.66483900  0.58737000  0.75000000  1
  C  C37  1  0.33516100  0.41263000  0.25000000  1
  C  C38  1  0.74328500  0.99919700  0.91519200  1
  C  C39  1  0.25671500  0.00080300  0.08480800  1
  C  C40  1  0.25591100  0.25671500  0.91519200  1
  C  C41  1  0.25671500  0.00080300  0.41519200  1
  C  C42  1  0.74408900  0.74328500  0.08480800  1
  C  C43  1  0.74328500  0.99919700  0.58480800  1
  C  C44  1  0.00080300  0.74408900  0.91519200  1
  C  C45  1  0.74408900  0.74328500  0.41519200  1
  C  C46  1  0.99919700  0.25591100  0.08480800  1
  C  C47  1  0.25591100  0.25671500  0.58480800  1
  C  C48  1  0.99919700  0.25591100  0.41519200  1
  C  C49  1  0.00080300  0.74408900  0.58480800  1
  C  C50  1  0.49890800  0.62551900  0.91774700  1
  C  C51  1  0.50109200  0.37448100  0.08225300  1
  C  C52  1  0.12661100  0.50109200  0.91774700  1
  C  C53  1  0.50109200  0.37448100  0.41774700  1
  C  C54  1  0.87338900  0.49890800  0.08225300  1
  C  C55  1  0.49890800  0.62551900  0.58225300  1
  C  C56  1  0.37448100  0.87338900  0.91774700  1
  C  C57  1  0.87338900  0.49890800  0.41774700  1
  C  C58  1  0.62551900  0.12661100  0.08225300  1
  C  C59  1  0.12661100  0.50109200  0.58225300  1
  C  C60  1  0.62551900  0.12661100  0.41774700  1
  C  C61  1  0.37448100  0.87338900  0.58225300  1
