# generated using pymatgen
data_CuNi5C14
_symmetry_space_group_name_H-M   'P 1'
_cell_length_a   13.89819222
_cell_length_b   13.63383892
_cell_length_c   13.80860679
_cell_angle_alpha   90.00000000
_cell_angle_beta   90.00000000
_cell_angle_gamma   90.00000000
_symmetry_Int_Tables_number   1
_chemical_formula_structural   CuNi5C14
_chemical_formula_sum   'Cu8 Ni40 C112'
_cell_volume   2616.53371704
_cell_formula_units_Z   8
loop_
 _symmetry_equiv_pos_site_id
 _symmetry_equiv_pos_as_xyz
  1  'x, y, z'
loop_
 _atom_site_type_symbol
 _atom_site_label
 _atom_site_symmetry_multiplicity
 _atom_site_fract_x
 _atom_site_fract_y
 _atom_site_fract_z
 _atom_site_occupancy
  C  C0  1  0.36945915  0.62780252  0.13561879  1
  C  C1  1  0.63054085  0.12780252  0.36438121  1
  C  C2  1  0.13054085  0.37219748  0.63561879  1
  C  C3  1  0.86945915  0.87219748  0.86438121  1
  C  C4  1  0.63054085  0.37219748  0.86438121  1
  C  C5  1  0.36945915  0.87219748  0.63561879  1
  C  C6  1  0.86945915  0.62780252  0.36438121  1
  C  C7  1  0.13054085  0.12780252  0.13561879  1
  C  C8  1  0.10621228  0.87546327  0.37297385  1
  C  C9  1  0.89378772  0.37546327  0.12702615  1
  C  C10  1  0.39378772  0.12453673  0.87297385  1
  C  C11  1  0.60621228  0.62453673  0.62702615  1
  C  C12  1  0.89378772  0.12453673  0.62702615  1
  C  C13  1  0.10621228  0.62453673  0.87297385  1
  C  C14  1  0.60621228  0.87546327  0.12702615  1
  C  C15  1  0.39378772  0.37546327  0.37297385  1
  Ni  Ni16  1  0.90188208  0.63480643  0.66549513  1
  Ni  Ni17  1  0.09811792  0.13480643  0.83450487  1
  Ni  Ni18  1  0.59811792  0.36519357  0.16549513  1
  Ni  Ni19  1  0.40188208  0.86519357  0.33450487  1
  Ni  Ni20  1  0.09811792  0.36519357  0.33450487  1
  Ni  Ni21  1  0.90188208  0.86519357  0.16549513  1
  Ni  Ni22  1  0.40188208  0.63480643  0.83450487  1
  Ni  Ni23  1  0.59811792  0.13480643  0.66549513  1
  Ni  Ni24  1  0.85906367  0.08727760  0.11858861  1
  Ni  Ni25  1  0.14093633  0.58727760  0.38141139  1
  Ni  Ni26  1  0.64093633  0.91272240  0.61858861  1
  Ni  Ni27  1  0.35906367  0.41272240  0.88141139  1
  Ni  Ni28  1  0.14093633  0.91272240  0.88141139  1
  Ni  Ni29  1  0.85906367  0.41272240  0.61858861  1
  Ni  Ni30  1  0.35906367  0.08727760  0.38141139  1
  Ni  Ni31  1  0.64093633  0.58727760  0.11858861  1
  Ni  Ni32  1  0.39550589  0.16844398  0.58421531  1
  Ni  Ni33  1  0.60449411  0.66844398  0.91578469  1
  Ni  Ni34  1  0.10449411  0.83155602  0.08421531  1
  Ni  Ni35  1  0.89550589  0.33155602  0.41578469  1
  Ni  Ni36  1  0.60449411  0.83155602  0.41578469  1
  Ni  Ni37  1  0.39550589  0.33155602  0.08421531  1
  Ni  Ni38  1  0.89550589  0.16844398  0.91578469  1
  Ni  Ni39  1  0.10449411  0.66844398  0.58421531  1
  Ni  Ni40  1  0.68374780  0.40288745  0.36809495  1
  Ni  Ni41  1  0.31625220  0.90288745  0.13190505  1
  Ni  Ni42  1  0.81625220  0.59711255  0.86809495  1
  Ni  Ni43  1  0.18374780  0.09711255  0.63190505  1
  Ni  Ni44  1  0.31625220  0.59711255  0.63190505  1
  Ni  Ni45  1  0.68374780  0.09711255  0.86809495  1
  Ni  Ni46  1  0.18374780  0.40288745  0.13190505  1
  Ni  Ni47  1  0.81625220  0.90288745  0.36809495  1
  Ni  Ni48  1  0.14010990  0.34029881  0.92141158  1
  Ni  Ni49  1  0.85989010  0.84029881  0.57858842  1
  Ni  Ni50  1  0.35989010  0.65970119  0.42141158  1
  Ni  Ni51  1  0.64010990  0.15970119  0.07858842  1
  Ni  Ni52  1  0.85989010  0.65970119  0.07858842  1
  Ni  Ni53  1  0.14010990  0.15970119  0.42141158  1
  Ni  Ni54  1  0.64010990  0.34029881  0.57858842  1
  Ni  Ni55  1  0.35989010  0.84029881  0.92141158  1
  Cu  Cu56  1  0.57692428  0.88379881  0.84132768  1
  Cu  Cu57  1  0.42307572  0.38379881  0.65867232  1
  Cu  Cu58  1  0.92307572  0.11620119  0.34132768  1
  Cu  Cu59  1  0.07692428  0.61620119  0.15867232  1
  Cu  Cu60  1  0.42307572  0.11620119  0.15867232  1
  Cu  Cu61  1  0.57692428  0.61620119  0.34132768  1
  Cu  Cu62  1  0.07692428  0.88379881  0.65867232  1
  Cu  Cu63  1  0.92307572  0.38379881  0.84132768  1
  C  C64  1  0.35296023  0.96680922  0.36946001  1
  C  C65  1  0.64703977  0.46680922  0.13053999  1
  C  C66  1  0.14703977  0.03319078  0.86946001  1
  C  C67  1  0.85296023  0.53319078  0.63053999  1
  C  C68  1  0.64703977  0.03319078  0.63053999  1
  C  C69  1  0.35296023  0.53319078  0.86946001  1
  C  C70  1  0.85296023  0.96680922  0.13053999  1
  C  C71  1  0.14703977  0.46680922  0.36946001  1
  C  C72  1  0.08597858  0.60204524  0.48662354  1
  C  C73  1  0.91402142  0.10204524  0.01337646  1
  C  C74  1  0.41402142  0.39795476  0.98662354  1
  C  C75  1  0.58597858  0.89795476  0.51337646  1
  C  C76  1  0.91402142  0.39795476  0.51337646  1
  C  C77  1  0.08597858  0.89795476  0.98662354  1
  C  C78  1  0.58597858  0.60204524  0.01337646  1
  C  C79  1  0.41402142  0.10204524  0.48662354  1
  C  C80  1  0.01947095  0.86760426  0.16163943  1
  C  C81  1  0.98052905  0.36760426  0.33836057  1
  C  C82  1  0.48052905  0.13239574  0.66163943  1
  C  C83  1  0.51947095  0.63239574  0.83836057  1
  C  C84  1  0.98052905  0.13239574  0.83836057  1
  C  C85  1  0.01947095  0.63239574  0.66163943  1
  C  C86  1  0.51947095  0.86760426  0.33836057  1
  C  C87  1  0.48052905  0.36760426  0.16163943  1
  C  C88  1  0.89509433  0.21676049  0.43871027  1
  C  C89  1  0.10490567  0.71676049  0.06128973  1
  C  C90  1  0.60490567  0.78323951  0.93871027  1
  C  C91  1  0.39509433  0.28323951  0.56128973  1
  C  C92  1  0.10490567  0.78323951  0.56128973  1
  C  C93  1  0.89509433  0.28323951  0.93871027  1
  C  C94  1  0.39509433  0.21676049  0.06128973  1
  C  C95  1  0.60490567  0.71676049  0.43871027  1
  C  C96  1  0.12844972  0.15531734  0.72208283  1
  C  C97  1  0.87155028  0.65531734  0.77791717  1
  C  C98  1  0.37155028  0.84468266  0.22208283  1
  C  C99  1  0.62844972  0.34468266  0.27791717  1
  C  C100  1  0.87155028  0.84468266  0.27791717  1
  C  C101  1  0.12844972  0.34468266  0.22208283  1
  C  C102  1  0.62844972  0.15531734  0.77791717  1
  C  C103  1  0.37155028  0.65531734  0.72208283  1
  C  C104  1  0.75249108  0.87863305  0.60644303  1
  C  C105  1  0.24750892  0.37863305  0.89355697  1
  C  C106  1  0.74750892  0.12136695  0.10644303  1
  C  C107  1  0.25249108  0.62136695  0.39355697  1
  C  C108  1  0.24750892  0.12136695  0.39355697  1
  C  C109  1  0.75249108  0.62136695  0.10644303  1
  C  C110  1  0.25249108  0.87863305  0.89355697  1
  C  C111  1  0.74750892  0.37863305  0.60644303  1
  C  C112  1  0.82139930  0.48041144  0.86629837  1
  C  C113  1  0.17860070  0.98041144  0.63370163  1
  C  C114  1  0.67860070  0.51958856  0.36629837  1
  C  C115  1  0.32139930  0.01958856  0.13370163  1
  C  C116  1  0.17860070  0.51958856  0.13370163  1
  C  C117  1  0.82139930  0.01958856  0.36629837  1
  C  C118  1  0.32139930  0.48041144  0.63370163  1
  C  C119  1  0.67860070  0.98041144  0.86629837  1
  C  C120  1  0.62720885  0.14895705  0.96009051  1
  C  C121  1  0.37279115  0.64895705  0.53990949  1
  C  C122  1  0.87279115  0.85104295  0.46009051  1
  C  C123  1  0.12720885  0.35104295  0.03990949  1
  C  C124  1  0.37279115  0.85104295  0.03990949  1
  C  C125  1  0.62720885  0.35104295  0.46009051  1
  C  C126  1  0.12720885  0.14895705  0.53990949  1
  C  C127  1  0.87279115  0.64895705  0.96009051  1
  C  C128  1  0.56319809  0.39836207  0.64242797  1
  C  C129  1  0.43680191  0.89836207  0.85757203  1
  C  C130  1  0.93680191  0.60163793  0.14242797  1
  C  C131  1  0.06319809  0.10163793  0.35757203  1
  C  C132  1  0.43680191  0.60163793  0.35757203  1
  C  C133  1  0.56319809  0.10163793  0.14242797  1
  C  C134  1  0.06319809  0.39836207  0.85757203  1
  C  C135  1  0.93680191  0.89836207  0.64242797  1
  C  C136  1  0.35884393  0.71939141  0.90559974  1
  C  C137  1  0.64115607  0.21939141  0.59440026  1
  C  C138  1  0.14115607  0.28060859  0.40559974  1
  C  C139  1  0.85884393  0.78060859  0.09440026  1
  C  C140  1  0.64115607  0.28060859  0.09440026  1
  C  C141  1  0.35884393  0.78060859  0.40559974  1
  C  C142  1  0.85884393  0.71939141  0.59440026  1
  C  C143  1  0.14115607  0.21939141  0.90559974  1
  C  C144  1  0.58432452  0.64466859  0.20189332  1
  C  C145  1  0.41567548  0.14466859  0.29810668  1
  C  C146  1  0.91567548  0.35533141  0.70189332  1
  C  C147  1  0.08432452  0.85533141  0.79810668  1
  C  C148  1  0.41567548  0.35533141  0.79810668  1
  C  C149  1  0.58432452  0.85533141  0.70189332  1
  C  C150  1  0.08432452  0.64466859  0.29810668  1
  C  C151  1  0.91567548  0.14466859  0.20189332  1
  C  C152  1  0.29650876  0.36780886  0.13881242  1
  C  C153  1  0.70349124  0.86780886  0.36118758  1
  C  C154  1  0.20349124  0.63219114  0.63881242  1
  C  C155  1  0.79650876  0.13219114  0.86118758  1
  C  C156  1  0.70349124  0.63219114  0.86118758  1
  C  C157  1  0.29650876  0.13219114  0.63881242  1
  C  C158  1  0.79650876  0.36780886  0.36118758  1
  C  C159  1  0.20349124  0.86780886  0.13881242  1
