# generated using pymatgen
data_Cu4Ni3C37
_symmetry_space_group_name_H-M   'P 1'
_cell_length_a   6.40787700
_cell_length_b   6.48534004
_cell_length_c   16.40977012
_cell_angle_alpha   100.68830622
_cell_angle_beta   93.20815835
_cell_angle_gamma   102.99199321
_symmetry_Int_Tables_number   1
_chemical_formula_structural   Cu4Ni3C37
_chemical_formula_sum   'Cu4 Ni3 C37'
_cell_volume   649.55469856
_cell_formula_units_Z   1
loop_
 _symmetry_equiv_pos_site_id
 _symmetry_equiv_pos_as_xyz
  1  'x, y, z'
loop_
 _atom_site_type_symbol
 _atom_site_label
 _atom_site_symmetry_multiplicity
 _atom_site_fract_x
 _atom_site_fract_y
 _atom_site_fract_z
 _atom_site_occupancy
  Ni  Ni0  1  0.26063900  0.68448100  0.88539000  1
  Ni  Ni1  1  0.73892100  0.31603900  0.11326100  1
  Ni  Ni2  1  0.23949300  0.31454200  0.61533000  1
  Cu  Cu3  1  0.24948400  0.99887200  0.25011800  1
  Cu  Cu4  1  0.74970500  0.99877900  0.75031500  1
  Cu  Cu5  1  0.00071700  0.00046900  0.99968000  1
  Cu  Cu6  1  0.49976500  0.99908200  0.50015200  1
  C  C7  1  0.76080600  0.68617300  0.38617500  1
  C  C8  1  0.82119800  0.24444900  0.33001600  1
  C  C9  1  0.32145600  0.24159900  0.83185900  1
  C  C10  1  0.67856200  0.75994100  0.16500000  1
  C  C11  1  0.17945300  0.75817000  0.66853900  1
  C  C12  1  0.27074400  0.47113600  0.09277100  1
  C  C13  1  0.77110700  0.46929900  0.59656700  1
  C  C14  1  0.22842300  0.52509900  0.40764100  1
  C  C15  1  0.72833100  0.52848100  0.90684600  1
  C  C16  1  0.04528500  0.32452200  0.13632600  1
  C  C17  1  0.54498600  0.31931900  0.63867100  1
  C  C18  1  0.44504700  0.67672100  0.35979400  1
  C  C19  1  0.95422800  0.67560700  0.86368900  1
  C  C20  1  0.70002500  0.25115500  0.23131900  1
  C  C21  1  0.19979200  0.25029000  0.73294900  1
  C  C22  1  0.80851700  0.75324400  0.26259100  1
  C  C23  1  0.30080800  0.74996400  0.76749100  1
  C  C24  1  0.08054900  0.71085200  0.41095200  1
  C  C25  1  0.56961100  0.70771900  0.90715600  1
  C  C26  1  0.42959800  0.29213900  0.09257500  1
  C  C27  1  0.93008500  0.29230300  0.59318900  1
  C  C28  1  0.22925200  0.64541700  0.00296500  1
  C  C29  1  0.72343200  0.64780300  0.50899100  1
  C  C30  1  0.27236600  0.35114600  0.49705700  1
  C  C31  1  0.77105300  0.35461100  0.99641500  1
  C  C32  1  0.39764100  0.63591700  0.17006100  1
  C  C33  1  0.89897400  0.63371000  0.67348800  1
  C  C34  1  0.10210600  0.36716000  0.32828500  1
  C  C35  1  0.60299000  0.36465300  0.82922900  1
  C  C36  1  0.70646000  0.36920000  0.38831900  1
  C  C37  1  0.21343000  0.37849800  0.88797700  1
  C  C38  1  0.78547700  0.62151800  0.10927700  1
  C  C39  1  0.28630000  0.62062000  0.61225500  1
  C  C40  1  0.81153500  0.99640500  0.38841900  1
  C  C41  1  0.30510000  0.98807400  0.88699300  1
  C  C42  1  0.69244400  0.01363500  0.11070000  1
  C  C43  1  0.19410500  0.01118900  0.61320600  1
