# generated using pymatgen
data_Cu6Ni6C41
_symmetry_space_group_name_H-M   'P 1'
_cell_length_a   9.61452010
_cell_length_b   9.61452010
_cell_length_c   7.22996037
_cell_angle_alpha   75.42735740
_cell_angle_beta   75.42735740
_cell_angle_gamma   113.85546801
_symmetry_Int_Tables_number   1
_chemical_formula_structural   Cu6Ni6C41
_chemical_formula_sum   'Cu6 Ni6 C41'
_cell_volume   542.38502426
_cell_formula_units_Z   1
loop_
 _symmetry_equiv_pos_site_id
 _symmetry_equiv_pos_as_xyz
  1  'x, y, z'
loop_
 _atom_site_type_symbol
 _atom_site_label
 _atom_site_symmetry_multiplicity
 _atom_site_fract_x
 _atom_site_fract_y
 _atom_site_fract_z
 _atom_site_occupancy
  C  C0  1  0.99546700  0.99546700  0.77979000  1
  C  C1  1  0.99859700  0.81595200  0.42623000  1
  C  C2  1  0.81595200  0.99859700  0.42623000  1
  Ni  Ni3  1  0.56011500  0.33217300  0.09332100  1
  Ni  Ni4  1  0.77541500  0.44328800  0.65199900  1
  Ni  Ni5  1  0.66859500  0.22482400  0.42730500  1
  Ni  Ni6  1  0.44328800  0.77541500  0.65199900  1
  Ni  Ni7  1  0.33217300  0.56011500  0.09332100  1
  Ni  Ni8  1  0.22482400  0.66859500  0.42730500  1
  C  C9  1  0.17845800  0.17845800  0.24354600  1
  Cu  Cu10  1  0.38238700  0.19289700  0.80795900  1
  Cu  Cu11  1  0.81080300  0.61716100  0.19304200  1
  Cu  Cu12  1  0.80645100  0.18879500  0.00435800  1
  Cu  Cu13  1  0.61716100  0.81080300  0.19304200  1
  Cu  Cu14  1  0.19289700  0.38238700  0.80795900  1
  Cu  Cu15  1  0.18879500  0.80645100  0.00435800  1
  C  C16  1  0.33309400  0.00095100  0.44027800  1
  C  C17  1  0.66870200  0.66870200  0.77261400  1
  C  C18  1  0.00095100  0.33309400  0.44027800  1
  C  C19  1  0.38365500  0.38365500  0.36796500  1
  C  C20  1  0.99978000  0.61529000  0.75331400  1
  C  C21  1  0.61529000  0.99978000  0.75331400  1
  C  C22  1  0.57127900  0.28380200  0.63555700  1
  C  C23  1  0.71329100  0.42885900  0.20659500  1
  C  C24  1  0.71503300  0.28600400  0.92006400  1
  C  C25  1  0.42885900  0.71329100  0.20659500  1
  C  C26  1  0.28380200  0.57127900  0.63555700  1
  C  C27  1  0.28600400  0.71503300  0.92006400  1
  C  C28  1  0.48407700  0.14923900  0.35041000  1
  C  C29  1  0.66501200  0.51614000  0.83538400  1
  C  C30  1  0.85160600  0.33360800  0.50185500  1
  C  C31  1  0.51614000  0.66501200  0.83538400  1
  C  C32  1  0.14923900  0.48407700  0.35041000  1
  C  C33  1  0.33360800  0.85160600  0.50185500  1
  C  C34  1  0.18794500  0.00158000  0.46210900  1
  C  C35  1  0.81271600  0.81271600  0.64998900  1
  C  C36  1  0.00158000  0.18794500  0.46210900  1
  C  C37  1  0.28172400  0.28172400  0.72167900  1
  C  C38  1  0.00007400  0.71960400  0.00465100  1
  C  C39  1  0.71960400  0.00007400  0.00465100  1
  C  C40  1  0.28012800  0.99973600  0.83619500  1
  C  C41  1  0.71996300  0.71996300  0.11761200  1
  C  C42  1  0.99973600  0.28012800  0.83619500  1
  C  C43  1  0.00961100  0.00961100  0.21516000  1
  C  C44  1  0.38650900  0.20498300  0.02690200  1
  C  C45  1  0.81844700  0.61247000  0.41447500  1
  C  C46  1  0.79492300  0.18193400  0.23304400  1
  C  C47  1  0.61247000  0.81844700  0.41447500  1
  C  C48  1  0.20498300  0.38650900  0.02690200  1
  C  C49  1  0.18193400  0.79492300  0.23304400  1
  C  C50  1  0.39535200  0.39535200  0.22563500  1
  C  C51  1  0.00002100  0.60155000  0.62390900  1
  C  C52  1  0.60155000  0.00002100  0.62390900  1
