# generated using pymatgen
data_CuNiC4
_symmetry_space_group_name_H-M   'P 1'
_cell_length_a   7.34837300
_cell_length_b   7.34837300
_cell_length_c   12.27678100
_cell_angle_alpha   90.00000000
_cell_angle_beta   90.00000000
_cell_angle_gamma   90.00000000
_symmetry_Int_Tables_number   1
_chemical_formula_structural   CuNiC4
_chemical_formula_sum   'Cu4 Ni4 C16'
_cell_volume   662.92881153
_cell_formula_units_Z   4
loop_
 _symmetry_equiv_pos_site_id
 _symmetry_equiv_pos_as_xyz
  1  'x, y, z'
loop_
 _atom_site_type_symbol
 _atom_site_label
 _atom_site_symmetry_multiplicity
 _atom_site_fract_x
 _atom_site_fract_y
 _atom_site_fract_z
 _atom_site_occupancy
  Ni  Ni0  1  0.50000000  0.50000000  0.75000000  1
  Ni  Ni1  1  0.00000000  0.00000000  0.00000000  1
  Ni  Ni2  1  0.00000000  0.00000000  0.50000000  1
  Ni  Ni3  1  0.50000000  0.50000000  0.25000000  1
  Cu  Cu4  1  0.50000000  0.00000000  0.54715100  1
  Cu  Cu5  1  0.00000000  0.50000000  0.45284900  1
  Cu  Cu6  1  0.00000000  0.50000000  0.04715100  1
  Cu  Cu7  1  0.50000000  0.00000000  0.95284900  1
  C  C8  1  0.81448900  0.22537700  0.60025500  1
  C  C9  1  0.77462300  0.18551100  0.10025500  1
  C  C10  1  0.27996900  0.28996800  0.16412300  1
  C  C11  1  0.18551100  0.77462300  0.60025500  1
  C  C12  1  0.77462300  0.81448900  0.39974500  1
  C  C13  1  0.71003200  0.27996900  0.83587700  1
  C  C14  1  0.81448900  0.77462300  0.89974500  1
  C  C15  1  0.28996800  0.27996900  0.66412300  1
  C  C16  1  0.28996800  0.72003100  0.83587700  1
  C  C17  1  0.22537700  0.18551100  0.39974500  1
  C  C18  1  0.71003200  0.72003100  0.66412300  1
  C  C19  1  0.22537700  0.81448900  0.10025500  1
  C  C20  1  0.72003100  0.71003200  0.16412300  1
  C  C21  1  0.27996900  0.71003200  0.33587700  1
  C  C22  1  0.72003100  0.28996800  0.33587700  1
  C  C23  1  0.18551100  0.22537700  0.89974500  1
