# generated using pymatgen
data_CuNi6C5
_symmetry_space_group_name_H-M   'P 1'
_cell_length_a   9.41772500
_cell_length_b   9.41772500
_cell_length_c   6.11983300
_cell_angle_alpha   90.00000000
_cell_angle_beta   90.00000000
_cell_angle_gamma   90.00000000
_symmetry_Int_Tables_number   1
_chemical_formula_structural   CuNi6C5
_chemical_formula_sum   'Cu2 Ni12 C10'
_cell_volume   542.78967853
_cell_formula_units_Z   2
loop_
 _symmetry_equiv_pos_site_id
 _symmetry_equiv_pos_as_xyz
  1  'x, y, z'
loop_
 _atom_site_type_symbol
 _atom_site_label
 _atom_site_symmetry_multiplicity
 _atom_site_fract_x
 _atom_site_fract_y
 _atom_site_fract_z
 _atom_site_occupancy
  C  C0  1  0.84465900  0.65534100  0.49189500  1
  C  C1  1  0.34465900  0.84465900  0.50810500  1
  C  C2  1  0.65534100  0.15534100  0.50810500  1
  C  C3  1  0.15534100  0.34465900  0.49189500  1
  C  C4  1  0.00000000  0.00000000  0.00000000  1
  C  C5  1  0.50000000  0.50000000  0.00000000  1
  C  C6  1  0.62830900  0.87169100  0.91368200  1
  C  C7  1  0.37169100  0.12830900  0.91368200  1
  C  C8  1  0.12830900  0.62830900  0.08631800  1
  C  C9  1  0.87169100  0.37169100  0.08631800  1
  Ni  Ni10  1  0.93546700  0.16821500  0.25897400  1
  Ni  Ni11  1  0.06453300  0.83178500  0.25897400  1
  Ni  Ni12  1  0.16821500  0.06453300  0.74102600  1
  Ni  Ni13  1  0.83178500  0.93546700  0.74102600  1
  Ni  Ni14  1  0.66821500  0.43546700  0.25897400  1
  Ni  Ni15  1  0.56453300  0.66821500  0.74102600  1
  Ni  Ni16  1  0.43546700  0.33178500  0.74102600  1
  Ni  Ni17  1  0.33178500  0.56453300  0.25897400  1
  Ni  Ni18  1  0.36845000  0.13155000  0.28033100  1
  Ni  Ni19  1  0.86845000  0.36845000  0.71966900  1
  Ni  Ni20  1  0.13155000  0.63155000  0.71966900  1
  Ni  Ni21  1  0.63155000  0.86845000  0.28033100  1
  Cu  Cu22  1  0.50000000  0.00000000  0.76389800  1
  Cu  Cu23  1  0.00000000  0.50000000  0.23610200  1
