# generated using pymatgen
data_CuNiC2
_symmetry_space_group_name_H-M   'P 1'
_cell_length_a   5.35875303
_cell_length_b   6.16486756
_cell_length_c   5.40140407
_cell_angle_alpha   90.00034166
_cell_angle_beta   70.71601318
_cell_angle_gamma   89.99992952
_symmetry_Int_Tables_number   1
_chemical_formula_structural   CuNiC2
_chemical_formula_sum   'Cu4 Ni4 C8'
_cell_volume   168.42907311
_cell_formula_units_Z   4
loop_
 _symmetry_equiv_pos_site_id
 _symmetry_equiv_pos_as_xyz
  1  'x, y, z'
loop_
 _atom_site_type_symbol
 _atom_site_label
 _atom_site_symmetry_multiplicity
 _atom_site_fract_x
 _atom_site_fract_y
 _atom_site_fract_z
 _atom_site_occupancy
  Ni  Ni0  1  0.50000400  0.50007900  0.50000300  1
  Ni  Ni1  1  0.00000300  0.74992100  0.49999600  1
  Ni  Ni2  1  0.50000400  0.00007800  0.50000400  1
  Ni  Ni3  1  0.00000100  0.24992000  0.50000200  1
  Cu  Cu4  1  0.49999200  0.25233000  0.00000600  1
  Cu  Cu5  1  0.00000400  0.99767000  0.99999300  1
  Cu  Cu6  1  0.00000100  0.49767900  0.99999300  1
  Cu  Cu7  1  0.50001000  0.75232900  0.99999300  1
  C  C8  1  0.24479500  0.50039000  0.26534500  1
  C  C9  1  0.74479500  0.74960100  0.26534500  1
  C  C10  1  0.24479800  0.00038500  0.26534400  1
  C  C11  1  0.74479800  0.24960300  0.26534200  1
  C  C12  1  0.75520800  0.50040200  0.73465500  1
  C  C13  1  0.25520900  0.74961200  0.73465600  1
  C  C14  1  0.75520600  0.00039700  0.73465800  1
  C  C15  1  0.25520400  0.24961500  0.73465600  1
