# generated using pymatgen
data_CuNi3C5
_symmetry_space_group_name_H-M   'P 1'
_cell_length_a   4.82979500
_cell_length_b   10.55387700
_cell_length_c   17.42170600
_cell_angle_alpha   90.00000000
_cell_angle_beta   90.00000000
_cell_angle_gamma   90.00000000
_symmetry_Int_Tables_number   1
_chemical_formula_structural   CuNi3C5
_chemical_formula_sum   'Cu4 Ni12 C20'
_cell_volume   888.03770645
_cell_formula_units_Z   4
loop_
 _symmetry_equiv_pos_site_id
 _symmetry_equiv_pos_as_xyz
  1  'x, y, z'
loop_
 _atom_site_type_symbol
 _atom_site_label
 _atom_site_symmetry_multiplicity
 _atom_site_fract_x
 _atom_site_fract_y
 _atom_site_fract_z
 _atom_site_occupancy
  C  C0  1  0.75000000  0.96456400  0.27265400  1
  C  C1  1  0.75000000  0.46456400  0.22734600  1
  C  C2  1  0.25000000  0.03543600  0.72734600  1
  C  C3  1  0.25000000  0.53543600  0.77265400  1
  C  C4  1  0.75000000  0.97772400  0.36959200  1
  C  C5  1  0.75000000  0.47772400  0.13040800  1
  C  C6  1  0.25000000  0.02227600  0.63040800  1
  C  C7  1  0.25000000  0.52227600  0.86959200  1
  C  C8  1  0.92221600  0.85669900  0.32641000  1
  C  C9  1  0.57778400  0.35669900  0.17359000  1
  C  C10  1  0.42221600  0.14330100  0.67359000  1
  C  C11  1  0.07778400  0.64330100  0.82641000  1
  C  C12  1  0.07778400  0.14330100  0.67359000  1
  C  C13  1  0.42221600  0.64330100  0.82641000  1
  C  C14  1  0.57778400  0.85669900  0.32641000  1
  C  C15  1  0.92221600  0.35669900  0.17359000  1
  C  C16  1  0.75000000  0.66862700  0.55872600  1
  C  C17  1  0.75000000  0.16862700  0.94127400  1
  C  C18  1  0.25000000  0.33137300  0.44127400  1
  C  C19  1  0.25000000  0.83137300  0.05872600  1
  Ni  Ni20  1  0.25000000  0.47722200  0.61623100  1
  Ni  Ni21  1  0.25000000  0.97722200  0.88376900  1
  Ni  Ni22  1  0.75000000  0.52277800  0.38376900  1
  Ni  Ni23  1  0.75000000  0.02277800  0.11623100  1
  Ni  Ni24  1  0.75000000  0.80777900  0.71471500  1
  Ni  Ni25  1  0.75000000  0.30777900  0.78528500  1
  Ni  Ni26  1  0.25000000  0.19222100  0.28528500  1
  Ni  Ni27  1  0.25000000  0.69222100  0.21471500  1
  Ni  Ni28  1  0.25000000  0.84214400  0.48791400  1
  Ni  Ni29  1  0.25000000  0.34214400  0.01208600  1
  Ni  Ni30  1  0.75000000  0.15785600  0.51208600  1
  Ni  Ni31  1  0.75000000  0.65785600  0.98791400  1
  Cu  Cu32  1  0.75000000  0.91478000  0.32399900  1
  Cu  Cu33  1  0.75000000  0.41478000  0.17600100  1
  Cu  Cu34  1  0.25000000  0.08522000  0.67600100  1
  Cu  Cu35  1  0.25000000  0.58522000  0.82399900  1
