# generated using pymatgen
data_Cu3NiC18
_symmetry_space_group_name_H-M   'P 1'
_cell_length_a   7.49761600
_cell_length_b   7.26529600
_cell_length_c   9.48614754
_cell_angle_alpha   67.63975215
_cell_angle_beta   90.00000000
_cell_angle_gamma   90.00000000
_symmetry_Int_Tables_number   1
_chemical_formula_structural   Cu3NiC18
_chemical_formula_sum   'Cu6 Ni2 C36'
_cell_volume   477.88015126
_cell_formula_units_Z   2
loop_
 _symmetry_equiv_pos_site_id
 _symmetry_equiv_pos_as_xyz
  1  'x, y, z'
loop_
 _atom_site_type_symbol
 _atom_site_label
 _atom_site_symmetry_multiplicity
 _atom_site_fract_x
 _atom_site_fract_y
 _atom_site_fract_z
 _atom_site_occupancy
  Ni  Ni0  1  0.00000000  0.50000000  0.00000000  1
  Ni  Ni1  1  0.50000000  0.50000000  0.50000000  1
  Cu  Cu2  1  0.12839600  0.81447100  0.52296400  1
  Cu  Cu3  1  0.62839600  0.18552900  0.97703600  1
  Cu  Cu4  1  0.87160400  0.18552900  0.47703600  1
  Cu  Cu5  1  0.37160400  0.81447100  0.02296400  1
  Cu  Cu6  1  0.00000000  0.00000000  0.00000000  1
  Cu  Cu7  1  0.50000000  0.00000000  0.50000000  1
  C  C8  1  0.92296900  0.41143700  0.70420100  1
  C  C9  1  0.42296900  0.58856300  0.79579900  1
  C  C10  1  0.07703100  0.58856300  0.29579900  1
  C  C11  1  0.57703100  0.41143700  0.20420100  1
  C  C12  1  0.20667600  0.13095500  0.68715900  1
  C  C13  1  0.70667600  0.86904500  0.81284100  1
  C  C14  1  0.79332400  0.86904500  0.31284100  1
  C  C15  1  0.29332400  0.13095500  0.18715900  1
  C  C16  1  0.38274900  0.19362600  0.59942800  1
  C  C17  1  0.88274900  0.80637400  0.90057200  1
  C  C18  1  0.61725100  0.80637400  0.40057200  1
  C  C19  1  0.11725100  0.19362600  0.09942800  1
  C  C20  1  0.37868700  0.71993900  0.62586700  1
  C  C21  1  0.87868700  0.28006100  0.87413300  1
  C  C22  1  0.62131300  0.28006100  0.37413300  1
  C  C23  1  0.12131300  0.71993900  0.12586700  1
  C  C24  1  0.78702700  0.38539700  0.59322300  1
  C  C25  1  0.28702700  0.61460300  0.90677700  1
  C  C26  1  0.21297300  0.61460300  0.40677700  1
  C  C27  1  0.71297300  0.38539700  0.09322300  1
  C  C28  1  0.11296000  0.33503700  0.67048100  1
  C  C29  1  0.61296000  0.66496300  0.82951900  1
  C  C30  1  0.88704000  0.66496300  0.32951900  1
  C  C31  1  0.38704000  0.33503700  0.17048100  1
  C  C32  1  0.53070700  0.61967700  0.19322600  1
  C  C33  1  0.03070700  0.38032300  0.30677400  1
  C  C34  1  0.46929300  0.38032300  0.80677400  1
  C  C35  1  0.96929300  0.61967700  0.69322600  1
  C  C36  1  0.78483300  0.98383300  0.14001100  1
  C  C37  1  0.28483300  0.01616700  0.35998900  1
  C  C38  1  0.21516700  0.01616700  0.85998900  1
  C  C39  1  0.71516700  0.98383300  0.64001100  1
  C  C40  1  0.41762500  0.03176500  0.10911800  1
  C  C41  1  0.91762500  0.96823500  0.39088200  1
  C  C42  1  0.58237500  0.96823500  0.89088200  1
  C  C43  1  0.08237500  0.03176500  0.60911800  1
