# generated using pymatgen
data_Cu2Ni2C23
_symmetry_space_group_name_H-M   'P 1'
_cell_length_a   5.93394816
_cell_length_b   7.49016805
_cell_length_c   9.55526746
_cell_angle_alpha   113.04974275
_cell_angle_beta   99.18758761
_cell_angle_gamma   92.50621796
_symmetry_Int_Tables_number   1
_chemical_formula_structural   Cu2Ni2C23
_chemical_formula_sum   'Cu2 Ni2 C23'
_cell_volume   383.12924474
_cell_formula_units_Z   1
loop_
 _symmetry_equiv_pos_site_id
 _symmetry_equiv_pos_as_xyz
  1  'x, y, z'
loop_
 _atom_site_type_symbol
 _atom_site_label
 _atom_site_symmetry_multiplicity
 _atom_site_fract_x
 _atom_site_fract_y
 _atom_site_fract_z
 _atom_site_occupancy
  C  C0  1  0.15985125  0.81062865  0.03705989  1
  C  C1  1  0.84014875  0.18937135  0.96294011  1
  C  C2  1  0.50000000  0.50000000  0.00000000  1
  Ni  Ni3  1  0.97944258  0.29599603  0.57176294  1
  Ni  Ni4  1  0.02055742  0.70400397  0.42823706  1
  Cu  Cu5  1  0.61018237  0.82098748  0.52716998  1
  Cu  Cu6  1  0.38981763  0.17901252  0.47283002  1
  C  C7  1  0.37430101  0.40299948  0.22181185  1
  C  C8  1  0.62569899  0.59700052  0.77818815  1
  C  C9  1  0.77261826  0.93621820  0.23501547  1
  C  C10  1  0.22738174  0.06378180  0.76498453  1
  C  C11  1  0.79215573  0.57029698  0.91080721  1
  C  C12  1  0.61607818  0.41626786  0.18103039  1
  C  C13  1  0.68531404  0.78803237  0.75753022  1
  C  C14  1  0.01255597  0.16079321  0.72048579  1
  C  C15  1  0.38392182  0.58373214  0.81896961  1
  C  C16  1  0.25742836  0.88221899  0.61786513  1
  C  C17  1  0.74257164  0.11778101  0.38213487  1
  C  C18  1  0.17223562  0.00062144  0.89029983  1
  C  C19  1  0.31468596  0.21196763  0.24246978  1
  C  C20  1  0.82776438  0.99937856  0.10970017  1
  C  C21  1  0.20784427  0.42970202  0.08919279  1
  C  C22  1  0.34461059  0.57712542  0.37883316  1
  C  C23  1  0.65538941  0.42287458  0.62116684  1
  C  C24  1  0.54913460  0.79156869  0.17731669  1
  C  C25  1  0.98744403  0.83920679  0.27951421  1
  C  C26  1  0.45086540  0.20843131  0.82268331  1
