# generated using pymatgen
data_Cu4Ni6C5
_symmetry_space_group_name_H-M   'P 1'
_cell_length_a   8.75730000
_cell_length_b   8.75730000
_cell_length_c   9.54966300
_cell_angle_alpha   90.00000000
_cell_angle_beta   90.00000000
_cell_angle_gamma   90.00000000
_symmetry_Int_Tables_number   1
_chemical_formula_structural   Cu4Ni6C5
_chemical_formula_sum   'Cu8 Ni12 C10'
_cell_volume   732.36655179
_cell_formula_units_Z   2
loop_
 _symmetry_equiv_pos_site_id
 _symmetry_equiv_pos_as_xyz
  1  'x, y, z'
loop_
 _atom_site_type_symbol
 _atom_site_label
 _atom_site_symmetry_multiplicity
 _atom_site_fract_x
 _atom_site_fract_y
 _atom_site_fract_z
 _atom_site_occupancy
  C  C0  1  0.66585200  0.56899900  0.61667100  1
  C  C1  1  0.16585200  0.93100100  0.88332900  1
  C  C2  1  0.33414800  0.43100100  0.61667100  1
  C  C3  1  0.83414800  0.06899900  0.88332900  1
  C  C4  1  0.56899900  0.33414800  0.38332900  1
  C  C5  1  0.93100100  0.83414800  0.11667100  1
  C  C6  1  0.43100100  0.66585200  0.38332900  1
  C  C7  1  0.06899900  0.16585200  0.11667100  1
  Ni  Ni8  1  0.50000000  0.50000000  0.81825000  1
  Ni  Ni9  1  0.00000000  0.00000000  0.68175000  1
  Ni  Ni10  1  0.50000000  0.50000000  0.18175000  1
  Ni  Ni11  1  0.00000000  0.00000000  0.31825000  1
  Ni  Ni12  1  0.62796600  0.82317600  0.50324600  1
  Ni  Ni13  1  0.12796600  0.67682400  0.99675400  1
  Ni  Ni14  1  0.37203400  0.17682400  0.50324600  1
  Ni  Ni15  1  0.87203400  0.32317600  0.99675400  1
  Ni  Ni16  1  0.82317600  0.37203400  0.49675400  1
  Ni  Ni17  1  0.67682400  0.87203400  0.00324600  1
  Ni  Ni18  1  0.17682400  0.62796600  0.49675400  1
  Ni  Ni19  1  0.32317600  0.12796600  0.00324600  1
  Cu  Cu20  1  0.81573100  0.63075700  0.72700100  1
  Cu  Cu21  1  0.31573100  0.86924300  0.77299900  1
  Cu  Cu22  1  0.18426900  0.36924300  0.72700100  1
  Cu  Cu23  1  0.68426900  0.13075700  0.77299900  1
  Cu  Cu24  1  0.63075700  0.18426900  0.27299900  1
  Cu  Cu25  1  0.86924300  0.68426900  0.22700100  1
  Cu  Cu26  1  0.36924300  0.81573100  0.27299900  1
  Cu  Cu27  1  0.13075700  0.31573100  0.22700100  1
  C  C28  1  0.50000000  0.50000000  0.50000000  1
  C  C29  1  0.00000000  0.00000000  0.00000000  1
