# generated using pymatgen
data_CuNi149
_symmetry_space_group_name_H-M   'P 1'
_cell_length_a   15.87246352
_cell_length_b   15.87246893
_cell_length_c   15.57582258
_cell_angle_alpha   90.00000000
_cell_angle_beta   90.00000000
_cell_angle_gamma   120.00001566
_symmetry_Int_Tables_number   1
_chemical_formula_structural   CuNi149
_chemical_formula_sum   'Cu1 Ni149'
_cell_volume   3398.36778371
_cell_formula_units_Z   1
loop_
 _symmetry_equiv_pos_site_id
 _symmetry_equiv_pos_as_xyz
  1  'x, y, z'
loop_
 _atom_site_type_symbol
 _atom_site_label
 _atom_site_symmetry_multiplicity
 _atom_site_fract_x
 _atom_site_fract_y
 _atom_site_fract_z
 _atom_site_occupancy
  Ni  Ni0  1  0.39902303  0.00003263  -0.00000000  1
  Ni  Ni1  1  0.60100960  0.00003263  0.00000000  1
  Ni  Ni2  1  0.19530960  0.00156771  -0.00000000  1
  Ni  Ni3  1  0.80625911  0.00156771  -0.00000000  1
  Ni  Ni4  1  0.99843229  0.19374189  0.00000000  1
  Ni  Ni5  1  0.19530960  0.19374189  0.00000000  1
  Ni  Ni6  1  0.80076175  0.19923825  -0.00000000  1
  Ni  Ni7  1  0.39847649  0.19923825  -0.00000000  1
  Ni  Ni8  1  0.59983590  0.19967280  -0.00000000  1
  Ni  Ni9  1  0.19874742  0.39749485  0.00000000  1
  Ni  Ni10  1  0.39902303  0.39898940  -0.00000000  1
  Ni  Ni11  1  0.99996737  0.39899040  -0.00000000  1
  Ni  Ni12  1  0.80032720  0.40016410  0.00000000  1
  Ni  Ni13  1  0.59983590  0.40016410  0.00000000  1
  Ni  Ni14  1  0.19975768  0.59987884  0.00000000  1
  Ni  Ni15  1  0.40012116  0.59987884  0.00000000  1
  Ni  Ni16  1  0.99996737  0.60097797  0.00000000  1
  Ni  Ni17  1  0.60100960  0.60097697  0.00000000  1
  Ni  Ni18  1  0.80076175  0.60152351  -0.00000000  1
  Ni  Ni19  1  0.40012116  0.80024232  -0.00000000  1
  Ni  Ni20  1  0.60250515  0.80125258  -0.00000000  1
  Ni  Ni21  1  0.19874742  0.80125258  -0.00000000  1
  Ni  Ni22  1  0.99843229  0.80469040  0.00000000  1
  Ni  Ni23  1  0.80625911  0.80469040  0.00000000  1
  Ni  Ni24  1  0.06486190  0.12972381  0.16193636  1
  Ni  Ni25  1  0.87027619  0.93513810  0.16193636  1
  Ni  Ni26  1  0.06486190  0.93513810  0.16193636  1
  Ni  Ni27  1  0.06602265  0.33151416  0.16578243  1
  Ni  Ni28  1  0.26549152  0.33151416  0.16578243  1
  Ni  Ni29  1  0.06602265  0.73450848  0.16578243  1
  Ni  Ni30  1  0.66848584  0.73450848  0.16578243  1
  Ni  Ni31  1  0.26549152  0.93397735  0.16578243  1
  Ni  Ni32  1  0.66848584  0.93397735  0.16578243  1
  Ni  Ni33  1  0.26630987  0.53261973  0.16622337  1
  Ni  Ni34  1  0.26630987  0.73368913  0.16622337  1
  Ni  Ni35  1  0.46738027  0.73369013  0.16622337  1
  Ni  Ni36  1  0.06661613  0.53330806  0.16627923  1
  Ni  Ni37  1  0.46669194  0.53330806  0.16627923  1
  Ni  Ni38  1  0.46669194  0.93338287  0.16627923  1
  Ni  Ni39  1  0.46704659  0.13348997  0.16659280  1
  Ni  Ni40  1  0.66644338  0.13348997  0.16659280  1
  Ni  Ni41  1  0.46704659  0.33355662  0.16659280  1
  Ni  Ni42  1  0.86651103  0.33355762  0.16659280  1
  Ni  Ni43  1  0.86651103  0.53295341  0.16659280  1
  Ni  Ni44  1  0.66644338  0.53295341  0.16659280  1
  Ni  Ni45  1  0.66666700  0.33333300  0.16669361  1
  Ni  Ni46  1  0.26799883  0.13399992  0.16738901  1
  Ni  Ni47  1  0.86600108  0.13399992  0.16738901  1
  Ni  Ni48  1  0.86600108  0.73200117  0.16738901  1
  Ni  Ni49  1  0.00000000  -0.00000000  0.33162246  1
  Ni  Ni50  1  0.80058705  0.99976300  0.33248376  1
  Ni  Ni51  1  0.19917595  0.99976300  0.33248376  1
  Ni  Ni52  1  0.19917595  0.19941295  0.33248376  1
  Ni  Ni53  1  0.00023700  0.19941395  0.33248376  1
  Ni  Ni54  1  0.00023700  0.80082305  0.33248376  1
  Ni  Ni55  1  0.80058705  0.80082405  0.33248376  1
  Ni  Ni56  1  0.60027672  0.99987135  0.33289718  1
  Ni  Ni57  1  0.39959463  0.99987135  0.33289718  1
  Ni  Ni58  1  0.39959463  0.39972228  0.33289718  1
  Ni  Ni59  1  0.00012865  0.39972328  0.33289718  1
  Ni  Ni60  1  0.60027672  0.60040437  0.33289718  1
  Ni  Ni61  1  0.00012865  0.60040537  0.33289718  1
  Ni  Ni62  1  0.19988072  0.39976244  0.33291636  1
  Ni  Ni63  1  0.60023756  0.80011828  0.33291636  1
  Ni  Ni64  1  0.19988072  0.80011928  0.33291636  1
  Ni  Ni65  1  0.20001614  0.60000757  0.33317832  1
  Ni  Ni66  1  0.39999143  0.60000857  0.33317832  1
  Ni  Ni67  1  0.39999143  0.79998386  0.33317832  1
  Ni  Ni68  1  0.59991920  0.19983741  0.33335446  1
  Ni  Ni69  1  0.80016259  0.40008180  0.33335446  1
  Ni  Ni70  1  0.59991920  0.40008180  0.33335446  1
  Ni  Ni71  1  0.39988094  0.19993997  0.33354319  1
  Ni  Ni72  1  0.80005903  0.19994097  0.33354319  1
  Ni  Ni73  1  0.80005903  0.60011906  0.33354319  1
  Ni  Ni74  1  0.06654975  0.13309950  0.50000000  1
  Ni  Ni75  1  0.26634097  0.13317049  0.50000000  1
  Ni  Ni76  1  0.86682951  0.13317049  0.50000000  1
  Ni  Ni77  1  0.46670156  0.13324701  0.50000000  1
  Ni  Ni78  1  0.66654545  0.13324701  0.50000000  1
  Ni  Ni79  1  0.26652437  0.33295462  0.50000000  1
  Ni  Ni80  1  0.06642925  0.33295462  0.50000000  1
  Ni  Ni81  1  0.66666700  0.33333300  0.50000000  1
  Ni  Ni82  1  0.46670156  0.33345455  0.50000000  1
  Ni  Ni83  1  0.86675299  0.33345555  0.50000000  1
  Ni  Ni84  1  0.26652038  0.53304176  0.50000000  1
  Ni  Ni85  1  0.06652364  0.53326182  0.50000000  1
  Ni  Ni86  1  0.46673818  0.53326182  0.50000000  1
  Ni  Ni87  1  0.66654545  0.53329844  0.50000000  1
  Ni  Ni88  1  0.86675299  0.53329844  0.50000000  1
  Ni  Ni89  1  0.46695824  0.73347862  0.50000000  1
  Ni  Ni90  1  0.26652038  0.73347862  0.50000000  1
  Ni  Ni91  1  0.06642925  0.73347463  0.50000000  1
  Ni  Ni92  1  0.66704538  0.73347463  0.50000000  1
  Ni  Ni93  1  0.86682951  0.73365903  0.50000000  1
  Ni  Ni94  1  0.46673818  0.93347636  0.50000000  1
  Ni  Ni95  1  0.86690050  0.93345025  0.50000000  1
  Ni  Ni96  1  0.06654975  0.93345025  0.50000000  1
  Ni  Ni97  1  0.66704538  0.93357075  0.50000000  1
  Ni  Ni98  1  0.26652437  0.93357075  0.50000000  1
  Ni  Ni99  1  0.39988094  0.19993997  0.66645681  1
  Ni  Ni100  1  0.80005903  0.19994097  0.66645681  1
  Ni  Ni101  1  0.80005903  0.60011906  0.66645681  1
  Ni  Ni102  1  0.59991920  0.19983741  0.66664554  1
  Ni  Ni103  1  0.80016259  0.40008180  0.66664554  1
  Ni  Ni104  1  0.59991920  0.40008180  0.66664554  1
  Ni  Ni105  1  0.20001614  0.60000757  0.66682168  1
  Ni  Ni106  1  0.39999143  0.60000857  0.66682168  1
  Ni  Ni107  1  0.39999143  0.79998386  0.66682168  1
  Ni  Ni108  1  0.19988072  0.39976244  0.66708364  1
  Ni  Ni109  1  0.60023756  0.80011828  0.66708364  1
  Ni  Ni110  1  0.19988072  0.80011928  0.66708364  1
  Ni  Ni111  1  0.60027672  0.99987135  0.66710282  1
  Ni  Ni112  1  0.39959463  0.99987135  0.66710282  1
  Ni  Ni113  1  0.39959463  0.39972228  0.66710282  1
  Ni  Ni114  1  0.00012865  0.39972328  0.66710282  1
  Ni  Ni115  1  0.60027672  0.60040437  0.66710282  1
  Ni  Ni116  1  0.00012865  0.60040537  0.66710282  1
  Ni  Ni117  1  0.80058705  0.99976300  0.66751624  1
  Ni  Ni118  1  0.19917595  0.99976300  0.66751624  1
  Ni  Ni119  1  0.19917595  0.19941295  0.66751624  1
  Ni  Ni120  1  0.00023700  0.19941395  0.66751624  1
  Ni  Ni121  1  0.00023700  0.80082305  0.66751624  1
  Ni  Ni122  1  0.80058705  0.80082405  0.66751624  1
  Ni  Ni123  1  0.00000000  -0.00000000  0.66837754  1
  Ni  Ni124  1  0.26799883  0.13399992  0.83261099  1
  Ni  Ni125  1  0.86600108  0.13399992  0.83261099  1
  Ni  Ni126  1  0.86600108  0.73200117  0.83261099  1
  Ni  Ni127  1  0.66666700  0.33333300  0.83330639  1
  Ni  Ni128  1  0.46704659  0.13348997  0.83340720  1
  Ni  Ni129  1  0.66644338  0.13348997  0.83340720  1
  Ni  Ni130  1  0.46704659  0.33355662  0.83340720  1
  Ni  Ni131  1  0.86651103  0.33355762  0.83340720  1
  Ni  Ni132  1  0.86651103  0.53295341  0.83340720  1
  Ni  Ni133  1  0.66644338  0.53295341  0.83340720  1
  Ni  Ni134  1  0.06661613  0.53330806  0.83372077  1
  Ni  Ni135  1  0.46669194  0.53330806  0.83372077  1
  Ni  Ni136  1  0.46669194  0.93338287  0.83372077  1
  Ni  Ni137  1  0.26630987  0.53261973  0.83377663  1
  Ni  Ni138  1  0.26630987  0.73368913  0.83377663  1
  Ni  Ni139  1  0.46738027  0.73369013  0.83377663  1
  Ni  Ni140  1  0.06602265  0.33151416  0.83421757  1
  Ni  Ni141  1  0.26549152  0.33151416  0.83421757  1
  Ni  Ni142  1  0.06602265  0.73450848  0.83421757  1
  Ni  Ni143  1  0.66848584  0.73450848  0.83421757  1
  Ni  Ni144  1  0.26549152  0.93397735  0.83421757  1
  Ni  Ni145  1  0.66848584  0.93397735  0.83421757  1
  Ni  Ni146  1  0.06486190  0.12972381  0.83806364  1
  Ni  Ni147  1  0.87027619  0.93513810  0.83806364  1
  Ni  Ni148  1  0.06486190  0.93513810  0.83806364  1
  Cu  Cu149  1  0.00000000  -0.00000000  -0.00000000  1
