# generated using pymatgen
data_Cu3(Ni4C9)2
_symmetry_space_group_name_H-M   'P 1'
_cell_length_a   12.63296300
_cell_length_b   7.20169600
_cell_length_c   18.93743002
_cell_angle_alpha   90.00000000
_cell_angle_beta   130.84857062
_cell_angle_gamma   90.00000000
_symmetry_Int_Tables_number   1
_chemical_formula_structural   Cu3(Ni4C9)2
_chemical_formula_sum   'Cu12 Ni32 C72'
_cell_volume   1303.27490921
_cell_formula_units_Z   4
loop_
 _symmetry_equiv_pos_site_id
 _symmetry_equiv_pos_as_xyz
  1  'x, y, z'
loop_
 _atom_site_type_symbol
 _atom_site_label
 _atom_site_symmetry_multiplicity
 _atom_site_fract_x
 _atom_site_fract_y
 _atom_site_fract_z
 _atom_site_occupancy
  C  C0  1  0.21730800  0.62596200  0.41185300  1
  C  C1  1  0.21730800  0.87403800  0.91185300  1
  C  C2  1  0.78269200  0.37403800  0.58814700  1
  C  C3  1  0.78269200  0.12596200  0.08814700  1
  C  C4  1  0.19724300  0.12287900  0.69759600  1
  C  C5  1  0.19724300  0.37712100  0.19759600  1
  C  C6  1  0.80275700  0.87712100  0.30240400  1
  C  C7  1  0.80275700  0.62287900  0.80240400  1
  Ni  Ni8  1  0.01118600  0.45736800  0.43133500  1
  Ni  Ni9  1  0.01118600  0.04263200  0.93133500  1
  Ni  Ni10  1  0.98881400  0.54263200  0.56866500  1
  Ni  Ni11  1  0.98881400  0.95736800  0.06866500  1
  Ni  Ni12  1  0.13194800  0.30797700  0.47718600  1
  Ni  Ni13  1  0.13194800  0.19202300  0.97718600  1
  Ni  Ni14  1  0.86805200  0.69202300  0.52281400  1
  Ni  Ni15  1  0.86805200  0.80797700  0.02281400  1
  Ni  Ni16  1  0.45476700  0.12833100  0.70461000  1
  Ni  Ni17  1  0.45476700  0.37166900  0.20461000  1
  Ni  Ni18  1  0.54523300  0.87166900  0.29539000  1
  Ni  Ni19  1  0.54523300  0.62833100  0.79539000  1
  Ni  Ni20  1  0.51628800  0.15707100  0.80824500  1
  Ni  Ni21  1  0.51628800  0.34292900  0.30824500  1
  Ni  Ni22  1  0.48371200  0.84292900  0.19175500  1
  Ni  Ni23  1  0.48371200  0.65707100  0.69175500  1
  Ni  Ni24  1  0.18885700  0.45410600  0.58905100  1
  Ni  Ni25  1  0.18885700  0.04589400  0.08905100  1
  Ni  Ni26  1  0.81114300  0.54589400  0.41094900  1
  Ni  Ni27  1  0.81114300  0.95410600  0.91094900  1
  Ni  Ni28  1  0.24062100  0.55410000  0.68162000  1
  Ni  Ni29  1  0.24062100  0.94590000  0.18162000  1
  Ni  Ni30  1  0.75937900  0.44590000  0.31838000  1
  Ni  Ni31  1  0.75937900  0.05410000  0.81838000  1
  Ni  Ni32  1  0.41536200  0.29320800  0.90032400  1
  Ni  Ni33  1  0.41536200  0.20679200  0.40032400  1
  Ni  Ni34  1  0.58463800  0.70679200  0.09967600  1
  Ni  Ni35  1  0.58463800  0.79320800  0.59967600  1
  Ni  Ni36  1  0.40012400  0.45145900  0.83705900  1
  Ni  Ni37  1  0.40012400  0.04854100  0.33705900  1
  Ni  Ni38  1  0.59987600  0.54854100  0.16294100  1
  Ni  Ni39  1  0.59987600  0.95145900  0.66294100  1
  Cu  Cu40  1  0.91660600  0.61324600  0.19652300  1
  Cu  Cu41  1  0.91660600  0.88675400  0.69652300  1
  Cu  Cu42  1  0.08339400  0.38675400  0.80347700  1
  Cu  Cu43  1  0.08339400  0.11324600  0.30347700  1
  Cu  Cu44  1  0.17866400  0.88978000  0.54427300  1
  Cu  Cu45  1  0.17866400  0.61022000  0.04427300  1
  Cu  Cu46  1  0.82133600  0.11022000  0.45572700  1
  Cu  Cu47  1  0.82133600  0.38978000  0.95572700  1
  Cu  Cu48  1  0.46491500  0.67854300  0.40509600  1
  Cu  Cu49  1  0.46491500  0.82145700  0.90509600  1
  Cu  Cu50  1  0.53508500  0.32145700  0.59490400  1
  Cu  Cu51  1  0.53508500  0.17854300  0.09490400  1
  C  C52  1  0.11337700  0.44261400  0.47360100  1
  C  C53  1  0.11337700  0.05738600  0.97360100  1
  C  C54  1  0.88662300  0.55738600  0.52639900  1
  C  C55  1  0.88662300  0.94261400  0.02639900  1
  C  C56  1  0.43875600  0.10142900  0.74802700  1
  C  C57  1  0.43875600  0.39857100  0.24802700  1
  C  C58  1  0.56124400  0.89857100  0.25197300  1
  C  C59  1  0.56124400  0.60142900  0.75197300  1
  C  C60  1  0.20396300  0.43705100  0.64725800  1
  C  C61  1  0.20396300  0.06294900  0.14725800  1
  C  C62  1  0.79603700  0.56294900  0.35274200  1
  C  C63  1  0.79603700  0.93705100  0.85274200  1
  C  C64  1  0.36789400  0.32478900  0.83496200  1
  C  C65  1  0.36789400  0.17521100  0.33496200  1
  C  C66  1  0.63210600  0.67521100  0.16503800  1
  C  C67  1  0.63210600  0.82478900  0.66503800  1
  C  C68  1  0.83130400  0.44513500  0.14915800  1
  C  C69  1  0.83130400  0.05486500  0.64915800  1
  C  C70  1  0.16869600  0.55486500  0.85084200  1
  C  C71  1  0.16869600  0.94513500  0.35084200  1
  C  C72  1  0.94948700  0.64132400  0.28859500  1
  C  C73  1  0.94948700  0.85867600  0.78859500  1
  C  C74  1  0.05051300  0.35867600  0.71140500  1
  C  C75  1  0.05051300  0.14132400  0.21140500  1
  C  C76  1  0.05817500  0.59050200  0.22437300  1
  C  C77  1  0.05817500  0.90949800  0.72437300  1
  C  C78  1  0.94182500  0.40949800  0.77562700  1
  C  C79  1  0.94182500  0.09050200  0.27562700  1
  C  C80  1  0.84329500  0.77880700  0.13796700  1
  C  C81  1  0.84329500  0.72119300  0.63796700  1
  C  C82  1  0.15670500  0.22119300  0.86203300  1
  C  C83  1  0.15670500  0.27880700  0.36203300  1
  C  C84  1  0.04840100  0.84022100  0.44778100  1
  C  C85  1  0.04840100  0.65977900  0.94778100  1
  C  C86  1  0.95159900  0.15977900  0.55221900  1
  C  C87  1  0.95159900  0.34022100  0.05221900  1
  C  C88  1  0.19721900  0.09483300  0.55604600  1
  C  C89  1  0.19721900  0.40516700  0.05604600  1
  C  C90  1  0.80278100  0.90516700  0.44395400  1
  C  C91  1  0.80278100  0.59483300  0.94395400  1
  C  C92  1  0.17014000  0.82481500  0.61575300  1
  C  C93  1  0.17014000  0.67518500  0.11575300  1
  C  C94  1  0.82986000  0.17518500  0.38424700  1
  C  C95  1  0.82986000  0.32481500  0.88424700  1
  C  C96  1  0.29637300  0.79588200  0.55834600  1
  C  C97  1  0.29637300  0.70411800  0.05834600  1
  C  C98  1  0.70362700  0.20411800  0.44165400  1
  C  C99  1  0.70362700  0.29588200  0.94165400  1
  C  C100  1  0.59269000  0.56508200  0.45322700  1
  C  C101  1  0.59269000  0.93491800  0.95322700  1
  C  C102  1  0.40731000  0.43491800  0.54677300  1
  C  C103  1  0.40731000  0.06508200  0.04677300  1
  C  C104  1  0.45393900  0.76186600  0.47232700  1
  C  C105  1  0.45393900  0.73813400  0.97232700  1
  C  C106  1  0.54606100  0.23813400  0.52767300  1
  C  C107  1  0.54606100  0.26186600  0.02767300  1
  C  C108  1  0.33601900  0.55249700  0.34549600  1
  C  C109  1  0.33601900  0.94750300  0.84549600  1
  C  C110  1  0.66398100  0.44750300  0.65450400  1
  C  C111  1  0.66398100  0.05249700  0.15450400  1
  C  C112  1  0.45520400  0.81830500  0.34444200  1
  C  C113  1  0.45520400  0.68169500  0.84444200  1
  C  C114  1  0.54479600  0.18169500  0.65555800  1
  C  C115  1  0.54479600  0.31830500  0.15555800  1
