# generated using pymatgen
data_CuNiC17
_symmetry_space_group_name_H-M   'P 1'
_cell_length_a   10.21028600
_cell_length_b   10.21028600
_cell_length_c   10.21028600
_cell_angle_alpha   90.00000000
_cell_angle_beta   90.00000000
_cell_angle_gamma   90.00000000
_symmetry_Int_Tables_number   1
_chemical_formula_structural   CuNiC17
_chemical_formula_sum   'Cu4 Ni4 C68'
_cell_volume   1064.42170494
_cell_formula_units_Z   4
loop_
 _symmetry_equiv_pos_site_id
 _symmetry_equiv_pos_as_xyz
  1  'x, y, z'
loop_
 _atom_site_type_symbol
 _atom_site_label
 _atom_site_symmetry_multiplicity
 _atom_site_fract_x
 _atom_site_fract_y
 _atom_site_fract_z
 _atom_site_occupancy
  C  C0  1  0.04898200  0.04898200  0.04898200  1
  C  C1  1  0.45101800  0.95101800  0.54898200  1
  C  C2  1  0.95101800  0.54898200  0.45101800  1
  C  C3  1  0.54898200  0.45101800  0.95101800  1
  C  C4  1  0.81537000  0.81537000  0.81537000  1
  C  C5  1  0.68463000  0.18463000  0.31537000  1
  C  C6  1  0.18463000  0.31537000  0.68463000  1
  C  C7  1  0.31537000  0.68463000  0.18463000  1
  Ni  Ni8  1  0.33598800  0.33598800  0.33598800  1
  Ni  Ni9  1  0.16401200  0.66401200  0.83598800  1
  Ni  Ni10  1  0.66401200  0.83598800  0.16401200  1
  Ni  Ni11  1  0.83598800  0.16401200  0.66401200  1
  Cu  Cu12  1  0.60443000  0.60443000  0.60443000  1
  Cu  Cu13  1  0.89557000  0.39557000  0.10443000  1
  Cu  Cu14  1  0.39557000  0.10443000  0.89557000  1
  Cu  Cu15  1  0.10443000  0.89557000  0.39557000  1
  C  C16  1  0.01850300  0.20746300  0.37080800  1
  C  C17  1  0.48149700  0.79253700  0.87080800  1
  C  C18  1  0.98149700  0.70746300  0.12919200  1
  C  C19  1  0.37080800  0.01850300  0.20746300  1
  C  C20  1  0.51850300  0.29253700  0.62919200  1
  C  C21  1  0.87080800  0.48149700  0.79253700  1
  C  C22  1  0.12919200  0.98149700  0.70746300  1
  C  C23  1  0.62919200  0.51850300  0.29253700  1
  C  C24  1  0.20746300  0.37080800  0.01850300  1
  C  C25  1  0.70746300  0.12919200  0.98149700  1
  C  C26  1  0.29253700  0.62919200  0.51850300  1
  C  C27  1  0.79253700  0.87080800  0.48149700  1
  C  C28  1  0.01534700  0.06184400  0.32897900  1
  C  C29  1  0.48465300  0.93815600  0.82897900  1
  C  C30  1  0.98465300  0.56184400  0.17102100  1
  C  C31  1  0.32897900  0.01534700  0.06184400  1
  C  C32  1  0.51534700  0.43815600  0.67102100  1
  C  C33  1  0.82897900  0.48465300  0.93815600  1
  C  C34  1  0.17102100  0.98465300  0.56184400  1
  C  C35  1  0.67102100  0.51534700  0.43815600  1
  C  C36  1  0.06184400  0.32897900  0.01534700  1
  C  C37  1  0.56184400  0.17102100  0.98465300  1
  C  C38  1  0.43815600  0.67102100  0.51534700  1
  C  C39  1  0.93815600  0.82897900  0.48465300  1
  C  C40  1  0.04845000  0.79432000  0.23174700  1
  C  C41  1  0.45155000  0.20568000  0.73174700  1
  C  C42  1  0.95155000  0.29432000  0.26825300  1
  C  C43  1  0.23174700  0.04845000  0.79432000  1
  C  C44  1  0.54845000  0.70568000  0.76825300  1
  C  C45  1  0.73174700  0.45155000  0.20568000  1
  C  C46  1  0.26825300  0.95155000  0.29432000  1
  C  C47  1  0.76825300  0.54845000  0.70568000  1
  C  C48  1  0.79432000  0.23174700  0.04845000  1
  C  C49  1  0.29432000  0.26825300  0.95155000  1
  C  C50  1  0.70568000  0.76825300  0.54845000  1
  C  C51  1  0.20568000  0.73174700  0.45155000  1
  C  C52  1  0.16117300  0.25205800  0.39831200  1
  C  C53  1  0.33882700  0.74794200  0.89831200  1
  C  C54  1  0.83882700  0.75205800  0.10168800  1
  C  C55  1  0.39831200  0.16117300  0.25205800  1
  C  C56  1  0.66117300  0.24794200  0.60168800  1
  C  C57  1  0.89831200  0.33882700  0.74794200  1
  C  C58  1  0.10168800  0.83882700  0.75205800  1
  C  C59  1  0.60168800  0.66117300  0.24794200  1
  C  C60  1  0.25205800  0.39831200  0.16117300  1
  C  C61  1  0.75205800  0.10168800  0.83882700  1
  C  C62  1  0.24794200  0.60168800  0.66117300  1
  C  C63  1  0.74794200  0.89831200  0.33882700  1
  C  C64  1  0.27075900  0.49828800  0.44322300  1
  C  C65  1  0.22924100  0.50171200  0.94322300  1
  C  C66  1  0.72924100  0.99828800  0.05677700  1
  C  C67  1  0.44322300  0.27075900  0.49828800  1
  C  C68  1  0.77075900  0.00171200  0.55677700  1
  C  C69  1  0.94322300  0.22924100  0.50171200  1
  C  C70  1  0.05677700  0.72924100  0.99828800  1
  C  C71  1  0.55677700  0.77075900  0.00171200  1
  C  C72  1  0.49828800  0.44322300  0.27075900  1
  C  C73  1  0.99828800  0.05677700  0.72924100  1
  C  C74  1  0.00171200  0.55677700  0.77075900  1
  C  C75  1  0.50171200  0.94322300  0.22924100  1
