# generated using pymatgen
data_CuNiC10
_symmetry_space_group_name_H-M   'P 1'
_cell_length_a   16.43551000
_cell_length_b   10.22507600
_cell_length_c   13.57136081
_cell_angle_alpha   49.26904606
_cell_angle_beta   90.00000000
_cell_angle_gamma   90.00000000
_symmetry_Int_Tables_number   1
_chemical_formula_structural   CuNiC10
_chemical_formula_sum   'Cu8 Ni8 C80'
_cell_volume   1728.29300389
_cell_formula_units_Z   8
loop_
 _symmetry_equiv_pos_site_id
 _symmetry_equiv_pos_as_xyz
  1  'x, y, z'
loop_
 _atom_site_type_symbol
 _atom_site_label
 _atom_site_symmetry_multiplicity
 _atom_site_fract_x
 _atom_site_fract_y
 _atom_site_fract_z
 _atom_site_occupancy
  Ni  Ni0  1  0.84518000  0.60654400  0.13749000  1
  Ni  Ni1  1  0.15482000  0.39345600  0.86251000  1
  Ni  Ni2  1  0.34518000  0.39345600  0.36251000  1
  Ni  Ni3  1  0.65482000  0.60654400  0.63749000  1
  Ni  Ni4  1  0.94189300  0.92921300  0.30630200  1
  Ni  Ni5  1  0.05810700  0.07078700  0.69369800  1
  Ni  Ni6  1  0.44189300  0.07078700  0.19369800  1
  Ni  Ni7  1  0.55810700  0.92921300  0.80630200  1
  Cu  Cu8  1  0.38362100  0.78120800  0.59337600  1
  Cu  Cu9  1  0.61637900  0.21879200  0.40662400  1
  Cu  Cu10  1  0.88362100  0.21879200  0.90662400  1
  Cu  Cu11  1  0.11637900  0.78120800  0.09337600  1
  Cu  Cu12  1  0.70770800  0.32819000  0.03093500  1
  Cu  Cu13  1  0.29229200  0.67181000  0.96906500  1
  Cu  Cu14  1  0.20770800  0.67181000  0.46906500  1
  Cu  Cu15  1  0.79229200  0.32819000  0.53093500  1
  C  C16  1  0.61445900  0.38977100  0.46367100  1
  C  C17  1  0.38554100  0.61022900  0.53632900  1
  C  C18  1  0.11445900  0.61022900  0.03632900  1
  C  C19  1  0.88554100  0.38977100  0.96367100  1
  C  C20  1  0.69027600  0.95800600  0.24138200  1
  C  C21  1  0.30972400  0.04199400  0.75861800  1
  C  C22  1  0.19027600  0.04199400  0.25861800  1
  C  C23  1  0.80972400  0.95800600  0.74138200  1
  C  C24  1  0.29790300  0.84367100  0.02663900  1
  C  C25  1  0.70209700  0.15632900  0.97336100  1
  C  C26  1  0.79790300  0.15632900  0.47336100  1
  C  C27  1  0.20209700  0.84367100  0.52663900  1
  C  C28  1  0.60136600  0.58886900  0.19569700  1
  C  C29  1  0.39863400  0.41113100  0.80430300  1
  C  C30  1  0.10136600  0.41113100  0.30430300  1
  C  C31  1  0.89863400  0.58886900  0.69569700  1
  C  C32  1  0.60755600  0.40517300  0.23831000  1
  C  C33  1  0.39244400  0.59482700  0.76169000  1
  C  C34  1  0.10755600  0.59482700  0.26169000  1
  C  C35  1  0.89244400  0.40517300  0.73831000  1
  C  C36  1  0.19788000  0.85853000  0.30112800  1
  C  C37  1  0.80212000  0.14147000  0.69887200  1
  C  C38  1  0.69788000  0.14147000  0.19887200  1
  C  C39  1  0.30212000  0.85853000  0.80112800  1
  C  C40  1  0.69000100  0.97540100  0.11703400  1
  C  C41  1  0.30999900  0.02459900  0.88296600  1
  C  C42  1  0.19000100  0.02459900  0.38296600  1
  C  C43  1  0.80999900  0.97540100  0.61703400  1
  C  C44  1  0.60334900  0.57194200  0.31975000  1
  C  C45  1  0.39665100  0.42805800  0.68025000  1
  C  C46  1  0.10334900  0.42805800  0.18025000  1
  C  C47  1  0.89665100  0.57194200  0.81975000  1
  C  C48  1  0.37101500  0.95428300  0.33110000  1
  C  C49  1  0.62898500  0.04571700  0.66890000  1
  C  C50  1  0.87101500  0.04571700  0.16890000  1
  C  C51  1  0.12898500  0.95428300  0.83110000  1
  C  C52  1  0.49195400  0.90670600  0.71529100  1
  C  C53  1  0.50804600  0.09329400  0.28470900  1
  C  C54  1  0.99195400  0.09329400  0.78470900  1
  C  C55  1  0.00804600  0.90670600  0.21529100  1
  C  C56  1  0.51138600  0.18185000  0.06172900  1
  C  C57  1  0.48861400  0.81815000  0.93827100  1
  C  C58  1  0.01138600  0.81815000  0.43827100  1
  C  C59  1  0.98861400  0.18185000  0.56172900  1
  C  C60  1  0.75823600  0.68541900  0.03608200  1
  C  C61  1  0.24176400  0.31458100  0.96391800  1
  C  C62  1  0.25823600  0.31458100  0.46391800  1
  C  C63  1  0.74176400  0.68541900  0.53608200  1
  C  C64  1  0.86117500  0.81324600  0.08677900  1
  C  C65  1  0.13882500  0.18675400  0.91322100  1
  C  C66  1  0.36117500  0.18675400  0.41322100  1
  C  C67  1  0.63882500  0.81324600  0.58677900  1
  C  C68  1  0.92923800  0.52350400  0.24407700  1
  C  C69  1  0.07076200  0.47649600  0.75592300  1
  C  C70  1  0.42923800  0.47649600  0.25592300  1
  C  C71  1  0.57076200  0.52350400  0.74407700  1
  C  C72  1  0.78040300  0.54971900  0.26893000  1
  C  C73  1  0.21959700  0.45028100  0.73107000  1
  C  C74  1  0.28040300  0.45028100  0.23107000  1
  C  C75  1  0.71959700  0.54971900  0.76893000  1
  C  C76  1  0.48797300  0.87132100  0.26244500  1
  C  C77  1  0.51202700  0.12867900  0.73755500  1
  C  C78  1  0.98797300  0.12867900  0.23755500  1
  C  C79  1  0.01202700  0.87132100  0.76244500  1
  C  C80  1  0.87296600  0.95747900  0.39135300  1
  C  C81  1  0.12703400  0.04252100  0.60864700  1
  C  C82  1  0.37296600  0.04252100  0.10864700  1
  C  C83  1  0.62703400  0.95747900  0.89135300  1
  C  C84  1  0.90758600  0.65403900  0.01175200  1
  C  C85  1  0.09241400  0.34596100  0.98824800  1
  C  C86  1  0.40758600  0.34596100  0.48824800  1
  C  C87  1  0.59241400  0.65403900  0.51175200  1
  C  C88  1  0.89279500  0.73445000  0.37080800  1
  C  C89  1  0.10720500  0.26555000  0.62919200  1
  C  C90  1  0.39279500  0.26555000  0.12919200  1
  C  C91  1  0.60720500  0.73445000  0.87080800  1
  C  C92  1  0.82484500  0.39828000  0.19055400  1
  C  C93  1  0.17515500  0.60172000  0.80944600  1
  C  C94  1  0.32484500  0.60172000  0.30944600  1
  C  C95  1  0.67515500  0.39828000  0.69055400  1
