# generated using pymatgen
data_Cu(Ni3C2)4
_symmetry_space_group_name_H-M   'P 1'
_cell_length_a   10.32774429
_cell_length_b   10.32774429
_cell_length_c   7.15526800
_cell_angle_alpha   90.00000000
_cell_angle_beta   90.00000000
_cell_angle_gamma   120.00000184
_symmetry_Int_Tables_number   1
_chemical_formula_structural   Cu(Ni3C2)4
_chemical_formula_sum   'Cu2 Ni24 C16'
_cell_volume   660.94828684
_cell_formula_units_Z   2
loop_
 _symmetry_equiv_pos_site_id
 _symmetry_equiv_pos_as_xyz
  1  'x, y, z'
loop_
 _atom_site_type_symbol
 _atom_site_label
 _atom_site_symmetry_multiplicity
 _atom_site_fract_x
 _atom_site_fract_y
 _atom_site_fract_z
 _atom_site_occupancy
  C  C0  1  0.33333300  0.66666700  0.39269100  1
  C  C1  1  0.66666700  0.33333300  0.89269100  1
  C  C2  1  0.33333300  0.66666700  0.78960800  1
  C  C3  1  0.66666700  0.33333300  0.28960800  1
  C  C4  1  0.26309500  0.28889100  0.57547200  1
  C  C5  1  0.71110900  0.97420300  0.57547200  1
  C  C6  1  0.73690500  0.71110900  0.07547200  1
  C  C7  1  0.02579700  0.73690500  0.57547200  1
  C  C8  1  0.28889100  0.02579700  0.07547200  1
  C  C9  1  0.97420300  0.26309500  0.07547200  1
  C  C10  1  0.38760600  0.05099400  0.58629100  1
  C  C11  1  0.94900600  0.33661100  0.58629100  1
  C  C12  1  0.61239400  0.94900600  0.08629100  1
  C  C13  1  0.66338900  0.61239400  0.58629100  1
  C  C14  1  0.05099400  0.66338900  0.08629100  1
  C  C15  1  0.33661100  0.38760600  0.08629100  1
  Ni  Ni16  1  0.11918400  0.40102900  0.57917100  1
  Ni  Ni17  1  0.59897100  0.71815400  0.57917100  1
  Ni  Ni18  1  0.88081600  0.59897100  0.07917100  1
  Ni  Ni19  1  0.28184600  0.88081600  0.57917100  1
  Ni  Ni20  1  0.40102900  0.28184600  0.07917100  1
  Ni  Ni21  1  0.71815400  0.11918400  0.07917100  1
  Ni  Ni22  1  0.34590700  0.11464700  0.76188600  1
  Ni  Ni23  1  0.88535300  0.23126000  0.76188600  1
  Ni  Ni24  1  0.65409300  0.88535300  0.26188600  1
  Ni  Ni25  1  0.76874000  0.65409300  0.76188600  1
  Ni  Ni26  1  0.11464700  0.76874000  0.26188600  1
  Ni  Ni27  1  0.23126000  0.34590700  0.26188600  1
  Ni  Ni28  1  0.23214100  0.35903600  0.91317900  1
  Ni  Ni29  1  0.64096400  0.87310500  0.91317900  1
  Ni  Ni30  1  0.76785900  0.64096400  0.41317900  1
  Ni  Ni31  1  0.12689500  0.76785900  0.91317900  1
  Ni  Ni32  1  0.35903600  0.12689500  0.41317900  1
  Ni  Ni33  1  0.87310500  0.23214100  0.41317900  1
  Ni  Ni34  1  0.55205400  0.08636200  0.59540900  1
  Ni  Ni35  1  0.91363800  0.46569200  0.59540900  1
  Ni  Ni36  1  0.44794600  0.91363800  0.09540900  1
  Ni  Ni37  1  0.53430800  0.44794600  0.59540900  1
  Ni  Ni38  1  0.08636200  0.53430800  0.09540900  1
  Ni  Ni39  1  0.46569200  0.55205400  0.09540900  1
  Cu  Cu40  1  0.00000000  0.00000000  0.54417800  1
  Cu  Cu41  1  0.00000000  0.00000000  0.04417800  1
