# generated using pymatgen
data_CuNiC6
_symmetry_space_group_name_H-M   'P 1'
_cell_length_a   5.51967400
_cell_length_b   10.56205500
_cell_length_c   15.89246500
_cell_angle_alpha   90.00000000
_cell_angle_beta   90.00000000
_cell_angle_gamma   90.00000000
_symmetry_Int_Tables_number   1
_chemical_formula_structural   CuNiC6
_chemical_formula_sum   'Cu8 Ni8 C48'
_cell_volume   926.51641216
_cell_formula_units_Z   8
loop_
 _symmetry_equiv_pos_site_id
 _symmetry_equiv_pos_as_xyz
  1  'x, y, z'
loop_
 _atom_site_type_symbol
 _atom_site_label
 _atom_site_symmetry_multiplicity
 _atom_site_fract_x
 _atom_site_fract_y
 _atom_site_fract_z
 _atom_site_occupancy
  C  C0  1  0.54295400  0.36882600  0.56876900  1
  C  C1  1  0.04295400  0.13117400  0.56876900  1
  C  C2  1  0.04295400  0.63117400  0.93123100  1
  C  C3  1  0.95704600  0.36882600  0.06876900  1
  C  C4  1  0.45704600  0.13117400  0.06876900  1
  C  C5  1  0.95704600  0.86882600  0.43123100  1
  C  C6  1  0.45704600  0.63117400  0.43123100  1
  C  C7  1  0.54295400  0.86882600  0.93123100  1
  Ni  Ni8  1  0.03791500  0.38008300  0.43004900  1
  Ni  Ni9  1  0.46208500  0.88008300  0.56995100  1
  Ni  Ni10  1  0.96208500  0.61991700  0.56995100  1
  Ni  Ni11  1  0.53791500  0.11991700  0.43004900  1
  Ni  Ni12  1  0.96208500  0.11991700  0.93004900  1
  Ni  Ni13  1  0.03791500  0.88008300  0.06995100  1
  Ni  Ni14  1  0.46208500  0.38008300  0.93004900  1
  Ni  Ni15  1  0.53791500  0.61991700  0.06995100  1
  Cu  Cu16  1  0.97072400  0.85262900  0.75462600  1
  Cu  Cu17  1  0.02927600  0.14737100  0.24537400  1
  Cu  Cu18  1  0.52927600  0.35262900  0.24537400  1
  Cu  Cu19  1  0.02927600  0.64737100  0.25462600  1
  Cu  Cu20  1  0.47072400  0.14737100  0.74537400  1
  Cu  Cu21  1  0.47072400  0.64737100  0.75462600  1
  Cu  Cu22  1  0.52927600  0.85262900  0.25462600  1
  Cu  Cu23  1  0.97072400  0.35262900  0.74537400  1
  C  C24  1  0.87437300  0.31066100  0.31660900  1
  C  C25  1  0.22224900  0.99573600  0.97345300  1
  C  C26  1  0.27775100  0.49573600  0.02654700  1
  C  C27  1  0.26651000  0.78027700  0.83339900  1
  C  C28  1  0.23349000  0.28027700  0.16660100  1
  C  C29  1  0.87437300  0.81066100  0.18339100  1
  C  C30  1  0.23349000  0.78027700  0.33339900  1
  C  C31  1  0.62562700  0.81066100  0.68339100  1
  C  C32  1  0.22224900  0.49573600  0.52654700  1
  C  C33  1  0.12562700  0.68933900  0.68339100  1
  C  C34  1  0.62562700  0.31066100  0.81660900  1
  C  C35  1  0.79435600  0.24376900  0.47783900  1
  C  C36  1  0.72224900  0.00426400  0.52654700  1
  C  C37  1  0.73349000  0.71972300  0.33339900  1
  C  C38  1  0.23922700  0.98864600  0.16118200  1
  C  C39  1  0.72224900  0.50426400  0.97345300  1
  C  C40  1  0.12562700  0.18933900  0.81660900  1
  C  C41  1  0.76651000  0.21972300  0.66660100  1
  C  C42  1  0.29435600  0.75623100  0.02216100  1
  C  C43  1  0.27775100  0.99573600  0.47345300  1
  C  C44  1  0.20564400  0.75623100  0.52216100  1
  C  C45  1  0.76077300  0.01135400  0.83881800  1
  C  C46  1  0.73349000  0.21972300  0.16660100  1
  C  C47  1  0.73922700  0.01135400  0.33881800  1
  C  C48  1  0.20564400  0.25623100  0.97783900  1
  C  C49  1  0.29435600  0.25623100  0.47783900  1
  C  C50  1  0.77775100  0.50426400  0.47345300  1
  C  C51  1  0.77775100  0.00426400  0.02654700  1
  C  C52  1  0.73922700  0.51135400  0.16118200  1
  C  C53  1  0.70564400  0.74376900  0.52216100  1
  C  C54  1  0.70564400  0.24376900  0.97783900  1
  C  C55  1  0.79435600  0.74376900  0.02216100  1
  C  C56  1  0.76077300  0.51135400  0.66118200  1
  C  C57  1  0.76651000  0.71972300  0.83339900  1
  C  C58  1  0.26651000  0.28027700  0.66660100  1
  C  C59  1  0.23922700  0.48864600  0.33881800  1
  C  C60  1  0.26077300  0.48864600  0.83881800  1
  C  C61  1  0.37437300  0.18933900  0.31660900  1
  C  C62  1  0.26077300  0.98864600  0.66118200  1
  C  C63  1  0.37437300  0.68933900  0.18339100  1
