# generated using pymatgen
data_Cu2Ni4C17
_symmetry_space_group_name_H-M   'P 1'
_cell_length_a   12.85783000
_cell_length_b   15.70873800
_cell_length_c   12.58887926
_cell_angle_alpha   90.00000000
_cell_angle_beta   99.46024587
_cell_angle_gamma   90.00000000
_symmetry_Int_Tables_number   1
_chemical_formula_structural   Cu2Ni4C17
_chemical_formula_sum   'Cu16 Ni32 C136'
_cell_volume   2508.12429533
_cell_formula_units_Z   8
loop_
 _symmetry_equiv_pos_site_id
 _symmetry_equiv_pos_as_xyz
  1  'x, y, z'
loop_
 _atom_site_type_symbol
 _atom_site_label
 _atom_site_symmetry_multiplicity
 _atom_site_fract_x
 _atom_site_fract_y
 _atom_site_fract_z
 _atom_site_occupancy
  C  C0  1  0.21515200  0.11829500  0.48102200  1
  C  C1  1  0.78484800  0.61829500  0.01897800  1
  C  C2  1  0.78484800  0.88170500  0.51897800  1
  C  C3  1  0.21515200  0.38170500  0.98102200  1
  C  C4  1  0.28225900  0.87221500  0.02240900  1
  C  C5  1  0.71774100  0.37221500  0.47759100  1
  C  C6  1  0.71774100  0.12778500  0.97759100  1
  C  C7  1  0.28225900  0.62778500  0.52240900  1
  C  C8  1  0.36433000  0.08392700  0.72086000  1
  C  C9  1  0.63567000  0.58392700  0.77914000  1
  C  C10  1  0.63567000  0.91607300  0.27914000  1
  C  C11  1  0.36433000  0.41607300  0.22086000  1
  C  C12  1  0.46012000  0.15588500  0.61532600  1
  C  C13  1  0.53988000  0.65588500  0.88467400  1
  C  C14  1  0.53988000  0.84411500  0.38467400  1
  C  C15  1  0.46012000  0.34411500  0.11532600  1
  C  C16  1  0.00488100  0.18572800  0.30995200  1
  C  C17  1  0.99511900  0.68572800  0.19004800  1
  C  C18  1  0.99511900  0.81427200  0.69004800  1
  C  C19  1  0.00488100  0.31427200  0.80995200  1
  C  C20  1  0.07877100  0.06928900  0.25020100  1
  C  C21  1  0.92122900  0.56928900  0.24979900  1
  C  C22  1  0.92122900  0.93071100  0.74979900  1
  C  C23  1  0.07877100  0.43071100  0.75020100  1
  C  C24  1  0.37786300  0.18245500  0.86935500  1
  C  C25  1  0.62213700  0.68245500  0.63064500  1
  C  C26  1  0.62213700  0.81754500  0.13064500  1
  C  C27  1  0.37786300  0.31754500  0.36935500  1
  C  C28  1  0.36161500  0.07381500  0.90796100  1
  C  C29  1  0.63838500  0.57381500  0.59203900  1
  C  C30  1  0.63838500  0.92618500  0.09203900  1
  C  C31  1  0.36161500  0.42618500  0.40796100  1
  C  C32  1  0.48816900  0.10984600  0.88426600  1
  C  C33  1  0.51183100  0.60984600  0.61573400  1
  C  C34  1  0.51183100  0.89015400  0.11573400  1
  C  C35  1  0.48816900  0.39015400  0.38426600  1
  C  C36  1  0.38174900  0.95102800  0.63070500  1
  C  C37  1  0.61825100  0.45102800  0.86929500  1
  C  C38  1  0.61825100  0.04897200  0.36929500  1
  C  C39  1  0.38174900  0.54897200  0.13070500  1
  C  C40  1  0.49240200  0.96815600  0.73520800  1
  C  C41  1  0.50759800  0.46815600  0.76479200  1
  C  C42  1  0.50759800  0.03184400  0.26479200  1
  C  C43  1  0.49240200  0.53184400  0.23520800  1
  C  C44  1  0.36771500  0.93774700  0.76980100  1
  C  C45  1  0.63228500  0.43774700  0.73019900  1
  C  C46  1  0.63228500  0.06225300  0.23019900  1
  C  C47  1  0.36771500  0.56225300  0.26980100  1
  C  C48  1  0.60560000  0.05677800  0.62754800  1
  C  C49  1  0.39440000  0.55677800  0.87245200  1
  C  C50  1  0.39440000  0.94322200  0.37245200  1
  C  C51  1  0.60560000  0.44322200  0.12754800  1
  C  C52  1  0.64064700  0.16335000  0.59726600  1
  C  C53  1  0.35935300  0.66335000  0.90273400  1
  C  C54  1  0.35935300  0.83665000  0.40273400  1
  C  C55  1  0.64064700  0.33665000  0.09726600  1
  C  C56  1  0.62725200  0.13591800  0.73270500  1
  C  C57  1  0.37274800  0.63591800  0.76729500  1
  C  C58  1  0.37274800  0.86408200  0.26729500  1
  C  C59  1  0.62725200  0.36408200  0.23270500  1
  C  C60  1  0.37448700  0.28917600  0.63543400  1
  C  C61  1  0.62551300  0.78917600  0.86456600  1
  C  C62  1  0.62551300  0.71082400  0.36456600  1
  C  C63  1  0.37448700  0.21082400  0.13543400  1
  C  C64  1  0.48288000  0.27376000  0.74379100  1
  C  C65  1  0.51712000  0.77376000  0.75620900  1
  C  C66  1  0.51712000  0.72624000  0.25620900  1
  C  C67  1  0.48288000  0.22624000  0.24379100  1
  C  C68  1  0.50769700  0.30196700  0.61208400  1
  C  C69  1  0.49230300  0.80196700  0.88791600  1
  C  C70  1  0.49230300  0.69803300  0.38791600  1
  C  C71  1  0.50769700  0.19803300  0.11208400  1
  C  C72  1  0.01612300  0.27288500  0.15395000  1
  C  C73  1  0.98387700  0.77288500  0.34605000  1
  C  C74  1  0.98387700  0.72711500  0.84605000  1
  C  C75  1  0.01612300  0.22711500  0.65395000  1
  C  C76  1  0.89249300  0.21630600  0.14139200  1
  C  C77  1  0.10750700  0.71630600  0.35860800  1
  C  C78  1  0.10750700  0.78369400  0.85860800  1
  C  C79  1  0.89249300  0.28369400  0.64139200  1
  C  C80  1  0.91567300  0.30781400  0.22683300  1
  C  C81  1  0.08432700  0.80781400  0.27316700  1
  C  C82  1  0.08432700  0.69218600  0.77316700  1
  C  C83  1  0.91567300  0.19218600  0.72683300  1
  C  C84  1  0.92136800  0.10407600  0.43304600  1
  C  C85  1  0.07863200  0.60407600  0.06695400  1
  C  C86  1  0.07863200  0.89592400  0.56695400  1
  C  C87  1  0.92136800  0.39592400  0.93304600  1
  C  C88  1  0.85405200  0.20264100  0.39398000  1
  C  C89  1  0.14594800  0.70264100  0.10602000  1
  C  C90  1  0.14594800  0.79735900  0.60602000  1
  C  C91  1  0.85405200  0.29735900  0.89398000  1
  C  C92  1  0.83738900  0.11279600  0.30444900  1
  C  C93  1  0.16261100  0.61279600  0.19555100  1
  C  C94  1  0.16261100  0.88720400  0.69555100  1
  C  C95  1  0.83738900  0.38720400  0.80444900  1
  C  C96  1  0.92122300  0.98561300  0.19770400  1
  C  C97  1  0.07877700  0.48561300  0.30229600  1
  C  C98  1  0.07877700  0.01438700  0.80229600  1
  C  C99  1  0.92122300  0.51438700  0.69770400  1
  C  C100  1  0.94724900  0.05438300  0.09073300  1
  C  C101  1  0.05275100  0.55438300  0.40926700  1
  C  C102  1  0.05275100  0.94561700  0.90926700  1
  C  C103  1  0.94724900  0.44561700  0.59073300  1
  C  C104  1  0.02480800  0.95982500  0.12343300  1
  C  C105  1  0.97519200  0.45982500  0.37656700  1
  C  C106  1  0.97519200  0.04017500  0.87656700  1
  C  C107  1  0.02480800  0.54017500  0.62343300  1
  C  C108  1  0.22591600  0.15512700  0.22492200  1
  C  C109  1  0.77408400  0.65512700  0.27507800  1
  C  C110  1  0.77408400  0.84487300  0.77507800  1
  C  C111  1  0.22591600  0.34487300  0.72492200  1
  C  C112  1  0.22049800  0.05570900  0.15237500  1
  C  C113  1  0.77950200  0.55570900  0.34762500  1
  C  C114  1  0.77950200  0.94429100  0.84762500  1
  C  C115  1  0.22049800  0.44429100  0.65237500  1
  C  C116  1  0.13751600  0.14317100  0.09957300  1
  C  C117  1  0.86248400  0.64317100  0.40042700  1
  C  C118  1  0.86248400  0.85682900  0.90042700  1
  C  C119  1  0.13751600  0.35682900  0.59957300  1
  Ni  Ni120  1  0.40281500  0.11635800  0.85930400  1
  Ni  Ni121  1  0.59718500  0.61635800  0.64069600  1
  Ni  Ni122  1  0.59718500  0.88364200  0.14069600  1
  Ni  Ni123  1  0.40281500  0.38364200  0.35930400  1
  Ni  Ni124  1  0.40665400  0.97439900  0.71324200  1
  Ni  Ni125  1  0.59334600  0.47439900  0.78675800  1
  Ni  Ni126  1  0.59334600  0.02560100  0.28675800  1
  Ni  Ni127  1  0.40665400  0.52560100  0.21324200  1
  Ni  Ni128  1  0.59683000  0.12406300  0.64711900  1
  Ni  Ni129  1  0.40317000  0.62406300  0.85288100  1
  Ni  Ni130  1  0.40317000  0.87593700  0.35288100  1
  Ni  Ni131  1  0.59683000  0.37593700  0.14711900  1
  Ni  Ni132  1  0.45543000  0.26616100  0.65670000  1
  Ni  Ni133  1  0.54457000  0.76616100  0.84330000  1
  Ni  Ni134  1  0.54457000  0.73383900  0.34330000  1
  Ni  Ni135  1  0.45543000  0.23383900  0.15670000  1
  Ni  Ni136  1  0.95269000  0.25190700  0.19606400  1
  Ni  Ni137  1  0.04731000  0.75190700  0.30393600  1
  Ni  Ni138  1  0.04731000  0.74809300  0.80393600  1
  Ni  Ni139  1  0.95269000  0.24809300  0.69606400  1
  Ni  Ni140  1  0.89302800  0.14682600  0.36559300  1
  Ni  Ni141  1  0.10697200  0.64682600  0.13440700  1
  Ni  Ni142  1  0.10697200  0.85317400  0.63440700  1
  Ni  Ni143  1  0.89302800  0.35317400  0.86559300  1
  Ni  Ni144  1  0.98257700  0.01186600  0.15635400  1
  Ni  Ni145  1  0.01742300  0.51186600  0.34364600  1
  Ni  Ni146  1  0.01742300  0.98813400  0.84364600  1
  Ni  Ni147  1  0.98257700  0.48813400  0.65635400  1
  Ni  Ni148  1  0.17485700  0.11048700  0.17344700  1
  Ni  Ni149  1  0.82514300  0.61048700  0.32655300  1
  Ni  Ni150  1  0.82514300  0.88951300  0.82655300  1
  Ni  Ni151  1  0.17485700  0.38951300  0.67344700  1
  Cu  Cu152  1  0.21350800  0.10533200  0.66412800  1
  Cu  Cu153  1  0.78649200  0.60533200  0.83587200  1
  Cu  Cu154  1  0.78649200  0.89466800  0.33587200  1
  Cu  Cu155  1  0.21350800  0.39466800  0.16412800  1
  Cu  Cu156  1  0.39396600  0.13279500  0.46423900  1
  Cu  Cu157  1  0.60603400  0.63279500  0.03576100  1
  Cu  Cu158  1  0.60603400  0.86720500  0.53576100  1
  Cu  Cu159  1  0.39396600  0.36720500  0.96423900  1
  Cu  Cu160  1  0.11794600  0.23955300  0.41490500  1
  Cu  Cu161  1  0.88205400  0.73955300  0.08509500  1
  Cu  Cu162  1  0.88205400  0.76044700  0.58509500  1
  Cu  Cu163  1  0.11794600  0.26044700  0.91490500  1
  Cu  Cu164  1  0.14007700  0.00312500  0.37974200  1
  Cu  Cu165  1  0.85992300  0.50312500  0.12025800  1
  Cu  Cu166  1  0.85992300  0.99687500  0.62025800  1
  Cu  Cu167  1  0.14007700  0.49687500  0.87974200  1
  C  C168  1  0.27537700  0.87306300  0.90828400  1
  C  C169  1  0.72462300  0.37306300  0.59171600  1
  C  C170  1  0.72462300  0.12693700  0.09171600  1
  C  C171  1  0.27537700  0.62693700  0.40828400  1
  C  C172  1  0.17907100  0.86943100  0.04918600  1
  C  C173  1  0.82092900  0.36943100  0.45081400  1
  C  C174  1  0.82092900  0.13056900  0.95081400  1
  C  C175  1  0.17907100  0.63056900  0.54918600  1
  C  C176  1  0.33460500  0.94724800  0.06651400  1
  C  C177  1  0.66539500  0.44724800  0.43348600  1
  C  C178  1  0.66539500  0.05275200  0.93348600  1
  C  C179  1  0.33460500  0.55275200  0.56651400  1
  C  C180  1  0.34003700  0.79954200  0.06527300  1
  C  C181  1  0.65996300  0.29954200  0.43472700  1
  C  C182  1  0.65996300  0.20045800  0.93472700  1
  C  C183  1  0.34003700  0.70045800  0.56527300  1
