# generated using pymatgen
data_CuNi11C23
_symmetry_space_group_name_H-M   'P 1'
_cell_length_a   7.74903800
_cell_length_b   8.24368200
_cell_length_c   17.62177800
_cell_angle_alpha   90.00000000
_cell_angle_beta   90.00000000
_cell_angle_gamma   90.00000000
_symmetry_Int_Tables_number   1
_chemical_formula_structural   CuNi11C23
_chemical_formula_sum   'Cu4 Ni44 C92'
_cell_volume   1125.68984119
_cell_formula_units_Z   4
loop_
 _symmetry_equiv_pos_site_id
 _symmetry_equiv_pos_as_xyz
  1  'x, y, z'
loop_
 _atom_site_type_symbol
 _atom_site_label
 _atom_site_symmetry_multiplicity
 _atom_site_fract_x
 _atom_site_fract_y
 _atom_site_fract_z
 _atom_site_occupancy
  C  C0  1  0.00000000  0.67441800  0.84345000  1
  C  C1  1  0.50000000  0.32558200  0.34345000  1
  C  C2  1  0.50000000  0.96118100  0.20476900  1
  C  C3  1  0.00000000  0.03881900  0.70476900  1
  C  C4  1  0.50000000  0.85467900  0.75637600  1
  C  C5  1  0.00000000  0.14532100  0.25637600  1
  C  C6  1  0.50000000  0.22693400  0.62699200  1
  C  C7  1  0.00000000  0.77306600  0.12699200  1
  C  C8  1  0.00000000  0.26406800  0.95980100  1
  C  C9  1  0.50000000  0.73593200  0.45980100  1
  C  C10  1  0.50000000  0.43993500  0.89876100  1
  C  C11  1  0.00000000  0.56006500  0.39876100  1
  Ni  Ni12  1  0.66481500  0.78940500  0.90995700  1
  Ni  Ni13  1  0.33518500  0.78940500  0.90995700  1
  Ni  Ni14  1  0.83518500  0.21059500  0.40995700  1
  Ni  Ni15  1  0.16481500  0.21059500  0.40995700  1
  Ni  Ni16  1  0.82495700  0.01864300  0.84273200  1
  Ni  Ni17  1  0.17504300  0.01864300  0.84273200  1
  Ni  Ni18  1  0.67504300  0.98135700  0.34273200  1
  Ni  Ni19  1  0.32495700  0.98135700  0.34273200  1
  Ni  Ni20  1  0.83125100  0.60094300  0.99948300  1
  Ni  Ni21  1  0.16874900  0.60094300  0.99948300  1
  Ni  Ni22  1  0.66874900  0.39905700  0.49948300  1
  Ni  Ni23  1  0.33125100  0.39905700  0.49948300  1
  Ni  Ni24  1  0.66298700  0.08556500  0.96126500  1
  Ni  Ni25  1  0.33701300  0.08556500  0.96126500  1
  Ni  Ni26  1  0.83701300  0.91443500  0.46126500  1
  Ni  Ni27  1  0.16298700  0.91443500  0.46126500  1
  Ni  Ni28  1  0.66864400  0.35093200  0.03895400  1
  Ni  Ni29  1  0.33135600  0.35093200  0.03895400  1
  Ni  Ni30  1  0.83135600  0.64906800  0.53895400  1
  Ni  Ni31  1  0.16864400  0.64906800  0.53895400  1
  Ni  Ni32  1  0.83564400  0.14830900  0.55816900  1
  Ni  Ni33  1  0.16435600  0.14830900  0.55816900  1
  Ni  Ni34  1  0.66435600  0.85169100  0.05816900  1
  Ni  Ni35  1  0.33564400  0.85169100  0.05816900  1
  Ni  Ni36  1  0.83282400  0.10179800  0.09512800  1
  Ni  Ni37  1  0.16717600  0.10179800  0.09512800  1
  Ni  Ni38  1  0.66717600  0.89820200  0.59512800  1
  Ni  Ni39  1  0.33282400  0.89820200  0.59512800  1
  Ni  Ni40  1  0.66505300  0.50629300  0.75326100  1
  Ni  Ni41  1  0.33494700  0.50629300  0.75326100  1
  Ni  Ni42  1  0.83494700  0.49370700  0.25326100  1
  Ni  Ni43  1  0.16505300  0.49370700  0.25326100  1
  Ni  Ni44  1  0.83114900  0.71404000  0.68544600  1
  Ni  Ni45  1  0.16885100  0.71404000  0.68544600  1
  Ni  Ni46  1  0.66885100  0.28596000  0.18544600  1
  Ni  Ni47  1  0.33114900  0.28596000  0.18544600  1
  Ni  Ni48  1  0.66100300  0.58677700  0.13435900  1
  Ni  Ni49  1  0.33899700  0.58677700  0.13435900  1
  Ni  Ni50  1  0.83899700  0.41322300  0.63435900  1
  Ni  Ni51  1  0.16100300  0.41322300  0.63435900  1
  Ni  Ni52  1  0.66965100  0.23998000  0.76319000  1
  Ni  Ni53  1  0.33034900  0.23998000  0.76319000  1
  Ni  Ni54  1  0.83034900  0.76002000  0.26319000  1
  Ni  Ni55  1  0.16965100  0.76002000  0.26319000  1
  Cu  Cu56  1  0.89262100  0.37673900  0.83400700  1
  Cu  Cu57  1  0.10737900  0.37673900  0.83400700  1
  Cu  Cu58  1  0.60737900  0.62326100  0.33400700  1
  Cu  Cu59  1  0.39262100  0.62326100  0.33400700  1
  C  C60  1  0.80633400  0.67677100  0.92474200  1
  C  C61  1  0.19366600  0.67677100  0.92474200  1
  C  C62  1  0.69366600  0.32322900  0.42474200  1
  C  C63  1  0.30633400  0.32322900  0.42474200  1
  C  C64  1  0.69606700  0.87499400  0.27257300  1
  C  C65  1  0.30393300  0.87499400  0.27257300  1
  C  C66  1  0.80393300  0.12500600  0.77257300  1
  C  C67  1  0.19606700  0.12500600  0.77257300  1
  C  C68  1  0.69514000  0.83241100  0.67187800  1
  C  C69  1  0.30486000  0.83241100  0.67187800  1
  C  C70  1  0.80486000  0.16758900  0.17187800  1
  C  C71  1  0.19514000  0.16758900  0.17187800  1
  C  C72  1  0.50000000  0.58482700  0.74673600  1
  C  C73  1  0.00000000  0.41517300  0.24673600  1
  C  C74  1  0.50000000  0.20576500  0.18548100  1
  C  C75  1  0.00000000  0.79423500  0.68548100  1
  C  C76  1  0.00000000  0.94156900  0.83379400  1
  C  C77  1  0.50000000  0.05843100  0.33379400  1
  C  C78  1  0.50000000  0.89270500  0.09348800  1
  C  C79  1  0.00000000  0.10729500  0.59348800  1
  C  C80  1  0.80666700  0.61872600  0.75402700  1
  C  C81  1  0.19333300  0.61872600  0.75402700  1
  C  C82  1  0.69333300  0.38127400  0.25402700  1
  C  C83  1  0.30666700  0.38127400  0.25402700  1
  C  C84  1  0.50000000  0.39419100  0.00864200  1
  C  C85  1  0.00000000  0.60580900  0.50864200  1
  C  C86  1  0.80827500  0.11832500  0.91161000  1
  C  C87  1  0.19172500  0.11832500  0.91161000  1
  C  C88  1  0.69172500  0.88167500  0.41161000  1
  C  C89  1  0.30827500  0.88167500  0.41161000  1
  C  C90  1  0.00000000  0.14568700  0.06350400  1
  C  C91  1  0.50000000  0.85431300  0.56350400  1
  C  C92  1  0.80127200  0.42676500  0.99404000  1
  C  C93  1  0.19872800  0.42676500  0.99404000  1
  C  C94  1  0.69872800  0.57323500  0.49404000  1
  C  C95  1  0.30127200  0.57323500  0.49404000  1
  C  C96  1  0.50000000  0.69987400  0.90635600  1
  C  C97  1  0.00000000  0.30012600  0.40635600  1
  C  C98  1  0.69153400  0.88889700  0.84227600  1
  C  C99  1  0.30846600  0.88889700  0.84227600  1
  C  C100  1  0.80846600  0.11110300  0.34227600  1
  C  C101  1  0.19153400  0.11110300  0.34227600  1
  C  C102  1  0.67421200  0.38212100  0.81513100  1
  C  C103  1  0.32578800  0.38212100  0.81513100  1
  C  C104  1  0.82578800  0.61787900  0.31513100  1
  C  C105  1  0.17421200  0.61787900  0.31513100  1
  C  C106  1  0.69516600  0.36931500  0.68940200  1
  C  C107  1  0.30483400  0.36931500  0.68940200  1
  C  C108  1  0.80483400  0.63068500  0.18940200  1
  C  C109  1  0.19516600  0.63068500  0.18940200  1
  C  C110  1  0.50000000  0.36035900  0.53178600  1
  C  C111  1  0.00000000  0.63964100  0.03178600  1
  C  C112  1  0.69375900  0.07408800  0.59837100  1
  C  C113  1  0.30624100  0.07408800  0.59837100  1
  C  C114  1  0.80624100  0.92591200  0.09837100  1
  C  C115  1  0.19375900  0.92591200  0.09837100  1
  C  C116  1  0.66518400  0.90613400  0.97819900  1
  C  C117  1  0.33481600  0.90613400  0.97819900  1
  C  C118  1  0.83481600  0.09386700  0.47819900  1
  C  C119  1  0.16518400  0.09386700  0.47819900  1
  C  C120  1  0.69708500  0.17057000  0.03926000  1
  C  C121  1  0.30291500  0.17057000  0.03926000  1
  C  C122  1  0.80291500  0.82943000  0.53926000  1
  C  C123  1  0.19708500  0.82943000  0.53926000  1
  C  C124  1  0.68035100  0.40867100  0.11919200  1
  C  C125  1  0.31964900  0.40867100  0.11919200  1
  C  C126  1  0.81964900  0.59132900  0.61919200  1
  C  C127  1  0.18035100  0.59132900  0.61919200  1
  C  C128  1  0.69658200  0.67016000  0.05792800  1
  C  C129  1  0.30341800  0.67016000  0.05792800  1
  C  C130  1  0.80341800  0.32984000  0.55792800  1
  C  C131  1  0.19658200  0.32984000  0.55792800  1
  C  C132  1  0.50000000  0.13599400  0.93082500  1
  C  C133  1  0.00000000  0.86400600  0.43082500  1
  C  C134  1  0.50000000  0.16723400  0.74879400  1
  C  C135  1  0.00000000  0.83276600  0.24879400  1
  C  C136  1  0.00000000  0.41156200  0.86036000  1
  C  C137  1  0.50000000  0.58843800  0.36036000  1
  C  C138  1  0.50000000  0.62821900  0.16572600  1
  C  C139  1  0.00000000  0.37178100  0.66572600  1
