# generated using pymatgen
data_Cu2(NiC5)3
_symmetry_space_group_name_H-M   'P 1'
_cell_length_a   9.23498340
_cell_length_b   9.23498340
_cell_length_c   7.28802239
_cell_angle_alpha   75.70401148
_cell_angle_beta   75.70401148
_cell_angle_gamma   95.06581102
_symmetry_Int_Tables_number   1
_chemical_formula_structural   Cu2(NiC5)3
_chemical_formula_sum   'Cu4 Ni6 C30'
_cell_volume   576.23691010
_cell_formula_units_Z   2
loop_
 _symmetry_equiv_pos_site_id
 _symmetry_equiv_pos_as_xyz
  1  'x, y, z'
loop_
 _atom_site_type_symbol
 _atom_site_label
 _atom_site_symmetry_multiplicity
 _atom_site_fract_x
 _atom_site_fract_y
 _atom_site_fract_z
 _atom_site_occupancy
  Ni  Ni0  1  0.23083800  0.76916300  0.25000000  1
  Ni  Ni1  1  0.76916200  0.23083800  0.75000000  1
  Ni  Ni2  1  0.00000000  0.00000000  0.00000000  1
  Ni  Ni3  1  0.00000000  0.00000000  0.50000000  1
  Ni  Ni4  1  0.51266100  0.48733900  0.25000000  1
  Ni  Ni5  1  0.48733900  0.51266100  0.75000000  1
  Cu  Cu6  1  0.55408600  0.86840000  0.37735800  1
  Cu  Cu7  1  0.44591400  0.13160000  0.62264200  1
  Cu  Cu8  1  0.13160000  0.44591400  0.12264200  1
  Cu  Cu9  1  0.86840000  0.55408600  0.87735800  1
  C  C10  1  0.78160900  0.21839100  0.25000000  1
  C  C11  1  0.21839100  0.78160900  0.75000000  1
  C  C12  1  0.37798200  0.15395900  0.12167400  1
  C  C13  1  0.62201800  0.84604100  0.87832600  1
  C  C14  1  0.84604100  0.62201800  0.37832600  1
  C  C15  1  0.15395900  0.37798200  0.62167400  1
  C  C16  1  0.46300200  0.08669900  0.33995100  1
  C  C17  1  0.53699800  0.91330100  0.66004900  1
  C  C18  1  0.91330100  0.53699800  0.16004900  1
  C  C19  1  0.08669900  0.46300200  0.83995100  1
  C  C20  1  0.49838600  0.84209200  0.12565200  1
  C  C21  1  0.50161400  0.15790800  0.87434800  1
  C  C22  1  0.15790800  0.50161400  0.37434800  1
  C  C23  1  0.84209200  0.49838600  0.62565200  1
  C  C24  1  0.19927100  0.03350500  0.20912200  1
  C  C25  1  0.80072900  0.96649500  0.79087800  1
  C  C26  1  0.96649500  0.80072900  0.29087800  1
  C  C27  1  0.03350500  0.19927100  0.70912200  1
  C  C28  1  0.75911500  0.01987900  0.23071200  1
  C  C29  1  0.24088500  0.98012100  0.76928800  1
  C  C30  1  0.98012100  0.24088500  0.26928800  1
  C  C31  1  0.01987900  0.75911500  0.73071200  1
  C  C32  1  0.66363500  0.26279100  0.47211700  1
  C  C33  1  0.33636500  0.73720900  0.52788300  1
  C  C34  1  0.73720900  0.33636500  0.02788300  1
  C  C35  1  0.26279100  0.66363500  0.97211700  1
  C  C36  1  0.64401000  0.66586800  0.41613100  1
  C  C37  1  0.35599000  0.33413200  0.58386900  1
  C  C38  1  0.33413200  0.35599000  0.08386900  1
  C  C39  1  0.66586800  0.64401000  0.91613100  1
