# generated using pymatgen
data_Cu4NiC27
_symmetry_space_group_name_H-M   'P 1'
_cell_length_a   5.94928002
_cell_length_b   8.21142600
_cell_length_c   11.86737906
_cell_angle_alpha   90.00000000
_cell_angle_beta   90.23054383
_cell_angle_gamma   90.00000000
_symmetry_Int_Tables_number   1
_chemical_formula_structural   Cu4NiC27
_chemical_formula_sum   'Cu4 Ni1 C27'
_cell_volume   579.74137055
_cell_formula_units_Z   1
loop_
 _symmetry_equiv_pos_site_id
 _symmetry_equiv_pos_as_xyz
  1  'x, y, z'
loop_
 _atom_site_type_symbol
 _atom_site_label
 _atom_site_symmetry_multiplicity
 _atom_site_fract_x
 _atom_site_fract_y
 _atom_site_fract_z
 _atom_site_occupancy
  C  C0  1  0.23173600  0.75000000  0.62576100  1
  C  C1  1  0.73234200  0.25000000  0.87512200  1
  C  C2  1  0.76732700  0.25000000  0.37377100  1
  Ni  Ni3  1  0.26886700  0.75000000  0.12507200  1
  Cu  Cu4  1  0.74902200  0.75000000  0.37548000  1
  Cu  Cu5  1  0.74866100  0.75000000  0.87738600  1
  Cu  Cu6  1  0.24841100  0.25000000  0.62465200  1
  Cu  Cu7  1  0.25233300  0.25000000  0.12467800  1
  C  C8  1  0.46875800  0.75000000  0.74686200  1
  C  C9  1  0.04076200  0.75000000  0.24108600  1
  C  C10  1  0.53166100  0.25000000  0.25358800  1
  C  C11  1  0.96745100  0.25000000  0.75453100  1
  C  C12  1  0.46646800  0.75000000  0.50439500  1
  C  C13  1  0.03064800  0.75000000  0.00439700  1
  C  C14  1  0.53297000  0.25000000  0.49548200  1
  C  C15  1  0.96688600  0.25000000  0.99623100  1
  C  C16  1  0.76550600  0.50045100  0.37411900  1
  C  C17  1  0.73469000  0.99859100  0.87528700  1
  C  C18  1  0.23483800  0.00006800  0.62527300  1
  C  C19  1  0.26528400  0.50028200  0.12489300  1
  C  C20  1  0.23483800  0.49993200  0.62527300  1
  C  C21  1  0.26528400  0.99971800  0.12489300  1
  C  C22  1  0.76550600  0.99954900  0.37411900  1
  C  C23  1  0.73469000  0.50140900  0.87528700  1
  C  C24  1  0.98251400  0.75000000  0.50292000  1
  C  C25  1  0.50921800  0.75000000  0.00863300  1
  C  C26  1  0.01721600  0.25000000  0.49615700  1
  C  C27  1  0.48356400  0.25000000  0.99554200  1
  C  C28  1  0.98427400  0.75000000  0.74742800  1
  C  C29  1  0.51919400  0.75000000  0.24751000  1
  C  C30  1  0.01589300  0.25000000  0.25224200  1
  C  C31  1  0.48319000  0.25000000  0.75193300  1
