# generated using pymatgen
data_Cu5(NiC8)2
_symmetry_space_group_name_H-M   'P 1'
_cell_length_a   11.18675800
_cell_length_b   11.18675800
_cell_length_c   7.86063200
_cell_angle_alpha   90.00000000
_cell_angle_beta   90.00000000
_cell_angle_gamma   90.00000000
_symmetry_Int_Tables_number   1
_chemical_formula_structural   Cu5(NiC8)2
_chemical_formula_sum   'Cu20 Ni8 C64'
_cell_volume   983.70742949
_cell_formula_units_Z   4
loop_
 _symmetry_equiv_pos_site_id
 _symmetry_equiv_pos_as_xyz
  1  'x, y, z'
loop_
 _atom_site_type_symbol
 _atom_site_label
 _atom_site_symmetry_multiplicity
 _atom_site_fract_x
 _atom_site_fract_y
 _atom_site_fract_z
 _atom_site_occupancy
  C  C0  1  0.25000000  0.75000000  0.00000000  1
  C  C1  1  0.25000000  0.25000000  0.00000000  1
  C  C2  1  0.75000000  0.75000000  0.00000000  1
  C  C3  1  0.75000000  0.25000000  0.00000000  1
  C  C4  1  0.00000000  0.00000000  0.50000000  1
  C  C5  1  0.50000000  0.50000000  0.50000000  1
  C  C6  1  0.33824500  0.67491400  0.33735600  1
  C  C7  1  0.27468700  0.00000000  0.52516300  1
  C  C8  1  0.50000000  0.77468700  0.52516300  1
  C  C9  1  0.50000000  0.22531300  0.52516300  1
  C  C10  1  0.83625700  0.50000000  0.97175400  1
  C  C11  1  0.00000000  0.66374300  0.97175400  1
  C  C12  1  0.00000000  0.33625700  0.97175400  1
  C  C13  1  0.16374300  0.50000000  0.97175400  1
  C  C14  1  0.66374300  0.00000000  0.02824600  1
  C  C15  1  0.33625700  0.00000000  0.02824600  1
  C  C16  1  0.50000000  0.83625700  0.02824600  1
  C  C17  1  0.50000000  0.16374300  0.02824600  1
  C  C18  1  0.88640300  0.38640300  0.25305900  1
  C  C19  1  0.88640300  0.61359700  0.25305900  1
  C  C20  1  0.11359700  0.38640300  0.25305900  1
  C  C21  1  0.11359700  0.61359700  0.25305900  1
  C  C22  1  0.61359700  0.88640300  0.74694100  1
  C  C23  1  0.38640300  0.11359700  0.74694100  1
  C  C24  1  0.38640300  0.88640300  0.74694100  1
  C  C25  1  0.61359700  0.11359700  0.74694100  1
  C  C26  1  0.89052500  0.39052500  0.69824400  1
  C  C27  1  0.89052500  0.60947500  0.69824400  1
  C  C28  1  0.10947500  0.39052500  0.69824400  1
  C  C29  1  0.10947500  0.60947500  0.69824400  1
  C  C30  1  0.60947500  0.89052500  0.30175600  1
  C  C31  1  0.39052500  0.10947500  0.30175600  1
  C  C32  1  0.39052500  0.89052500  0.30175600  1
  C  C33  1  0.60947500  0.10947500  0.30175600  1
  C  C34  1  0.33824500  0.32508600  0.33735600  1
  C  C35  1  0.82508600  0.16175500  0.33735600  1
  C  C36  1  0.17491400  0.83824500  0.33735600  1
  C  C37  1  0.66175500  0.67491400  0.33735600  1
  C  C38  1  0.16175500  0.82508600  0.66264400  1
  C  C39  1  0.83824500  0.17491400  0.66264400  1
  C  C40  1  0.32508600  0.33824500  0.66264400  1
  C  C41  1  0.61021400  0.50000000  0.88903700  1
  C  C42  1  0.16175500  0.17491400  0.66264400  1
  C  C43  1  0.67491400  0.33824500  0.66264400  1
  C  C44  1  0.32508600  0.66175500  0.66264400  1
  C  C45  1  0.83824500  0.82508600  0.66264400  1
  C  C46  1  0.72531300  0.00000000  0.52516300  1
  C  C47  1  0.00000000  0.88978600  0.88903700  1
  C  C48  1  0.17491400  0.16175500  0.33735600  1
  C  C49  1  0.82508600  0.83824500  0.33735600  1
  C  C50  1  0.00000000  0.11021400  0.88903700  1
  C  C51  1  0.38978600  0.50000000  0.88903700  1
  C  C52  1  0.50000000  0.00000000  0.53089300  1
  C  C53  1  0.00000000  0.50000000  0.46910700  1
  C  C54  1  0.11021400  0.00000000  0.11096300  1
  C  C55  1  0.22531300  0.50000000  0.47483700  1
  C  C56  1  0.00000000  0.27468700  0.47483700  1
  C  C57  1  0.00000000  0.72531300  0.47483700  1
  C  C58  1  0.77468700  0.50000000  0.47483700  1
  C  C59  1  0.50000000  0.61021400  0.11096300  1
  C  C60  1  0.50000000  0.38978600  0.11096300  1
  C  C61  1  0.88978600  0.00000000  0.11096300  1
  C  C62  1  0.67491400  0.66175500  0.66264400  1
  C  C63  1  0.66175500  0.32508600  0.33735600  1
  Ni  Ni64  1  0.50000000  0.68133400  0.82395300  1
  Ni  Ni65  1  0.31866600  0.50000000  0.17604700  1
  Ni  Ni66  1  0.00000000  0.18133400  0.17604700  1
  Ni  Ni67  1  0.00000000  0.81866600  0.17604700  1
  Ni  Ni68  1  0.68133400  0.50000000  0.17604700  1
  Ni  Ni69  1  0.18133400  0.00000000  0.82395300  1
  Ni  Ni70  1  0.81866600  0.00000000  0.82395300  1
  Ni  Ni71  1  0.50000000  0.31866600  0.82395300  1
  Cu  Cu72  1  0.68629800  0.18629800  0.51753100  1
  Cu  Cu73  1  0.31370200  0.81370200  0.51753100  1
  Cu  Cu74  1  0.31370200  0.18629800  0.51753100  1
  Cu  Cu75  1  0.68629800  0.81370200  0.51753100  1
  Cu  Cu76  1  0.18629800  0.68629800  0.48246900  1
  Cu  Cu77  1  0.18629800  0.31370200  0.48246900  1
  Cu  Cu78  1  0.50000000  0.25593300  0.26179300  1
  Cu  Cu79  1  0.50000000  0.74406700  0.26179300  1
  Cu  Cu80  1  0.24406700  0.00000000  0.26179300  1
  Cu  Cu81  1  0.75593300  0.00000000  0.26179300  1
  Cu  Cu82  1  0.25593300  0.50000000  0.73820700  1
  Cu  Cu83  1  0.00000000  0.24406700  0.73820700  1
  Cu  Cu84  1  0.00000000  0.75593300  0.73820700  1
  Cu  Cu85  1  0.74406700  0.50000000  0.73820700  1
  Cu  Cu86  1  0.50000000  0.00000000  0.14828300  1
  Cu  Cu87  1  0.00000000  0.50000000  0.85171700  1
  Cu  Cu88  1  0.50000000  0.00000000  0.89333500  1
  Cu  Cu89  1  0.00000000  0.50000000  0.10666500  1
  Cu  Cu90  1  0.81370200  0.68629800  0.48246900  1
  Cu  Cu91  1  0.81370200  0.31370200  0.48246900  1
