# generated using pymatgen
data_Cu4NiC4
_symmetry_space_group_name_H-M   'P 1'
_cell_length_a   10.22808200
_cell_length_b   3.20188000
_cell_length_c   12.59012300
_cell_angle_alpha   90.00000000
_cell_angle_beta   90.00000000
_cell_angle_gamma   90.00000000
_symmetry_Int_Tables_number   1
_chemical_formula_structural   Cu4NiC4
_chemical_formula_sum   'Cu16 Ni4 C16'
_cell_volume   412.31508627
_cell_formula_units_Z   4
loop_
 _symmetry_equiv_pos_site_id
 _symmetry_equiv_pos_as_xyz
  1  'x, y, z'
loop_
 _atom_site_type_symbol
 _atom_site_label
 _atom_site_symmetry_multiplicity
 _atom_site_fract_x
 _atom_site_fract_y
 _atom_site_fract_z
 _atom_site_occupancy
  C  C0  1  0.13568500  0.25000000  0.15993100  1
  C  C1  1  0.63568500  0.25000000  0.34006900  1
  C  C2  1  0.86431500  0.75000000  0.84006900  1
  C  C3  1  0.36431500  0.75000000  0.65993100  1
  C  C4  1  0.89399000  0.25000000  0.04898600  1
  C  C5  1  0.39399000  0.25000000  0.45101400  1
  C  C6  1  0.10601000  0.75000000  0.95101400  1
  C  C7  1  0.60601000  0.75000000  0.54898600  1
  C  C8  1  0.35507400  0.25000000  0.86266700  1
  C  C9  1  0.85507400  0.25000000  0.63733300  1
  C  C10  1  0.64492600  0.75000000  0.13733300  1
  C  C11  1  0.14492600  0.75000000  0.36266700  1
  C  C12  1  0.11665700  0.25000000  0.76313100  1
  C  C13  1  0.61665700  0.25000000  0.73686900  1
  C  C14  1  0.88334300  0.75000000  0.23686900  1
  C  C15  1  0.38334300  0.75000000  0.26313100  1
  Ni  Ni16  1  0.38152400  0.25000000  0.07507100  1
  Ni  Ni17  1  0.88152400  0.25000000  0.42492900  1
  Ni  Ni18  1  0.61847600  0.75000000  0.92492900  1
  Ni  Ni19  1  0.11847600  0.75000000  0.57507100  1
  Cu  Cu20  1  0.75597300  0.25000000  0.20201300  1
  Cu  Cu21  1  0.25597200  0.25000000  0.29798700  1
  Cu  Cu22  1  0.24402800  0.75000000  0.79798700  1
  Cu  Cu23  1  0.74402700  0.75000000  0.70201300  1
  Cu  Cu24  1  0.98063100  0.25000000  0.88766300  1
  Cu  Cu25  1  0.48063100  0.25000000  0.61233700  1
  Cu  Cu26  1  0.01936900  0.75000000  0.11233700  1
  Cu  Cu27  1  0.51936900  0.75000000  0.38766300  1
  Cu  Cu28  1  0.27871800  0.25000000  0.02327600  1
  Cu  Cu29  1  0.77871800  0.25000000  0.47672400  1
  Cu  Cu30  1  0.72128200  0.75000000  0.97672400  1
  Cu  Cu31  1  0.22128200  0.75000000  0.52327600  1
  Cu  Cu32  1  0.48189300  0.25000000  0.13103100  1
  Cu  Cu33  1  0.98189300  0.25000000  0.36896900  1
  Cu  Cu34  1  0.51810700  0.75000000  0.86896900  1
  Cu  Cu35  1  0.01810700  0.75000000  0.63103100  1
