# generated using pymatgen
data_Cu2NiC12
_symmetry_space_group_name_H-M   'P 1'
_cell_length_a   5.58166416
_cell_length_b   5.58166416
_cell_length_c   13.49922400
_cell_angle_alpha   90.00000000
_cell_angle_beta   90.00000000
_cell_angle_gamma   120.00000185
_symmetry_Int_Tables_number   1
_chemical_formula_structural   Cu2NiC12
_chemical_formula_sum   'Cu4 Ni2 C24'
_cell_volume   364.22255043
_cell_formula_units_Z   2
loop_
 _symmetry_equiv_pos_site_id
 _symmetry_equiv_pos_as_xyz
  1  'x, y, z'
loop_
 _atom_site_type_symbol
 _atom_site_label
 _atom_site_symmetry_multiplicity
 _atom_site_fract_x
 _atom_site_fract_y
 _atom_site_fract_z
 _atom_site_occupancy
  Ni  Ni0  1  0.00000000  0.00000000  0.25000000  1
  Ni  Ni1  1  0.00000000  0.00000000  0.75000000  1
  Cu  Cu2  1  0.33333300  0.66666700  0.58428200  1
  Cu  Cu3  1  0.66666700  0.33333300  0.91571800  1
  Cu  Cu4  1  0.33333300  0.66666700  0.08428200  1
  Cu  Cu5  1  0.66666700  0.33333300  0.41571800  1
  C  C6  1  0.00000000  0.00000000  0.50000000  1
  C  C7  1  0.33333300  0.66666700  0.83249800  1
  C  C8  1  0.66666700  0.33333300  0.16750200  1
  C  C9  1  0.00000000  0.00000000  0.00000000  1
  C  C10  1  0.33333300  0.66666700  0.33249800  1
  C  C11  1  0.66666700  0.33333300  0.66750200  1
  C  C12  1  0.77302600  0.10976400  0.57942700  1
  C  C13  1  0.10976400  0.77302600  0.92057300  1
  C  C14  1  0.45729700  0.45729700  0.25000000  1
  C  C15  1  0.33673800  0.22697400  0.57942700  1
  C  C16  1  0.66326200  0.89023600  0.92057300  1
  C  C17  1  0.00000000  0.54270300  0.25000000  1
  C  C18  1  0.89023600  0.66326200  0.57942700  1
  C  C19  1  0.22697400  0.33673800  0.92057300  1
  C  C20  1  0.54270300  0.00000000  0.25000000  1
  C  C21  1  0.66326200  0.77302600  0.42057300  1
  C  C22  1  0.00000000  0.45729700  0.75000000  1
  C  C23  1  0.33673800  0.10976400  0.07942700  1
  C  C24  1  0.10976400  0.33673800  0.42057300  1
  C  C25  1  0.45729700  0.00000000  0.75000000  1
  C  C26  1  0.77302600  0.66326200  0.07942700  1
  C  C27  1  0.22697400  0.89023600  0.42057300  1
  C  C28  1  0.54270300  0.54270300  0.75000000  1
  C  C29  1  0.89023600  0.22697400  0.07942700  1
