# generated using pymatgen
data_Cu2NiC6
_symmetry_space_group_name_H-M   'P 1'
_cell_length_a   3.32268062
_cell_length_b   3.32268062
_cell_length_c   30.74079900
_cell_angle_alpha   90.00000000
_cell_angle_beta   90.00000000
_cell_angle_gamma   120.00001227
_symmetry_Int_Tables_number   1
_chemical_formula_structural   Cu2NiC6
_chemical_formula_sum   'Cu2 Ni1 C6'
_cell_volume   293.91579459
_cell_formula_units_Z   1
loop_
 _symmetry_equiv_pos_site_id
 _symmetry_equiv_pos_as_xyz
  1  'x, y, z'
loop_
 _atom_site_type_symbol
 _atom_site_label
 _atom_site_symmetry_multiplicity
 _atom_site_fract_x
 _atom_site_fract_y
 _atom_site_fract_z
 _atom_site_occupancy
  Ni  Ni0  1  0.66666700  0.33333300  0.00000000  1
  Cu  Cu1  1  0.33333300  0.66666700  0.76866100  1
  Cu  Cu2  1  0.33333300  0.66666700  0.23133900  1
  C  C3  1  0.33333300  0.66666700  0.05452900  1
  C  C4  1  0.66666700  0.33333300  0.71387100  1
  C  C5  1  0.66666700  0.33333300  0.17654200  1
  C  C6  1  0.66666700  0.33333300  0.82345800  1
  C  C7  1  0.66666700  0.33333300  0.28612900  1
  C  C8  1  0.33333300  0.66666700  0.94547100  1
