# generated using pymatgen
data_Cu4NiC8
_symmetry_space_group_name_H-M   'P 1'
_cell_length_a   5.98975982
_cell_length_b   5.98975982
_cell_length_c   5.98975981
_cell_angle_alpha   58.65820068
_cell_angle_beta   58.65820068
_cell_angle_gamma   58.65820160
_symmetry_Int_Tables_number   1
_chemical_formula_structural   Cu4NiC8
_chemical_formula_sum   'Cu4 Ni1 C8'
_cell_volume   147.29433653
_cell_formula_units_Z   1
loop_
 _symmetry_equiv_pos_site_id
 _symmetry_equiv_pos_as_xyz
  1  'x, y, z'
loop_
 _atom_site_type_symbol
 _atom_site_label
 _atom_site_symmetry_multiplicity
 _atom_site_fract_x
 _atom_site_fract_y
 _atom_site_fract_z
 _atom_site_occupancy
  Ni  Ni0  1  0.50000000  0.50000000  0.50000000  1
  Cu  Cu1  1  0.00000000  0.50000000  0.50000000  1
  Cu  Cu2  1  0.50000000  0.00000000  0.50000000  1
  Cu  Cu3  1  0.50000000  0.50000000  0.00000000  1
  Cu  Cu4  1  0.00000000  0.00000000  0.00000000  1
  C  C5  1  0.27966200  0.75491700  0.75491700  1
  C  C6  1  0.24508300  0.24508300  0.72033800  1
  C  C7  1  0.72033800  0.24508300  0.24508300  1
  C  C8  1  0.24508300  0.72033800  0.24508300  1
  C  C9  1  0.26643200  0.26643200  0.26643200  1
  C  C10  1  0.73356800  0.73356800  0.73356800  1
  C  C11  1  0.75491700  0.27966200  0.75491700  1
  C  C12  1  0.75491700  0.75491700  0.27966200  1
