# generated using pymatgen
data_Cu25Ni4
_symmetry_space_group_name_H-M   'P 1'
_cell_length_a   9.20515000
_cell_length_b   5.13878000
_cell_length_c   10.28765948
_cell_angle_alpha   60.24995777
_cell_angle_beta   90.00000000
_cell_angle_gamma   90.00000000
_symmetry_Int_Tables_number   1
_chemical_formula_structural   Cu25Ni4
_chemical_formula_sum   'Cu50 Ni8'
_cell_volume   422.49977421
_cell_formula_units_Z   2
loop_
 _symmetry_equiv_pos_site_id
 _symmetry_equiv_pos_as_xyz
  1  'x, y, z'
loop_
 _atom_site_type_symbol
 _atom_site_label
 _atom_site_symmetry_multiplicity
 _atom_site_fract_x
 _atom_site_fract_y
 _atom_site_fract_z
 _atom_site_occupancy
  Ni  Ni0  1  0.68980500  0.09525700  0.36112800  1
  Ni  Ni1  1  0.31019500  0.09525700  0.86112800  1
  Ni  Ni2  1  0.15120800  0.24733000  0.69109900  1
  Ni  Ni3  1  0.84879200  0.24733000  0.19109900  1
  Ni  Ni4  1  0.31019500  0.90474300  0.63887200  1
  Ni  Ni5  1  0.68980500  0.90474300  0.13887200  1
  Ni  Ni6  1  0.84879200  0.75267000  0.30890100  1
  Ni  Ni7  1  0.15120800  0.75267000  0.80890100  1
  Cu  Cu8  1  0.66903600  0.57649600  0.57183400  1
  Cu  Cu9  1  0.33096400  0.57649600  0.07183400  1
  Cu  Cu10  1  0.16140500  0.24200600  0.41769700  1
  Cu  Cu11  1  0.83859500  0.24200600  0.91769700  1
  Cu  Cu12  1  0.33096400  0.42350400  0.42816600  1
  Cu  Cu13  1  0.66903600  0.42350400  0.92816600  1
  Cu  Cu14  1  0.83859500  0.75799400  0.58230300  1
  Cu  Cu15  1  0.16140500  0.75799400  0.08230300  1
  Cu  Cu16  1  0.08120300  0.98255100  0.16763500  1
  Cu  Cu17  1  0.61391500  0.82675700  0.83505800  1
  Cu  Cu18  1  0.91879700  0.98255100  0.66763500  1
  Cu  Cu19  1  0.38608500  0.82675700  0.33505800  1
  Cu  Cu20  1  0.91879700  0.01744900  0.83236500  1
  Cu  Cu21  1  0.38608500  0.17324300  0.16494200  1
  Cu  Cu22  1  0.08120300  0.01744900  0.33236500  1
  Cu  Cu23  1  0.61391500  0.17324300  0.66494200  1
  Cu  Cu24  1  0.65266100  0.69075900  0.35810400  1
  Cu  Cu25  1  0.34733900  0.69075900  0.85810400  1
  Cu  Cu26  1  0.10747700  0.00795100  0.60887900  1
  Cu  Cu27  1  0.89252300  0.00795100  0.10887900  1
  Cu  Cu28  1  0.34733900  0.30924100  0.64189600  1
  Cu  Cu29  1  0.65266100  0.30924100  0.14189600  1
  Cu  Cu30  1  0.89252300  0.99204900  0.39112100  1
  Cu  Cu31  1  0.10747700  0.99204900  0.89112100  1
  Cu  Cu32  1  0.50152000  0.49247300  0.66780800  1
  Cu  Cu33  1  0.49848000  0.49247300  0.16780800  1
  Cu  Cu34  1  0.98372100  0.33018500  0.33328700  1
  Cu  Cu35  1  0.01627900  0.33018500  0.83328700  1
  Cu  Cu36  1  0.49848000  0.50752700  0.33219200  1
  Cu  Cu37  1  0.50152000  0.50752700  0.83219200  1
  Cu  Cu38  1  0.01627900  0.66981500  0.66671300  1
  Cu  Cu39  1  0.98372100  0.66981500  0.16671300  1
  Cu  Cu40  1  0.16615900  0.15976500  0.99086300  1
  Cu  Cu41  1  0.66598200  0.66936900  0.01953200  1
  Cu  Cu42  1  0.83384100  0.15976500  0.49086300  1
  Cu  Cu43  1  0.33401800  0.66936900  0.51953200  1
  Cu  Cu44  1  0.83384100  0.84023500  0.00913700  1
  Cu  Cu45  1  0.33401800  0.33063100  0.98046800  1
  Cu  Cu46  1  0.16615900  0.84023500  0.50913700  1
  Cu  Cu47  1  0.66598200  0.33063100  0.48046800  1
  Cu  Cu48  1  0.50827500  0.85145900  0.48292800  1
  Cu  Cu49  1  0.49172500  0.85145900  0.98292800  1
  Cu  Cu50  1  0.99997100  0.33007800  0.50360700  1
  Cu  Cu51  1  0.00002900  0.33007800  0.00360700  1
  Cu  Cu52  1  0.49172500  0.14854100  0.51707200  1
  Cu  Cu53  1  0.50827500  0.14854100  0.01707200  1
  Cu  Cu54  1  0.00002900  0.66992200  0.49639300  1
  Cu  Cu55  1  0.99997100  0.66992200  0.99639300  1
  Cu  Cu56  1  0.54736300  0.00000000  0.25000000  1
  Cu  Cu57  1  0.45263700  0.00000000  0.75000000  1
