# generated using pymatgen
data_Cu2NiC4
_symmetry_space_group_name_H-M   'P 1'
_cell_length_a   10.54017400
_cell_length_b   4.08889400
_cell_length_c   13.42334700
_cell_angle_alpha   90.00000000
_cell_angle_beta   90.00000000
_cell_angle_gamma   90.00000000
_symmetry_Int_Tables_number   1
_chemical_formula_structural   Cu2NiC4
_chemical_formula_sum   'Cu8 Ni4 C16'
_cell_volume   578.51476758
_cell_formula_units_Z   4
loop_
 _symmetry_equiv_pos_site_id
 _symmetry_equiv_pos_as_xyz
  1  'x, y, z'
loop_
 _atom_site_type_symbol
 _atom_site_label
 _atom_site_symmetry_multiplicity
 _atom_site_fract_x
 _atom_site_fract_y
 _atom_site_fract_z
 _atom_site_occupancy
  C  C0  1  0.99962700  0.25000000  0.59202400  1
  C  C1  1  0.49962700  0.25000000  0.90797600  1
  C  C2  1  0.00037300  0.75000000  0.40797600  1
  C  C3  1  0.50037300  0.75000000  0.09202400  1
  C  C4  1  0.64705000  0.25000000  0.26229900  1
  C  C5  1  0.14705000  0.25000000  0.23770100  1
  C  C6  1  0.35295000  0.75000000  0.73770100  1
  C  C7  1  0.85295000  0.75000000  0.76229900  1
  C  C8  1  0.68861100  0.25000000  0.39140700  1
  C  C9  1  0.18861100  0.25000000  0.10859300  1
  C  C10  1  0.31138900  0.75000000  0.60859300  1
  C  C11  1  0.81138900  0.75000000  0.89140700  1
  Ni  Ni12  1  0.39351900  0.25000000  0.37931800  1
  Ni  Ni13  1  0.89351900  0.25000000  0.12068200  1
  Ni  Ni14  1  0.60648100  0.75000000  0.62068200  1
  Ni  Ni15  1  0.10648100  0.75000000  0.87931800  1
  Cu  Cu16  1  0.50302700  0.25000000  0.35958400  1
  Cu  Cu17  1  0.00302700  0.25000000  0.14041600  1
  Cu  Cu18  1  0.49697300  0.75000000  0.64041600  1
  Cu  Cu19  1  0.99697300  0.75000000  0.85958400  1
  Cu  Cu20  1  0.62403400  0.25000000  0.33584300  1
  Cu  Cu21  1  0.12403400  0.25000000  0.16415700  1
  Cu  Cu22  1  0.37596600  0.75000000  0.66415700  1
  Cu  Cu23  1  0.87596600  0.75000000  0.83584300  1
  C  C24  1  0.06824600  0.25000000  0.40098200  1
  C  C25  1  0.56824600  0.25000000  0.09901800  1
  C  C26  1  0.93175400  0.75000000  0.59901800  1
  C  C27  1  0.43175400  0.75000000  0.90098200  1
