# generated using pymatgen
data_CuNiC15
_symmetry_space_group_name_H-M   'P 1'
_cell_length_a   6.83978800
_cell_length_b   17.69844000
_cell_length_c   11.68247301
_cell_angle_alpha   90.00000000
_cell_angle_beta   105.68323265
_cell_angle_gamma   90.00000000
_symmetry_Int_Tables_number   1
_chemical_formula_structural   CuNiC15
_chemical_formula_sum   'Cu6 Ni6 C90'
_cell_volume   1361.55556069
_cell_formula_units_Z   6
loop_
 _symmetry_equiv_pos_site_id
 _symmetry_equiv_pos_as_xyz
  1  'x, y, z'
loop_
 _atom_site_type_symbol
 _atom_site_label
 _atom_site_symmetry_multiplicity
 _atom_site_fract_x
 _atom_site_fract_y
 _atom_site_fract_z
 _atom_site_occupancy
  Ni  Ni0  1  0.16489600  0.25000000  0.33571100  1
  Ni  Ni1  1  0.83510400  0.75000000  0.66428900  1
  Ni  Ni2  1  0.33285400  0.49776100  0.66772200  1
  Ni  Ni3  1  0.66714600  0.99776100  0.33227800  1
  Ni  Ni4  1  0.66714600  0.50223900  0.33227800  1
  Ni  Ni5  1  0.33285400  0.00223900  0.66772200  1
  Cu  Cu6  1  0.00000000  0.50000000  0.00000000  1
  Cu  Cu7  1  0.00000000  0.00000000  0.00000000  1
  Cu  Cu8  1  0.15782400  0.75000000  0.30608500  1
  Cu  Cu9  1  0.84217600  0.25000000  0.69391500  1
  Cu  Cu10  1  0.50384300  0.25000000  0.01363800  1
  Cu  Cu11  1  0.49615700  0.75000000  0.98636200  1
  C  C12  1  0.17051600  0.25000000  0.10956500  1
  C  C13  1  0.82948400  0.75000000  0.89043500  1
  C  C14  1  0.96353700  0.20190500  0.12191700  1
  C  C15  1  0.03646300  0.70190500  0.87808300  1
  C  C16  1  0.03646300  0.79809500  0.87808300  1
  C  C17  1  0.96353700  0.29809500  0.12191700  1
  C  C18  1  0.52030500  0.39675300  0.82480100  1
  C  C19  1  0.47969500  0.89675300  0.17519900  1
  C  C20  1  0.47969500  0.60324700  0.17519900  1
  C  C21  1  0.52030500  0.10324700  0.82480100  1
  C  C22  1  0.27808400  0.36566900  0.75860400  1
  C  C23  1  0.72191600  0.86566900  0.24139600  1
  C  C24  1  0.72191600  0.63433100  0.24139600  1
  C  C25  1  0.27808400  0.13433100  0.75860400  1
  C  C26  1  0.31684300  0.43208000  0.86635400  1
  C  C27  1  0.68315700  0.93208000  0.13364600  1
  C  C28  1  0.68315700  0.56792000  0.13364600  1
  C  C29  1  0.31684300  0.06792000  0.86635400  1
  C  C30  1  0.05132300  0.25000000  0.14888600  1
  C  C31  1  0.94867700  0.75000000  0.85111400  1
  C  C32  1  0.36851900  0.41186900  0.79641000  1
  C  C33  1  0.63148100  0.91186900  0.20359000  1
  C  C34  1  0.63148100  0.58813100  0.20359000  1
  C  C35  1  0.36851900  0.08813100  0.79641000  1
  C  C36  1  0.26487100  0.25000000  0.49929500  1
  C  C37  1  0.73512900  0.75000000  0.50070500  1
  C  C38  1  0.34755800  0.32492000  0.31948200  1
  C  C39  1  0.65244200  0.82492000  0.68051800  1
  C  C40  1  0.65244200  0.67508000  0.68051800  1
  C  C41  1  0.34755800  0.17508000  0.31948200  1
  C  C42  1  0.97643000  0.32500100  0.34208800  1
  C  C43  1  0.02357000  0.82500100  0.65791200  1
  C  C44  1  0.02357000  0.67499900  0.65791200  1
  C  C45  1  0.97643000  0.17499900  0.34208800  1
  C  C46  1  0.36800200  0.56820400  0.79002500  1
  C  C47  1  0.63199800  0.06820400  0.20997500  1
  C  C48  1  0.63199800  0.43179600  0.20997500  1
  C  C49  1  0.36800200  0.93179600  0.79002500  1
  C  C50  1  0.29969300  0.42261000  0.55120300  1
  C  C51  1  0.70030700  0.92261000  0.44879700  1
  C  C52  1  0.70030700  0.57739000  0.44879700  1
  C  C53  1  0.29969300  0.07739000  0.55120300  1
  C  C54  1  0.05423100  0.49546600  0.65213600  1
  C  C55  1  0.94576900  0.99546600  0.34786400  1
  C  C56  1  0.94576900  0.50453400  0.34786400  1
  C  C57  1  0.05423100  0.00453400  0.65213600  1
  C  C58  1  0.61214300  0.49610100  0.68619300  1
  C  C59  1  0.38785700  0.99610100  0.31380700  1
  C  C60  1  0.38785700  0.50389900  0.31380700  1
  C  C61  1  0.61214300  0.00389900  0.68619300  1
  C  C62  1  0.29841600  0.57247300  0.55270800  1
  C  C63  1  0.70158400  0.07247300  0.44729200  1
  C  C64  1  0.70158400  0.42752700  0.44729200  1
  C  C65  1  0.29841600  0.92752700  0.55270800  1
  C  C66  1  0.99220200  0.43648400  0.88165800  1
  C  C67  1  0.00779800  0.93648400  0.11834200  1
  C  C68  1  0.00779800  0.56351600  0.11834200  1
  C  C69  1  0.99220200  0.06351600  0.88165800  1
  C  C70  1  0.26970300  0.50590000  0.02575100  1
  C  C71  1  0.73029700  0.00590000  0.97424900  1
  C  C72  1  0.73029700  0.49410000  0.97424900  1
  C  C73  1  0.26970300  0.99410000  0.02575100  1
  C  C74  1  0.03037200  0.42304100  0.10106500  1
  C  C75  1  0.96962800  0.92304100  0.89893500  1
  C  C76  1  0.96962800  0.57695900  0.89893500  1
  C  C77  1  0.03037200  0.07695900  0.10106500  1
  C  C78  1  0.06198000  0.75000000  0.15022800  1
  C  C79  1  0.93802000  0.25000000  0.84977200  1
  C  C80  1  0.97532800  0.67878100  0.31694400  1
  C  C81  1  0.02467200  0.17878100  0.68305600  1
  C  C82  1  0.02467200  0.32121900  0.68305600  1
  C  C83  1  0.97532800  0.82121900  0.31694400  1
  C  C84  1  0.33568300  0.67828100  0.29707900  1
  C  C85  1  0.66431700  0.17828100  0.70292100  1
  C  C86  1  0.66431700  0.32171900  0.70292100  1
  C  C87  1  0.33568300  0.82171900  0.29707900  1
  C  C88  1  0.24978900  0.75000000  0.46222300  1
  C  C89  1  0.75021100  0.25000000  0.53777700  1
  C  C90  1  0.61875200  0.25000000  0.16887100  1
  C  C91  1  0.38124800  0.75000000  0.83112900  1
  C  C92  1  0.32801100  0.32004700  0.03180300  1
  C  C93  1  0.67198900  0.82004700  0.96819700  1
  C  C94  1  0.67198900  0.67995300  0.96819700  1
  C  C95  1  0.32801100  0.17995300  0.03180300  1
  C  C96  1  0.67522400  0.32198200  0.99680900  1
  C  C97  1  0.32477600  0.82198200  0.00319100  1
  C  C98  1  0.32477600  0.67801800  0.00319100  1
  C  C99  1  0.67522400  0.17801800  0.99680900  1
  C  C100  1  0.39388700  0.25000000  0.85782700  1
  C  C101  1  0.60611300  0.75000000  0.14217300  1
