# generated using pymatgen
data_Cu4Ni4C5
_symmetry_space_group_name_H-M   'P 1'
_cell_length_a   8.02394400
_cell_length_b   11.14849500
_cell_length_c   11.31872400
_cell_angle_alpha   90.00000000
_cell_angle_beta   90.00000000
_cell_angle_gamma   90.00000000
_symmetry_Int_Tables_number   1
_chemical_formula_structural   Cu4Ni4C5
_chemical_formula_sum   'Cu16 Ni16 C20'
_cell_volume   1012.51531862
_cell_formula_units_Z   4
loop_
 _symmetry_equiv_pos_site_id
 _symmetry_equiv_pos_as_xyz
  1  'x, y, z'
loop_
 _atom_site_type_symbol
 _atom_site_label
 _atom_site_symmetry_multiplicity
 _atom_site_fract_x
 _atom_site_fract_y
 _atom_site_fract_z
 _atom_site_occupancy
  C  C0  1  0.67540000  0.26274700  0.75000000  1
  C  C1  1  0.17540000  0.23725300  0.75000000  1
  C  C2  1  0.32460000  0.73725300  0.25000000  1
  C  C3  1  0.82460000  0.76274700  0.25000000  1
  Ni  Ni4  1  0.95675000  0.59784800  0.81281100  1
  Ni  Ni5  1  0.45675100  0.90215200  0.68718900  1
  Ni  Ni6  1  0.04325000  0.40215200  0.31281100  1
  Ni  Ni7  1  0.54325000  0.09784800  0.18718900  1
  Ni  Ni8  1  0.04325000  0.40215200  0.18718900  1
  Ni  Ni9  1  0.54325000  0.09784800  0.31281100  1
  Ni  Ni10  1  0.95675000  0.59784800  0.68718900  1
  Ni  Ni11  1  0.45675100  0.90215200  0.81281100  1
  Ni  Ni12  1  0.93808200  0.72888000  0.81513000  1
  Ni  Ni13  1  0.43808200  0.77112000  0.68487000  1
  Ni  Ni14  1  0.06191800  0.27112000  0.31513000  1
  Ni  Ni15  1  0.56191800  0.22888000  0.18487000  1
  Ni  Ni16  1  0.06191800  0.27112000  0.18487000  1
  Ni  Ni17  1  0.56191800  0.22888000  0.31513000  1
  Ni  Ni18  1  0.93808200  0.72888000  0.68487000  1
  Ni  Ni19  1  0.43808200  0.77112000  0.81513000  1
  Cu  Cu20  1  0.95853600  0.46957700  0.89718500  1
  Cu  Cu21  1  0.45853600  0.03042300  0.60281500  1
  Cu  Cu22  1  0.04146400  0.53042300  0.39718500  1
  Cu  Cu23  1  0.54146400  0.96957700  0.10281500  1
  Cu  Cu24  1  0.04146400  0.53042300  0.10281500  1
  Cu  Cu25  1  0.54146400  0.96957700  0.39718500  1
  Cu  Cu26  1  0.95853600  0.46957700  0.60281500  1
  Cu  Cu27  1  0.45853600  0.03042300  0.89718500  1
  Cu  Cu28  1  0.90734500  0.83479000  0.91523000  1
  Cu  Cu29  1  0.40734500  0.66521000  0.58477000  1
  Cu  Cu30  1  0.09265500  0.16521000  0.41523000  1
  Cu  Cu31  1  0.59265500  0.33479000  0.08477000  1
  Cu  Cu32  1  0.09265500  0.16521000  0.08477000  1
  Cu  Cu33  1  0.59265500  0.33479000  0.41523000  1
  Cu  Cu34  1  0.90734500  0.83479000  0.58477000  1
  Cu  Cu35  1  0.40734500  0.66521000  0.91523000  1
  C  C36  1  0.41403100  0.38885100  0.75000000  1
  C  C37  1  0.91403100  0.11114900  0.75000000  1
  C  C38  1  0.58596900  0.61114900  0.25000000  1
  C  C39  1  0.08596900  0.88885100  0.25000000  1
  C  C40  1  0.94065600  0.39123400  0.75000000  1
  C  C41  1  0.44065600  0.10876600  0.75000000  1
  C  C42  1  0.05934400  0.60876600  0.25000000  1
  C  C43  1  0.55934400  0.89123400  0.25000000  1
  C  C44  1  0.10489200  0.22469300  0.96432000  1
  C  C45  1  0.60489200  0.27530700  0.53568000  1
  C  C46  1  0.89510800  0.77530700  0.46432000  1
  C  C47  1  0.39510800  0.72469300  0.03568000  1
  C  C48  1  0.89510800  0.77530700  0.03568000  1
  C  C49  1  0.39510800  0.72469300  0.46432000  1
  C  C50  1  0.10489200  0.22469300  0.53568000  1
  C  C51  1  0.60489200  0.27530700  0.96432000  1
