# generated using pymatgen
data_CuNi3C4
_symmetry_space_group_name_H-M   'P 1'
_cell_length_a   7.28277200
_cell_length_b   7.28277200
_cell_length_c   8.81146700
_cell_angle_alpha   90.00000000
_cell_angle_beta   90.00000000
_cell_angle_gamma   90.00000000
_symmetry_Int_Tables_number   1
_chemical_formula_structural   CuNi3C4
_chemical_formula_sum   'Cu4 Ni12 C16'
_cell_volume   467.34935399
_cell_formula_units_Z   4
loop_
 _symmetry_equiv_pos_site_id
 _symmetry_equiv_pos_as_xyz
  1  'x, y, z'
loop_
 _atom_site_type_symbol
 _atom_site_label
 _atom_site_symmetry_multiplicity
 _atom_site_fract_x
 _atom_site_fract_y
 _atom_site_fract_z
 _atom_site_occupancy
  Ni  Ni0  1  0.73698300  0.00000000  0.75000000  1
  Ni  Ni1  1  0.26301700  0.00000000  0.25000000  1
  Ni  Ni2  1  0.00000000  0.26301700  0.50000000  1
  Ni  Ni3  1  0.00000000  0.73698300  0.00000000  1
  Ni  Ni4  1  0.18026900  0.00000000  0.75000000  1
  Ni  Ni5  1  0.81973100  0.00000000  0.25000000  1
  Ni  Ni6  1  0.00000000  0.81973100  0.50000000  1
  Ni  Ni7  1  0.00000000  0.18026900  0.00000000  1
  Ni  Ni8  1  0.79953900  0.50000000  0.75000000  1
  Ni  Ni9  1  0.20046100  0.50000000  0.25000000  1
  Ni  Ni10  1  0.50000000  0.20046100  0.50000000  1
  Ni  Ni11  1  0.50000000  0.79953900  0.00000000  1
  Cu  Cu12  1  0.27961400  0.50000000  0.75000000  1
  Cu  Cu13  1  0.72038600  0.50000000  0.25000000  1
  Cu  Cu14  1  0.50000000  0.72038600  0.50000000  1
  Cu  Cu15  1  0.50000000  0.27961400  0.00000000  1
  C  C16  1  0.48408400  0.69504600  0.73083800  1
  C  C17  1  0.51591600  0.30495400  0.23083800  1
  C  C18  1  0.69504600  0.51591600  0.48083800  1
  C  C19  1  0.30495400  0.48408400  0.98083800  1
  C  C20  1  0.48408400  0.30495400  0.76916200  1
  C  C21  1  0.51591600  0.69504600  0.26916200  1
  C  C22  1  0.30495400  0.51591600  0.51916200  1
  C  C23  1  0.69504600  0.48408400  0.01916200  1
  C  C24  1  0.08612100  0.30523100  0.73448300  1
  C  C25  1  0.91387900  0.69476900  0.23448300  1
  C  C26  1  0.30523100  0.91387900  0.48448300  1
  C  C27  1  0.69476900  0.08612100  0.98448300  1
  C  C28  1  0.08612100  0.69476900  0.76551700  1
  C  C29  1  0.91387900  0.30523100  0.26551700  1
  C  C30  1  0.69476900  0.91387900  0.51551700  1
  C  C31  1  0.30523100  0.08612100  0.01551700  1
