# generated using pymatgen
data_Cu2Ni3C10
_symmetry_space_group_name_H-M   'P 1'
_cell_length_a   6.10607919
_cell_length_b   8.65401000
_cell_length_c   10.59578764
_cell_angle_alpha   65.89749923
_cell_angle_beta   73.25353587
_cell_angle_gamma   90.00000000
_symmetry_Int_Tables_number   1
_chemical_formula_structural   Cu2Ni3C10
_chemical_formula_sum   'Cu4 Ni6 C20'
_cell_volume   484.95862492
_cell_formula_units_Z   2
loop_
 _symmetry_equiv_pos_site_id
 _symmetry_equiv_pos_as_xyz
  1  'x, y, z'
loop_
 _atom_site_type_symbol
 _atom_site_label
 _atom_site_symmetry_multiplicity
 _atom_site_fract_x
 _atom_site_fract_y
 _atom_site_fract_z
 _atom_site_occupancy
  Ni  Ni0  1  0.50000000  0.26608900  0.00000000  1
  Ni  Ni1  1  0.83959100  0.57979300  0.32081700  1
  Ni  Ni2  1  0.16040900  0.90061100  0.67918300  1
  Ni  Ni3  1  0.50000000  0.73391100  0.00000000  1
  Ni  Ni4  1  0.83959100  0.09938900  0.32081700  1
  Ni  Ni5  1  0.16040900  0.42020700  0.67918300  1
  Cu  Cu6  1  0.00000000  0.00000000  0.00000000  1
  Cu  Cu7  1  0.32797000  0.32797000  0.34405900  1
  Cu  Cu8  1  0.67203000  0.67203000  0.65594100  1
  Cu  Cu9  1  0.00000000  0.50000000  0.00000000  1
  C  C10  1  0.33409800  0.83409800  0.33180300  1
  C  C11  1  0.66590200  0.16590200  0.66819600  1
  C  C12  1  0.00000000  0.24655900  0.00000000  1
  C  C13  1  0.33023900  0.60177400  0.33952000  1
  C  C14  1  0.66976100  0.94129600  0.66048000  1
  C  C15  1  0.16133100  0.41057800  0.17884400  1
  C  C16  1  0.48894400  0.75942500  0.48114900  1
  C  C17  1  0.81822700  0.09015100  0.81969600  1
  C  C18  1  0.34017400  0.58942200  0.82115600  1
  C  C19  1  0.63792400  0.90984900  0.18030400  1
  C  C20  1  0.97009400  0.24057500  0.51885100  1
  C  C21  1  0.00000000  0.75344100  0.00000000  1
  C  C22  1  0.33023900  0.05870400  0.33952000  1
  C  C23  1  0.66976100  0.39822600  0.66048000  1
  C  C24  1  0.83866900  0.58942200  0.82115600  1
  C  C25  1  0.18177300  0.90984900  0.18030400  1
  C  C26  1  0.51105600  0.24057500  0.51885100  1
  C  C27  1  0.65982600  0.41057800  0.17884400  1
  C  C28  1  0.02990600  0.75942500  0.48114900  1
  C  C29  1  0.36207600  0.09015100  0.81969600  1
