# generated using pymatgen
data_Cu14Ni6C
_symmetry_space_group_name_H-M   'P 1'
_cell_length_a   7.79440800
_cell_length_b   8.31779600
_cell_length_c   9.21713670
_cell_angle_alpha   99.52709982
_cell_angle_beta   90.00000000
_cell_angle_gamma   90.00000000
_symmetry_Int_Tables_number   1
_chemical_formula_structural   Cu14Ni6C
_chemical_formula_sum   'Cu28 Ni12 C2'
_cell_volume   589.32613014
_cell_formula_units_Z   2
loop_
 _symmetry_equiv_pos_site_id
 _symmetry_equiv_pos_as_xyz
  1  'x, y, z'
loop_
 _atom_site_type_symbol
 _atom_site_label
 _atom_site_symmetry_multiplicity
 _atom_site_fract_x
 _atom_site_fract_y
 _atom_site_fract_z
 _atom_site_occupancy
  C  C0  1  0.50000000  0.00000000  0.00000000  1
  C  C1  1  0.00000000  0.00000000  0.50000000  1
  Ni  Ni2  1  0.42677200  0.72524300  0.36669800  1
  Ni  Ni3  1  0.92677200  0.27475700  0.13330200  1
  Ni  Ni4  1  0.57322800  0.27475700  0.63330200  1
  Ni  Ni5  1  0.07322800  0.72524300  0.86669800  1
  Ni  Ni6  1  0.64969000  0.69013200  0.03210600  1
  Ni  Ni7  1  0.14969000  0.30986800  0.46789400  1
  Ni  Ni8  1  0.35031000  0.30986800  0.96789400  1
  Ni  Ni9  1  0.85031000  0.69013200  0.53210600  1
  Ni  Ni10  1  0.56434800  0.17595400  0.29075900  1
  Ni  Ni11  1  0.06434800  0.82404600  0.20924100  1
  Ni  Ni12  1  0.43565200  0.82404600  0.70924100  1
  Ni  Ni13  1  0.93565200  0.17595400  0.79075900  1
  Cu  Cu14  1  0.71916700  0.70930200  0.91521300  1
  Cu  Cu15  1  0.21916700  0.29069800  0.58478700  1
  Cu  Cu16  1  0.28083300  0.29069800  0.08478700  1
  Cu  Cu17  1  0.78083300  0.70930200  0.41521300  1
  Cu  Cu18  1  0.63266300  0.15771200  0.15635900  1
  Cu  Cu19  1  0.13266300  0.84228800  0.34364100  1
  Cu  Cu20  1  0.36733700  0.84228800  0.84364100  1
  Cu  Cu21  1  0.86733700  0.15771200  0.65635900  1
  Cu  Cu22  1  0.66435700  0.56707500  0.09126200  1
  Cu  Cu23  1  0.16435700  0.43292500  0.40873800  1
  Cu  Cu24  1  0.33564300  0.43292500  0.90873800  1
  Cu  Cu25  1  0.83564300  0.56707500  0.59126200  1
  Cu  Cu26  1  0.43135500  0.59658400  0.30876500  1
  Cu  Cu27  1  0.93135500  0.40341600  0.19123500  1
  Cu  Cu28  1  0.56864500  0.40341600  0.69123500  1
  Cu  Cu29  1  0.06864500  0.59658400  0.80876500  1
  Cu  Cu30  1  0.44347100  0.08959500  0.31540900  1
  Cu  Cu31  1  0.94347100  0.91040500  0.18459100  1
  Cu  Cu32  1  0.55652900  0.91040500  0.68459100  1
  Cu  Cu33  1  0.05652900  0.08959500  0.81540900  1
  Cu  Cu34  1  0.55037400  0.80776700  0.10334800  1
  Cu  Cu35  1  0.05037400  0.19223300  0.39665200  1
  Cu  Cu36  1  0.44962600  0.19223300  0.89665200  1
  Cu  Cu37  1  0.94962600  0.80776700  0.60334800  1
  Cu  Cu38  1  0.63232800  0.28592600  0.38281900  1
  Cu  Cu39  1  0.13232800  0.71407400  0.11718100  1
  Cu  Cu40  1  0.36767200  0.71407400  0.61718100  1
  Cu  Cu41  1  0.86767200  0.28592600  0.88281900  1
