# generated using pymatgen
data_CuNiC7
_symmetry_space_group_name_H-M   'P 1'
_cell_length_a   7.43357711
_cell_length_b   7.43357711
_cell_length_c   7.43357711
_cell_angle_alpha   120.79358115
_cell_angle_beta   118.60995246
_cell_angle_gamma   90.52764478
_symmetry_Int_Tables_number   1
_chemical_formula_structural   CuNiC7
_chemical_formula_sum   'Cu2 Ni2 C14'
_cell_volume   291.61976382
_cell_formula_units_Z   2
loop_
 _symmetry_equiv_pos_site_id
 _symmetry_equiv_pos_as_xyz
  1  'x, y, z'
loop_
 _atom_site_type_symbol
 _atom_site_label
 _atom_site_symmetry_multiplicity
 _atom_site_fract_x
 _atom_site_fract_y
 _atom_site_fract_z
 _atom_site_occupancy
  C  C0  1  0.37237400  0.12237400  0.25000000  1
  C  C1  1  0.62762600  0.87762600  0.75000000  1
  Ni  Ni2  1  0.00000000  0.50000000  0.50000000  1
  Ni  Ni3  1  0.50000000  0.50000000  0.00000000  1
  Cu  Cu4  1  0.00000000  0.50000000  0.00000000  1
  Cu  Cu5  1  0.00000000  0.00000000  0.50000000  1
  C  C6  1  0.31624700  0.56624700  0.75000000  1
  C  C7  1  0.92982400  0.17982400  0.75000000  1
  C  C8  1  0.32588600  0.18646300  0.76003500  1
  C  C9  1  0.92642800  0.56585100  0.73996500  1
  C  C10  1  0.32588600  0.56585100  0.13942300  1
  C  C11  1  0.92642800  0.18646300  0.36057700  1
  C  C12  1  0.68375300  0.43375300  0.25000000  1
  C  C13  1  0.07017600  0.82017600  0.25000000  1
  C  C14  1  0.67411400  0.81353700  0.23996500  1
  C  C15  1  0.07357200  0.43414900  0.26003500  1
  C  C16  1  0.67411400  0.43414900  0.86057700  1
  C  C17  1  0.07357200  0.81353700  0.63942300  1
