# generated using pymatgen
data_CuNiC8
_symmetry_space_group_name_H-M   'P 1'
_cell_length_a   7.97248300
_cell_length_b   11.07507600
_cell_length_c   13.22605800
_cell_angle_alpha   90.00000000
_cell_angle_beta   90.00000000
_cell_angle_gamma   90.00000000
_symmetry_Int_Tables_number   1
_chemical_formula_structural   CuNiC8
_chemical_formula_sum   'Cu4 Ni4 C32'
_cell_volume   1167.80610116
_cell_formula_units_Z   4
loop_
 _symmetry_equiv_pos_site_id
 _symmetry_equiv_pos_as_xyz
  1  'x, y, z'
loop_
 _atom_site_type_symbol
 _atom_site_label
 _atom_site_symmetry_multiplicity
 _atom_site_fract_x
 _atom_site_fract_y
 _atom_site_fract_z
 _atom_site_occupancy
  C  C0  1  0.81940300  0.67297500  0.75831200  1
  C  C1  1  0.18059700  0.32702500  0.25831200  1
  C  C2  1  0.81940300  0.82702500  0.25831200  1
  C  C3  1  0.18059700  0.17297500  0.75831200  1
  Ni  Ni4  1  0.69833100  0.43702800  0.48171500  1
  Ni  Ni5  1  0.30166900  0.56297200  0.98171500  1
  Ni  Ni6  1  0.69833100  0.06297200  0.98171500  1
  Ni  Ni7  1  0.30166900  0.93702800  0.48171500  1
  Cu  Cu8  1  0.49370400  0.44981400  0.64580800  1
  Cu  Cu9  1  0.50629600  0.55018600  0.14580800  1
  Cu  Cu10  1  0.49370400  0.05018600  0.14580800  1
  Cu  Cu11  1  0.50629600  0.94981400  0.64580800  1
  C  C12  1  0.76242800  0.44642300  0.40083400  1
  C  C13  1  0.23757200  0.55357700  0.90083400  1
  C  C14  1  0.76242800  0.05357700  0.90083400  1
  C  C15  1  0.23757200  0.94642300  0.40083400  1
  C  C16  1  0.63608700  0.42570100  0.56981500  1
  C  C17  1  0.36391300  0.57429900  0.06981500  1
  C  C18  1  0.63608700  0.07429900  0.06981500  1
  C  C19  1  0.36391300  0.92570100  0.56981500  1
  C  C20  1  0.00315300  0.79272200  0.84412400  1
  C  C21  1  0.99684700  0.20727800  0.34412400  1
  C  C22  1  0.00315300  0.70727800  0.34412400  1
  C  C23  1  0.99684700  0.29272200  0.84412400  1
  C  C24  1  0.60835700  0.77801500  0.84344500  1
  C  C25  1  0.39164300  0.22198500  0.34344500  1
  C  C26  1  0.60835700  0.72198500  0.34344500  1
  C  C27  1  0.39164300  0.27801500  0.84344500  1
  C  C28  1  0.05093300  0.58665100  0.67963300  1
  C  C29  1  0.94906700  0.41334900  0.17963300  1
  C  C30  1  0.05093300  0.91334900  0.17963300  1
  C  C31  1  0.94906700  0.08665100  0.67963300  1
  C  C32  1  0.74987900  0.53709100  0.80485900  1
  C  C33  1  0.25012100  0.46290900  0.30485900  1
  C  C34  1  0.74987900  0.96290900  0.30485900  1
  C  C35  1  0.25012100  0.03709100  0.80485900  1
  C  C36  1  0.73206500  0.71101500  0.64325400  1
  C  C37  1  0.26793500  0.28898500  0.14325400  1
  C  C38  1  0.73206500  0.78898500  0.14325400  1
  C  C39  1  0.26793500  0.21101500  0.64325400  1
