# generated using pymatgen
data_CuNiC10
_symmetry_space_group_name_H-M   'P 1'
_cell_length_a   9.49825961
_cell_length_b   9.49825961
_cell_length_c   6.16016400
_cell_angle_alpha   90.00000000
_cell_angle_beta   90.00000000
_cell_angle_gamma   119.99999727
_symmetry_Int_Tables_number   1
_chemical_formula_structural   CuNiC10
_chemical_formula_sum   'Cu2 Ni2 C20'
_cell_volume   481.29460032
_cell_formula_units_Z   2
loop_
 _symmetry_equiv_pos_site_id
 _symmetry_equiv_pos_as_xyz
  1  'x, y, z'
loop_
 _atom_site_type_symbol
 _atom_site_label
 _atom_site_symmetry_multiplicity
 _atom_site_fract_x
 _atom_site_fract_y
 _atom_site_fract_z
 _atom_site_occupancy
  C  C0  1  0.78151500  0.62665500  0.17378500  1
  C  C1  1  0.37334500  0.15486100  0.17378500  1
  C  C2  1  0.84513900  0.21848500  0.17378500  1
  C  C3  1  0.21848500  0.37334500  0.67378500  1
  C  C4  1  0.62665500  0.84513900  0.67378500  1
  C  C5  1  0.15486100  0.78151500  0.67378500  1
  Ni  Ni6  1  0.33333300  0.66666700  0.10544000  1
  Ni  Ni7  1  0.66666700  0.33333300  0.60544000  1
  Cu  Cu8  1  0.00000000  0.00000000  0.50923400  1
  Cu  Cu9  1  0.00000000  0.00000000  0.00923400  1
  C  C10  1  0.91439000  0.48041500  0.44736500  1
  C  C11  1  0.51958500  0.43397500  0.44736500  1
  C  C12  1  0.56602500  0.08561000  0.44736500  1
  C  C13  1  0.08561000  0.51958500  0.94736500  1
  C  C14  1  0.48041500  0.56602500  0.94736500  1
  C  C15  1  0.43397500  0.91439000  0.94736500  1
  C  C16  1  0.33333300  0.66666700  0.47027800  1
  C  C17  1  0.66666700  0.33333300  0.97027800  1
  C  C18  1  0.78233100  0.90691700  0.26544100  1
  C  C19  1  0.09308300  0.87541400  0.26544100  1
  C  C20  1  0.12458600  0.21766900  0.26544100  1
  C  C21  1  0.21766900  0.09308300  0.76544100  1
  C  C22  1  0.90691700  0.12458600  0.76544100  1
  C  C23  1  0.87541400  0.78233100  0.76544100  1
