# generated using pymatgen
data_Cu2Ni3C11
_symmetry_space_group_name_H-M   'P 1'
_cell_length_a   6.05720000
_cell_length_b   12.85045500
_cell_length_c   18.47771300
_cell_angle_alpha   90.00000000
_cell_angle_beta   90.00000000
_cell_angle_gamma   90.00000000
_symmetry_Int_Tables_number   1
_chemical_formula_structural   Cu2Ni3C11
_chemical_formula_sum   'Cu8 Ni12 C44'
_cell_volume   1438.26408597
_cell_formula_units_Z   4
loop_
 _symmetry_equiv_pos_site_id
 _symmetry_equiv_pos_as_xyz
  1  'x, y, z'
loop_
 _atom_site_type_symbol
 _atom_site_label
 _atom_site_symmetry_multiplicity
 _atom_site_fract_x
 _atom_site_fract_y
 _atom_site_fract_z
 _atom_site_occupancy
  C  C0  1  0.25000000  0.87224100  0.48446400  1
  C  C1  1  0.25000000  0.37224100  0.01553600  1
  C  C2  1  0.75000000  0.12775900  0.51553600  1
  C  C3  1  0.75000000  0.62775900  0.98446400  1
  C  C4  1  0.25000000  0.04155400  0.69700800  1
  C  C5  1  0.25000000  0.54155400  0.80299200  1
  C  C6  1  0.75000000  0.95844600  0.30299200  1
  C  C7  1  0.75000000  0.45844600  0.19700800  1
  C  C8  1  0.25000000  0.35751800  0.58209700  1
  C  C9  1  0.25000000  0.85751800  0.91790300  1
  C  C10  1  0.75000000  0.64248200  0.41790300  1
  C  C11  1  0.75000000  0.14248200  0.08209700  1
  Ni  Ni12  1  0.75000000  0.87063800  0.60728100  1
  Ni  Ni13  1  0.75000000  0.37063800  0.89271900  1
  Ni  Ni14  1  0.25000000  0.12936200  0.39271900  1
  Ni  Ni15  1  0.25000000  0.62936200  0.10728100  1
  Ni  Ni16  1  0.75000000  0.24660900  0.70167600  1
  Ni  Ni17  1  0.75000000  0.74660900  0.79832400  1
  Ni  Ni18  1  0.25000000  0.75339100  0.29832400  1
  Ni  Ni19  1  0.25000000  0.25339100  0.20167600  1
  Ni  Ni20  1  0.75000000  0.54313700  0.65730000  1
  Ni  Ni21  1  0.75000000  0.04313700  0.84270000  1
  Ni  Ni22  1  0.25000000  0.45686300  0.34270000  1
  Ni  Ni23  1  0.25000000  0.95686300  0.15730000  1
  Cu  Cu24  1  0.25000000  0.59796300  0.49803900  1
  Cu  Cu25  1  0.25000000  0.09796300  0.00196100  1
  Cu  Cu26  1  0.75000000  0.40203700  0.50196100  1
  Cu  Cu27  1  0.75000000  0.90203700  0.99803900  1
  Cu  Cu28  1  0.25000000  0.75264900  0.68471700  1
  Cu  Cu29  1  0.25000000  0.25264900  0.81528300  1
  Cu  Cu30  1  0.75000000  0.24735100  0.31528300  1
  Cu  Cu31  1  0.75000000  0.74735100  0.18471700  1
  C  C32  1  0.75000000  0.80105700  0.51786100  1
  C  C33  1  0.75000000  0.30105700  0.98213900  1
  C  C34  1  0.25000000  0.19894300  0.48213900  1
  C  C35  1  0.25000000  0.69894300  0.01786100  1
  C  C36  1  0.98247000  0.96597800  0.58827900  1
  C  C37  1  0.51753000  0.46597800  0.91172100  1
  C  C38  1  0.48247000  0.03402200  0.41172100  1
  C  C39  1  0.01753000  0.53402200  0.08827900  1
  C  C40  1  0.01753000  0.03402200  0.41172100  1
  C  C41  1  0.48247000  0.53402200  0.08827900  1
  C  C42  1  0.51753000  0.96597800  0.58827900  1
  C  C43  1  0.98247000  0.46597800  0.91172100  1
  C  C44  1  0.97974300  0.21135600  0.63834800  1
  C  C45  1  0.52025700  0.71135600  0.86165200  1
  C  C46  1  0.47974300  0.78864400  0.36165200  1
  C  C47  1  0.02025700  0.28864400  0.13834800  1
  C  C48  1  0.02025700  0.78864400  0.36165200  1
  C  C49  1  0.47974300  0.28864400  0.13834800  1
  C  C50  1  0.52025700  0.21135600  0.63834800  1
  C  C51  1  0.97974300  0.71135600  0.86165200  1
  C  C52  1  0.75000000  0.60264400  0.75688300  1
  C  C53  1  0.75000000  0.10264400  0.74311700  1
  C  C54  1  0.25000000  0.39735600  0.24311700  1
  C  C55  1  0.25000000  0.89735600  0.25688300  1
  C  C56  1  0.98709800  0.45694100  0.68045800  1
  C  C57  1  0.51290200  0.95694100  0.81954200  1
  C  C58  1  0.48709800  0.54305900  0.31954200  1
  C  C59  1  0.01290200  0.04305900  0.18045800  1
  C  C60  1  0.01290200  0.54305900  0.31954200  1
  C  C61  1  0.48709800  0.04305900  0.18045800  1
  C  C62  1  0.51290200  0.45694100  0.68045800  1
  C  C63  1  0.98709800  0.95694100  0.81954200  1
