# generated using pymatgen
data_CuNi13C6
_symmetry_space_group_name_H-M   'P 1'
_cell_length_a   8.05565800
_cell_length_b   8.05565800
_cell_length_c   12.78155756
_cell_angle_alpha   108.36855221
_cell_angle_beta   108.36855221
_cell_angle_gamma   90.00000000
_symmetry_Int_Tables_number   1
_chemical_formula_structural   CuNi13C6
_chemical_formula_sum   'Cu2 Ni26 C12'
_cell_volume   742.51864208
_cell_formula_units_Z   2
loop_
 _symmetry_equiv_pos_site_id
 _symmetry_equiv_pos_as_xyz
  1  'x, y, z'
loop_
 _atom_site_type_symbol
 _atom_site_label
 _atom_site_symmetry_multiplicity
 _atom_site_fract_x
 _atom_site_fract_y
 _atom_site_fract_z
 _atom_site_occupancy
  C  C0  1  0.97564500  0.47564500  0.62306500  1
  C  C1  1  0.64742100  0.14742100  0.62306500  1
  C  C2  1  0.14742100  0.97564500  0.62306500  1
  C  C3  1  0.47564500  0.64742100  0.62306500  1
  C  C4  1  0.02435500  0.52435500  0.37693500  1
  C  C5  1  0.35257900  0.85257900  0.37693500  1
  C  C6  1  0.85257900  0.02435500  0.37693500  1
  C  C7  1  0.52435500  0.35257900  0.37693500  1
  C  C8  1  0.60976600  0.60976600  0.21953100  1
  C  C9  1  0.10976600  0.10976600  0.21953100  1
  C  C10  1  0.39023400  0.39023400  0.78046900  1
  C  C11  1  0.89023400  0.89023400  0.78046900  1
  Ni  Ni12  1  0.11843000  0.61843000  0.88077200  1
  Ni  Ni13  1  0.76234200  0.26234200  0.88077200  1
  Ni  Ni14  1  0.26234200  0.11843000  0.88077200  1
  Ni  Ni15  1  0.61843000  0.76234200  0.88077200  1
  Ni  Ni16  1  0.88157000  0.38157000  0.11922800  1
  Ni  Ni17  1  0.23765800  0.73765800  0.11922800  1
  Ni  Ni18  1  0.73765800  0.88157000  0.11922800  1
  Ni  Ni19  1  0.38157000  0.23765800  0.11922800  1
  Ni  Ni20  1  0.71104900  0.56689600  0.00000000  1
  Ni  Ni21  1  0.28895100  0.43310400  0.00000000  1
  Ni  Ni22  1  0.78895100  0.06689600  0.00000000  1
  Ni  Ni23  1  0.21104900  0.93310400  0.00000000  1
  Ni  Ni24  1  0.56689600  0.28895100  0.00000000  1
  Ni  Ni25  1  0.43310400  0.71104900  0.00000000  1
  Ni  Ni26  1  0.06689600  0.21104900  0.00000000  1
  Ni  Ni27  1  0.93310400  0.78895100  0.00000000  1
  Ni  Ni28  1  0.29066200  0.79066200  0.80928600  1
  Ni  Ni29  1  0.51862400  0.01862400  0.80928600  1
  Ni  Ni30  1  0.01862400  0.29066200  0.80928600  1
  Ni  Ni31  1  0.79066200  0.51862400  0.80928600  1
  Ni  Ni32  1  0.70933800  0.20933800  0.19071400  1
  Ni  Ni33  1  0.48137600  0.98137600  0.19071400  1
  Ni  Ni34  1  0.98137600  0.70933800  0.19071400  1
  Ni  Ni35  1  0.20933800  0.48137600  0.19071400  1
  Ni  Ni36  1  0.00000000  0.50000000  0.00000000  1
  Ni  Ni37  1  0.50000000  0.00000000  0.00000000  1
  Cu  Cu38  1  0.25000000  0.25000000  0.50000000  1
  Cu  Cu39  1  0.75000000  0.75000000  0.50000000  1
