# generated using pymatgen
data_Cu2Ni2C9
_symmetry_space_group_name_H-M   'P 1'
_cell_length_a   8.82418200
_cell_length_b   6.59246700
_cell_length_c   12.26042864
_cell_angle_alpha   87.95145594
_cell_angle_beta   90.00000000
_cell_angle_gamma   90.00000000
_symmetry_Int_Tables_number   1
_chemical_formula_structural   Cu2Ni2C9
_chemical_formula_sum   'Cu8 Ni8 C36'
_cell_volume   712.77166873
_cell_formula_units_Z   4
loop_
 _symmetry_equiv_pos_site_id
 _symmetry_equiv_pos_as_xyz
  1  'x, y, z'
loop_
 _atom_site_type_symbol
 _atom_site_label
 _atom_site_symmetry_multiplicity
 _atom_site_fract_x
 _atom_site_fract_y
 _atom_site_fract_z
 _atom_site_occupancy
  C  C0  1  0.83007200  0.89686600  0.05395600  1
  C  C1  1  0.16992800  0.10313400  0.94604400  1
  C  C2  1  0.33007200  0.10313400  0.44604400  1
  C  C3  1  0.66992800  0.89686600  0.55395600  1
  Ni  Ni4  1  0.82113900  0.24141200  0.87060700  1
  Ni  Ni5  1  0.94378500  0.61954600  0.62289400  1
  Ni  Ni6  1  0.05621500  0.38045400  0.37710600  1
  Ni  Ni7  1  0.17886100  0.75858800  0.12939300  1
  Ni  Ni8  1  0.67886100  0.24141200  0.37060700  1
  Ni  Ni9  1  0.55621500  0.61954600  0.12289400  1
  Ni  Ni10  1  0.32113900  0.75858800  0.62939300  1
  Ni  Ni11  1  0.44378500  0.38045400  0.87710600  1
  Cu  Cu12  1  0.54984600  0.90228900  0.84373000  1
  Cu  Cu13  1  0.95015400  0.90228900  0.34373000  1
  Cu  Cu14  1  0.91251700  0.39562800  0.13510400  1
  Cu  Cu15  1  0.04984600  0.09771100  0.65627000  1
  Cu  Cu16  1  0.08748300  0.60437200  0.86489600  1
  Cu  Cu17  1  0.41251700  0.60437200  0.36489600  1
  Cu  Cu18  1  0.58748300  0.39562800  0.63510400  1
  Cu  Cu19  1  0.45015400  0.09771100  0.15627000  1
  C  C20  1  0.75029400  0.96640800  0.39722000  1
  C  C21  1  0.97861800  0.34393200  0.58753100  1
  C  C22  1  0.41853100  0.80995800  0.47438400  1
  C  C23  1  0.91853100  0.19004200  0.02561600  1
  C  C24  1  0.74970600  0.96640800  0.89722000  1
  C  C25  1  0.24970600  0.03359200  0.60278000  1
  C  C26  1  0.89715800  0.90719700  0.61112200  1
  C  C27  1  0.11694200  0.48351100  0.14932300  1
  C  C28  1  0.38305800  0.48351100  0.64932300  1
  C  C29  1  0.12758800  0.70288000  0.71440100  1
  C  C30  1  0.62758800  0.29712000  0.78559900  1
  C  C31  1  0.88305800  0.51648900  0.85067700  1
  C  C32  1  0.10284200  0.09280300  0.38887800  1
  C  C33  1  0.46292600  0.12811600  0.30994300  1
  C  C34  1  0.72825800  0.59566400  0.57974100  1
  C  C35  1  0.77174200  0.59566400  0.07974100  1
  C  C36  1  0.96292600  0.87188400  0.19005700  1
  C  C37  1  0.61694200  0.51648900  0.35067700  1
  C  C38  1  0.53707400  0.87188400  0.69005700  1
  C  C39  1  0.58146900  0.19004200  0.52561600  1
  C  C40  1  0.52138200  0.34393200  0.08753100  1
  C  C41  1  0.87241200  0.29712000  0.28559900  1
  C  C42  1  0.25029400  0.03359200  0.10278000  1
  C  C43  1  0.60284200  0.90719700  0.11112200  1
  C  C44  1  0.08146900  0.80995800  0.97438400  1
  C  C45  1  0.22825800  0.40433600  0.92025900  1
  C  C46  1  0.02138200  0.65606800  0.41246900  1
  C  C47  1  0.47861800  0.65606800  0.91246900  1
  C  C48  1  0.39715800  0.09280300  0.88887800  1
  C  C49  1  0.27174200  0.40433600  0.42025900  1
  C  C50  1  0.37241200  0.70288000  0.21440100  1
  C  C51  1  0.03707400  0.12811600  0.80994300  1
