# generated using pymatgen
data_Cu9Ni3C16
_symmetry_space_group_name_H-M   'P 1'
_cell_length_a   7.95944200
_cell_length_b   9.16912984
_cell_length_c   9.85196848
_cell_angle_alpha   68.79286692
_cell_angle_beta   89.77134477
_cell_angle_gamma   86.35002499
_symmetry_Int_Tables_number   1
_chemical_formula_structural   Cu9Ni3C16
_chemical_formula_sum   'Cu18 Ni6 C32'
_cell_volume   668.81620567
_cell_formula_units_Z   2
loop_
 _symmetry_equiv_pos_site_id
 _symmetry_equiv_pos_as_xyz
  1  'x, y, z'
loop_
 _atom_site_type_symbol
 _atom_site_label
 _atom_site_symmetry_multiplicity
 _atom_site_fract_x
 _atom_site_fract_y
 _atom_site_fract_z
 _atom_site_occupancy
  C  C0  1  0.20221700  0.27403500  0.87828400  1
  C  C1  1  0.79778300  0.72596500  0.12171600  1
  C  C2  1  0.29099000  0.99006900  0.41388700  1
  C  C3  1  0.70901000  0.00993100  0.58611300  1
  C  C4  1  0.20507600  0.99435400  0.25783900  1
  C  C5  1  0.79492400  0.00564600  0.74216100  1
  C  C6  1  0.12173300  0.88846300  0.42098200  1
  C  C7  1  0.87826700  0.11153700  0.57901800  1
  C  C8  1  0.10532200  0.08999800  0.35979000  1
  C  C9  1  0.89467800  0.91000200  0.64021000  1
  C  C10  1  0.61659300  0.41265100  0.73834900  1
  C  C11  1  0.38340700  0.58734900  0.26165100  1
  C  C12  1  0.79163800  0.49214500  0.77358600  1
  C  C13  1  0.20836200  0.50785500  0.22641400  1
  C  C14  1  0.62319100  0.60995700  0.68589300  1
  C  C15  1  0.37680900  0.39004300  0.31410700  1
  C  C16  1  0.61099600  0.49624100  0.86551000  1
  C  C17  1  0.38900400  0.50375900  0.13449000  1
  C  C18  1  0.48384800  0.75109200  0.49089500  1
  C  C19  1  0.51615200  0.24890800  0.50910500  1
  C  C20  1  0.66949900  0.79722300  0.46084400  1
  C  C21  1  0.33050100  0.20277700  0.53915600  1
  C  C22  1  0.84740300  0.21819800  0.10865000  1
  C  C23  1  0.15259700  0.78180200  0.89135000  1
  C  C24  1  0.05950000  0.61780100  0.63590800  1
  C  C25  1  0.94050000  0.38219900  0.36409200  1
  C  C26  1  0.23295600  0.58061300  0.57777500  1
  C  C27  1  0.76704400  0.41938700  0.42222500  1
  C  C28  1  0.44938500  0.96032900  0.06886100  1
  C  C29  1  0.55061500  0.03967100  0.93113900  1
  C  C30  1  0.68112900  0.19555500  0.20430500  1
  C  C31  1  0.31887100  0.80444500  0.79569500  1
  Ni  Ni32  1  0.97173800  0.23539500  0.03765200  1
  Ni  Ni33  1  0.02826200  0.76460500  0.96234800  1
  Ni  Ni34  1  0.17865100  0.99136200  0.36231300  1
  Ni  Ni35  1  0.82134900  0.00863800  0.63768700  1
  Ni  Ni36  1  0.65953600  0.50122700  0.76722500  1
  Ni  Ni37  1  0.34046400  0.49877300  0.23277500  1
  Cu  Cu38  1  0.00892200  0.50132100  0.74423300  1
  Cu  Cu39  1  0.99107800  0.49867900  0.25576700  1
  Cu  Cu40  1  0.98403500  0.74963400  0.57770300  1
  Cu  Cu41  1  0.01596500  0.25036600  0.42229700  1
  Cu  Cu42  1  0.30424900  0.44638800  0.65472400  1
  Cu  Cu43  1  0.69575100  0.55361200  0.34527600  1
  Cu  Cu44  1  0.29014100  0.67809300  0.46579200  1
  Cu  Cu45  1  0.70985900  0.32190700  0.53420800  1
  Cu  Cu46  1  0.30928000  0.03053000  0.07871700  1
  Cu  Cu47  1  0.69072000  0.96947000  0.92128300  1
  Cu  Cu48  1  0.48715700  0.16711100  0.84022500  1
  Cu  Cu49  1  0.51284300  0.83288900  0.15977500  1
  Cu  Cu50  1  0.11126500  0.15975700  0.78511400  1
  Cu  Cu51  1  0.88873500  0.84024300  0.21488600  1
  Cu  Cu52  1  0.30441600  0.38348500  0.97183500  1
  Cu  Cu53  1  0.69558400  0.61651500  0.02816500  1
  Cu  Cu54  1  0.57950100  0.78933800  0.53023100  1
  Cu  Cu55  1  0.42049900  0.21066200  0.46976900  1
