# generated using pymatgen
data_CuNiC8
_symmetry_space_group_name_H-M   'P 1'
_cell_length_a   3.70226400
_cell_length_b   9.44405500
_cell_length_c   9.50322449
_cell_angle_alpha   60.43516626
_cell_angle_beta   90.00000000
_cell_angle_gamma   90.00000000
_symmetry_Int_Tables_number   1
_chemical_formula_structural   CuNiC8
_chemical_formula_sum   'Cu2 Ni2 C16'
_cell_volume   289.01158419
_cell_formula_units_Z   2
loop_
 _symmetry_equiv_pos_site_id
 _symmetry_equiv_pos_as_xyz
  1  'x, y, z'
loop_
 _atom_site_type_symbol
 _atom_site_label
 _atom_site_symmetry_multiplicity
 _atom_site_fract_x
 _atom_site_fract_y
 _atom_site_fract_z
 _atom_site_occupancy
  C  C0  1  0.00000000  0.41779100  0.86580500  1
  C  C1  1  0.00000000  0.86766400  0.72897700  1
  C  C2  1  0.00000000  0.70072800  0.41488700  1
  C  C3  1  0.50000000  0.59520400  0.10321700  1
  C  C4  1  0.50000000  0.12281700  0.28591600  1
  C  C5  1  0.50000000  0.29615500  0.59695400  1
  Ni  Ni6  1  0.00000000  0.32871600  0.33283800  1
  Ni  Ni7  1  0.50000000  0.67292600  0.66183100  1
  Cu  Cu8  1  0.00000000  0.43660700  0.61242400  1
  Cu  Cu9  1  0.00000000  0.61670600  0.94761500  1
  C  C10  1  0.00000000  0.15918400  0.12024200  1
  C  C11  1  0.00000000  0.11210500  0.72634100  1
  C  C12  1  0.00000000  0.72443700  0.16255300  1
  C  C13  1  0.50000000  0.85453500  0.88219500  1
  C  C14  1  0.50000000  0.87861300  0.28552500  1
  C  C15  1  0.50000000  0.27241100  0.85044000  1
  C  C16  1  0.00000000  0.95276700  0.43345600  1
  C  C17  1  0.50000000  0.56872800  0.37444200  1
  C  C18  1  0.50000000  0.37791500  0.04702900  1
  C  C19  1  0.50000000  0.04399300  0.56731300  1
