# generated using pymatgen
data_Cu3Ni5C
_symmetry_space_group_name_H-M   'P 1'
_cell_length_a   8.13313400
_cell_length_b   12.39364600
_cell_length_c   11.36855700
_cell_angle_alpha   90.00000000
_cell_angle_beta   90.00000000
_cell_angle_gamma   90.00000000
_symmetry_Int_Tables_number   1
_chemical_formula_structural   Cu3Ni5C
_chemical_formula_sum   'Cu12 Ni20 C4'
_cell_volume   1145.94126507
_cell_formula_units_Z   4
loop_
 _symmetry_equiv_pos_site_id
 _symmetry_equiv_pos_as_xyz
  1  'x, y, z'
loop_
 _atom_site_type_symbol
 _atom_site_label
 _atom_site_symmetry_multiplicity
 _atom_site_fract_x
 _atom_site_fract_y
 _atom_site_fract_z
 _atom_site_occupancy
  C  C0  1  0.34403100  0.75000000  0.40547700  1
  C  C1  1  0.15596900  0.75000000  0.90547700  1
  C  C2  1  0.65596900  0.25000000  0.59452300  1
  C  C3  1  0.84403100  0.25000000  0.09452300  1
  Ni  Ni4  1  0.31062800  0.52953400  0.36056000  1
  Ni  Ni5  1  0.18937200  0.97046600  0.86056000  1
  Ni  Ni6  1  0.68937200  0.02953400  0.63944000  1
  Ni  Ni7  1  0.81062800  0.47046600  0.13944000  1
  Ni  Ni8  1  0.68937200  0.47046600  0.63944000  1
  Ni  Ni9  1  0.81062800  0.02953400  0.13944000  1
  Ni  Ni10  1  0.31062800  0.97046600  0.36056000  1
  Ni  Ni11  1  0.18937200  0.52953400  0.86056000  1
  Ni  Ni12  1  0.05725600  0.75000000  0.45588900  1
  Ni  Ni13  1  0.44274400  0.75000000  0.95588900  1
  Ni  Ni14  1  0.94274400  0.25000000  0.54411100  1
  Ni  Ni15  1  0.55725600  0.25000000  0.04411100  1
  Ni  Ni16  1  0.05586200  0.75000000  0.20037500  1
  Ni  Ni17  1  0.44413800  0.75000000  0.70037500  1
  Ni  Ni18  1  0.94413800  0.25000000  0.79962500  1
  Ni  Ni19  1  0.55586200  0.25000000  0.29962500  1
  Ni  Ni20  1  0.57489400  0.75000000  0.27990500  1
  Ni  Ni21  1  0.92510600  0.75000000  0.77990500  1
  Ni  Ni22  1  0.42510600  0.25000000  0.72009500  1
  Ni  Ni23  1  0.07489400  0.25000000  0.22009500  1
  Cu  Cu24  1  0.81589900  0.49090500  0.29515800  1
  Cu  Cu25  1  0.68410100  0.00909500  0.79515800  1
  Cu  Cu26  1  0.18410100  0.99090500  0.70484200  1
  Cu  Cu27  1  0.31589900  0.50909500  0.20484200  1
  Cu  Cu28  1  0.18410100  0.50909500  0.70484200  1
  Cu  Cu29  1  0.31589900  0.99090500  0.20484200  1
  Cu  Cu30  1  0.81589900  0.00909500  0.29515800  1
  Cu  Cu31  1  0.68410100  0.49090500  0.79515800  1
  Cu  Cu32  1  0.42163900  0.75000000  0.53980200  1
  Cu  Cu33  1  0.07836100  0.75000000  0.03980200  1
  Cu  Cu34  1  0.57836100  0.25000000  0.46019800  1
  Cu  Cu35  1  0.92163900  0.25000000  0.96019800  1
