# generated using pymatgen
data_Cu12Ni60C37
_symmetry_space_group_name_H-M   'P 1'
_cell_length_a   10.25433400
_cell_length_b   10.60426011
_cell_length_c   10.98100864
_cell_angle_alpha   78.30521563
_cell_angle_beta   79.88854966
_cell_angle_gamma   79.54007824
_symmetry_Int_Tables_number   1
_chemical_formula_structural   Cu12Ni60C37
_chemical_formula_sum   'Cu12 Ni60 C37'
_cell_volume   1137.85145873
_cell_formula_units_Z   1
loop_
 _symmetry_equiv_pos_site_id
 _symmetry_equiv_pos_as_xyz
  1  'x, y, z'
loop_
 _atom_site_type_symbol
 _atom_site_label
 _atom_site_symmetry_multiplicity
 _atom_site_fract_x
 _atom_site_fract_y
 _atom_site_fract_z
 _atom_site_occupancy
  C  C0  1  0.00000000  0.00000000  0.00000000  1
  C  C1  1  0.89084200  0.25942900  0.90771800  1
  C  C2  1  0.10915800  0.74057100  0.09228200  1
  C  C3  1  0.81005200  0.22758800  0.04929700  1
  C  C4  1  0.18994800  0.77241200  0.95070300  1
  C  C5  1  0.96289700  0.26472600  0.02954600  1
  C  C6  1  0.03710300  0.73527400  0.97045400  1
  C  C7  1  0.72918100  0.00264600  0.99712400  1
  C  C8  1  0.27081900  0.99735400  0.00287600  1
  C  C9  1  0.81733100  0.97666400  0.85784200  1
  C  C10  1  0.18266900  0.02333600  0.14215800  1
  C  C11  1  0.81465200  0.85721800  0.97684600  1
  C  C12  1  0.18534800  0.14278200  0.02315400  1
  C  C13  1  0.97215900  0.99351800  0.25384500  1
  C  C14  1  0.02784100  0.00648200  0.74615500  1
  C  C15  1  0.82078300  0.99904900  0.21861300  1
  C  C16  1  0.17921700  0.00095100  0.78138700  1
  C  C17  1  0.91752100  0.85864300  0.24451500  1
  C  C18  1  0.08247900  0.14135700  0.75548500  1
  C  C19  1  0.53044700  0.19015900  0.06022100  1
  C  C20  1  0.46955300  0.80984100  0.93977900  1
  C  C21  1  0.46866000  0.05414000  0.08308000  1
  C  C22  1  0.53134000  0.94586000  0.91692000  1
  C  C23  1  0.55089500  0.08140400  0.18716800  1
  C  C24  1  0.44910500  0.91859600  0.81283200  1
  C  C25  1  0.07121000  0.40681200  0.16804700  1
  C  C26  1  0.92879000  0.59318800  0.83195300  1
  C  C27  1  0.10926500  0.45518600  0.01618200  1
  C  C28  1  0.89073500  0.54481400  0.98381800  1
  C  C29  1  0.21609200  0.35319900  0.09412000  1
  C  C30  1  0.78390800  0.64680100  0.90588000  1
  C  C31  1  0.04860900  0.03104900  0.41012200  1
  C  C32  1  0.95139100  0.96895100  0.58987800  1
  C  C33  1  0.19708300  0.07366700  0.37404700  1
  C  C34  1  0.80291700  0.92633300  0.62595300  1
  C  C35  1  0.06480600  0.18201900  0.34754200  1
  C  C36  1  0.93519400  0.81798100  0.65245800  1
  Ni  Ni37  1  0.64286900  0.49470700  0.18201800  1
  Ni  Ni38  1  0.35713100  0.50529300  0.81798200  1
  Ni  Ni39  1  0.75246300  0.51184100  0.23444000  1
  Ni  Ni40  1  0.24753700  0.48815900  0.76556000  1
  Ni  Ni41  1  0.59078300  0.37265000  0.21432400  1
  Ni  Ni42  1  0.40921700  0.62735000  0.78567600  1
  Ni  Ni43  1  0.56600200  0.19430400  0.39828900  1
  Ni  Ni44  1  0.43399800  0.80569600  0.60171100  1
  Ni  Ni45  1  0.81579600  0.60128500  0.38837500  1
  Ni  Ni46  1  0.18420400  0.39871500  0.61162500  1
  Ni  Ni47  1  0.63530500  0.66983100  0.68154400  1
  Ni  Ni48  1  0.36469500  0.33016900  0.31845600  1
  Ni  Ni49  1  0.81384700  0.40492400  0.32371000  1
  Ni  Ni50  1  0.18615300  0.59507600  0.67629000  1
  Ni  Ni51  1  0.59730600  0.80974300  0.36033900  1
  Ni  Ni52  1  0.40269400  0.19025700  0.63966100  1
  Ni  Ni53  1  0.21160200  0.72552000  0.42144300  1
  Ni  Ni54  1  0.78839800  0.27448000  0.57855700  1
  Ni  Ni55  1  0.15831700  0.60345000  0.45523400  1
  Ni  Ni56  1  0.84168300  0.39655000  0.54476600  1
  Ni  Ni57  1  0.76248200  0.28645700  0.35590400  1
  Ni  Ni58  1  0.23751800  0.71354300  0.64409600  1
  Ni  Ni59  1  0.54752600  0.16141900  0.63054500  1
  Ni  Ni60  1  0.45247400  0.83858100  0.36945500  1
  Ni  Ni61  1  0.62763600  0.16301100  0.51288400  1
  Ni  Ni62  1  0.37236400  0.83698900  0.48711600  1
  Ni  Ni63  1  0.85362900  0.46050700  0.41811800  1
  Ni  Ni64  1  0.14637100  0.53949300  0.58188200  1
  Ni  Ni65  1  0.64693600  0.73632500  0.26019800  1
  Ni  Ni66  1  0.35306400  0.26367500  0.73980200  1
  Ni  Ni67  1  0.59081800  0.45609700  0.80585800  1
  Ni  Ni68  1  0.40918200  0.54390300  0.19414200  1
  Ni  Ni69  1  0.76758600  0.67257500  0.48561100  1
  Ni  Ni70  1  0.23241400  0.32742500  0.51438900  1
  Ni  Ni71  1  0.53070500  0.60109100  0.16779900  1
  Ni  Ni72  1  0.46929500  0.39890900  0.83220100  1
  Ni  Ni73  1  0.53348300  0.71873100  0.20688200  1
  Ni  Ni74  1  0.46651700  0.28126900  0.79311800  1
  Ni  Ni75  1  0.65650800  0.77904200  0.47175100  1
  Ni  Ni76  1  0.34349200  0.22095800  0.52824900  1
  Ni  Ni77  1  0.75581700  0.63307300  0.27353400  1
  Ni  Ni78  1  0.24418300  0.36692700  0.72646600  1
  Ni  Ni79  1  0.70817600  0.39465000  0.74099900  1
  Ni  Ni80  1  0.29182400  0.60535000  0.25900100  1
  Ni  Ni81  1  0.70549100  0.27273100  0.70054600  1
  Ni  Ni82  1  0.29450900  0.72726900  0.29945400  1
  Ni  Ni83  1  0.65045800  0.26848700  0.30121300  1
  Ni  Ni84  1  0.34954200  0.73151300  0.69878700  1
  Ni  Ni85  1  0.74949400  0.22028100  0.48656800  1
  Ni  Ni86  1  0.25050600  0.77971900  0.51343200  1
  Ni  Ni87  1  0.75598600  0.60707500  0.61569400  1
  Ni  Ni88  1  0.24401400  0.39292500  0.38430600  1
  Ni  Ni89  1  0.79257700  0.47008300  0.64483000  1
  Ni  Ni90  1  0.20742300  0.52991700  0.35517000  1
  Ni  Ni91  1  0.58755100  0.21751800  0.72588300  1
  Ni  Ni92  1  0.41244900  0.78248200  0.27411700  1
  Ni  Ni93  1  0.44651200  0.40275400  0.22448200  1
  Ni  Ni94  1  0.55348800  0.59724600  0.77551800  1
  Ni  Ni95  1  0.57410200  0.77696600  0.59253200  1
  Ni  Ni96  1  0.42589800  0.22303400  0.40746800  1
  Cu  Cu97  1  0.90325300  0.21389700  0.99740200  1
  Cu  Cu98  1  0.09674700  0.78610300  0.00259800  1
  Cu  Cu99  1  0.81705800  0.95538700  0.95329400  1
  Cu  Cu100  1  0.18294200  0.04461300  0.04670600  1
  Cu  Cu101  1  0.91800300  0.95461500  0.20441500  1
  Cu  Cu102  1  0.08199700  0.04538500  0.79558500  1
  Cu  Cu103  1  0.55042800  0.09211600  0.09247900  1
  Cu  Cu104  1  0.44957200  0.90788400  0.90752100  1
  Cu  Cu105  1  0.11611000  0.37544100  0.08633100  1
  Cu  Cu106  1  0.88389000  0.62455900  0.91366900  1
  Cu  Cu107  1  0.10603700  0.08735200  0.34319700  1
  Cu  Cu108  1  0.89396300  0.91264800  0.65680300  1
