# generated using pymatgen
data_CuNi2C21
_symmetry_space_group_name_H-M   'P 1'
_cell_length_a   8.03126236
_cell_length_b   15.26044268
_cell_length_c   21.42884315
_cell_angle_alpha   90.55072167
_cell_angle_beta   90.00000000
_cell_angle_gamma   90.00000000
_symmetry_Int_Tables_number   1
_chemical_formula_structural   CuNi2C21
_chemical_formula_sum   'Cu8 Ni16 C168'
_cell_volume   2626.21095665
_cell_formula_units_Z   8
loop_
 _symmetry_equiv_pos_site_id
 _symmetry_equiv_pos_as_xyz
  1  'x, y, z'
loop_
 _atom_site_type_symbol
 _atom_site_label
 _atom_site_symmetry_multiplicity
 _atom_site_fract_x
 _atom_site_fract_y
 _atom_site_fract_z
 _atom_site_occupancy
  Ni  Ni0  1  0.33185144  0.65881843  0.12697251  1
  Ni  Ni1  1  0.33185144  0.84118157  0.87302749  1
  Ni  Ni2  1  0.66814856  0.34118157  0.87302749  1
  Ni  Ni3  1  0.66814856  0.15881843  0.12697251  1
  Ni  Ni4  1  0.23520767  0.96869172  0.11923666  1
  Ni  Ni5  1  0.23520767  0.53130828  0.88076334  1
  Ni  Ni6  1  0.76479233  0.03130828  0.88076334  1
  Ni  Ni7  1  0.76479233  0.46869172  0.11923666  1
  Ni  Ni8  1  0.18581732  0.53839049  0.37093240  1
  Ni  Ni9  1  0.18581732  0.96160951  0.62906760  1
  Ni  Ni10  1  0.81418268  0.46160951  0.62906760  1
  Ni  Ni11  1  0.81418268  0.03839049  0.37093240  1
  Ni  Ni12  1  0.32979410  0.88051340  0.39161524  1
  Ni  Ni13  1  0.32979410  0.61948660  0.60838476  1
  Ni  Ni14  1  0.67020590  0.11948660  0.60838476  1
  Ni  Ni15  1  0.67020590  0.38051340  0.39161524  1
  Cu  Cu16  1  0.82519643  0.75000000  0.00000000  1
  Cu  Cu17  1  0.17480357  0.25000000  0.00000000  1
  Cu  Cu18  1  0.85291051  0.75000000  0.50000000  1
  Cu  Cu19  1  0.14708949  0.25000000  0.50000000  1
  Cu  Cu20  1  0.83119575  0.75473202  0.24850899  1
  Cu  Cu21  1  0.83119575  0.74526798  0.75149101  1
  Cu  Cu22  1  0.16880425  0.24526798  0.75149101  1
  Cu  Cu23  1  0.16880425  0.25473202  0.24850899  1
  C  C24  1  0.50886107  0.81457019  0.18159609  1
  C  C25  1  0.50886107  0.68542981  0.81840391  1
  C  C26  1  0.49113893  0.18542981  0.81840391  1
  C  C27  1  0.49113893  0.31457019  0.18159609  1
  C  C28  1  0.15913788  0.70887921  0.42230869  1
  C  C29  1  0.15913788  0.79112079  0.57769131  1
  C  C30  1  0.84086212  0.29112079  0.57769131  1
  C  C31  1  0.84086212  0.20887921  0.42230869  1
  C  C32  1  0.51976424  0.87103224  0.00404605  1
  C  C33  1  0.51976424  0.62896776  0.99595395  1
  C  C34  1  0.48023576  0.12896776  0.99595395  1
  C  C35  1  0.48023576  0.37103224  0.00404605  1
  C  C36  1  0.01868016  0.60781017  0.07052775  1
  C  C37  1  0.01868016  0.89218983  0.92947225  1
  C  C38  1  0.98131984  0.39218983  0.92947225  1
  C  C39  1  0.98131984  0.10781017  0.07052775  1
  C  C40  1  0.70683130  0.56630588  0.24630126  1
  C  C41  1  0.70683130  0.93369412  0.75369874  1
  C  C42  1  0.29316870  0.43369412  0.75369874  1
  C  C43  1  0.29316870  0.06630588  0.24630126  1
  C  C44  1  0.14652436  0.64219952  0.24923260  1
  C  C45  1  0.14652436  0.85780048  0.75076740  1
  C  C46  1  0.85347564  0.35780048  0.75076740  1
  C  C47  1  0.85347564  0.14219952  0.24923260  1
  C  C48  1  0.02094952  0.60032294  0.67955200  1
  C  C49  1  0.02094952  0.89967706  0.32044800  1
  C  C50  1  0.97905048  0.39967706  0.32044800  1
  C  C51  1  0.97905048  0.10032294  0.67955200  1
  C  C52  1  0.64872249  0.78244434  0.37848553  1
  C  C53  1  0.64872249  0.71755566  0.62151447  1
  C  C54  1  0.35127751  0.21755566  0.62151447  1
  C  C55  1  0.35127751  0.28244434  0.37848553  1
  C  C56  1  0.74344428  0.94562038  0.50397887  1
  C  C57  1  0.74344428  0.55437962  0.49602113  1
  C  C58  1  0.25655572  0.05437962  0.49602113  1
  C  C59  1  0.25655572  0.44562038  0.50397887  1
  C  C60  1  0.95393751  0.83786314  0.12454577  1
  C  C61  1  0.95393751  0.66213686  0.87545423  1
  C  C62  1  0.04606249  0.16213686  0.87545423  1
  C  C63  1  0.04606249  0.33786314  0.12454577  1
  C  C64  1  0.60981203  0.87299181  0.20096933  1
  C  C65  1  0.60981203  0.62700819  0.79903067  1
  C  C66  1  0.39018797  0.12700819  0.79903067  1
  C  C67  1  0.39018797  0.37299181  0.20096933  1
  C  C68  1  0.54703546  0.73422254  0.19373972  1
  C  C69  1  0.54703546  0.76577746  0.80626028  1
  C  C70  1  0.45296454  0.26577746  0.80626028  1
  C  C71  1  0.45296454  0.23422254  0.19373972  1
  C  C72  1  0.37993975  0.83077105  0.15190782  1
  C  C73  1  0.37993975  0.66922895  0.84809218  1
  C  C74  1  0.62006025  0.16922895  0.84809218  1
  C  C75  1  0.62006025  0.33077105  0.15190782  1
  C  C76  1  0.05177980  0.65023209  0.43605364  1
  C  C77  1  0.05177980  0.84976791  0.56394636  1
  C  C78  1  0.94822020  0.34976791  0.56394636  1
  C  C79  1  0.94822020  0.15023209  0.43605364  1
  C  C80  1  0.28765751  0.69084207  0.39302553  1
  C  C81  1  0.28765751  0.80915793  0.60697447  1
  C  C82  1  0.71234249  0.30915793  0.60697447  1
  C  C83  1  0.71234249  0.19084207  0.39302553  1
  C  C84  1  0.12630802  0.78776848  0.44021013  1
  C  C85  1  0.12630802  0.71223152  0.55978987  1
  C  C86  1  0.87369198  0.21223152  0.55978987  1
  C  C87  1  0.87369198  0.28776848  0.44021013  1
  C  C88  1  0.54734418  0.82132970  0.95578793  1
  C  C89  1  0.54734418  0.67867030  0.04421207  1
  C  C90  1  0.45265582  0.17867030  0.04421207  1
  C  C91  1  0.45265582  0.32132970  0.95578793  1
  C  C92  1  0.63123584  0.87017876  0.04662053  1
  C  C93  1  0.63123584  0.62982124  0.95337947  1
  C  C94  1  0.36876416  0.12982124  0.95337947  1
  C  C95  1  0.36876416  0.37017876  0.04662053  1
  C  C96  1  0.39223517  0.91606364  0.00805757  1
  C  C97  1  0.39223517  0.58393636  0.99194243  1
  C  C98  1  0.60776483  0.08393636  0.99194243  1
  C  C99  1  0.60776483  0.41606364  0.00805757  1
  C  C100  1  0.86690099  0.59689538  0.05342120  1
  C  C101  1  0.86690099  0.90310462  0.94657880  1
  C  C102  1  0.13309901  0.40310462  0.94657880  1
  C  C103  1  0.13309901  0.09689538  0.05342120  1
  C  C104  1  0.09305843  0.55215521  0.10182463  1
  C  C105  1  0.09305843  0.94784479  0.89817537  1
  C  C106  1  0.90694157  0.44784479  0.89817537  1
  C  C107  1  0.90694157  0.05215521  0.10182463  1
  C  C108  1  0.08919579  0.67969498  0.05468661  1
  C  C109  1  0.08919579  0.82030502  0.94531339  1
  C  C110  1  0.91080421  0.32030502  0.94531339  1
  C  C111  1  0.91080421  0.17969498  0.05468661  1
  C  C112  1  0.78966309  0.59834845  0.19998492  1
  C  C113  1  0.78966309  0.90165155  0.80001508  1
  C  C114  1  0.21033691  0.40165155  0.80001508  1
  C  C115  1  0.21033691  0.09834845  0.19998492  1
  C  C116  1  0.67633616  0.61837164  0.29185015  1
  C  C117  1  0.67633616  0.88162836  0.70814985  1
  C  C118  1  0.32366384  0.38162836  0.70814985  1
  C  C119  1  0.32366384  0.11837164  0.29185015  1
  C  C120  1  0.33910672  0.98901637  0.24552744  1
  C  C121  1  0.33910672  0.51098363  0.75447256  1
  C  C122  1  0.66089328  0.01098363  0.75447256  1
  C  C123  1  0.66089328  0.48901637  0.24552744  1
  C  C124  1  0.04143876  0.64033428  0.29440212  1
  C  C125  1  0.04143876  0.85966572  0.70559788  1
  C  C126  1  0.95856124  0.35966572  0.70559788  1
  C  C127  1  0.95856124  0.14033428  0.29440212  1
  C  C128  1  0.27300251  0.59600197  0.24880012  1
  C  C129  1  0.27300251  0.90399803  0.75119988  1
  C  C130  1  0.72699749  0.40399803  0.75119988  1
  C  C131  1  0.72699749  0.09600197  0.24880012  1
  C  C132  1  0.11253160  0.69457952  0.20430639  1
  C  C133  1  0.11253160  0.80542048  0.79569361  1
  C  C134  1  0.88746840  0.30542048  0.79569361  1
  C  C135  1  0.88746840  0.19457952  0.20430639  1
  C  C136  1  0.86865879  0.59142851  0.69676726  1
  C  C137  1  0.86865879  0.90857149  0.30323274  1
  C  C138  1  0.13134121  0.40857149  0.30323274  1
  C  C139  1  0.13134121  0.09142851  0.69676726  1
  C  C140  1  0.08923515  0.54271642  0.64649905  1
  C  C141  1  0.08923515  0.95728358  0.35350095  1
  C  C142  1  0.91076485  0.45728358  0.35350095  1
  C  C143  1  0.91076485  0.04271642  0.64649905  1
  C  C144  1  0.09733497  0.66946532  0.69638374  1
  C  C145  1  0.09733497  0.83053468  0.30361626  1
  C  C146  1  0.90266503  0.33053468  0.30361626  1
  C  C147  1  0.90266503  0.16946532  0.69638374  1
  C  C148  1  0.79852738  0.75333402  0.37557622  1
  C  C149  1  0.79852738  0.74666598  0.62442378  1
  C  C150  1  0.20147262  0.24666598  0.62442378  1
  C  C151  1  0.20147262  0.25333402  0.37557622  1
  C  C152  1  0.58343332  0.79410407  0.43159029  1
  C  C153  1  0.58343332  0.70589593  0.56840971  1
  C  C154  1  0.41656668  0.20589593  0.56840971  1
  C  C155  1  0.41656668  0.29410407  0.43159029  1
  C  C156  1  0.57297915  0.80010888  0.32897285  1
  C  C157  1  0.57297915  0.69989112  0.67102715  1
  C  C158  1  0.42702085  0.19989112  0.67102715  1
  C  C159  1  0.42702085  0.30010888  0.32897285  1
  C  C160  1  0.69466257  0.89151376  0.54500886  1
  C  C161  1  0.69466257  0.60848624  0.45499114  1
  C  C162  1  0.30533743  0.10848624  0.45499114  1
  C  C163  1  0.30533743  0.39151376  0.54500886  1
  C  C164  1  0.83692735  0.91494423  0.45993169  1
  C  C165  1  0.83692735  0.58505577  0.54006831  1
  C  C166  1  0.16307265  0.08505577  0.54006831  1
  C  C167  1  0.16307265  0.41494423  0.45993169  1
  C  C168  1  0.29678503  0.52426525  0.50525197  1
  C  C169  1  0.29678503  0.97573475  0.49474803  1
  C  C170  1  0.70321497  0.47573475  0.49474803  1
  C  C171  1  0.70321497  0.02426525  0.50525197  1
  C  C172  1  0.00929067  0.86290447  0.07291883  1
  C  C173  1  0.00929067  0.63709553  0.92708117  1
  C  C174  1  0.99070933  0.13709553  0.92708117  1
  C  C175  1  0.99070933  0.36290447  0.07291883  1
  C  C176  1  0.99766075  0.87205950  0.17543044  1
  C  C177  1  0.99766075  0.62794050  0.82456956  1
  C  C178  1  0.00233925  0.12794050  0.82456956  1
  C  C179  1  0.00233925  0.37205950  0.17543044  1
  C  C180  1  0.84948683  0.77349651  0.12534403  1
  C  C181  1  0.84948683  0.72650349  0.87465597  1
  C  C182  1  0.15051317  0.22650349  0.87465597  1
  C  C183  1  0.15051317  0.27349651  0.12534403  1
  C  C184  1  0.50745221  0.00541894  0.36980859  1
  C  C185  1  0.50745221  0.49458106  0.63019141  1
  C  C186  1  0.49254779  0.99458106  0.63019141  1
  C  C187  1  0.49254779  0.50541894  0.36980859  1
  C  C188  1  0.52537223  0.01410662  0.12848900  1
  C  C189  1  0.52537223  0.48589338  0.87151100  1
  C  C190  1  0.47462777  0.98589338  0.87151100  1
  C  C191  1  0.47462777  0.51410662  0.12848900  1
