# generated using pymatgen
data_CuNiC10
_symmetry_space_group_name_H-M   'P 1'
_cell_length_a   5.66425200
_cell_length_b   5.17779900
_cell_length_c   10.58970736
_cell_angle_alpha   61.90255754
_cell_angle_beta   90.00000000
_cell_angle_gamma   90.00000000
_symmetry_Int_Tables_number   1
_chemical_formula_structural   CuNiC10
_chemical_formula_sum   'Cu2 Ni2 C20'
_cell_volume   273.97637318
_cell_formula_units_Z   2
loop_
 _symmetry_equiv_pos_site_id
 _symmetry_equiv_pos_as_xyz
  1  'x, y, z'
loop_
 _atom_site_type_symbol
 _atom_site_label
 _atom_site_symmetry_multiplicity
 _atom_site_fract_x
 _atom_site_fract_y
 _atom_site_fract_z
 _atom_site_occupancy
  Ni  Ni0  1  0.66635900  0.00000000  0.75000000  1
  Ni  Ni1  1  0.33364100  0.00000000  0.25000000  1
  Cu  Cu2  1  0.36466900  0.50000000  0.75000000  1
  Cu  Cu3  1  0.63533100  0.50000000  0.25000000  1
  C  C4  1  0.15339800  0.24606600  0.50056900  1
  C  C5  1  0.15339800  0.75393400  0.99943100  1
  C  C6  1  0.84660200  0.75393400  0.49943100  1
  C  C7  1  0.84660200  0.24606600  0.00056900  1
  C  C8  1  0.39186800  0.73541100  0.86684400  1
  C  C9  1  0.39186800  0.26458900  0.63315600  1
  C  C10  1  0.60813200  0.26458900  0.13315600  1
  C  C11  1  0.60813200  0.73541100  0.36684400  1
  C  C12  1  0.87834800  0.20759300  0.38334800  1
  C  C13  1  0.87834800  0.79240700  0.11665200  1
  C  C14  1  0.12165200  0.79240700  0.61665200  1
  C  C15  1  0.12165200  0.20759300  0.88334800  1
  C  C16  1  0.63325000  0.20288700  0.85825100  1
  C  C17  1  0.63325000  0.79711300  0.64174900  1
  C  C18  1  0.36675000  0.79711300  0.14174900  1
  C  C19  1  0.36675000  0.20288700  0.35825100  1
  C  C20  1  0.88025100  0.70200900  0.88324700  1
  C  C21  1  0.11974900  0.29799100  0.11675300  1
  C  C22  1  0.88025100  0.29799100  0.61675300  1
  C  C23  1  0.11974900  0.70200900  0.38324700  1
