# generated using pymatgen
data_Cu7(Ni3C4)2
_symmetry_space_group_name_H-M   'P 1'
_cell_length_a   3.73496200
_cell_length_b   10.21311300
_cell_length_c   18.00732900
_cell_angle_alpha   90.00000000
_cell_angle_beta   90.00000000
_cell_angle_gamma   90.00000000
_symmetry_Int_Tables_number   1
_chemical_formula_structural   Cu7(Ni3C4)2
_chemical_formula_sum   'Cu14 Ni12 C16'
_cell_volume   686.90017024
_cell_formula_units_Z   2
loop_
 _symmetry_equiv_pos_site_id
 _symmetry_equiv_pos_as_xyz
  1  'x, y, z'
loop_
 _atom_site_type_symbol
 _atom_site_label
 _atom_site_symmetry_multiplicity
 _atom_site_fract_x
 _atom_site_fract_y
 _atom_site_fract_z
 _atom_site_occupancy
  C  C0  1  0.50000000  0.46986600  0.88763200  1
  C  C1  1  0.50000000  0.46986600  0.11236800  1
  C  C2  1  0.00000000  0.53013400  0.61236800  1
  C  C3  1  0.00000000  0.53013400  0.38763200  1
  C  C4  1  0.00000000  0.72293300  0.00000000  1
  C  C5  1  0.50000000  0.27706700  0.50000000  1
  C  C6  1  0.00000000  0.08788200  0.83674300  1
  C  C7  1  0.00000000  0.08788200  0.16325700  1
  C  C8  1  0.50000000  0.91211800  0.66325700  1
  C  C9  1  0.50000000  0.91211800  0.33674300  1
  C  C10  1  0.00000000  0.74676100  0.80622200  1
  C  C11  1  0.00000000  0.74676100  0.19377800  1
  C  C12  1  0.50000000  0.25323900  0.69377800  1
  C  C13  1  0.50000000  0.25323900  0.30622200  1
  C  C14  1  0.50000000  0.18469800  0.00000000  1
  C  C15  1  0.00000000  0.81530200  0.50000000  1
  Ni  Ni16  1  0.00000000  0.35730600  0.00000000  1
  Ni  Ni17  1  0.50000000  0.64269400  0.50000000  1
  Ni  Ni18  1  0.50000000  0.64822500  0.73521300  1
  Ni  Ni19  1  0.50000000  0.64822500  0.26478700  1
  Ni  Ni20  1  0.00000000  0.35177500  0.76478700  1
  Ni  Ni21  1  0.00000000  0.35177500  0.23521300  1
  Ni  Ni22  1  0.00000000  0.03279900  0.00000000  1
  Ni  Ni23  1  0.50000000  0.96720100  0.50000000  1
  Ni  Ni24  1  0.50000000  0.85302600  0.88212900  1
  Ni  Ni25  1  0.50000000  0.85302600  0.11787100  1
  Ni  Ni26  1  0.00000000  0.14697400  0.61787100  1
  Ni  Ni27  1  0.00000000  0.14697400  0.38212900  1
  Cu  Cu28  1  0.50000000  0.59276600  0.00000000  1
  Cu  Cu29  1  0.00000000  0.40723400  0.50000000  1
  Cu  Cu30  1  0.00000000  0.61246800  0.87556100  1
  Cu  Cu31  1  0.00000000  0.61246800  0.12443900  1
  Cu  Cu32  1  0.50000000  0.38753200  0.62443900  1
  Cu  Cu33  1  0.50000000  0.38753200  0.37556100  1
  Cu  Cu34  1  0.00000000  0.89400100  0.74967300  1
  Cu  Cu35  1  0.00000000  0.89400100  0.25032700  1
  Cu  Cu36  1  0.50000000  0.10599900  0.75032700  1
  Cu  Cu37  1  0.50000000  0.10599900  0.24967300  1
  Cu  Cu38  1  0.50000000  0.20651900  0.89888700  1
  Cu  Cu39  1  0.50000000  0.20651900  0.10111300  1
  Cu  Cu40  1  0.00000000  0.79348100  0.60111300  1
  Cu  Cu41  1  0.00000000  0.79348100  0.39888700  1
