# generated using pymatgen
data_CuNiC5
_symmetry_space_group_name_H-M   'P 1'
_cell_length_a   8.55317445
_cell_length_b   8.55317445
_cell_length_c   8.55317516
_cell_angle_alpha   107.88318982
_cell_angle_beta   107.88318982
_cell_angle_gamma   107.88318693
_symmetry_Int_Tables_number   1
_chemical_formula_structural   CuNiC5
_chemical_formula_sum   'Cu6 Ni6 C30'
_cell_volume   508.03061522
_cell_formula_units_Z   6
loop_
 _symmetry_equiv_pos_site_id
 _symmetry_equiv_pos_as_xyz
  1  'x, y, z'
loop_
 _atom_site_type_symbol
 _atom_site_label
 _atom_site_symmetry_multiplicity
 _atom_site_fract_x
 _atom_site_fract_y
 _atom_site_fract_z
 _atom_site_occupancy
  C  C0  1  0.78958400  0.56640600  0.39120100  1
  C  C1  1  0.27630900  0.87387700  0.10646300  1
  C  C2  1  0.87387700  0.10646300  0.27630900  1
  C  C3  1  0.10646300  0.27630900  0.87387700  1
  C  C4  1  0.56640600  0.39120100  0.78958400  1
  C  C5  1  0.39120100  0.78958400  0.56640600  1
  Ni  Ni6  1  0.76218700  0.94691300  0.54227100  1
  Ni  Ni7  1  0.94691300  0.54227100  0.76218700  1
  Ni  Ni8  1  0.54227100  0.76218700  0.94691300  1
  Ni  Ni9  1  0.23058000  0.05534800  0.46536300  1
  Ni  Ni10  1  0.05534800  0.46536300  0.23058000  1
  Ni  Ni11  1  0.46536300  0.23058000  0.05534800  1
  Cu  Cu12  1  0.71849500  0.12416100  0.90539700  1
  Cu  Cu13  1  0.12416100  0.90539700  0.71849500  1
  Cu  Cu14  1  0.90539700  0.71849500  0.12416100  1
  Cu  Cu15  1  0.43341300  0.61202300  0.20419900  1
  Cu  Cu16  1  0.61202300  0.20419900  0.43341300  1
  Cu  Cu17  1  0.20419900  0.43341300  0.61202300  1
  C  C18  1  0.29525700  0.62079900  0.30151100  1
  C  C19  1  0.64288400  0.70270300  0.36955000  1
  C  C20  1  0.36955000  0.64288400  0.70270300  1
  C  C21  1  0.99684700  0.93773200  0.26895300  1
  C  C22  1  0.93773200  0.26895300  0.99684700  1
  C  C23  1  0.26895300  0.99684700  0.93773200  1
  C  C24  1  0.00612300  0.02342300  0.68926700  1
  C  C25  1  0.02342300  0.68926700  0.00612300  1
  C  C26  1  0.68926700  0.00612300  0.02342300  1
  C  C27  1  0.70270300  0.36955000  0.64288400  1
  C  C28  1  0.30151100  0.29525700  0.62079900  1
  C  C29  1  0.62079900  0.30151100  0.29525700  1
  C  C30  1  0.39831400  0.06334400  0.36778100  1
  C  C31  1  0.36778100  0.39831400  0.06334400  1
  C  C32  1  0.06334400  0.36778100  0.39831400  1
  C  C33  1  0.64666200  0.97994100  0.69263300  1
  C  C34  1  0.69263300  0.64666200  0.97994100  1
  C  C35  1  0.97994100  0.69263300  0.64666200  1
  C  C36  1  0.91778800  0.59599000  0.23942300  1
  C  C37  1  0.23942300  0.91778800  0.59599000  1
  C  C38  1  0.59599000  0.23942300  0.91778800  1
  C  C39  1  0.09018500  0.42147900  0.73561900  1
  C  C40  1  0.73561900  0.09018500  0.42147900  1
  C  C41  1  0.42147900  0.73561900  0.09018500  1
