# generated using pymatgen
data_Cu3Ni3C16
_symmetry_space_group_name_H-M   'P 1'
_cell_length_a   8.79701000
_cell_length_b   8.92654800
_cell_length_c   17.70063842
_cell_angle_alpha   59.79571606
_cell_angle_beta   90.00000000
_cell_angle_gamma   90.00000000
_symmetry_Int_Tables_number   1
_chemical_formula_structural   Cu3Ni3C16
_chemical_formula_sum   'Cu12 Ni12 C64'
_cell_volume   1201.26966895
_cell_formula_units_Z   4
loop_
 _symmetry_equiv_pos_site_id
 _symmetry_equiv_pos_as_xyz
  1  'x, y, z'
loop_
 _atom_site_type_symbol
 _atom_site_label
 _atom_site_symmetry_multiplicity
 _atom_site_fract_x
 _atom_site_fract_y
 _atom_site_fract_z
 _atom_site_occupancy
  C  C0  1  0.94154700  0.88025400  0.09655900  1
  C  C1  1  0.43760000  0.57468600  0.31723300  1
  C  C2  1  0.06737500  0.30406300  0.53830000  1
  C  C3  1  0.70156800  0.99539800  0.75173400  1
  C  C4  1  0.20156800  0.00460200  0.74826600  1
  C  C5  1  0.56737500  0.69593700  0.96170000  1
  C  C6  1  0.93760000  0.42531400  0.18276700  1
  C  C7  1  0.44154700  0.11974600  0.40344100  1
  C  C8  1  0.55845300  0.88025400  0.59655900  1
  C  C9  1  0.06240000  0.57468600  0.81723300  1
  C  C10  1  0.43262500  0.30406300  0.03830000  1
  C  C11  1  0.79843200  0.99539800  0.25173400  1
  C  C12  1  0.29843200  0.00460200  0.24826600  1
  C  C13  1  0.93262500  0.69593700  0.46170000  1
  C  C14  1  0.56240000  0.42531400  0.68276700  1
  C  C15  1  0.05845300  0.11974600  0.90344100  1
  Ni  Ni16  1  0.35975200  0.03311100  0.90952400  1
  Ni  Ni17  1  0.14621700  0.64848800  0.26922800  1
  Ni  Ni18  1  0.36695700  0.33169800  0.57227400  1
  Ni  Ni19  1  0.86695700  0.66830200  0.92772600  1
  Ni  Ni20  1  0.64621700  0.35151200  0.23077200  1
  Ni  Ni21  1  0.85975200  0.96688900  0.59047600  1
  Ni  Ni22  1  0.14024800  0.03311100  0.40952400  1
  Ni  Ni23  1  0.35378300  0.64848800  0.76922800  1
  Ni  Ni24  1  0.13304300  0.33169800  0.07227400  1
  Ni  Ni25  1  0.63304300  0.66830200  0.42772600  1
  Ni  Ni26  1  0.85378300  0.35151200  0.73077200  1
  Ni  Ni27  1  0.64024800  0.96688900  0.09047600  1
  Cu  Cu28  1  0.72643300  0.03232500  0.90834700  1
  Cu  Cu29  1  0.78324200  0.64861200  0.26530300  1
  Cu  Cu30  1  0.73232400  0.31560500  0.57370800  1
  Cu  Cu31  1  0.23232400  0.68439500  0.92629200  1
  Cu  Cu32  1  0.28324200  0.35138800  0.23469700  1
  Cu  Cu33  1  0.22643300  0.96767500  0.59165300  1
  Cu  Cu34  1  0.77356700  0.03232500  0.40834700  1
  Cu  Cu35  1  0.71675800  0.64861200  0.76530300  1
  Cu  Cu36  1  0.76767600  0.31560500  0.07370800  1
  Cu  Cu37  1  0.26767600  0.68439500  0.42629200  1
  Cu  Cu38  1  0.21675800  0.35138800  0.73469700  1
  Cu  Cu39  1  0.27356700  0.96767500  0.09165300  1
  C  C40  1  0.55698300  0.12127400  0.89609800  1
  C  C41  1  0.77743100  0.94461800  0.01224600  1
  C  C42  1  0.14121900  0.82086600  0.14853000  1
  C  C43  1  0.21227700  0.48264200  0.47981300  1
  C  C44  1  0.21909400  0.13948800  0.81135300  1
  C  C45  1  0.64085700  0.60700300  0.33049100  1
  C  C46  1  0.71799300  0.25406200  0.68118300  1
  C  C47  1  0.94996900  0.61455700  0.31300000  1
  C  C48  1  0.56815800  0.27832800  0.54521300  1
  C  C49  1  0.71894600  0.88660800  0.87816300  1
  C  C50  1  0.87049600  0.19653500  0.56716800  1
  C  C51  1  0.77600300  0.53864800  0.21276300  1
  C  C52  1  0.37049600  0.80346500  0.93283200  1
  C  C53  1  0.21894600  0.11339200  0.62183700  1
  C  C54  1  0.27600300  0.46135200  0.28723700  1
  C  C55  1  0.06815800  0.72167200  0.95478700  1
  C  C56  1  0.44996900  0.38544300  0.18700000  1
  C  C57  1  0.21799300  0.74593800  0.81881700  1
  C  C58  1  0.71909400  0.86051200  0.68864700  1
  C  C59  1  0.14085700  0.39299700  0.16950900  1
  C  C60  1  0.71227700  0.51735800  0.02018700  1
  C  C61  1  0.64121900  0.17913400  0.35147000  1
  C  C62  1  0.27743100  0.05538200  0.48775400  1
  C  C63  1  0.05698300  0.87872600  0.60390200  1
  C  C64  1  0.94301700  0.12127400  0.39609800  1
  C  C65  1  0.72256900  0.94461800  0.51224600  1
  C  C66  1  0.35878100  0.82086600  0.64853000  1
  C  C67  1  0.28772300  0.48264200  0.97981300  1
  C  C68  1  0.85914300  0.60700300  0.83049100  1
  C  C69  1  0.28090600  0.13948800  0.31135300  1
  C  C70  1  0.78200700  0.25406200  0.18118300  1
  C  C71  1  0.55003100  0.61455700  0.81300000  1
  C  C72  1  0.93184200  0.27832800  0.04521300  1
  C  C73  1  0.72399700  0.53864800  0.71276300  1
  C  C74  1  0.78105400  0.88660800  0.37816300  1
  C  C75  1  0.62950400  0.19653500  0.06716800  1
  C  C76  1  0.22399700  0.46135200  0.78723700  1
  C  C77  1  0.12950400  0.80346500  0.43283200  1
  C  C78  1  0.28105400  0.11339200  0.12183700  1
  C  C79  1  0.43184200  0.72167200  0.45478700  1
  C  C80  1  0.05003100  0.38544300  0.68700000  1
  C  C81  1  0.28200700  0.74593800  0.31881700  1
  C  C82  1  0.35914300  0.39299700  0.66950900  1
  C  C83  1  0.78090600  0.86051200  0.18864700  1
  C  C84  1  0.78772300  0.51735800  0.52018700  1
  C  C85  1  0.85878100  0.17913400  0.85147000  1
  C  C86  1  0.22256900  0.05538200  0.98775400  1
  C  C87  1  0.44301700  0.87872600  0.10390200  1
