# generated using pymatgen
data_Cu2Ni3C32
_symmetry_space_group_name_H-M   'P 1'
_cell_length_a   8.60681585
_cell_length_b   8.76844595
_cell_length_c   8.80459324
_cell_angle_alpha   59.94062551
_cell_angle_beta   58.06660532
_cell_angle_gamma   58.84079614
_symmetry_Int_Tables_number   1
_chemical_formula_structural   Cu2Ni3C32
_chemical_formula_sum   'Cu2 Ni3 C32'
_cell_volume   458.32972804
_cell_formula_units_Z   1
loop_
 _symmetry_equiv_pos_site_id
 _symmetry_equiv_pos_as_xyz
  1  'x, y, z'
loop_
 _atom_site_type_symbol
 _atom_site_label
 _atom_site_symmetry_multiplicity
 _atom_site_fract_x
 _atom_site_fract_y
 _atom_site_fract_z
 _atom_site_occupancy
  C  C0  1  0.25500800  0.62822500  0.24434800  1
  Ni  Ni1  1  0.04617400  0.65130100  0.65531700  1
  Ni  Ni2  1  0.45817700  0.86060100  0.83893600  1
  Ni  Ni3  1  0.93666800  0.35099000  0.35186600  1
  C  C4  1  0.56699500  0.13671500  0.15098600  1
  Cu  Cu5  1  0.99448000  0.00784700  0.99316200  1
  Cu  Cu6  1  0.50450400  0.49561800  0.50468900  1
  C  C7  1  0.25454900  0.24004500  0.54913900  1
  C  C8  1  0.24944800  0.95461500  0.24874900  1
  C  C9  1  0.23973300  0.54070800  0.96035400  1
  C  C10  1  0.72519200  0.44931700  0.06904400  1
  C  C11  1  0.75660300  0.05986700  0.74674400  1
  C  C12  1  0.77752300  0.74103300  0.42662300  1
  C  C13  1  0.06299500  0.10519800  0.32228100  1
  C  C14  1  0.05111500  0.49606200  0.09711400  1
  C  C15  1  0.08075500  0.32185400  0.49502100  1
  C  C16  1  0.21079200  0.10323000  0.75665800  1
  C  C17  1  0.44068200  0.14212400  0.41123200  1
  C  C18  1  0.29805500  0.40798200  0.53014400  1
  C  C19  1  0.21169800  0.92562000  0.10717300  1
  C  C20  1  0.29019300  0.74486600  0.39175600  1
  C  C21  1  0.52607200  0.59299000  0.05433600  1
  C  C22  1  0.29538800  0.55500000  0.75477400  1
  C  C23  1  0.76770700  0.24604700  0.07849500  1
  C  C24  1  0.56970500  0.02847000  0.81842000  1
  C  C25  1  0.43133100  0.99693000  0.17450300  1
  C  C26  1  0.19841000  0.73695200  0.96933600  1
  C  C27  1  0.70215400  0.42639800  0.26741100  1
  C  C28  1  0.40246300  0.39375700  0.03550500  1
  C  C29  1  0.72750700  0.26247600  0.59030800  1
  C  C30  1  0.78003900  0.08492300  0.89987800  1
  C  C31  1  0.73312200  0.59058500  0.41976300  1
  C  C32  1  0.61905800  0.79616300  0.59800600  1
  C  C33  1  0.78769000  0.90121800  0.23067300  1
  C  C34  1  0.98088900  0.67504500  0.42791300  1
  C  C35  1  0.88959700  0.51038800  0.90252100  1
  C  C36  1  0.94315100  0.91027100  0.67682400  1
