# generated using pymatgen
data_Cu9Ni8C3
_symmetry_space_group_name_H-M   'P 1'
_cell_length_a   6.77120227
_cell_length_b   12.79024100
_cell_length_c   11.86031593
_cell_angle_alpha   90.00000000
_cell_angle_beta   84.71388841
_cell_angle_gamma   90.00000000
_symmetry_Int_Tables_number   1
_chemical_formula_structural   Cu9Ni8C3
_chemical_formula_sum   'Cu18 Ni16 C6'
_cell_volume   1022.79784732
_cell_formula_units_Z   2
loop_
 _symmetry_equiv_pos_site_id
 _symmetry_equiv_pos_as_xyz
  1  'x, y, z'
loop_
 _atom_site_type_symbol
 _atom_site_label
 _atom_site_symmetry_multiplicity
 _atom_site_fract_x
 _atom_site_fract_y
 _atom_site_fract_z
 _atom_site_occupancy
  C  C0  1  0.02756300  0.07137100  0.94596700  1
  C  C1  1  0.97243700  0.57137100  0.55403300  1
  C  C2  1  0.56694200  0.98687800  0.49475200  1
  C  C3  1  0.43305800  0.48687800  0.00524800  1
  C  C4  1  0.23729800  0.96954600  0.49544100  1
  C  C5  1  0.76270200  0.46954600  0.00455900  1
  Ni  Ni6  1  0.62707600  0.90037400  0.65515600  1
  Ni  Ni7  1  0.63606100  0.08963300  0.33432200  1
  Ni  Ni8  1  0.37292400  0.40037400  0.84484400  1
  Ni  Ni9  1  0.36393900  0.58963300  0.16567800  1
  Ni  Ni10  1  0.41419700  0.64324400  0.90801900  1
  Ni  Ni11  1  0.32064800  0.34841200  0.10929600  1
  Ni  Ni12  1  0.67935200  0.84841200  0.39070400  1
  Ni  Ni13  1  0.58580300  0.14324400  0.59198100  1
  Ni  Ni14  1  0.09271800  0.10276000  0.63886200  1
  Ni  Ni15  1  0.21171700  0.85250000  0.35985500  1
  Ni  Ni16  1  0.90728200  0.60276000  0.86113800  1
  Ni  Ni17  1  0.78828300  0.35250000  0.14014500  1
  Ni  Ni18  1  0.84128200  0.61592600  0.10008700  1
  Ni  Ni19  1  0.84055100  0.35849700  0.86239700  1
  Ni  Ni20  1  0.15944900  0.85849700  0.63760300  1
  Ni  Ni21  1  0.15871800  0.11592600  0.39991300  1
  Cu  Cu22  1  0.08448400  0.21906200  0.98684600  1
  Cu  Cu23  1  0.94495800  0.85929300  0.97819600  1
  Cu  Cu24  1  0.91551600  0.71906200  0.51315400  1
  Cu  Cu25  1  0.05504200  0.35929300  0.52180400  1
  Cu  Cu26  1  0.01101600  0.00572100  0.15888500  1
  Cu  Cu27  1  0.02511700  0.06036900  0.76370800  1
  Cu  Cu28  1  0.97488300  0.56036900  0.73629200  1
  Cu  Cu29  1  0.98898400  0.50572100  0.34111500  1
  Cu  Cu30  1  0.36632800  0.01409600  0.93605300  1
  Cu  Cu31  1  0.16072200  0.06501800  0.15013500  1
  Cu  Cu32  1  0.63367200  0.51409600  0.56394700  1
  Cu  Cu33  1  0.83927800  0.56501800  0.34986500  1
  Cu  Cu34  1  0.76787300  0.83344600  0.98975400  1
  Cu  Cu35  1  0.68002800  0.05011800  0.96949800  1
  Cu  Cu36  1  0.31997200  0.55011800  0.53050200  1
  Cu  Cu37  1  0.23212700  0.33344600  0.51024600  1
  Cu  Cu38  1  0.50828100  0.08873300  0.93939600  1
  Cu  Cu39  1  0.49171900  0.58873300  0.56060400  1
