# generated using pymatgen
data_Cu2NiC7
_symmetry_space_group_name_H-M   'P 1'
_cell_length_a   5.11871500
_cell_length_b   5.39029300
_cell_length_c   7.43469100
_cell_angle_alpha   90.00000000
_cell_angle_beta   90.00000000
_cell_angle_gamma   90.00000000
_symmetry_Int_Tables_number   1
_chemical_formula_structural   Cu2NiC7
_chemical_formula_sum   'Cu4 Ni2 C14'
_cell_volume   205.13333723
_cell_formula_units_Z   2
loop_
 _symmetry_equiv_pos_site_id
 _symmetry_equiv_pos_as_xyz
  1  'x, y, z'
loop_
 _atom_site_type_symbol
 _atom_site_label
 _atom_site_symmetry_multiplicity
 _atom_site_fract_x
 _atom_site_fract_y
 _atom_site_fract_z
 _atom_site_occupancy
  C  C0  1  0.01827000  0.67660600  0.00000000  1
  C  C1  1  0.51827000  0.32339400  0.50000000  1
  Ni  Ni2  1  0.47595900  0.19159100  0.00000000  1
  Ni  Ni3  1  0.97595900  0.80840900  0.50000000  1
  Cu  Cu4  1  0.99802300  0.24313900  0.74988900  1
  Cu  Cu5  1  0.99802300  0.24313900  0.25011100  1
  Cu  Cu6  1  0.49802300  0.75686100  0.24988900  1
  Cu  Cu7  1  0.49802300  0.75686100  0.75011100  1
  C  C8  1  0.10685800  0.19070300  0.50000000  1
  C  C9  1  0.20824000  0.96224500  0.81911900  1
  C  C10  1  0.20824000  0.96224500  0.18088100  1
  C  C11  1  0.31193200  0.44093500  0.80937900  1
  C  C12  1  0.31193200  0.44093500  0.19062100  1
  C  C13  1  0.36297600  0.71723200  0.50000000  1
  C  C14  1  0.60685800  0.80929700  0.00000000  1
  C  C15  1  0.70824000  0.03775500  0.31911900  1
  C  C16  1  0.70824000  0.03775500  0.68088100  1
  C  C17  1  0.81193200  0.55906500  0.69062100  1
  C  C18  1  0.81193200  0.55906500  0.30937900  1
  C  C19  1  0.86297600  0.28276800  0.00000000  1
