# generated using pymatgen
data_Cu9(NiC)2
_symmetry_space_group_name_H-M   'P 1'
_cell_length_a   5.67482300
_cell_length_b   10.58516956
_cell_length_c   14.91735025
_cell_angle_alpha   95.74464370
_cell_angle_beta   90.00000000
_cell_angle_gamma   90.00000000
_symmetry_Int_Tables_number   1
_chemical_formula_structural   Cu9(NiC)2
_chemical_formula_sum   'Cu36 Ni8 C8'
_cell_volume   891.56960031
_cell_formula_units_Z   4
loop_
 _symmetry_equiv_pos_site_id
 _symmetry_equiv_pos_as_xyz
  1  'x, y, z'
loop_
 _atom_site_type_symbol
 _atom_site_label
 _atom_site_symmetry_multiplicity
 _atom_site_fract_x
 _atom_site_fract_y
 _atom_site_fract_z
 _atom_site_occupancy
  C  C0  1  0.00000000  0.50000000  0.50000000  1
  C  C1  1  0.00000000  0.00000000  0.00000000  1
  C  C2  1  0.28910200  0.90469300  0.64378800  1
  C  C3  1  0.71089800  0.09530700  0.35621200  1
  C  C4  1  0.28910200  0.59530700  0.85621200  1
  C  C5  1  0.71089800  0.40469300  0.14378800  1
  C  C6  1  0.95919300  0.75000000  0.25000000  1
  C  C7  1  0.04080700  0.25000000  0.75000000  1
  Ni  Ni8  1  0.56476900  0.75000000  0.75000000  1
  Ni  Ni9  1  0.43523100  0.25000000  0.25000000  1
  Ni  Ni10  1  0.32955600  0.83782400  0.04287300  1
  Ni  Ni11  1  0.67044400  0.16217600  0.95712700  1
  Ni  Ni12  1  0.32955600  0.66217600  0.45712700  1
  Ni  Ni13  1  0.67044400  0.33782400  0.54287300  1
  Ni  Ni14  1  0.00000000  0.50000000  0.00000000  1
  Ni  Ni15  1  0.00000000  0.00000000  0.50000000  1
  Cu  Cu16  1  0.12841600  0.80303000  0.32442700  1
  Cu  Cu17  1  0.87158400  0.19697000  0.67557300  1
  Cu  Cu18  1  0.12841600  0.69697000  0.17557300  1
  Cu  Cu19  1  0.87158400  0.30303000  0.82442700  1
  Cu  Cu20  1  0.91509100  0.34350200  0.18107800  1
  Cu  Cu21  1  0.08490900  0.65649800  0.81892200  1
  Cu  Cu22  1  0.91509100  0.15649800  0.31892200  1
  Cu  Cu23  1  0.08490900  0.84350200  0.68107800  1
  Cu  Cu24  1  0.84904500  0.49374500  0.39370700  1
  Cu  Cu25  1  0.15095500  0.50625500  0.60629300  1
  Cu  Cu26  1  0.84904500  0.00625500  0.10629300  1
  Cu  Cu27  1  0.15095500  0.99374500  0.89370700  1
  Cu  Cu28  1  0.49295400  0.76667300  0.04871300  1
  Cu  Cu29  1  0.50704600  0.23332700  0.95128700  1
  Cu  Cu30  1  0.49295400  0.73332700  0.45128700  1
  Cu  Cu31  1  0.50704600  0.26667300  0.54871300  1
  Cu  Cu32  1  0.33853800  0.54016300  0.43112000  1
  Cu  Cu33  1  0.66146200  0.45983700  0.56888000  1
  Cu  Cu34  1  0.33853800  0.95983700  0.06888000  1
  Cu  Cu35  1  0.66146200  0.04016300  0.93112000  1
  Cu  Cu36  1  0.45701300  0.37909500  0.17248800  1
  Cu  Cu37  1  0.54298700  0.62090500  0.82751200  1
  Cu  Cu38  1  0.45701300  0.12090500  0.32751200  1
  Cu  Cu39  1  0.54298700  0.87909500  0.67248800  1
  Cu  Cu40  1  0.12566200  0.80028600  0.00722100  1
  Cu  Cu41  1  0.87433800  0.19971400  0.99277900  1
  Cu  Cu42  1  0.12566200  0.69971400  0.49277900  1
  Cu  Cu43  1  0.87433800  0.30028600  0.50722100  1
  Cu  Cu44  1  0.27665200  0.50681000  0.93101800  1
  Cu  Cu45  1  0.72334800  0.49319000  0.06898200  1
  Cu  Cu46  1  0.27665200  0.99319000  0.56898200  1
  Cu  Cu47  1  0.72334800  0.00681000  0.43101800  1
  Cu  Cu48  1  0.78465600  0.85334800  0.22582200  1
  Cu  Cu49  1  0.21534400  0.14665200  0.77417800  1
  Cu  Cu50  1  0.78465600  0.64665200  0.27417800  1
  Cu  Cu51  1  0.21534400  0.35334800  0.72582200  1
