# generated using pymatgen
data_Cu6Ni2C
_symmetry_space_group_name_H-M   'P 1'
_cell_length_a   21.05021998
_cell_length_b   20.61412499
_cell_length_c   7.14977107
_cell_angle_alpha   83.58207700
_cell_angle_beta   76.69180255
_cell_angle_gamma   19.72612046
_symmetry_Int_Tables_number   1
_chemical_formula_structural   Cu6Ni2C
_chemical_formula_sum   'Cu36 Ni12 C6'
_cell_volume   965.68498354
_cell_formula_units_Z   6
loop_
 _symmetry_equiv_pos_site_id
 _symmetry_equiv_pos_as_xyz
  1  'x, y, z'
loop_
 _atom_site_type_symbol
 _atom_site_label
 _atom_site_symmetry_multiplicity
 _atom_site_fract_x
 _atom_site_fract_y
 _atom_site_fract_z
 _atom_site_occupancy
  C  C0  1  0.38562000  0.91527800  0.58282900  1
  C  C1  1  0.58282900  0.11627300  0.38562000  1
  C  C2  1  0.13372700  0.66717100  0.33472200  1
  C  C3  1  0.33472200  0.86438000  0.13372700  1
  C  C4  1  0.47994900  0.02005100  0.47994900  1
  C  C5  1  0.22994900  0.77005100  0.22994900  1
  Ni  Ni6  1  0.93137300  0.46726400  0.55112100  1
  Ni  Ni7  1  0.55112100  0.05024200  0.93137300  1
  Ni  Ni8  1  0.19975800  0.69887900  0.78273600  1
  Ni  Ni9  1  0.78273600  0.31862700  0.19975800  1
  Ni  Ni10  1  0.41375800  0.98688000  0.03247100  1
  Ni  Ni11  1  0.03247100  0.56689100  0.41375800  1
  Ni  Ni12  1  0.68310900  0.21752900  0.26312000  1
  Ni  Ni13  1  0.26312000  0.83624200  0.68310900  1
  Ni  Ni14  1  0.91548900  0.40304300  0.05380200  1
  Ni  Ni15  1  0.05380200  0.62766700  0.91548900  1
  Ni  Ni16  1  0.62233300  0.19619800  0.84695700  1
  Ni  Ni17  1  0.84695700  0.33451100  0.62233300  1
  Cu  Cu18  1  0.82669800  0.50582500  0.44762000  1
  Cu  Cu19  1  0.44762000  0.21985700  0.82669800  1
  Cu  Cu20  1  0.03014300  0.80238000  0.74417500  1
  Cu  Cu21  1  0.74417500  0.42330200  0.03014300  1
  Cu  Cu22  1  0.20444700  0.19277200  0.42864900  1
  Cu  Cu23  1  0.42864900  0.17413200  0.20444700  1
  Cu  Cu24  1  0.07586800  0.82135100  0.05722800  1
  Cu  Cu25  1  0.05722800  0.04555300  0.07586800  1
  Cu  Cu26  1  0.91332100  0.55558200  0.36310700  1
  Cu  Cu27  1  0.36310700  0.16799000  0.91332100  1
  Cu  Cu28  1  0.08201000  0.88689300  0.69441800  1
  Cu  Cu29  1  0.69441800  0.33667900  0.08201000  1
  Cu  Cu30  1  0.57813800  0.89665100  0.05741500  1
  Cu  Cu31  1  0.05741500  0.46779600  0.57813800  1
  Cu  Cu32  1  0.78220400  0.19258500  0.35334900  1
  Cu  Cu33  1  0.35334900  0.67186200  0.78220400  1
  Cu  Cu34  1  0.54701900  0.85414400  0.75828300  1
  Cu  Cu35  1  0.75828300  0.84055500  0.54701900  1
  Cu  Cu36  1  0.40944500  0.49171700  0.39585600  1
  Cu  Cu37  1  0.39585600  0.70298100  0.40944500  1
  Cu  Cu38  1  0.52246200  0.81376900  0.13835700  1
  Cu  Cu39  1  0.13835700  0.52541300  0.52246200  1
  Cu  Cu40  1  0.72458700  0.11164300  0.43623100  1
  Cu  Cu41  1  0.43623100  0.72753800  0.72458700  1
  Cu  Cu42  1  0.97788700  0.43006900  0.00804200  1
  Cu  Cu43  1  0.00804200  0.58400300  0.97788700  1
  Cu  Cu44  1  0.66599700  0.24195800  0.81993100  1
  Cu  Cu45  1  0.81993100  0.27211300  0.66599700  1
  Cu  Cu46  1  0.91807200  0.38966600  0.79553000  1
  Cu  Cu47  1  0.79553000  0.89673200  0.91807200  1
  Cu  Cu48  1  0.35326800  0.45447000  0.86033400  1
  Cu  Cu49  1  0.86033400  0.33192800  0.35326800  1
  Cu  Cu50  1  0.17359800  0.12610100  0.00816500  1
  Cu  Cu51  1  0.00816500  0.69213600  0.17359800  1
  Cu  Cu52  1  0.55786400  0.24183500  0.12389900  1
  Cu  Cu53  1  0.12389900  0.07640200  0.55786400  1
