# generated using pymatgen
data_CuNiC2
_symmetry_space_group_name_H-M   'P 1'
_cell_length_a   3.77816500
_cell_length_b   6.54607500
_cell_length_c   7.40478139
_cell_angle_alpha   72.84972247
_cell_angle_beta   90.00000000
_cell_angle_gamma   90.00000000
_symmetry_Int_Tables_number   1
_chemical_formula_structural   CuNiC2
_chemical_formula_sum   'Cu2 Ni2 C4'
_cell_volume   174.99295591
_cell_formula_units_Z   2
loop_
 _symmetry_equiv_pos_site_id
 _symmetry_equiv_pos_as_xyz
  1  'x, y, z'
loop_
 _atom_site_type_symbol
 _atom_site_label
 _atom_site_symmetry_multiplicity
 _atom_site_fract_x
 _atom_site_fract_y
 _atom_site_fract_z
 _atom_site_occupancy
  C  C0  1  0.50000000  0.27235200  0.68690200  1
  C  C1  1  0.00000000  0.77621500  0.66541000  1
  C  C2  1  0.50000000  0.72614600  0.32186100  1
  C  C3  1  0.00000000  0.22538900  0.32291400  1
  Ni  Ni4  1  0.00000000  0.99081500  0.01060200  1
  Ni  Ni5  1  0.50000000  0.50420700  0.00454600  1
  Cu  Cu6  1  0.00000000  0.50869500  0.49247800  1
  Cu  Cu7  1  0.50000000  0.99618100  0.49528700  1
