# generated using pymatgen
data_Cu4Ni3C13
_symmetry_space_group_name_H-M   'P 1'
_cell_length_a   12.69259905
_cell_length_b   12.69259905
_cell_length_c   12.69259905
_cell_angle_alpha   115.77716065
_cell_angle_beta   115.77716065
_cell_angle_gamma   97.48436525
_symmetry_Int_Tables_number   1
_chemical_formula_structural   Cu4Ni3C13
_chemical_formula_sum   'Cu24 Ni18 C78'
_cell_volume   1524.08496939
_cell_formula_units_Z   6
loop_
 _symmetry_equiv_pos_site_id
 _symmetry_equiv_pos_as_xyz
  1  'x, y, z'
loop_
 _atom_site_type_symbol
 _atom_site_label
 _atom_site_symmetry_multiplicity
 _atom_site_fract_x
 _atom_site_fract_y
 _atom_site_fract_z
 _atom_site_occupancy
  C  C0  1  0.75000000  0.25000000  0.50000000  1
  C  C1  1  0.00000000  0.00000000  0.00000000  1
  C  C2  1  0.34870300  0.78752300  0.56377200  1
  C  C3  1  0.52624800  0.46247700  0.06118000  1
  C  C4  1  0.22375200  0.78493100  0.43622800  1
  C  C5  1  0.40129700  0.46506900  0.93882000  1
  C  C6  1  0.21506900  0.65129700  0.43882000  1
  C  C7  1  0.53752300  0.59870300  0.06377200  1
  C  C8  1  0.21247700  0.77624800  0.56118000  1
  C  C9  1  0.53493100  0.47375200  0.93622800  1
  C  C10  1  0.81945300  0.58644800  0.75754500  1
  C  C11  1  0.92109800  0.66355200  0.73300600  1
  C  C12  1  0.82890200  0.06190800  0.24245500  1
  C  C13  1  0.93054700  0.18809200  0.26699400  1
  C  C14  1  0.93809200  0.18054700  0.76699400  1
  C  C15  1  0.33644800  0.06945300  0.25754500  1
  C  C16  1  0.41355200  0.17109800  0.23300600  1
  C  C17  1  0.81190800  0.07890200  0.74245500  1
  C  C18  1  0.77362900  0.55641600  0.59515300  1
  C  C19  1  0.78873700  0.69358500  0.71721400  1
  C  C20  1  0.96126300  0.17847600  0.40484700  1
  C  C21  1  0.97637100  0.07152400  0.28278600  1
  C  C22  1  0.82152400  0.22637100  0.78278600  1
  C  C23  1  0.30641600  0.02362900  0.09515300  1
  C  C24  1  0.44358500  0.03873700  0.21721400  1
  C  C25  1  0.92847600  0.21126300  0.90484700  1
  C  C26  1  0.55557200  0.01255400  0.03459600  1
  C  C27  1  0.77204200  0.23744600  0.04301900  1
  C  C28  1  0.97795800  0.52097700  0.96540400  1
  C  C29  1  0.19442800  0.72902300  0.95698100  1
  C  C30  1  0.47902300  0.44442800  0.45698100  1
  C  C31  1  0.76255400  0.80557200  0.53459600  1
  C  C32  1  0.98744600  0.02204200  0.54301900  1
  C  C33  1  0.27097700  0.22795800  0.46540400  1
  C  C34  1  0.41837100  0.88741300  0.90055200  1
  C  C35  1  0.76313900  0.36258700  0.03095800  1
  C  C36  1  0.98686100  0.51781900  0.09944800  1
  C  C37  1  0.33162900  0.73218100  0.96904200  1
  C  C38  1  0.48218100  0.58162900  0.46904200  1
  C  C39  1  0.63741300  0.66837100  0.40055200  1
  C  C40  1  0.11258700  0.01313900  0.53095800  1
  C  C41  1  0.26781900  0.23686100  0.59944800  1
  C  C42  1  0.52659800  0.93105200  0.86967600  1
  C  C43  1  0.68862400  0.31894800  0.09554600  1
  C  C44  1  0.06137600  0.65692200  0.13032400  1
  C  C45  1  0.22340200  0.59307800  0.90445400  1
  C  C46  1  0.34307800  0.47340200  0.40445400  1
  C  C47  1  0.68105200  0.77659800  0.36967600  1
  C  C48  1  0.06894800  0.93862400  0.59554600  1
  C  C49  1  0.40692200  0.31137600  0.63032400  1
  C  C50  1  0.44542800  0.02227100  0.90269600  1
  C  C51  1  0.63042500  0.22772900  0.92315600  1
  C  C52  1  0.11957500  0.54273100  0.09730400  1
  C  C53  1  0.30457200  0.70726900  0.07684400  1
  C  C54  1  0.45726900  0.55457200  0.57684400  1
  C  C55  1  0.77227100  0.69542800  0.40269600  1
  C  C56  1  0.97772900  0.88042500  0.42315600  1
  C  C57  1  0.29273100  0.36957500  0.59730400  1
  C  C58  1  0.67575800  0.23520200  0.27974200  1
  C  C59  1  0.79454000  0.01479800  0.94055600  1
  C  C60  1  0.95546000  0.39601600  0.72025800  1
  C  C61  1  0.07424200  0.85398400  0.05944400  1
  C  C62  1  0.60398400  0.32424200  0.55944400  1
  C  C63  1  0.98520200  0.92575800  0.77974200  1
  C  C64  1  0.76479800  0.04454000  0.44055600  1
  C  C65  1  0.14601600  0.20546000  0.22025800  1
  C  C66  1  0.59858000  0.37113300  0.28121900  1
  C  C67  1  0.66008600  0.87886700  0.72744700  1
  C  C68  1  0.08991400  0.31736100  0.71878100  1
  C  C69  1  0.15142000  0.93263900  0.27255300  1
  C  C70  1  0.68263900  0.40142000  0.77255300  1
  C  C71  1  0.12113300  0.84858000  0.78121900  1
  C  C72  1  0.62886700  0.91008600  0.22744700  1
  C  C73  1  0.06736100  0.33991400  0.21878100  1
  C  C74  1  0.37896800  0.12500000  0.75396800  1
  C  C75  1  0.37103200  0.62500000  0.24603200  1
  C  C76  1  0.37500000  0.62103200  0.74603200  1
  C  C77  1  0.87500000  0.62896800  0.25396800  1
  Ni  Ni78  1  0.25000000  0.75000000  0.50000000  1
  Ni  Ni79  1  0.50000000  0.50000000  0.00000000  1
  Ni  Ni80  1  0.00811000  0.50811000  0.50000000  1
  Ni  Ni81  1  0.74189000  0.74189000  0.00000000  1
  Ni  Ni82  1  0.49189000  0.99189000  0.50000000  1
  Ni  Ni83  1  0.25811000  0.25811000  0.00000000  1
  Ni  Ni84  1  0.82737400  0.62500000  0.70237400  1
  Ni  Ni85  1  0.92262600  0.12500000  0.29762600  1
  Ni  Ni86  1  0.87500000  0.17262600  0.79762600  1
  Ni  Ni87  1  0.37500000  0.07737400  0.20237400  1
  Ni  Ni88  1  0.48748500  0.96483100  0.92830500  1
  Ni  Ni89  1  0.71347400  0.28516900  0.02265400  1
  Ni  Ni90  1  0.03652600  0.55918000  0.07169500  1
  Ni  Ni91  1  0.26251500  0.69082000  0.97734600  1
  Ni  Ni92  1  0.44082000  0.51251500  0.47734600  1
  Ni  Ni93  1  0.71483100  0.73748500  0.42830500  1
  Ni  Ni94  1  0.03516900  0.96347400  0.52265400  1
  Ni  Ni95  1  0.30918000  0.28652600  0.57169500  1
  Cu  Cu96  1  0.68627200  0.49756400  0.41147700  1
  Cu  Cu97  1  0.66391300  0.75243600  0.68870800  1
  Cu  Cu98  1  0.08608700  0.27479600  0.58852300  1
  Cu  Cu99  1  0.06372800  0.97520400  0.31129200  1
  Cu  Cu100  1  0.72520400  0.31372800  0.81129200  1
  Cu  Cu101  1  0.24756400  0.93627200  0.91147700  1
  Cu  Cu102  1  0.50243600  0.91391300  0.18870800  1
  Cu  Cu103  1  0.02479600  0.33608700  0.08852300  1
  Cu  Cu104  1  0.58305800  0.36783000  0.15725000  1
  Cu  Cu105  1  0.53942000  0.88217000  0.71522800  1
  Cu  Cu106  1  0.21058000  0.42580900  0.84275000  1
  Cu  Cu107  1  0.16694200  0.82419100  0.28477200  1
  Cu  Cu108  1  0.57419100  0.41694200  0.78477200  1
  Cu  Cu109  1  0.11783000  0.83305800  0.65725000  1
  Cu  Cu110  1  0.63217000  0.78942000  0.21522800  1
  Cu  Cu111  1  0.17580900  0.46058000  0.34275000  1
  Cu  Cu112  1  0.47738300  0.32602000  0.26793500  1
  Cu  Cu113  1  0.69191500  0.92398000  0.65136300  1
  Cu  Cu114  1  0.05808500  0.20944800  0.73206500  1
  Cu  Cu115  1  0.27261700  0.04055200  0.34863700  1
  Cu  Cu116  1  0.79055200  0.52261700  0.84863700  1
  Cu  Cu117  1  0.07602000  0.72738300  0.76793500  1
  Cu  Cu118  1  0.67398000  0.94191500  0.15136300  1
  Cu  Cu119  1  0.95944800  0.30808500  0.23206500  1
