# generated using pymatgen
data_CuNiC19
_symmetry_space_group_name_H-M   'P 1'
_cell_length_a   6.08959700
_cell_length_b   10.45985600
_cell_length_c   14.30035113
_cell_angle_alpha   89.97721847
_cell_angle_beta   90.00000000
_cell_angle_gamma   90.00000000
_symmetry_Int_Tables_number   1
_chemical_formula_structural   CuNiC19
_chemical_formula_sum   'Cu4 Ni4 C76'
_cell_volume   910.87949408
_cell_formula_units_Z   4
loop_
 _symmetry_equiv_pos_site_id
 _symmetry_equiv_pos_as_xyz
  1  'x, y, z'
loop_
 _atom_site_type_symbol
 _atom_site_label
 _atom_site_symmetry_multiplicity
 _atom_site_fract_x
 _atom_site_fract_y
 _atom_site_fract_z
 _atom_site_occupancy
  C  C0  1  0.74948100  0.99889800  0.66699400  1
  C  C1  1  0.25090700  0.99959400  0.99947700  1
  C  C2  1  0.74909300  0.99959400  0.99947700  1
  C  C3  1  0.24991300  0.99873600  0.33355000  1
  C  C4  1  0.75008700  0.99873600  0.33355000  1
  C  C5  1  0.25051900  0.99889800  0.66699400  1
  C  C6  1  0.24979400  0.50120400  0.50042900  1
  C  C7  1  0.75020600  0.50120400  0.50042900  1
  C  C8  1  0.25025900  0.50111800  0.16702400  1
  C  C9  1  0.74974100  0.50111800  0.16702400  1
  C  C10  1  0.25061700  0.50085600  0.83297500  1
  C  C11  1  0.74938300  0.50085600  0.83297500  1
  Ni  Ni12  1  0.00000000  0.21866500  0.15989100  1
  Ni  Ni13  1  0.00000000  0.21876000  0.82556900  1
  Ni  Ni14  1  0.50000000  0.28078000  0.32676400  1
  Ni  Ni15  1  0.00000000  0.71995000  0.00713000  1
  Cu  Cu16  1  0.00000000  0.21830100  0.49266700  1
  Cu  Cu17  1  0.50000000  0.28143400  0.65897300  1
  Cu  Cu18  1  0.50000000  0.28043800  0.99200200  1
  Cu  Cu19  1  0.00000000  0.71993800  0.34179400  1
  C  C20  1  0.00000000  0.72282700  0.67382300  1
  C  C21  1  0.50000000  0.77821300  0.83960300  1
  C  C22  1  0.50000000  0.78096200  0.50644300  1
  C  C23  1  0.50000000  0.78108200  0.17263700  1
  C  C24  1  0.50000000  0.09245000  0.80513600  1
  C  C25  1  0.50000000  0.09189800  0.13795700  1
  C  C26  1  0.50000000  0.09202300  0.47376700  1
  C  C27  1  0.00000000  0.40806300  0.30599500  1
  C  C28  1  0.00000000  0.40767800  0.63887500  1
  C  C29  1  0.00000000  0.40682500  0.97278300  1
  C  C30  1  0.50000000  0.59648800  0.36101800  1
  C  C31  1  0.50000000  0.59442900  0.02850700  1
  C  C32  1  0.50000000  0.59609200  0.69380800  1
  C  C33  1  0.00000000  0.90512600  0.85969400  1
  C  C34  1  0.00000000  0.90419500  0.19495500  1
  C  C35  1  0.00000000  0.90393400  0.52788300  1
  C  C36  1  0.00000000  0.04097200  0.23767500  1
  C  C37  1  0.00000000  0.04164500  0.56943100  1
  C  C38  1  0.00000000  0.04158300  0.90248000  1
  C  C39  1  0.50000000  0.09511800  0.58114300  1
  C  C40  1  0.50000000  0.09679300  0.91247500  1
  C  C41  1  0.50000000  0.09512300  0.24542100  1
  C  C42  1  0.29854100  0.16252000  0.09298900  1
  C  C43  1  0.70145900  0.16252000  0.09298900  1
  C  C44  1  0.29707100  0.16272200  0.42955700  1
  C  C45  1  0.70292900  0.16272200  0.42955700  1
  C  C46  1  0.29867800  0.16312000  0.75953400  1
  C  C47  1  0.70132200  0.16312000  0.75953400  1
  C  C48  1  0.79744000  0.33579500  0.59478500  1
  C  C49  1  0.20256000  0.33579500  0.59478500  1
  C  C50  1  0.79794500  0.33774700  0.26115900  1
  C  C51  1  0.20205500  0.33774700  0.26115900  1
  C  C52  1  0.79665900  0.33562700  0.92943000  1
  C  C53  1  0.20334100  0.33562700  0.92943000  1
  C  C54  1  0.00000000  0.40387600  0.41360900  1
  C  C55  1  0.00000000  0.40621100  0.07992900  1
  C  C56  1  0.00000000  0.40489700  0.74636800  1
  C  C57  1  0.50000000  0.45940900  0.40322700  1
  C  C58  1  0.50000000  0.45645900  0.06850000  1
  C  C59  1  0.50000000  0.45835300  0.73509200  1
  C  C60  1  0.00000000  0.54538200  0.26506300  1
  C  C61  1  0.00000000  0.54306500  0.92949500  1
  C  C62  1  0.00000000  0.54520900  0.59809200  1
  C  C63  1  0.50000000  0.59826100  0.25358700  1
  C  C64  1  0.50000000  0.59892300  0.92061000  1
  C  C65  1  0.50000000  0.59899200  0.58623200  1
  C  C66  1  0.29927500  0.66498600  0.07410700  1
  C  C67  1  0.29799100  0.66753000  0.40574100  1
  C  C68  1  0.29657100  0.66683700  0.73829900  1
  C  C69  1  0.70342900  0.66683700  0.73829900  1
  C  C70  1  0.70072500  0.66498600  0.07410700  1
  C  C71  1  0.70200900  0.66753000  0.40574100  1
  C  C72  1  0.79542800  0.83496400  0.90303200  1
  C  C73  1  0.20457200  0.83496400  0.90303200  1
  C  C74  1  0.79578900  0.83332300  0.23822800  1
  C  C75  1  0.79667100  0.83257100  0.57218800  1
  C  C76  1  0.20421100  0.83332300  0.23822800  1
  C  C77  1  0.20332900  0.83257100  0.57218800  1
  C  C78  1  0.00000000  0.90271500  0.75197500  1
  C  C79  1  0.00000000  0.90304700  0.42046900  1
  C  C80  1  0.00000000  0.90497300  0.08727200  1
  C  C81  1  0.50000000  0.95416200  0.76528200  1
  C  C82  1  0.50000000  0.95356400  0.09768800  1
  C  C83  1  0.50000000  0.95442300  0.43221700  1
