# generated using pymatgen
data_Cu3NiC10
_symmetry_space_group_name_H-M   'P 1'
_cell_length_a   7.63168139
_cell_length_b   9.05199306
_cell_length_c   9.60497161
_cell_angle_alpha   63.72228864
_cell_angle_beta   75.82439805
_cell_angle_gamma   100.84282206
_symmetry_Int_Tables_number   1
_chemical_formula_structural   Cu3NiC10
_chemical_formula_sum   'Cu9 Ni3 C30'
_cell_volume   542.24853326
_cell_formula_units_Z   3
loop_
 _symmetry_equiv_pos_site_id
 _symmetry_equiv_pos_as_xyz
  1  'x, y, z'
loop_
 _atom_site_type_symbol
 _atom_site_label
 _atom_site_symmetry_multiplicity
 _atom_site_fract_x
 _atom_site_fract_y
 _atom_site_fract_z
 _atom_site_occupancy
  C  C0  1  0.51111100  0.98851900  0.03212600  1
  C  C1  1  0.48888900  0.51148100  0.46787400  1
  Ni  Ni2  1  0.00377400  0.99726800  0.00272300  1
  Ni  Ni3  1  0.99622600  0.50273200  0.49727700  1
  Ni  Ni4  1  0.50000000  0.25000000  0.25000000  1
  Cu  Cu5  1  0.73144700  0.46267500  0.84148800  1
  Cu  Cu6  1  0.73733800  0.97231500  0.34000400  1
  Cu  Cu7  1  0.26855300  0.03732500  0.65851200  1
  Cu  Cu8  1  0.26266200  0.52768500  0.15999600  1
  Cu  Cu9  1  0.13049900  0.92361100  0.32225900  1
  Cu  Cu10  1  0.12424800  0.42445900  0.81969100  1
  Cu  Cu11  1  0.86950100  0.57638900  0.17774100  1
  Cu  Cu12  1  0.87575200  0.07554100  0.68030900  1
  Cu  Cu13  1  0.50000000  0.75000000  0.75000000  1
  C  C14  1  0.68995300  0.15619400  0.29684800  1
  C  C15  1  0.69326800  0.66207800  0.79251600  1
  C  C16  1  0.31004700  0.34380600  0.20315200  1
  C  C17  1  0.30673200  0.83792200  0.70748400  1
  C  C18  1  0.04631900  0.71642300  0.48520600  1
  C  C19  1  0.04907400  0.21961100  0.98337500  1
  C  C20  1  0.95368100  0.78357700  0.01479400  1
  C  C21  1  0.95092600  0.28038900  0.51662500  1
  C  C22  1  0.95895200  0.52919300  0.85872300  1
  C  C23  1  0.95939100  0.02343900  0.36423800  1
  C  C24  1  0.04104800  0.97080700  0.64127700  1
  C  C25  1  0.04060900  0.47656100  0.13576200  1
  C  C26  1  0.34104900  0.02498800  0.32113100  1
  C  C27  1  0.34106100  0.52544300  0.82576800  1
  C  C28  1  0.65895100  0.47501200  0.17886900  1
  C  C29  1  0.65893900  0.97455700  0.67423200  1
  C  C30  1  0.76433800  0.40989400  0.69092400  1
  C  C31  1  0.75761900  0.90652800  0.19698600  1
  C  C32  1  0.23566200  0.09010600  0.80907600  1
  C  C33  1  0.24238100  0.59347200  0.30301400  1
  C  C34  1  0.58128300  0.28264900  0.02460800  1
  C  C35  1  0.58082400  0.78036800  0.53165300  1
  C  C36  1  0.41871700  0.21735100  0.47539200  1
  C  C37  1  0.41917600  0.71963200  0.96834700  1
  C  C38  1  0.16203100  0.94467800  0.13149000  1
  C  C39  1  0.16353800  0.44711500  0.62848300  1
  C  C40  1  0.83796900  0.55532200  0.36851000  1
  C  C41  1  0.83646200  0.05288500  0.87151700  1
