# generated using pymatgen
data_Cu15Ni12C35
_symmetry_space_group_name_H-M   'P 1'
_cell_length_a   10.71074239
_cell_length_b   10.71074239
_cell_length_c   10.71074239
_cell_angle_alpha   109.47122063
_cell_angle_beta   109.47122063
_cell_angle_gamma   109.47122063
_symmetry_Int_Tables_number   1
_chemical_formula_structural   Cu15Ni12C35
_chemical_formula_sum   'Cu15 Ni12 C35'
_cell_volume   945.88171634
_cell_formula_units_Z   1
loop_
 _symmetry_equiv_pos_site_id
 _symmetry_equiv_pos_as_xyz
  1  'x, y, z'
loop_
 _atom_site_type_symbol
 _atom_site_label
 _atom_site_symmetry_multiplicity
 _atom_site_fract_x
 _atom_site_fract_y
 _atom_site_fract_z
 _atom_site_occupancy
  C  C0  1  0.00000000  0.00000000  0.50000000  1
  C  C1  1  0.50000000  0.00000000  0.00000000  1
  C  C2  1  0.00000000  0.50000000  0.00000000  1
  C  C3  1  0.50000000  0.50000000  0.50000000  1
  Ni  Ni4  1  0.68796900  0.78159400  0.46956300  1
  Ni  Ni5  1  0.68796900  0.21840600  0.90637500  1
  Ni  Ni6  1  0.31203100  0.78159400  0.09362500  1
  Ni  Ni7  1  0.31203100  0.21840600  0.53043700  1
  Ni  Ni8  1  0.78159400  0.46956300  0.68796900  1
  Ni  Ni9  1  0.21840600  0.90637500  0.68796900  1
  Ni  Ni10  1  0.78159400  0.09362500  0.31203100  1
  Ni  Ni11  1  0.21840600  0.53043700  0.31203100  1
  Ni  Ni12  1  0.46956300  0.68796900  0.78159400  1
  Ni  Ni13  1  0.90637500  0.68796900  0.21840600  1
  Ni  Ni14  1  0.09362500  0.31203100  0.78159400  1
  Ni  Ni15  1  0.53043700  0.31203100  0.21840600  1
  Cu  Cu16  1  0.76285500  0.73230900  0.49516400  1
  Cu  Cu17  1  0.76285500  0.26769100  0.03054600  1
  Cu  Cu18  1  0.23714500  0.73230900  0.96945400  1
  Cu  Cu19  1  0.23714500  0.26769100  0.50483600  1
  Cu  Cu20  1  0.73230900  0.49516400  0.76285500  1
  Cu  Cu21  1  0.26769100  0.03054600  0.76285500  1
  Cu  Cu22  1  0.73230900  0.96945400  0.23714500  1
  Cu  Cu23  1  0.26769100  0.50483600  0.23714500  1
  Cu  Cu24  1  0.49516400  0.76285500  0.73230900  1
  Cu  Cu25  1  0.03054600  0.76285500  0.26769100  1
  Cu  Cu26  1  0.96945400  0.23714500  0.73230900  1
  Cu  Cu27  1  0.50483600  0.23714500  0.26769100  1
  Cu  Cu28  1  0.50000000  0.00000000  0.50000000  1
  Cu  Cu29  1  0.00000000  0.50000000  0.50000000  1
  Cu  Cu30  1  0.50000000  0.50000000  0.00000000  1
  C  C31  1  0.89478900  0.79358600  0.50980300  1
  C  C32  1  0.71621700  0.20641400  0.10120300  1
  C  C33  1  0.10521100  0.61501500  0.89879700  1
  C  C34  1  0.28378300  0.38498500  0.49019700  1
  C  C35  1  0.79358600  0.50980300  0.89478900  1
  C  C36  1  0.20641400  0.10120300  0.71621700  1
  C  C37  1  0.61501500  0.89879700  0.10521100  1
  C  C38  1  0.38498500  0.49019700  0.28378300  1
  C  C39  1  0.50980300  0.89478900  0.79358600  1
  C  C40  1  0.10120300  0.71621700  0.20641400  1
  C  C41  1  0.89879700  0.10521100  0.61501500  1
  C  C42  1  0.49019700  0.28378300  0.38498500  1
  C  C43  1  0.10521100  0.20641400  0.49019700  1
  C  C44  1  0.28378300  0.79358600  0.89879700  1
  C  C45  1  0.89478900  0.38498500  0.10120300  1
  C  C46  1  0.71621700  0.61501500  0.50980300  1
  C  C47  1  0.20641400  0.49019700  0.10521100  1
  C  C48  1  0.79358600  0.89879700  0.28378300  1
  C  C49  1  0.38498500  0.10120300  0.89478900  1
  C  C50  1  0.61501500  0.50980300  0.71621700  1
  C  C51  1  0.49019700  0.10521100  0.20641400  1
  C  C52  1  0.89879700  0.28378300  0.79358600  1
  C  C53  1  0.10120300  0.89478900  0.38498500  1
  C  C54  1  0.50980300  0.71621700  0.61501500  1
  C  C55  1  0.50000000  0.90489000  0.40489000  1
  C  C56  1  0.50000000  0.09511000  0.59511000  1
  C  C57  1  0.90489000  0.40489000  0.50000000  1
  C  C58  1  0.09511000  0.59511000  0.50000000  1
  C  C59  1  0.40489000  0.50000000  0.90489000  1
  C  C60  1  0.59511000  0.50000000  0.09511000  1
  C  C61  1  0.00000000  0.00000000  0.00000000  1
