# generated using pymatgen
data_Cu5Ni9C
_symmetry_space_group_name_H-M   'P 1'
_cell_length_a   7.82838947
_cell_length_b   7.82838947
_cell_length_c   12.41850600
_cell_angle_alpha   90.00000000
_cell_angle_beta   90.00000000
_cell_angle_gamma   119.99999553
_symmetry_Int_Tables_number   1
_chemical_formula_structural   Cu5Ni9C
_chemical_formula_sum   'Cu10 Ni18 C2'
_cell_volume   659.09019526
_cell_formula_units_Z   2
loop_
 _symmetry_equiv_pos_site_id
 _symmetry_equiv_pos_as_xyz
  1  'x, y, z'
loop_
 _atom_site_type_symbol
 _atom_site_label
 _atom_site_symmetry_multiplicity
 _atom_site_fract_x
 _atom_site_fract_y
 _atom_site_fract_z
 _atom_site_occupancy
  C  C0  1  0.00000000  0.00000000  0.50000000  1
  C  C1  1  0.00000000  0.00000000  0.00000000  1
  Ni  Ni2  1  0.46142100  0.92284200  0.40223500  1
  Ni  Ni3  1  0.07715800  0.53857900  0.40223500  1
  Ni  Ni4  1  0.46142100  0.53857900  0.40223500  1
  Ni  Ni5  1  0.53857900  0.07715800  0.59776500  1
  Ni  Ni6  1  0.92284200  0.46142100  0.59776500  1
  Ni  Ni7  1  0.53857900  0.46142100  0.59776500  1
  Ni  Ni8  1  0.53857900  0.07715800  0.90223500  1
  Ni  Ni9  1  0.92284200  0.46142100  0.90223500  1
  Ni  Ni10  1  0.53857900  0.46142100  0.90223500  1
  Ni  Ni11  1  0.46142100  0.92284200  0.09776500  1
  Ni  Ni12  1  0.07715800  0.53857900  0.09776500  1
  Ni  Ni13  1  0.46142100  0.53857900  0.09776500  1
  Ni  Ni14  1  0.80578600  0.61157200  0.25000000  1
  Ni  Ni15  1  0.38842800  0.19421400  0.25000000  1
  Ni  Ni16  1  0.80578600  0.19421400  0.25000000  1
  Ni  Ni17  1  0.19421400  0.38842800  0.75000000  1
  Ni  Ni18  1  0.61157200  0.80578600  0.75000000  1
  Ni  Ni19  1  0.19421400  0.80578600  0.75000000  1
  Cu  Cu20  1  0.66666700  0.33333300  0.41667500  1
  Cu  Cu21  1  0.33333300  0.66666700  0.58332500  1
  Cu  Cu22  1  0.33333300  0.66666700  0.91667500  1
  Cu  Cu23  1  0.66666700  0.33333300  0.08332500  1
  Cu  Cu24  1  0.19032500  0.80967500  0.25000000  1
  Cu  Cu25  1  0.19032500  0.38065000  0.25000000  1
  Cu  Cu26  1  0.61935000  0.80967500  0.25000000  1
  Cu  Cu27  1  0.80967500  0.19032500  0.75000000  1
  Cu  Cu28  1  0.80967500  0.61935000  0.75000000  1
  Cu  Cu29  1  0.38065000  0.19032500  0.75000000  1
