# generated using pymatgen
data_CuNiC13
_symmetry_space_group_name_H-M   'P 1'
_cell_length_a   5.81667000
_cell_length_b   10.43481800
_cell_length_c   11.10122000
_cell_angle_alpha   90.00000000
_cell_angle_beta   90.00000000
_cell_angle_gamma   90.00000000
_symmetry_Int_Tables_number   1
_chemical_formula_structural   CuNiC13
_chemical_formula_sum   'Cu4 Ni4 C52'
_cell_volume   673.79845925
_cell_formula_units_Z   4
loop_
 _symmetry_equiv_pos_site_id
 _symmetry_equiv_pos_as_xyz
  1  'x, y, z'
loop_
 _atom_site_type_symbol
 _atom_site_label
 _atom_site_symmetry_multiplicity
 _atom_site_fract_x
 _atom_site_fract_y
 _atom_site_fract_z
 _atom_site_occupancy
  C  C0  1  0.25000000  0.40725900  0.28120000  1
  C  C1  1  0.75000000  0.59274100  0.71880000  1
  C  C2  1  0.75000000  0.90725900  0.21880000  1
  C  C3  1  0.25000000  0.09274100  0.78120000  1
  C  C4  1  0.00000000  0.00000000  0.00000000  1
  C  C5  1  0.00000000  0.50000000  0.50000000  1
  C  C6  1  0.50000000  0.00000000  0.00000000  1
  C  C7  1  0.50000000  0.50000000  0.50000000  1
  C  C8  1  0.00000000  0.50000000  0.00000000  1
  C  C9  1  0.00000000  0.00000000  0.50000000  1
  C  C10  1  0.50000000  0.50000000  0.00000000  1
  C  C11  1  0.50000000  0.00000000  0.50000000  1
  C  C12  1  0.25000000  0.27364800  0.05214000  1
  C  C13  1  0.75000000  0.72635200  0.94786000  1
  C  C14  1  0.75000000  0.77364800  0.44786000  1
  C  C15  1  0.25000000  0.22635200  0.55214000  1
  Ni  Ni16  1  0.25000000  0.06610500  0.23625300  1
  Ni  Ni17  1  0.75000000  0.93389500  0.76374700  1
  Ni  Ni18  1  0.75000000  0.56610500  0.26374700  1
  Ni  Ni19  1  0.25000000  0.43389500  0.73625300  1
  Cu  Cu20  1  0.25000000  0.74883000  0.00048600  1
  Cu  Cu21  1  0.75000000  0.25117000  0.99951400  1
  Cu  Cu22  1  0.75000000  0.24883000  0.49951400  1
  Cu  Cu23  1  0.25000000  0.75117000  0.50048600  1
  C  C24  1  0.25000000  0.22501800  0.21160900  1
  C  C25  1  0.75000000  0.77498200  0.78839100  1
  C  C26  1  0.75000000  0.72501800  0.28839100  1
  C  C27  1  0.25000000  0.27498200  0.71160900  1
  C  C28  1  0.04537800  0.68062200  0.00149600  1
  C  C29  1  0.95462200  0.31937800  0.99850400  1
  C  C30  1  0.95462200  0.18062200  0.49850400  1
  C  C31  1  0.54537800  0.31937800  0.99850400  1
  C  C32  1  0.04537800  0.81937800  0.50149600  1
  C  C33  1  0.45462200  0.68062200  0.00149600  1
  C  C34  1  0.45462200  0.81937800  0.50149600  1
  C  C35  1  0.54537800  0.18062200  0.49850400  1
  C  C36  1  0.25000000  0.45311600  0.09966600  1
  C  C37  1  0.75000000  0.54688400  0.90033400  1
  C  C38  1  0.75000000  0.95311600  0.40033400  1
  C  C39  1  0.25000000  0.04688400  0.59966600  1
  C  C40  1  0.25000000  0.38142600  0.47769900  1
  C  C41  1  0.75000000  0.61857400  0.52230100  1
  C  C42  1  0.75000000  0.88142600  0.02230100  1
  C  C43  1  0.25000000  0.11857400  0.97769900  1
  C  C44  1  0.25000000  0.62147200  0.49637300  1
  C  C45  1  0.75000000  0.37852800  0.50362700  1
  C  C46  1  0.75000000  0.12147200  0.00362700  1
  C  C47  1  0.25000000  0.87852800  0.99637300  1
  C  C48  1  0.02209400  0.00715400  0.17038500  1
  C  C49  1  0.97790600  0.99284600  0.82961500  1
  C  C50  1  0.97790600  0.50715400  0.32961500  1
  C  C51  1  0.52209400  0.99284600  0.82961500  1
  C  C52  1  0.02209400  0.49284600  0.67038500  1
  C  C53  1  0.47790600  0.00715400  0.17038500  1
  C  C54  1  0.47790600  0.49284600  0.67038500  1
  C  C55  1  0.52209400  0.50715400  0.32961500  1
  C  C56  1  0.25000000  0.02616800  0.37957300  1
  C  C57  1  0.75000000  0.97383200  0.62042700  1
  C  C58  1  0.75000000  0.52616800  0.12042700  1
  C  C59  1  0.25000000  0.47383200  0.87957300  1
