# generated using pymatgen
data_Cu27(Ni3C)2
_symmetry_space_group_name_H-M   'P 1'
_cell_length_a   9.11949400
_cell_length_b   8.81750500
_cell_length_c   16.10201819
_cell_angle_alpha   74.95994564
_cell_angle_beta   90.00000000
_cell_angle_gamma   90.00000000
_symmetry_Int_Tables_number   1
_chemical_formula_structural   Cu27(Ni3C)2
_chemical_formula_sum   'Cu54 Ni12 C4'
_cell_volume   1250.42913040
_cell_formula_units_Z   2
loop_
 _symmetry_equiv_pos_site_id
 _symmetry_equiv_pos_as_xyz
  1  'x, y, z'
loop_
 _atom_site_type_symbol
 _atom_site_label
 _atom_site_symmetry_multiplicity
 _atom_site_fract_x
 _atom_site_fract_y
 _atom_site_fract_z
 _atom_site_occupancy
  C  C0  1  0.53116300  0.36476300  0.91515900  1
  C  C1  1  0.03116300  0.63523700  0.58484100  1
  C  C2  1  0.46883700  0.63523700  0.08484100  1
  C  C3  1  0.96883700  0.36476300  0.41515900  1
  Ni  Ni4  1  0.74249000  0.21285300  0.04296900  1
  Ni  Ni5  1  0.24249000  0.78714700  0.45703100  1
  Ni  Ni6  1  0.25751000  0.78714700  0.95703100  1
  Ni  Ni7  1  0.75751000  0.21285300  0.54296900  1
  Ni  Ni8  1  0.59763300  0.66652200  0.80336800  1
  Ni  Ni9  1  0.09763300  0.33347800  0.69663200  1
  Ni  Ni10  1  0.40236700  0.33347800  0.19663200  1
  Ni  Ni11  1  0.90236700  0.66652200  0.30336800  1
  Ni  Ni12  1  0.22527000  0.27461100  0.93975100  1
  Ni  Ni13  1  0.72527000  0.72538900  0.56024900  1
  Ni  Ni14  1  0.77473000  0.72538900  0.06024900  1
  Ni  Ni15  1  0.27473000  0.27461100  0.43975100  1
  Cu  Cu16  1  0.62103300  0.14584800  0.02692400  1
  Cu  Cu17  1  0.12103300  0.85415200  0.47307600  1
  Cu  Cu18  1  0.37896700  0.85415200  0.97307600  1
  Cu  Cu19  1  0.87896700  0.14584800  0.52692400  1
  Cu  Cu20  1  0.77257700  0.34298500  0.98700600  1
  Cu  Cu21  1  0.27257700  0.65701500  0.51299400  1
  Cu  Cu22  1  0.22742300  0.65701500  0.01299400  1
  Cu  Cu23  1  0.72742300  0.34298500  0.48700600  1
  Cu  Cu24  1  0.81748500  0.15702400  0.10589500  1
  Cu  Cu25  1  0.31748500  0.84297600  0.39410500  1
  Cu  Cu26  1  0.18251500  0.84297600  0.89410500  1
  Cu  Cu27  1  0.68251500  0.15702400  0.60589500  1
  Cu  Cu28  1  0.69941700  0.56747500  0.83899300  1
  Cu  Cu29  1  0.19941700  0.43252500  0.66100700  1
  Cu  Cu30  1  0.30058300  0.43252500  0.16100700  1
  Cu  Cu31  1  0.80058300  0.56747500  0.33899300  1
  Cu  Cu32  1  0.46754000  0.60480500  0.80672400  1
  Cu  Cu33  1  0.96754000  0.39519500  0.69327600  1
  Cu  Cu34  1  0.53246000  0.39519500  0.19327600  1
  Cu  Cu35  1  0.03246000  0.60480500  0.30672400  1
  Cu  Cu36  1  0.62141900  0.80509200  0.77148800  1
  Cu  Cu37  1  0.12141900  0.19490800  0.72851200  1
  Cu  Cu38  1  0.37858100  0.19490800  0.22851200  1
  Cu  Cu39  1  0.87858100  0.80509200  0.27148800  1
  Cu  Cu40  1  0.32994300  0.20719900  0.99129800  1
  Cu  Cu41  1  0.82994300  0.79280100  0.50870200  1
  Cu  Cu42  1  0.67005700  0.79280100  0.00870200  1
  Cu  Cu43  1  0.17005700  0.20719900  0.49129800  1
  Cu  Cu44  1  0.27200500  0.37681400  0.87113100  1
  Cu  Cu45  1  0.77200500  0.62318600  0.62886900  1
  Cu  Cu46  1  0.72799500  0.62318600  0.12886900  1
  Cu  Cu47  1  0.22799500  0.37681400  0.37113100  1
  Cu  Cu48  1  0.09647300  0.24532900  0.95456700  1
  Cu  Cu49  1  0.59647300  0.75467100  0.54543300  1
  Cu  Cu50  1  0.90352700  0.75467100  0.04543300  1
  Cu  Cu51  1  0.40352700  0.24532900  0.45456700  1
  Cu  Cu52  1  0.50000000  0.50000000  0.00000000  1
  Cu  Cu53  1  0.00000000  0.50000000  0.50000000  1
  Cu  Cu54  1  0.46355000  0.15276000  0.77899800  1
  Cu  Cu55  1  0.96355000  0.84724000  0.72100200  1
  Cu  Cu56  1  0.53645000  0.84724000  0.22100200  1
  Cu  Cu57  1  0.03645000  0.15276000  0.27899800  1
  Cu  Cu58  1  0.49826200  0.28406600  0.73393600  1
  Cu  Cu59  1  0.99826200  0.71593400  0.76606400  1
  Cu  Cu60  1  0.50173800  0.71593400  0.26606400  1
  Cu  Cu61  1  0.00173800  0.28406600  0.23393600  1
  Cu  Cu62  1  0.76415400  0.15196300  0.82904800  1
  Cu  Cu63  1  0.26415400  0.84803700  0.67095200  1
  Cu  Cu64  1  0.23584600  0.84803700  0.17095200  1
  Cu  Cu65  1  0.73584600  0.15196300  0.32904800  1
  Cu  Cu66  1  0.34000400  0.96364800  0.67029300  1
  Cu  Cu67  1  0.84000400  0.03635200  0.82970700  1
  Cu  Cu68  1  0.65999600  0.03635200  0.32970700  1
  Cu  Cu69  1  0.15999600  0.96364800  0.17029300  1
