# generated using pymatgen
data_CuNi3C10
_symmetry_space_group_name_H-M   'P 1'
_cell_length_a   5.40974183
_cell_length_b   14.10723901
_cell_length_c   18.87779447
_cell_angle_alpha   90.00000000
_cell_angle_beta   90.00000000
_cell_angle_gamma   90.00000000
_symmetry_Int_Tables_number   1
_chemical_formula_structural   CuNi3C10
_chemical_formula_sum   'Cu8 Ni24 C80'
_cell_volume   1440.68759769
_cell_formula_units_Z   8
loop_
 _symmetry_equiv_pos_site_id
 _symmetry_equiv_pos_as_xyz
  1  'x, y, z'
loop_
 _atom_site_type_symbol
 _atom_site_label
 _atom_site_symmetry_multiplicity
 _atom_site_fract_x
 _atom_site_fract_y
 _atom_site_fract_z
 _atom_site_occupancy
  Ni  Ni0  1  0.98379961  0.21629838  0.99312311  1
  Ni  Ni1  1  0.01620039  0.78370162  0.49312311  1
  Ni  Ni2  1  0.01620039  0.71629838  0.99312311  1
  Ni  Ni3  1  0.98379961  0.28370162  0.49312311  1
  Ni  Ni4  1  0.98848966  0.95210563  0.64794129  1
  Ni  Ni5  1  0.01151034  0.04789437  0.14794129  1
  Ni  Ni6  1  0.01151034  0.45210563  0.64794129  1
  Ni  Ni7  1  0.98848966  0.54789437  0.14794129  1
  Ni  Ni8  1  0.99099657  0.86207640  0.82851333  1
  Ni  Ni9  1  0.00900343  0.13792360  0.32851333  1
  Ni  Ni10  1  0.00900343  0.36207640  0.82851333  1
  Ni  Ni11  1  0.99099657  0.63792360  0.32851333  1
  Ni  Ni12  1  0.47486210  0.79730089  0.73141306  1
  Ni  Ni13  1  0.52513790  0.20269911  0.23141306  1
  Ni  Ni14  1  0.52513790  0.29730089  0.73141306  1
  Ni  Ni15  1  0.47486210  0.70269911  0.23141306  1
  Ni  Ni16  1  0.53971364  0.96763839  0.88797345  1
  Ni  Ni17  1  0.46028636  0.03236161  0.38797345  1
  Ni  Ni18  1  0.46028636  0.46763839  0.88797345  1
  Ni  Ni19  1  0.53971364  0.53236161  0.38797345  1
  Ni  Ni20  1  0.49769925  0.88514182  0.55024424  1
  Ni  Ni21  1  0.50230075  0.11485818  0.05024424  1
  Ni  Ni22  1  0.50230075  0.38514182  0.55024424  1
  Ni  Ni23  1  0.49769925  0.61485818  0.05024424  1
  Cu  Cu24  1  0.92975713  0.61390754  0.80225633  1
  Cu  Cu25  1  0.07024287  0.38609246  0.30225633  1
  Cu  Cu26  1  0.07024287  0.11390754  0.80225633  1
  Cu  Cu27  1  0.92975713  0.88609246  0.30225633  1
  Cu  Cu28  1  0.55622913  0.63534818  0.57482132  1
  Cu  Cu29  1  0.44377087  0.36465182  0.07482132  1
  Cu  Cu30  1  0.44377087  0.13534818  0.57482132  1
  Cu  Cu31  1  0.55622913  0.86465182  0.07482132  1
  C  C32  1  0.96893852  0.47523774  0.98038649  1
  C  C33  1  0.03106148  0.52476226  0.48038649  1
  C  C34  1  0.03106148  0.97523774  0.98038649  1
  C  C35  1  0.96893852  0.02476226  0.48038649  1
  C  C36  1  0.98659891  0.22926822  0.65299896  1
  C  C37  1  0.01340109  0.77073178  0.15299896  1
  C  C38  1  0.01340109  0.72926822  0.65299896  1
  C  C39  1  0.98659891  0.27073178  0.15299896  1
  C  C40  1  0.47484953  0.51996051  0.72404747  1
  C  C41  1  0.52515047  0.48003949  0.22404747  1
  C  C42  1  0.52515047  0.01996051  0.72404747  1
  C  C43  1  0.47484953  0.98003949  0.22404747  1
  C  C44  1  0.46067464  0.72643143  0.89670614  1
  C  C45  1  0.53932536  0.27356857  0.39670614  1
  C  C46  1  0.53932536  0.22643143  0.89670614  1
  C  C47  1  0.46067464  0.77356857  0.39670614  1
  C  C48  1  0.58401997  0.80411587  0.85131544  1
  C  C49  1  0.41598003  0.19588413  0.35131544  1
  C  C50  1  0.41598003  0.30411587  0.85131544  1
  C  C51  1  0.58401997  0.69588413  0.35131544  1
  C  C52  1  0.69236172  0.46957755  0.76298396  1
  C  C53  1  0.30763828  0.53042245  0.26298396  1
  C  C54  1  0.30763828  0.96957755  0.76298396  1
  C  C55  1  0.69236172  0.03042245  0.26298396  1
  C  C56  1  0.90034713  0.87846853  0.99486438  1
  C  C57  1  0.09965287  0.12153147  0.49486438  1
  C  C58  1  0.09965287  0.37846853  0.99486438  1
  C  C59  1  0.90034713  0.62153147  0.49486438  1
  C  C60  1  0.80168752  0.77963589  0.61149074  1
  C  C61  1  0.19831248  0.22036411  0.11149074  1
  C  C62  1  0.19831248  0.27963589  0.61149074  1
  C  C63  1  0.80168752  0.72036411  0.11149074  1
  C  C64  1  0.68624085  0.46654906  0.99746177  1
  C  C65  1  0.31375915  0.53345094  0.49746177  1
  C  C66  1  0.31375915  0.96654906  0.99746177  1
  C  C67  1  0.68624085  0.03345094  0.49746177  1
  C  C68  1  0.91088036  0.44700059  0.52693698  1
  C  C69  1  0.08911964  0.55299941  0.02693698  1
  C  C70  1  0.08911964  0.94700059  0.52693698  1
  C  C71  1  0.91088036  0.05299941  0.02693698  1
  C  C72  1  0.77234287  0.99262646  0.76031331  1
  C  C73  1  0.22765713  0.00737354  0.26031331  1
  C  C74  1  0.22765713  0.49262646  0.76031331  1
  C  C75  1  0.77234287  0.50737354  0.26031331  1
  C  C76  1  0.59404542  0.62976381  0.88419275  1
  C  C77  1  0.40595458  0.37023619  0.38419275  1
  C  C78  1  0.40595458  0.12976381  0.88419275  1
  C  C79  1  0.59404542  0.87023619  0.38419275  1
  C  C80  1  0.52024496  0.62885479  0.72644426  1
  C  C81  1  0.47975504  0.37114521  0.22644426  1
  C  C82  1  0.47975504  0.12885479  0.72644426  1
  C  C83  1  0.52024496  0.87114521  0.22644426  1
  C  C84  1  0.96660678  0.62062844  0.65088789  1
  C  C85  1  0.03339322  0.37937156  0.15088789  1
  C  C86  1  0.03339322  0.12062844  0.65088789  1
  C  C87  1  0.96660678  0.87937156  0.15088789  1
  C  C88  1  0.81962311  0.21692417  0.87611143  1
  C  C89  1  0.18037689  0.78307583  0.37611143  1
  C  C90  1  0.18037689  0.71692417  0.87611143  1
  C  C91  1  0.81962311  0.28307583  0.37611143  1
  C  C92  1  0.98962545  0.26194432  0.73172913  1
  C  C93  1  0.01037455  0.73805568  0.23172913  1
  C  C94  1  0.01037455  0.76194432  0.73172913  1
  C  C95  1  0.98962545  0.23805568  0.23172913  1
  C  C96  1  0.52976720  0.98836647  0.64501541  1
  C  C97  1  0.47023280  0.01163353  0.14501541  1
  C  C98  1  0.47023280  0.48836647  0.64501541  1
  C  C99  1  0.52976720  0.51163353  0.14501541  1
  C  C100  1  0.99588411  0.99762672  0.90002058  1
  C  C101  1  0.00411589  0.00237328  0.40002058  1
  C  C102  1  0.00411589  0.49762672  0.90002058  1
  C  C103  1  0.99588411  0.50237328  0.40002058  1
  C  C104  1  0.26482730  0.75631371  0.61887548  1
  C  C105  1  0.73517270  0.24368629  0.11887548  1
  C  C106  1  0.73517270  0.25631371  0.61887548  1
  C  C107  1  0.26482730  0.74368629  0.11887548  1
  C  C108  1  0.47277167  0.74899868  0.97753128  1
  C  C109  1  0.52722833  0.25100132  0.47753128  1
  C  C110  1  0.52722833  0.24899868  0.97753128  1
  C  C111  1  0.47277167  0.75100132  0.47753128  1
