# generated using pymatgen
data_CuNi5C39
_symmetry_space_group_name_H-M   'P 1'
_cell_length_a   7.40857509
_cell_length_b   9.88753962
_cell_length_c   19.31966642
_cell_angle_alpha   85.88074808
_cell_angle_beta   78.94585123
_cell_angle_gamma   67.99781243
_symmetry_Int_Tables_number   1
_chemical_formula_structural   CuNi5C39
_chemical_formula_sum   'Cu2 Ni10 C78'
_cell_volume   1287.79964605
_cell_formula_units_Z   2
loop_
 _symmetry_equiv_pos_site_id
 _symmetry_equiv_pos_as_xyz
  1  'x, y, z'
loop_
 _atom_site_type_symbol
 _atom_site_label
 _atom_site_symmetry_multiplicity
 _atom_site_fract_x
 _atom_site_fract_y
 _atom_site_fract_z
 _atom_site_occupancy
  Ni  Ni0  1  0.56215479  0.10197582  0.30396472  1
  Ni  Ni1  1  0.33586939  0.10197582  0.69603528  1
  Ni  Ni2  1  0.28190467  0.60197582  0.80396472  1
  Ni  Ni3  1  0.11611950  0.60197582  0.19603528  1
  Ni  Ni4  1  0.64406369  0.10632738  0.09332280  1
  Ni  Ni5  1  0.24960894  0.10632738  0.90667720  1
  Ni  Ni6  1  0.40628614  0.60632738  0.59332280  1
  Ni  Ni7  1  0.98738649  0.60632738  0.40667720  1
  Ni  Ni8  1  0.20079442  0.59841116  -0.00000000  1
  Ni  Ni9  1  0.45079442  0.09841116  0.50000000  1
  Cu  Cu10  1  0.79496904  0.41006191  0.00000000  1
  Cu  Cu11  1  0.04496904  0.91006191  0.50000000  1
  C  C12  1  0.10405403  0.28818017  0.09250056  1
  C  C13  1  0.60776580  0.28818017  0.90749944  1
  C  C14  1  0.76526524  0.78818017  0.59250056  1
  C  C15  1  0.44655459  0.78818017  0.40749944  1
  C  C16  1  0.10955753  0.91212416  0.30014876  1
  C  C17  1  0.97831831  0.91212416  0.69985124  1
  C  C18  1  0.92816955  0.41212416  0.80014876  1
  C  C19  1  0.65970629  0.41212416  0.19985124  1
  C  C20  1  0.56173628  0.78709029  0.20074992  1
  C  C21  1  0.65117343  0.78709029  0.79925008  1
  C  C22  1  0.70042351  0.28709029  0.70074992  1
  C  C23  1  0.01248620  0.28709029  0.29925008  1
  C  C24  1  0.20259365  0.93233768  0.09673022  1
  C  C25  1  0.86506866  0.93233768  0.90326978  1
  C  C26  1  0.01833845  0.43233768  0.59673022  1
  C  C27  1  0.54932387  0.43233768  0.40326978  1
  C  C28  1  0.62777259  0.74445482  -0.00000000  1
  C  C29  1  0.87777259  0.24445482  0.50000000  1
  C  C30  1  0.33307037  0.92313888  0.00500487  1
  C  C31  1  0.74379075  0.92313888  0.99499513  1
  C  C32  1  0.98878588  0.42313888  0.50500487  1
  C  C33  1  0.58807524  0.42313888  0.49499513  1
  C  C34  1  0.01722191  0.77506384  0.29696598  1
  C  C35  1  0.20771425  0.77506384  0.70303402  1
  C  C36  1  0.16074826  0.27506384  0.79696598  1
  C  C37  1  0.56418790  0.27506384  0.20303402  1
  C  C38  1  0.64718754  0.92867681  0.20070154  1
  C  C39  1  0.42413565  0.92867681  0.79929846  1
  C  C40  1  0.47343410  0.42867681  0.70070154  1
  C  C41  1  0.09788908  0.42867681  0.29929846  1
  C  C42  1  0.97186269  0.29388829  0.20407268  1
  C  C43  1  0.73424901  0.29388829  0.79592732  1
  C  C44  1  0.78017633  0.79388829  0.70407268  1
  C  C45  1  0.42593537  0.79388829  0.29592732  1
  C  C46  1  0.18877516  0.42909167  0.10071128  1
  C  C47  1  0.38213317  0.42909167  0.89928872  1
  C  C48  1  0.53142190  0.92909167  0.60071128  1
  C  C49  1  0.53948644  0.92909167  0.39928872  1
  C  C50  1  0.79598715  0.39893011  0.10644359  1
  C  C51  1  0.80508274  0.39893011  0.89355641  1
  C  C52  1  0.94863915  0.89893011  0.60644359  1
  C  C53  1  0.15243075  0.89893011  0.39355641  1
  C  C54  1  0.09849910  0.28424484  0.00130189  1
  C  C55  1  0.61725606  0.28424484  0.99869811  1
  C  C56  1  0.86595417  0.78424484  0.50130189  1
  C  C57  1  0.34980099  0.78424484  0.49869811  1
  C  C58  1  0.97597047  0.08526334  0.10040072  1
  C  C59  1  0.93876619  0.08526334  0.89959928  1
  C  C60  1  0.08836547  0.58526334  0.60040072  1
  C  C61  1  0.32637119  0.58526334  0.39959928  1
  C  C62  1  0.89899199  0.07700753  0.30046405  1
  C  C63  1  0.02400048  0.07700753  0.69953595  1
  C  C64  1  0.97353643  0.57700753  0.80046405  1
  C  C65  1  0.44945604  0.57700753  0.19953595  1
  C  C66  1  0.12885536  0.78187322  0.10067829  1
  C  C67  1  0.08927142  0.78187322  0.89932171  1
  C  C68  1  0.23859313  0.28187322  0.60067829  1
  C  C69  1  0.47953365  0.28187322  0.39932171  1
  C  C70  1  0.52635857  0.79644376  0.10144088  1
  C  C71  1  0.67719767  0.79644376  0.89855912  1
  C  C72  1  0.82575679  0.29644376  0.60144088  1
  C  C73  1  0.87779945  0.29644376  0.39855912  1
  C  C74  1  0.24636341  0.90763185  0.20009696  1
  C  C75  1  0.84600474  0.90763185  0.79990304  1
  C  C76  1  0.89590778  0.40763185  0.70009696  1
  C  C77  1  0.69646037  0.40763185  0.29990304  1
  C  C78  1  0.22728069  0.12850707  0.30006043  1
  C  C79  1  0.64421224  0.12850707  0.69993957  1
  C  C80  1  0.59415181  0.62850707  0.80006043  1
  C  C81  1  0.77734112  0.62850707  0.19993957  1
  C  C82  1  0.30831129  0.12104564  0.10718103  1
  C  C83  1  0.57064307  0.12104564  0.89281897  1
  C  C84  1  0.71346205  0.62104564  0.60718103  1
  C  C85  1  0.66549231  0.62104564  0.39281897  1
  C  C86  1  0.51367074  0.62130570  0.99238910  1
  C  C87  1  0.86502356  0.62130570  0.00761090  1
  C  C88  1  0.12263446  0.12130570  0.49238910  1
  C  C89  1  0.75605984  0.12130570  0.50761090  1
