# generated using pymatgen
data_Cu2NiC10
_symmetry_space_group_name_H-M   'P 1'
_cell_length_a   9.22562490
_cell_length_b   9.22562490
_cell_length_c   16.48756714
_cell_angle_alpha   61.10839695
_cell_angle_beta   61.10839695
_cell_angle_gamma   31.81149475
_symmetry_Int_Tables_number   1
_chemical_formula_structural   Cu2NiC10
_chemical_formula_sum   'Cu8 Ni4 C40'
_cell_volume   639.58627755
_cell_formula_units_Z   4
loop_
 _symmetry_equiv_pos_site_id
 _symmetry_equiv_pos_as_xyz
  1  'x, y, z'
loop_
 _atom_site_type_symbol
 _atom_site_label
 _atom_site_symmetry_multiplicity
 _atom_site_fract_x
 _atom_site_fract_y
 _atom_site_fract_z
 _atom_site_occupancy
  Ni  Ni0  1  0.14605800  0.57428300  0.62498300  1
  Ni  Ni1  1  0.42571700  0.85394200  0.87501700  1
  Ni  Ni2  1  0.57428300  0.14605800  0.12498300  1
  Ni  Ni3  1  0.85394200  0.42571700  0.37501700  1
  Cu  Cu4  1  0.36455400  0.83672600  0.53066200  1
  Cu  Cu5  1  0.16327400  0.63544600  0.96933800  1
  Cu  Cu6  1  0.63544600  0.16327400  0.46933800  1
  Cu  Cu7  1  0.00000000  0.50000000  0.50000000  1
  Cu  Cu8  1  0.83672600  0.36455400  0.03066200  1
  Cu  Cu9  1  0.68330300  0.31669700  0.25000000  1
  Cu  Cu10  1  0.31669700  0.68330300  0.75000000  1
  Cu  Cu11  1  0.50000000  0.00000000  0.00000000  1
  C  C12  1  0.48967000  0.93628500  0.64238500  1
  C  C13  1  0.80832300  0.22544100  0.89300600  1
  C  C14  1  0.51033000  0.06371500  0.35761500  1
  C  C15  1  0.22544100  0.80832300  0.39300600  1
  C  C16  1  0.93628500  0.48967000  0.14238500  1
  C  C17  1  0.06371500  0.51033000  0.85761500  1
  C  C18  1  0.19167700  0.77455900  0.10699400  1
  C  C19  1  0.77455900  0.19167700  0.60699400  1
  C  C20  1  0.18756900  0.29721000  0.39445700  1
  C  C21  1  0.60109400  0.22248600  0.58430500  1
  C  C22  1  0.29721000  0.18756900  0.89445700  1
  C  C23  1  0.67176400  0.17426400  0.97851200  1
  C  C24  1  0.65003700  0.80129700  0.43742900  1
  C  C25  1  0.68029100  0.38578200  0.80643500  1
  C  C26  1  0.82573600  0.32823600  0.52148800  1
  C  C27  1  0.92447700  0.12685800  0.37990900  1
  C  C28  1  0.32823600  0.82573600  0.02148800  1
  C  C29  1  0.77751400  0.39890600  0.91569500  1
  C  C30  1  0.60694800  0.14329700  0.35835700  1
  C  C31  1  0.98802700  0.41673100  0.23637400  1
  C  C32  1  0.39890600  0.77751400  0.41569500  1
  C  C33  1  0.12685800  0.92447700  0.87990900  1
  C  C34  1  0.81243100  0.70279000  0.60554300  1
  C  C35  1  0.39305200  0.85670300  0.64164300  1
  C  C36  1  0.41673100  0.98802700  0.73637400  1
  C  C37  1  0.17426400  0.67176400  0.47851200  1
  C  C38  1  0.14329700  0.60694800  0.85835700  1
  C  C39  1  0.01197300  0.58326900  0.76362600  1
  C  C40  1  0.87314200  0.07552300  0.12009100  1
  C  C41  1  0.80129700  0.65003700  0.93742900  1
  C  C42  1  0.07552300  0.87314200  0.62009100  1
  C  C43  1  0.38578200  0.68029100  0.30643500  1
  C  C44  1  0.22248600  0.60109400  0.08430500  1
  C  C45  1  0.70279000  0.81243100  0.10554300  1
  C  C46  1  0.58326900  0.01197300  0.26362600  1
  C  C47  1  0.19870300  0.34996300  0.06257100  1
  C  C48  1  0.34996300  0.19870300  0.56257100  1
  C  C49  1  0.61421800  0.31970900  0.69356500  1
  C  C50  1  0.31970900  0.61421800  0.19356500  1
  C  C51  1  0.85670300  0.39305200  0.14164300  1
