# generated using pymatgen
data_CuNi3C8
_symmetry_space_group_name_H-M   'P 1'
_cell_length_a   5.44598134
_cell_length_b   5.44598134
_cell_length_c   18.97349400
_cell_angle_alpha   90.00000000
_cell_angle_beta   90.00000000
_cell_angle_gamma   119.99999200
_symmetry_Int_Tables_number   1
_chemical_formula_structural   CuNi3C8
_chemical_formula_sum   'Cu3 Ni9 C24'
_cell_volume   487.33800277
_cell_formula_units_Z   3
loop_
 _symmetry_equiv_pos_site_id
 _symmetry_equiv_pos_as_xyz
  1  'x, y, z'
loop_
 _atom_site_type_symbol
 _atom_site_label
 _atom_site_symmetry_multiplicity
 _atom_site_fract_x
 _atom_site_fract_y
 _atom_site_fract_z
 _atom_site_occupancy
  C  C0  1  0.10728900  0.89271100  0.33333300  1
  C  C1  1  0.10728900  0.21457800  0.66666700  1
  C  C2  1  0.78542200  0.89271100  0.00000000  1
  C  C3  1  0.77414400  0.22585600  0.33333300  1
  C  C4  1  0.77414400  0.54828700  0.66666700  1
  C  C5  1  0.45171300  0.22585600  0.00000000  1
  Ni  Ni6  1  0.44560100  0.22280000  0.50000000  1
  Ni  Ni7  1  0.77720000  0.22280000  0.83333300  1
  Ni  Ni8  1  0.77720000  0.55439900  0.16666700  1
  Ni  Ni9  1  0.11677000  0.55838500  0.50000000  1
  Ni  Ni10  1  0.44161500  0.55838500  0.83333300  1
  Ni  Ni11  1  0.44161500  0.88323000  0.16666700  1
  Ni  Ni12  1  0.76307300  0.88153600  0.50000000  1
  Ni  Ni13  1  0.11846400  0.88153600  0.83333300  1
  Ni  Ni14  1  0.11846400  0.23692700  0.16666700  1
  Cu  Cu15  1  0.43968000  0.56032000  0.33333300  1
  Cu  Cu16  1  0.43968000  0.87936000  0.66666700  1
  Cu  Cu17  1  0.12064000  0.56032000  0.00000000  1
  C  C18  1  0.76051300  0.55972900  0.27882700  1
  C  C19  1  0.44027100  0.20078400  0.61216000  1
  C  C20  1  0.79921600  0.23948700  0.94549400  1
  C  C21  1  0.76051300  0.20078400  0.72117300  1
  C  C22  1  0.44027100  0.23948700  0.38784000  1
  C  C23  1  0.79921600  0.55972900  0.05450600  1
  C  C24  1  0.43702700  0.87704600  0.27803700  1
  C  C25  1  0.12295400  0.55998100  0.61137000  1
  C  C26  1  0.44001900  0.56297300  0.94470400  1
  C  C27  1  0.43702700  0.55998100  0.72196300  1
  C  C28  1  0.12295400  0.56297300  0.38863000  1
  C  C29  1  0.44001900  0.87704600  0.05529600  1
  C  C30  1  0.11813500  0.24088800  0.27875400  1
  C  C31  1  0.75911200  0.87724700  0.61208700  1
  C  C32  1  0.12275300  0.88186500  0.94542000  1
  C  C33  1  0.11813500  0.87724700  0.72124600  1
  C  C34  1  0.75911200  0.88186500  0.38791300  1
  C  C35  1  0.12275300  0.24088800  0.05458000  1
