# generated using pymatgen
data_Cu2Ni3C16
_symmetry_space_group_name_H-M   'P 1'
_cell_length_a   7.54872800
_cell_length_b   8.72813400
_cell_length_c   15.79809700
_cell_angle_alpha   90.00000000
_cell_angle_beta   90.00000000
_cell_angle_gamma   90.00000000
_symmetry_Int_Tables_number   1
_chemical_formula_structural   Cu2Ni3C16
_chemical_formula_sum   'Cu8 Ni12 C64'
_cell_volume   1040.87830867
_cell_formula_units_Z   4
loop_
 _symmetry_equiv_pos_site_id
 _symmetry_equiv_pos_as_xyz
  1  'x, y, z'
loop_
 _atom_site_type_symbol
 _atom_site_label
 _atom_site_symmetry_multiplicity
 _atom_site_fract_x
 _atom_site_fract_y
 _atom_site_fract_z
 _atom_site_occupancy
  Ni  Ni0  1  0.32565000  0.15327500  0.37542800  1
  Ni  Ni1  1  0.82565000  0.34672500  0.12457200  1
  Ni  Ni2  1  0.67435000  0.84672500  0.87542800  1
  Ni  Ni3  1  0.17435000  0.65327500  0.62457200  1
  Ni  Ni4  1  0.67435000  0.84672500  0.62457200  1
  Ni  Ni5  1  0.17435000  0.65327500  0.87542800  1
  Ni  Ni6  1  0.32565000  0.15327500  0.12457200  1
  Ni  Ni7  1  0.82565000  0.34672500  0.37542800  1
  Ni  Ni8  1  0.67648700  0.97157600  0.25000000  1
  Ni  Ni9  1  0.17648700  0.52842400  0.25000000  1
  Ni  Ni10  1  0.32351300  0.02842400  0.75000000  1
  Ni  Ni11  1  0.82351300  0.47157600  0.75000000  1
  Cu  Cu12  1  0.48784900  0.67211700  0.41706300  1
  Cu  Cu13  1  0.98784900  0.82788300  0.08293700  1
  Cu  Cu14  1  0.51215100  0.32788300  0.91706300  1
  Cu  Cu15  1  0.01215100  0.17211700  0.58293700  1
  Cu  Cu16  1  0.51215100  0.32788300  0.58293700  1
  Cu  Cu17  1  0.01215100  0.17211700  0.91706300  1
  Cu  Cu18  1  0.48784900  0.67211700  0.08293700  1
  Cu  Cu19  1  0.98784900  0.82788300  0.41706300  1
  C  C20  1  0.33354700  0.94581200  0.53802600  1
  C  C21  1  0.83354700  0.55418800  0.96197400  1
  C  C22  1  0.66645300  0.05418800  0.03802600  1
  C  C23  1  0.16645300  0.44581200  0.46197400  1
  C  C24  1  0.66645300  0.05418800  0.46197400  1
  C  C25  1  0.16645300  0.44581200  0.03802600  1
  C  C26  1  0.33354700  0.94581200  0.96197400  1
  C  C27  1  0.83354700  0.55418800  0.53802600  1
  C  C28  1  0.02046500  0.10599600  0.25000000  1
  C  C29  1  0.52046500  0.39400400  0.25000000  1
  C  C30  1  0.97953500  0.89400400  0.75000000  1
  C  C31  1  0.47953500  0.60599600  0.75000000  1
  C  C32  1  0.78031100  0.64685400  0.25000000  1
  C  C33  1  0.28031100  0.85314600  0.25000000  1
  C  C34  1  0.21968900  0.35314600  0.75000000  1
  C  C35  1  0.71968900  0.14685400  0.75000000  1
  C  C36  1  0.41832100  0.05318400  0.58755600  1
  C  C37  1  0.91832100  0.44681600  0.91244400  1
  C  C38  1  0.58167900  0.94681600  0.08755600  1
  C  C39  1  0.08167900  0.55318400  0.41244400  1
  C  C40  1  0.58167900  0.94681600  0.41244400  1
  C  C41  1  0.08167900  0.55318400  0.08755600  1
  C  C42  1  0.41832100  0.05318400  0.91244400  1
  C  C43  1  0.91832100  0.44681600  0.58755600  1
  C  C44  1  0.39345500  0.79450200  0.53607600  1
  C  C45  1  0.89345500  0.70549800  0.96392400  1
  C  C46  1  0.60654500  0.20549800  0.03607500  1
  C  C47  1  0.10654500  0.29450200  0.46392400  1
  C  C48  1  0.60654500  0.20549800  0.46392400  1
  C  C49  1  0.10654500  0.29450200  0.03607500  1
  C  C50  1  0.39345500  0.79450200  0.96392400  1
  C  C51  1  0.89345500  0.70549800  0.53607600  1
  C  C52  1  0.17948100  0.98196400  0.49387200  1
  C  C53  1  0.67948100  0.51803600  0.00612800  1
  C  C54  1  0.82051900  0.01803600  0.99387200  1
  C  C55  1  0.32051900  0.48196400  0.50612800  1
  C  C56  1  0.82051900  0.01803600  0.50612800  1
  C  C57  1  0.32051900  0.48196400  0.99387200  1
  C  C58  1  0.17948100  0.98196400  0.00612800  1
  C  C59  1  0.67948100  0.51803600  0.49387200  1
  C  C60  1  0.10618600  0.24657200  0.25000000  1
  C  C61  1  0.60618600  0.25342800  0.25000000  1
  C  C62  1  0.89381400  0.75342800  0.75000000  1
  C  C63  1  0.39381400  0.74657200  0.75000000  1
  C  C64  1  0.96818000  0.03875400  0.32644700  1
  C  C65  1  0.46818000  0.46124600  0.17355300  1
  C  C66  1  0.03182000  0.96124600  0.82644700  1
  C  C67  1  0.53182000  0.53875400  0.67355300  1
  C  C68  1  0.03182000  0.96124600  0.67355300  1
  C  C69  1  0.53182000  0.53875400  0.82644700  1
  C  C70  1  0.96818000  0.03875400  0.17355300  1
  C  C71  1  0.46818000  0.46124600  0.32644700  1
  C  C72  1  0.74660800  0.72229800  0.32703600  1
  C  C73  1  0.24660800  0.77770200  0.17296400  1
  C  C74  1  0.25339200  0.27770200  0.82703600  1
  C  C75  1  0.75339200  0.22229800  0.67296400  1
  C  C76  1  0.25339200  0.27770200  0.67296400  1
  C  C77  1  0.75339200  0.22229800  0.82703600  1
  C  C78  1  0.74660800  0.72229800  0.17296400  1
  C  C79  1  0.24660800  0.77770200  0.32703600  1
  C  C80  1  0.35466600  0.99399700  0.25000000  1
  C  C81  1  0.85466600  0.50600300  0.25000000  1
  C  C82  1  0.64533400  0.00600300  0.75000000  1
  C  C83  1  0.14533400  0.49399700  0.75000000  1
