# generated using pymatgen
data_Cu2Ni2C9
_symmetry_space_group_name_H-M   'P 1'
_cell_length_a   4.88043998
_cell_length_b   4.88043998
_cell_length_c   14.23709200
_cell_angle_alpha   90.00000000
_cell_angle_beta   90.00000000
_cell_angle_gamma   119.99999975
_symmetry_Int_Tables_number   1
_chemical_formula_structural   Cu2Ni2C9
_chemical_formula_sum   'Cu4 Ni4 C18'
_cell_volume   293.67696060
_cell_formula_units_Z   2
loop_
 _symmetry_equiv_pos_site_id
 _symmetry_equiv_pos_as_xyz
  1  'x, y, z'
loop_
 _atom_site_type_symbol
 _atom_site_label
 _atom_site_symmetry_multiplicity
 _atom_site_fract_x
 _atom_site_fract_y
 _atom_site_fract_z
 _atom_site_occupancy
  Ni  Ni0  1  0.00000000  0.00000000  0.65931200  1
  Ni  Ni1  1  0.00000000  0.00000000  0.15931200  1
  Ni  Ni2  1  0.00000000  0.00000000  0.84068800  1
  Ni  Ni3  1  0.00000000  0.00000000  0.34068800  1
  Cu  Cu4  1  0.33333300  0.66666700  0.00000000  1
  Cu  Cu5  1  0.33333300  0.66666700  0.50000000  1
  Cu  Cu6  1  0.66666700  0.33333300  0.00000000  1
  Cu  Cu7  1  0.66666700  0.33333300  0.50000000  1
  C  C8  1  0.64768900  0.64768900  0.57429500  1
  C  C9  1  0.00000000  0.70150600  0.75000000  1
  C  C10  1  0.64768900  0.00000000  0.42570500  1
  C  C11  1  0.35231100  0.35231100  0.42570500  1
  C  C12  1  0.00000000  0.35231100  0.57429500  1
  C  C13  1  0.70150600  0.70150600  0.25000000  1
  C  C14  1  0.00000000  0.35231100  0.92570500  1
  C  C15  1  0.35231100  0.00000000  0.57429500  1
  C  C16  1  0.35231100  0.35231100  0.07429500  1
  C  C17  1  0.00000000  0.64768900  0.42570500  1
  C  C18  1  0.64768900  0.64768900  0.92570500  1
  C  C19  1  0.64768900  0.00000000  0.07429500  1
  C  C20  1  0.70150600  0.00000000  0.75000000  1
  C  C21  1  0.29849400  0.29849400  0.75000000  1
  C  C22  1  0.29849400  0.00000000  0.25000000  1
  C  C23  1  0.00000000  0.64768900  0.07429500  1
  C  C24  1  0.00000000  0.29849400  0.25000000  1
  C  C25  1  0.35231100  0.00000000  0.92570500  1
