# generated using pymatgen
data_Cu2NiC22
_symmetry_space_group_name_H-M   'P 1'
_cell_length_a   10.91431930
_cell_length_b   10.91431930
_cell_length_c   13.95285076
_cell_angle_alpha   62.47373352
_cell_angle_beta   62.47373352
_cell_angle_gamma   28.08616380
_symmetry_Int_Tables_number   1
_chemical_formula_structural   Cu2NiC22
_chemical_formula_sum   'Cu4 Ni2 C44'
_cell_volume   688.01100701
_cell_formula_units_Z   2
loop_
 _symmetry_equiv_pos_site_id
 _symmetry_equiv_pos_as_xyz
  1  'x, y, z'
loop_
 _atom_site_type_symbol
 _atom_site_label
 _atom_site_symmetry_multiplicity
 _atom_site_fract_x
 _atom_site_fract_y
 _atom_site_fract_z
 _atom_site_occupancy
  Ni  Ni0  1  0.50000000  0.50000000  0.00000000  1
  Ni  Ni1  1  0.50000000  0.50000000  0.50000000  1
  Cu  Cu2  1  0.24878100  0.30902400  0.15075500  1
  Cu  Cu3  1  0.69097600  0.75121900  0.34924500  1
  Cu  Cu4  1  0.75121900  0.69097600  0.84924500  1
  Cu  Cu5  1  0.30902400  0.24878100  0.65075500  1
  C  C6  1  0.66673400  0.64297300  0.15625100  1
  C  C7  1  0.35702700  0.33326600  0.34374900  1
  C  C8  1  0.33326600  0.35702700  0.84374900  1
  C  C9  1  0.64297300  0.66673400  0.65625100  1
  C  C10  1  0.93737100  0.06262900  0.25000000  1
  C  C11  1  0.06262900  0.93737100  0.75000000  1
  C  C12  1  0.17982100  0.13698400  0.00678900  1
  C  C13  1  0.86301600  0.82017900  0.49321100  1
  C  C14  1  0.82017900  0.86301600  0.99321100  1
  C  C15  1  0.13698400  0.17982100  0.50678900  1
  C  C16  1  0.86974300  0.89066800  0.17509100  1
  C  C17  1  0.10933200  0.13025700  0.32490900  1
  C  C18  1  0.13025700  0.10933200  0.82490900  1
  C  C19  1  0.89066800  0.86974300  0.67509100  1
  C  C20  1  0.46191400  0.53808600  0.25000000  1
  C  C21  1  0.53808600  0.46191400  0.75000000  1
  C  C22  1  0.95170100  0.96468300  0.15221400  1
  C  C23  1  0.03531700  0.04829900  0.34778600  1
  C  C24  1  0.04829900  0.03531700  0.84778600  1
  C  C25  1  0.96468300  0.95170100  0.65221400  1
  C  C26  1  0.07826500  0.13831100  0.94809500  1
  C  C27  1  0.86168900  0.92173500  0.55190500  1
  C  C28  1  0.92173500  0.86168900  0.05190500  1
  C  C29  1  0.13831100  0.07826500  0.44809500  1
  C  C30  1  0.88906300  0.42435600  0.28502200  1
  C  C31  1  0.57564400  0.11093700  0.21497800  1
  C  C32  1  0.11093700  0.57564400  0.71497800  1
  C  C33  1  0.42435600  0.88906300  0.78502200  1
  C  C34  1  0.98597900  0.25276800  0.11249800  1
  C  C35  1  0.74723200  0.01402100  0.38750200  1
  C  C36  1  0.01402100  0.74723200  0.88750200  1
  C  C37  1  0.25276800  0.98597900  0.61249800  1
  C  C38  1  0.46415000  0.84878800  0.02663100  1
  C  C39  1  0.15121200  0.53585000  0.47336900  1
  C  C40  1  0.53585000  0.15121200  0.97336900  1
  C  C41  1  0.84878800  0.46415000  0.52663100  1
  C  C42  1  0.04241200  0.62496500  0.24531700  1
  C  C43  1  0.37503500  0.95758800  0.25468300  1
  C  C44  1  0.95758800  0.37503500  0.75468300  1
  C  C45  1  0.62496500  0.04241200  0.74531700  1
  C  C46  1  0.84726900  0.68809900  0.07309500  1
  C  C47  1  0.31190100  0.15273100  0.42690500  1
  C  C48  1  0.15273100  0.31190100  0.92690500  1
  C  C49  1  0.68809900  0.84726900  0.57309500  1
