# generated using pymatgen
data_CuNi6C23
_symmetry_space_group_name_H-M   'P 1'
_cell_length_a   13.87682500
_cell_length_b   8.59110000
_cell_length_c   10.96171900
_cell_angle_alpha   90.00000000
_cell_angle_beta   90.00000000
_cell_angle_gamma   90.00000000
_symmetry_Int_Tables_number   1
_chemical_formula_structural   CuNi6C23
_chemical_formula_sum   'Cu4 Ni24 C92'
_cell_volume   1306.82535053
_cell_formula_units_Z   4
loop_
 _symmetry_equiv_pos_site_id
 _symmetry_equiv_pos_as_xyz
  1  'x, y, z'
loop_
 _atom_site_type_symbol
 _atom_site_label
 _atom_site_symmetry_multiplicity
 _atom_site_fract_x
 _atom_site_fract_y
 _atom_site_fract_z
 _atom_site_occupancy
  C  C0  1  0.71278700  0.25000000  0.26531500  1
  C  C1  1  0.21278700  0.25000000  0.23468500  1
  C  C2  1  0.28721300  0.75000000  0.73468500  1
  C  C3  1  0.78721300  0.75000000  0.76531500  1
  C  C4  1  0.65824400  0.14597800  0.07296000  1
  C  C5  1  0.15824400  0.35402200  0.42704000  1
  C  C6  1  0.34175600  0.64597800  0.92704000  1
  C  C7  1  0.84175600  0.85402200  0.57296000  1
  C  C8  1  0.34175600  0.85402200  0.92704000  1
  C  C9  1  0.84175600  0.64597800  0.57296000  1
  C  C10  1  0.65824400  0.35402200  0.07296000  1
  C  C11  1  0.15824400  0.14597800  0.42704000  1
  C  C12  1  0.56335800  0.25000000  0.15014700  1
  C  C13  1  0.06335800  0.25000000  0.34985300  1
  C  C14  1  0.43664200  0.75000000  0.84985300  1
  C  C15  1  0.93664200  0.75000000  0.65014700  1
  C  C16  1  0.76916600  0.14566700  0.45706700  1
  C  C17  1  0.26916600  0.35433300  0.04293300  1
  C  C18  1  0.23083400  0.64566700  0.54293300  1
  C  C19  1  0.73083400  0.85433300  0.95706700  1
  C  C20  1  0.23083400  0.85433300  0.54293300  1
  C  C21  1  0.73083400  0.64566700  0.95706700  1
  C  C22  1  0.76916600  0.35433300  0.45706700  1
  C  C23  1  0.26916600  0.14566700  0.04293300  1
  C  C24  1  0.86227400  0.25000000  0.37765300  1
  C  C25  1  0.36227400  0.25000000  0.12234700  1
  C  C26  1  0.13772600  0.75000000  0.62234700  1
  C  C27  1  0.63772600  0.75000000  0.87765300  1
  C  C28  1  0.62055800  0.85453100  0.39757200  1
  C  C29  1  0.12055800  0.64546900  0.10242800  1
  C  C30  1  0.37944200  0.35453100  0.60242800  1
  C  C31  1  0.87944200  0.14546900  0.89757200  1
  C  C32  1  0.37944200  0.14546900  0.60242800  1
  C  C33  1  0.87944200  0.35453100  0.89757200  1
  C  C34  1  0.62055800  0.64546900  0.39757200  1
  C  C35  1  0.12055800  0.85453100  0.10242800  1
  C  C36  1  0.54032700  0.75000000  0.49747200  1
  C  C37  1  0.04032700  0.75000000  0.00252800  1
  C  C38  1  0.45967300  0.25000000  0.50252800  1
  C  C39  1  0.95967300  0.25000000  0.99747200  1
  C  C40  1  0.59335900  0.85441200  0.17916600  1
  C  C41  1  0.09335900  0.64558800  0.32083400  1
  C  C42  1  0.40664100  0.35441200  0.82083400  1
  C  C43  1  0.90664100  0.14558800  0.67916600  1
  C  C44  1  0.40664100  0.14558800  0.82083400  1
  C  C45  1  0.90664100  0.35441200  0.67916600  1
  C  C46  1  0.59335900  0.64558800  0.17916600  1
  C  C47  1  0.09335900  0.85441200  0.32083400  1
  C  C48  1  0.49297600  0.75000000  0.11546200  1
  C  C49  1  0.99297600  0.75000000  0.38453800  1
  C  C50  1  0.50702400  0.25000000  0.88453800  1
  C  C51  1  0.00702400  0.25000000  0.61546200  1
  C  C52  1  0.38257300  0.89189300  0.25222700  1
  C  C53  1  0.88257300  0.60810700  0.24777300  1
  C  C54  1  0.61742700  0.39189300  0.74777300  1
  C  C55  1  0.11742700  0.10810700  0.75222700  1
  C  C56  1  0.61742700  0.10810700  0.74777300  1
  C  C57  1  0.11742700  0.39189300  0.75222700  1
  C  C58  1  0.38257300  0.60810700  0.25222700  1
  C  C59  1  0.88257300  0.89189300  0.24777300  1
  C  C60  1  0.48417000  0.99550400  0.31363900  1
  C  C61  1  0.98417000  0.50449600  0.18636100  1
  C  C62  1  0.51583000  0.49550400  0.68636100  1
  C  C63  1  0.01583000  0.00449600  0.81363900  1
  C  C64  1  0.51583000  0.00449600  0.68636100  1
  C  C65  1  0.01583000  0.49550400  0.81363900  1
  C  C66  1  0.48417000  0.50449600  0.31363900  1
  C  C67  1  0.98417000  0.99550400  0.18636100  1
  C  C68  1  0.40454400  0.88934600  0.41329100  1
  C  C69  1  0.90454400  0.61065400  0.08670900  1
  C  C70  1  0.59545600  0.38934600  0.58670900  1
  C  C71  1  0.09545600  0.11065400  0.91329100  1
  C  C72  1  0.59545600  0.11065400  0.58670900  1
  C  C73  1  0.09545600  0.38934600  0.91329100  1
  C  C74  1  0.40454400  0.61065400  0.41329100  1
  C  C75  1  0.90454400  0.88934600  0.08670900  1
  Ni  Ni76  1  0.63950600  0.25000000  0.12514100  1
  Ni  Ni77  1  0.13950600  0.25000000  0.37485900  1
  Ni  Ni78  1  0.36049400  0.75000000  0.87485900  1
  Ni  Ni79  1  0.86049400  0.75000000  0.62514100  1
  Ni  Ni80  1  0.78609400  0.25000000  0.40446300  1
  Ni  Ni81  1  0.28609400  0.25000000  0.09553700  1
  Ni  Ni82  1  0.21390600  0.75000000  0.59553700  1
  Ni  Ni83  1  0.71390600  0.75000000  0.90446300  1
  Ni  Ni84  1  0.57592500  0.75000000  0.40826400  1
  Ni  Ni85  1  0.07592500  0.75000000  0.09173600  1
  Ni  Ni86  1  0.42407500  0.25000000  0.59173600  1
  Ni  Ni87  1  0.92407500  0.25000000  0.90826400  1
  Ni  Ni88  1  0.54830800  0.75000000  0.18635600  1
  Ni  Ni89  1  0.04830800  0.75000000  0.31364400  1
  Ni  Ni90  1  0.45169200  0.25000000  0.81364400  1
  Ni  Ni91  1  0.95169200  0.25000000  0.68635600  1
  Ni  Ni92  1  0.43848900  0.89239500  0.32265300  1
  Ni  Ni93  1  0.93848900  0.60760500  0.17734700  1
  Ni  Ni94  1  0.56151100  0.39239500  0.67734700  1
  Ni  Ni95  1  0.06151100  0.10760500  0.82265300  1
  Ni  Ni96  1  0.56151100  0.10760500  0.67734700  1
  Ni  Ni97  1  0.06151100  0.39239500  0.82265300  1
  Ni  Ni98  1  0.43848900  0.60760500  0.32265300  1
  Ni  Ni99  1  0.93848900  0.89239500  0.17734700  1
  Cu  Cu100  1  0.50029700  0.75000000  0.31003800  1
  Cu  Cu101  1  0.00029700  0.75000000  0.18996200  1
  Cu  Cu102  1  0.49970300  0.25000000  0.68996200  1
  Cu  Cu103  1  0.99970300  0.25000000  0.81003800  1
  C  C104  1  0.71118200  0.04875700  0.26587900  1
  C  C105  1  0.21118200  0.45124300  0.23412100  1
  C  C106  1  0.28881800  0.54875700  0.73412100  1
  C  C107  1  0.78881800  0.95124300  0.76587900  1
  C  C108  1  0.28881800  0.95124300  0.73412100  1
  C  C109  1  0.78881800  0.54875700  0.76587900  1
  C  C110  1  0.71118200  0.45124300  0.26587900  1
  C  C111  1  0.21118200  0.04875700  0.23412100  1
  C  C112  1  0.61007200  0.25000000  0.35658100  1
  C  C113  1  0.11007200  0.25000000  0.14341900  1
  C  C114  1  0.38992800  0.75000000  0.64341900  1
  C  C115  1  0.88992800  0.75000000  0.85658100  1
  C  C116  1  0.81381300  0.25000000  0.17528100  1
  C  C117  1  0.31381300  0.25000000  0.32471900  1
  C  C118  1  0.18618700  0.75000000  0.82471900  1
  C  C119  1  0.68618700  0.75000000  0.67528100  1
