# generated using pymatgen
data_CuNiC12
_symmetry_space_group_name_H-M   'P 1'
_cell_length_a   10.04930910
_cell_length_b   10.86341985
_cell_length_c   14.06243456
_cell_angle_alpha   90.00000000
_cell_angle_beta   90.00000000
_cell_angle_gamma   90.00000000
_symmetry_Int_Tables_number   1
_chemical_formula_structural   CuNiC12
_chemical_formula_sum   'Cu8 Ni8 C96'
_cell_volume   1535.19406780
_cell_formula_units_Z   8
loop_
 _symmetry_equiv_pos_site_id
 _symmetry_equiv_pos_as_xyz
  1  'x, y, z'
loop_
 _atom_site_type_symbol
 _atom_site_label
 _atom_site_symmetry_multiplicity
 _atom_site_fract_x
 _atom_site_fract_y
 _atom_site_fract_z
 _atom_site_occupancy
  Ni  Ni0  1  0.53088025  0.50000000  0.75000000  1
  Ni  Ni1  1  0.46911975  0.50000000  0.25000000  1
  Ni  Ni2  1  0.96911975  0.50000000  0.25000000  1
  Ni  Ni3  1  0.03088025  0.50000000  0.75000000  1
  Ni  Ni4  1  -0.00000000  0.00000000  0.00000000  1
  Ni  Ni5  1  -0.00000000  0.00000000  0.50000000  1
  Ni  Ni6  1  0.50000000  0.00000000  -0.00000000  1
  Ni  Ni7  1  0.50000000  0.00000000  0.50000000  1
  Cu  Cu8  1  0.97580522  0.75149063  0.62309452  1
  Cu  Cu9  1  0.02419478  0.24850937  0.37690548  1
  Cu  Cu10  1  0.97580522  0.24850937  0.87690548  1
  Cu  Cu11  1  0.52419478  0.75149063  0.37690548  1
  Cu  Cu12  1  0.02419478  0.75149063  0.12309452  1
  Cu  Cu13  1  0.47580522  0.24850937  0.62309452  1
  Cu  Cu14  1  0.52419478  0.24850937  0.12309452  1
  Cu  Cu15  1  0.47580522  0.75149063  0.87690548  1
  C  C16  1  0.78564960  0.53017610  0.89849199  1
  C  C17  1  0.21435040  0.46982390  0.10150801  1
  C  C18  1  0.78564960  0.46982390  0.60150801  1
  C  C19  1  0.71435040  0.53017610  0.10150801  1
  C  C20  1  0.21435040  0.53017610  0.39849199  1
  C  C21  1  0.28564960  0.46982390  0.89849199  1
  C  C22  1  0.71435040  0.46982390  0.39849199  1
  C  C23  1  0.28564960  0.53017610  0.60150801  1
  C  C24  1  0.76196444  0.95420174  0.85175974  1
  C  C25  1  0.23803556  0.04579826  0.14824026  1
  C  C26  1  0.76196444  0.04579826  0.64824026  1
  C  C27  1  0.73803556  0.95420174  0.14824026  1
  C  C28  1  0.23803556  0.95420174  0.35175974  1
  C  C29  1  0.26196444  0.04579826  0.85175974  1
  C  C30  1  0.73803556  0.04579826  0.35175974  1
  C  C31  1  0.26196444  0.95420174  0.64824026  1
  C  C32  1  0.95108454  0.74922112  0.87349820  1
  C  C33  1  0.04891546  0.25077888  0.12650180  1
  C  C34  1  0.95108454  0.25077888  0.62650180  1
  C  C35  1  0.54891546  0.74922112  0.12650180  1
  C  C36  1  0.04891546  0.74922112  0.37349820  1
  C  C37  1  0.45108454  0.25077888  0.87349820  1
  C  C38  1  0.54891546  0.25077888  0.37349820  1
  C  C39  1  0.45108454  0.74922112  0.62650180  1
  C  C40  1  0.66081548  0.56748115  0.84863731  1
  C  C41  1  0.33918452  0.43251885  0.15136269  1
  C  C42  1  0.66081548  0.43251885  0.65136269  1
  C  C43  1  0.83918452  0.56748115  0.15136269  1
  C  C44  1  0.33918452  0.56748115  0.34863731  1
  C  C45  1  0.16081548  0.43251885  0.84863731  1
  C  C46  1  0.83918452  0.43251885  0.34863731  1
  C  C47  1  0.16081548  0.56748115  0.65136269  1
  C  C48  1  0.97481775  0.82616338  0.44472729  1
  C  C49  1  0.02518225  0.17383662  0.55527271  1
  C  C50  1  0.97481775  0.17383662  0.05527271  1
  C  C51  1  0.52518225  0.82616338  0.55527271  1
  C  C52  1  0.02518225  0.82616338  0.94472729  1
  C  C53  1  0.47481775  0.17383662  0.44472729  1
  C  C54  1  0.52518225  0.17383662  0.94472729  1
  C  C55  1  0.47481775  0.82616338  0.05527271  1
  C  C56  1  0.75000000  0.46965383  0.00000000  1
  C  C57  1  0.25000000  0.53034617  -0.00000000  1
  C  C58  1  0.75000000  0.53034617  0.50000000  1
  C  C59  1  0.25000000  0.46965383  0.50000000  1
  C  C60  1  0.85980044  0.95616410  0.60596619  1
  C  C61  1  0.14019956  0.04383590  0.39403381  1
  C  C62  1  0.85980044  0.04383590  0.89403381  1
  C  C63  1  0.64019956  0.95616410  0.39403381  1
  C  C64  1  0.14019956  0.95616410  0.10596619  1
  C  C65  1  0.35980044  0.04383590  0.60596619  1
  C  C66  1  0.64019956  0.04383590  0.10596619  1
  C  C67  1  0.35980044  0.95616410  0.89403381  1
  C  C68  1  0.86345548  0.65255573  0.93416849  1
  C  C69  1  0.13654452  0.34744427  0.06583151  1
  C  C70  1  0.86345548  0.34744427  0.56583151  1
  C  C71  1  0.63654452  0.65255573  0.06583151  1
  C  C72  1  0.13654452  0.65255573  0.43416849  1
  C  C73  1  0.36345548  0.34744427  0.93416849  1
  C  C74  1  0.63654452  0.34744427  0.43416849  1
  C  C75  1  0.36345548  0.65255573  0.56583151  1
  C  C76  1  0.64082533  0.91784858  0.90791886  1
  C  C77  1  0.35917467  0.08215142  0.09208114  1
  C  C78  1  0.64082533  0.08215142  0.59208114  1
  C  C79  1  0.85917467  0.91784858  0.09208114  1
  C  C80  1  0.35917467  0.91784858  0.40791886  1
  C  C81  1  0.14082533  0.08215142  0.90791886  1
  C  C82  1  0.85917467  0.08215142  0.40791886  1
  C  C83  1  0.14082533  0.91784858  0.59208114  1
  C  C84  1  0.88197893  0.55491197  0.65102713  1
  C  C85  1  0.11802107  0.44508803  0.34897287  1
  C  C86  1  0.88197893  0.44508803  0.84897287  1
  C  C87  1  0.61802107  0.55491197  0.34897287  1
  C  C88  1  0.11802107  0.55491197  0.15102713  1
  C  C89  1  0.38197893  0.44508803  0.65102713  1
  C  C90  1  0.61802107  0.44508803  0.15102713  1
  C  C91  1  0.38197893  0.55491197  0.84897287  1
  C  C92  1  0.83995196  0.83057544  0.81903911  1
  C  C93  1  0.16004804  0.16942456  0.18096089  1
  C  C94  1  0.83995196  0.16942456  0.68096089  1
  C  C95  1  0.66004804  0.83057544  0.18096089  1
  C  C96  1  0.16004804  0.83057544  0.31903911  1
  C  C97  1  0.33995196  0.16942456  0.81903911  1
  C  C98  1  0.66004804  0.16942456  0.31903911  1
  C  C99  1  0.33995196  0.83057544  0.68096089  1
  C  C100  1  0.70868408  0.00000000  0.75000000  1
  C  C101  1  0.29131592  0.00000000  0.25000000  1
  C  C102  1  0.79131592  0.00000000  0.25000000  1
  C  C103  1  0.20868408  0.00000000  0.75000000  1
  C  C104  1  0.52663101  0.68177008  0.70227809  1
  C  C105  1  0.47336899  0.31822992  0.29772191  1
  C  C106  1  0.52663101  0.31822992  0.79772191  1
  C  C107  1  0.97336899  0.68177008  0.29772191  1
  C  C108  1  0.47336899  0.68177008  0.20227809  1
  C  C109  1  0.02663101  0.31822992  0.70227809  1
  C  C110  1  0.97336899  0.31822992  0.20227809  1
  C  C111  1  0.02663101  0.68177008  0.79772191  1
