# generated using pymatgen
data_Cu3Ni3C13
_symmetry_space_group_name_H-M   'P 1'
_cell_length_a   9.64231624
_cell_length_b   9.64231624
_cell_length_c   9.64231628
_cell_angle_alpha   108.25396994
_cell_angle_beta   108.25396994
_cell_angle_gamma   108.25397616
_symmetry_Int_Tables_number   1
_chemical_formula_structural   Cu3Ni3C13
_chemical_formula_sum   'Cu6 Ni6 C26'
_cell_volume   719.53804865
_cell_formula_units_Z   2
loop_
 _symmetry_equiv_pos_site_id
 _symmetry_equiv_pos_as_xyz
  1  'x, y, z'
loop_
 _atom_site_type_symbol
 _atom_site_label
 _atom_site_symmetry_multiplicity
 _atom_site_fract_x
 _atom_site_fract_y
 _atom_site_fract_z
 _atom_site_occupancy
  C  C0  1  0.46555600  0.46555600  0.46555600  1
  C  C1  1  0.96747000  0.96747000  0.96747000  1
  Ni  Ni2  1  0.88122000  0.70334700  0.56224700  1
  Ni  Ni3  1  0.56224700  0.88122000  0.70334700  1
  Ni  Ni4  1  0.70334700  0.56224700  0.88122000  1
  Ni  Ni5  1  0.36865900  0.04487100  0.23383600  1
  Ni  Ni6  1  0.23383600  0.36865900  0.04487100  1
  Ni  Ni7  1  0.04487100  0.23383600  0.36865900  1
  Cu  Cu8  1  0.12296200  0.66971800  0.28588000  1
  Cu  Cu9  1  0.28588000  0.12296200  0.66971800  1
  Cu  Cu10  1  0.66971800  0.28588000  0.12296200  1
  Cu  Cu11  1  0.30768100  0.69264100  0.84391400  1
  Cu  Cu12  1  0.84391400  0.30768100  0.69264100  1
  Cu  Cu13  1  0.69264100  0.84391400  0.30768100  1
  C  C14  1  0.94714400  0.75686700  0.43532900  1
  C  C15  1  0.43532900  0.94714400  0.75686700  1
  C  C16  1  0.75686700  0.43532900  0.94714400  1
  C  C17  1  0.67616600  0.61139100  0.46350500  1
  C  C18  1  0.46350500  0.67616600  0.61139100  1
  C  C19  1  0.61139100  0.46350500  0.67616600  1
  C  C20  1  0.87602300  0.72926900  0.94444300  1
  C  C21  1  0.94444300  0.87602300  0.72926900  1
  C  C22  1  0.72926900  0.94444300  0.87602300  1
  C  C23  1  0.60339300  0.95884800  0.58162800  1
  C  C24  1  0.58162800  0.60339300  0.95884800  1
  C  C25  1  0.95884800  0.58162800  0.60339300  1
  C  C26  1  0.25034400  0.32821600  0.46972100  1
  C  C27  1  0.46972100  0.25034400  0.32821600  1
  C  C28  1  0.32821600  0.46972100  0.25034400  1
  C  C29  1  0.06028800  0.20521000  0.98704000  1
  C  C30  1  0.98704000  0.06028800  0.20521000  1
  C  C31  1  0.20521000  0.98704000  0.06028800  1
  C  C32  1  0.96736800  0.18471800  0.48827500  1
  C  C33  1  0.48827500  0.96736800  0.18471800  1
  C  C34  1  0.18471800  0.48827500  0.96736800  1
  C  C35  1  0.31709900  0.97876200  0.36105300  1
  C  C36  1  0.36105300  0.31709900  0.97876200  1
  C  C37  1  0.97876200  0.36105300  0.31709900  1
