# generated using pymatgen
data_Cu4Ni2C15
_symmetry_space_group_name_H-M   'P 1'
_cell_length_a   7.39670109
_cell_length_b   7.39670109
_cell_length_c   16.43166246
_cell_angle_alpha   77.81114947
_cell_angle_beta   77.81114947
_cell_angle_gamma   89.99674646
_symmetry_Int_Tables_number   1
_chemical_formula_structural   Cu4Ni2C15
_chemical_formula_sum   'Cu8 Ni4 C30'
_cell_volume   857.98745441
_cell_formula_units_Z   2
loop_
 _symmetry_equiv_pos_site_id
 _symmetry_equiv_pos_as_xyz
  1  'x, y, z'
loop_
 _atom_site_type_symbol
 _atom_site_label
 _atom_site_symmetry_multiplicity
 _atom_site_fract_x
 _atom_site_fract_y
 _atom_site_fract_z
 _atom_site_occupancy
  Ni  Ni0  1  0.16555100  0.66602900  0.66645700  1
  Ni  Ni1  1  0.83444900  0.33397100  0.33354300  1
  Ni  Ni2  1  0.33397100  0.83444900  0.83354300  1
  Ni  Ni3  1  0.66602900  0.16555100  0.16645700  1
  Cu  Cu4  1  0.50000000  0.00000000  0.00000000  1
  Cu  Cu5  1  0.66616600  0.66737200  0.66657600  1
  Cu  Cu6  1  0.33383400  0.33262800  0.33342400  1
  Cu  Cu7  1  0.00000000  0.00000000  0.00000000  1
  Cu  Cu8  1  0.00000000  0.50000000  0.50000000  1
  Cu  Cu9  1  0.33262800  0.33383400  0.83342400  1
  Cu  Cu10  1  0.00000000  0.00000000  0.50000000  1
  Cu  Cu11  1  0.66737200  0.66616600  0.16657600  1
  C  C12  1  0.79069200  0.54141800  0.91761300  1
  C  C13  1  0.45858200  0.20930800  0.58238700  1
  C  C14  1  0.12620400  0.87379600  0.25000000  1
  C  C15  1  0.54141800  0.79069200  0.41761300  1
  C  C16  1  0.20930800  0.45858200  0.08238700  1
  C  C17  1  0.87379600  0.12620400  0.75000000  1
  C  C18  1  0.41689500  0.90450300  0.66963000  1
  C  C19  1  0.08349600  0.56832400  0.33845800  1
  C  C20  1  0.74849700  0.23382200  0.00330800  1
  C  C21  1  0.41644900  0.42757100  0.67150500  1
  C  C22  1  0.08302800  0.09311500  0.33830000  1
  C  C23  1  0.74684000  0.76412100  0.00581600  1
  C  C24  1  0.09549700  0.58310500  0.83037000  1
  C  C25  1  0.76617800  0.25150300  0.49669200  1
  C  C26  1  0.43167600  0.91650400  0.16154200  1
  C  C27  1  0.57242900  0.58355100  0.82849500  1
  C  C28  1  0.23587900  0.25316000  0.49418400  1
  C  C29  1  0.90688500  0.91697200  0.16170000  1
  C  C30  1  0.91650400  0.43167600  0.66154200  1
  C  C31  1  0.58310500  0.09549700  0.33037000  1
  C  C32  1  0.25150300  0.76617800  0.99669200  1
  C  C33  1  0.91697200  0.90688500  0.66170000  1
  C  C34  1  0.58355100  0.57242900  0.32849500  1
  C  C35  1  0.25316000  0.23587900  0.99418400  1
  C  C36  1  0.23382200  0.74849700  0.50330800  1
  C  C37  1  0.90450300  0.41689500  0.16963000  1
  C  C38  1  0.56832400  0.08349600  0.83845800  1
  C  C39  1  0.76412100  0.74684000  0.50581600  1
  C  C40  1  0.42757100  0.41644900  0.17150500  1
  C  C41  1  0.09311500  0.08302800  0.83830000  1
