# generated using pymatgen
data_Cu2Ni5
_symmetry_space_group_name_H-M   'P 1'
_cell_length_a   7.95116039
_cell_length_b   7.95116039
_cell_length_c   7.90424800
_cell_angle_alpha   90.00000000
_cell_angle_beta   90.00000000
_cell_angle_gamma   120.00000325
_symmetry_Int_Tables_number   1
_chemical_formula_structural   Cu2Ni5
_chemical_formula_sum   'Cu8 Ni20'
_cell_volume   432.76507362
_cell_formula_units_Z   4
loop_
 _symmetry_equiv_pos_site_id
 _symmetry_equiv_pos_as_xyz
  1  'x, y, z'
loop_
 _atom_site_type_symbol
 _atom_site_label
 _atom_site_symmetry_multiplicity
 _atom_site_fract_x
 _atom_site_fract_y
 _atom_site_fract_z
 _atom_site_occupancy
  Ni  Ni0  1  0.00000000  0.00000000  0.00000000  1
  Ni  Ni1  1  0.00000000  0.00000000  0.50000000  1
  Ni  Ni2  1  0.47119100  0.94238100  0.25000000  1
  Ni  Ni3  1  0.52880900  0.47119100  0.75000000  1
  Ni  Ni4  1  0.94238100  0.47119100  0.75000000  1
  Ni  Ni5  1  0.05761900  0.52880900  0.25000000  1
  Ni  Ni6  1  0.47119100  0.52880900  0.25000000  1
  Ni  Ni7  1  0.52880900  0.05761900  0.75000000  1
  Ni  Ni8  1  0.19281200  0.38562300  0.94199700  1
  Ni  Ni9  1  0.80718800  0.19281200  0.44199700  1
  Ni  Ni10  1  0.38562300  0.19281200  0.44199700  1
  Ni  Ni11  1  0.61437700  0.80718800  0.94199700  1
  Ni  Ni12  1  0.19281200  0.80718800  0.94199700  1
  Ni  Ni13  1  0.80718800  0.61437700  0.05800300  1
  Ni  Ni14  1  0.80718800  0.19281200  0.05800300  1
  Ni  Ni15  1  0.80718800  0.61437700  0.44199700  1
  Ni  Ni16  1  0.38562300  0.19281200  0.05800300  1
  Ni  Ni17  1  0.61437700  0.80718800  0.55800300  1
  Ni  Ni18  1  0.19281200  0.38562300  0.55800300  1
  Ni  Ni19  1  0.19281200  0.80718800  0.55800300  1
  Cu  Cu20  1  0.33333300  0.66666700  0.75000000  1
  Cu  Cu21  1  0.66666700  0.33333300  0.25000000  1
  Cu  Cu22  1  0.12975000  0.25950100  0.25000000  1
  Cu  Cu23  1  0.87025000  0.12975000  0.75000000  1
  Cu  Cu24  1  0.25950100  0.12975000  0.75000000  1
  Cu  Cu25  1  0.74049900  0.87025000  0.25000000  1
  Cu  Cu26  1  0.12975000  0.87025000  0.25000000  1
  Cu  Cu27  1  0.87025000  0.74049900  0.75000000  1
