# generated using pymatgen
data_Cu5NiC3
_symmetry_space_group_name_H-M   'P 1'
_cell_length_a   7.52993000
_cell_length_b   7.91249576
_cell_length_c   7.72754636
_cell_angle_alpha   65.72427646
_cell_angle_beta   90.00000000
_cell_angle_gamma   90.00000000
_symmetry_Int_Tables_number   1
_chemical_formula_structural   Cu5NiC3
_chemical_formula_sum   'Cu20 Ni4 C12'
_cell_volume   419.70067918
_cell_formula_units_Z   4
loop_
 _symmetry_equiv_pos_site_id
 _symmetry_equiv_pos_as_xyz
  1  'x, y, z'
loop_
 _atom_site_type_symbol
 _atom_site_label
 _atom_site_symmetry_multiplicity
 _atom_site_fract_x
 _atom_site_fract_y
 _atom_site_fract_z
 _atom_site_occupancy
  C  C0  1  0.76155500  0.53717300  0.24045200  1
  C  C1  1  0.26155500  0.96282700  0.25954800  1
  C  C2  1  0.23844500  0.46282700  0.75954800  1
  C  C3  1  0.73844500  0.03717300  0.74045200  1
  C  C4  1  0.57255600  0.20086300  0.37573600  1
  C  C5  1  0.07255600  0.29913700  0.12426400  1
  C  C6  1  0.42744400  0.79913700  0.62426400  1
  C  C7  1  0.92744400  0.70086300  0.87573600  1
  C  C8  1  0.48244000  0.30343100  0.49130900  1
  C  C9  1  0.98244000  0.19656900  0.00869100  1
  C  C10  1  0.51756000  0.69656900  0.50869100  1
  C  C11  1  0.01756000  0.80343100  0.99130900  1
  Ni  Ni12  1  0.11641900  0.25531600  0.48671100  1
  Ni  Ni13  1  0.61641900  0.24468400  0.01328900  1
  Ni  Ni14  1  0.88358100  0.74468400  0.51328900  1
  Ni  Ni15  1  0.38358100  0.75531600  0.98671100  1
  Cu  Cu16  1  0.99698200  0.20359100  0.65361100  1
  Cu  Cu17  1  0.49698200  0.29640900  0.84638900  1
  Cu  Cu18  1  0.00301800  0.79640900  0.34638900  1
  Cu  Cu19  1  0.50301800  0.70359100  0.15361100  1
  Cu  Cu20  1  0.25963300  0.37747100  0.50974800  1
  Cu  Cu21  1  0.75963300  0.12252900  0.99025200  1
  Cu  Cu22  1  0.74036700  0.62252900  0.49025200  1
  Cu  Cu23  1  0.24036700  0.87747100  0.00974800  1
  Cu  Cu24  1  0.01445600  0.36175300  0.30655200  1
  Cu  Cu25  1  0.51445600  0.13824700  0.19344800  1
  Cu  Cu26  1  0.98554400  0.63824700  0.69344800  1
  Cu  Cu27  1  0.48554400  0.86175300  0.80655200  1
  Cu  Cu28  1  0.19917700  0.09322800  0.47236900  1
  Cu  Cu29  1  0.69917700  0.40677200  0.02763100  1
  Cu  Cu30  1  0.80082300  0.90677200  0.52763100  1
  Cu  Cu31  1  0.30082300  0.59322800  0.97236900  1
  Cu  Cu32  1  0.60010400  0.26179200  0.46323800  1
  Cu  Cu33  1  0.10010400  0.23820800  0.03676200  1
  Cu  Cu34  1  0.39989600  0.73820800  0.53676200  1
  Cu  Cu35  1  0.89989600  0.76179200  0.96323800  1
