# generated using pymatgen
data_Cu25Ni9
_symmetry_space_group_name_H-M   'P 1'
_cell_length_a   7.49113097
_cell_length_b   7.49113097
_cell_length_c   10.74609800
_cell_angle_alpha   90.00000000
_cell_angle_beta   90.00000000
_cell_angle_gamma   120.00000854
_symmetry_Int_Tables_number   1
_chemical_formula_structural   Cu25Ni9
_chemical_formula_sum   'Cu25 Ni9'
_cell_volume   522.24726101
_cell_formula_units_Z   1
loop_
 _symmetry_equiv_pos_site_id
 _symmetry_equiv_pos_as_xyz
  1  'x, y, z'
loop_
 _atom_site_type_symbol
 _atom_site_label
 _atom_site_symmetry_multiplicity
 _atom_site_fract_x
 _atom_site_fract_y
 _atom_site_fract_z
 _atom_site_occupancy
  Ni  Ni0  1  0.00000000  0.00000000  0.00000000  1
  Ni  Ni1  1  0.66666700  0.33333300  0.01986000  1
  Ni  Ni2  1  0.33333300  0.66666700  0.98014000  1
  Ni  Ni3  1  0.34265100  0.33479200  0.32189800  1
  Ni  Ni4  1  0.99214100  0.65734900  0.32189800  1
  Ni  Ni5  1  0.66520800  0.00785900  0.32189800  1
  Ni  Ni6  1  0.65734900  0.66520800  0.67810200  1
  Ni  Ni7  1  0.00785900  0.34265100  0.67810200  1
  Ni  Ni8  1  0.33479200  0.99214100  0.67810200  1
  Cu  Cu9  1  0.65653500  0.93020800  0.08013900  1
  Cu  Cu10  1  0.06979200  0.72632700  0.08013900  1
  Cu  Cu11  1  0.27367300  0.34346500  0.08013900  1
  Cu  Cu12  1  0.41770500  0.09141000  0.18570700  1
  Cu  Cu13  1  0.90859000  0.32629500  0.18570700  1
  Cu  Cu14  1  0.67370500  0.58229500  0.18570700  1
  Cu  Cu15  1  0.58229500  0.90859000  0.81429300  1
  Cu  Cu16  1  0.09141000  0.67370500  0.81429300  1
  Cu  Cu17  1  0.32629500  0.41770500  0.81429300  1
  Cu  Cu18  1  0.33333300  0.66666700  0.60766800  1
  Cu  Cu19  1  0.66666700  0.33333300  0.39233200  1
  Cu  Cu20  1  0.33333300  0.66666700  0.24312100  1
  Cu  Cu21  1  0.66666700  0.33333300  0.75687900  1
  Cu  Cu22  1  0.00000000  0.00000000  0.24876900  1
  Cu  Cu23  1  0.00000000  0.00000000  0.75123100  1
  Cu  Cu24  1  0.00000000  0.00000000  0.50000000  1
  Cu  Cu25  1  0.72632700  0.65653500  0.91986100  1
  Cu  Cu26  1  0.93020800  0.27367300  0.91986100  1
  Cu  Cu27  1  0.34346500  0.06979200  0.91986100  1
  Cu  Cu28  1  0.37992700  0.30730300  0.56882600  1
  Cu  Cu29  1  0.92737600  0.62007300  0.56882600  1
  Cu  Cu30  1  0.69269700  0.07262400  0.56882600  1
  Cu  Cu31  1  0.62007300  0.69269700  0.43117400  1
  Cu  Cu32  1  0.07262400  0.37992700  0.43117400  1
  Cu  Cu33  1  0.30730300  0.92737600  0.43117400  1
