# generated using pymatgen
data_Cu7(NiC2)3
_symmetry_space_group_name_H-M   'P 1'
_cell_length_a   10.80139735
_cell_length_b   10.80139735
_cell_length_c   10.80139735
_cell_angle_alpha   113.95852459
_cell_angle_beta   113.95852459
_cell_angle_gamma   100.82731151
_symmetry_Int_Tables_number   1
_chemical_formula_structural   Cu7(NiC2)3
_chemical_formula_sum   'Cu28 Ni12 C24'
_cell_volume   953.90364791
_cell_formula_units_Z   4
loop_
 _symmetry_equiv_pos_site_id
 _symmetry_equiv_pos_as_xyz
  1  'x, y, z'
loop_
 _atom_site_type_symbol
 _atom_site_label
 _atom_site_symmetry_multiplicity
 _atom_site_fract_x
 _atom_site_fract_y
 _atom_site_fract_z
 _atom_site_occupancy
  C  C0  1  0.92213100  0.42213100  0.84426300  1
  C  C1  1  0.17213100  0.82786900  0.00000000  1
  C  C2  1  0.82786900  0.17213100  0.00000000  1
  C  C3  1  0.57786900  0.07786900  0.15573700  1
  C  C4  1  0.82786900  0.82786900  0.65573700  1
  C  C5  1  0.57786900  0.42213100  0.50000000  1
  C  C6  1  0.92213100  0.07786900  0.50000000  1
  C  C7  1  0.17213100  0.17213100  0.34426300  1
  C  C8  1  0.53318800  0.29730800  0.76412000  1
  C  C9  1  0.53318800  0.76906700  0.23588000  1
  C  C10  1  0.70269200  0.46681200  0.23588000  1
  C  C11  1  0.51906700  0.78318800  0.73588000  1
  C  C12  1  0.04730800  0.78318800  0.26412000  1
  C  C13  1  0.21681200  0.48093300  0.26412000  1
  C  C14  1  0.21681200  0.95269200  0.73588000  1
  C  C15  1  0.23093300  0.46681200  0.76412000  1
  C  C16  1  0.77871000  0.90369500  0.12498500  1
  C  C17  1  0.77871000  0.65372500  0.87501500  1
  C  C18  1  0.09630500  0.22129000  0.87501500  1
  C  C19  1  0.40372500  0.02871000  0.37501500  1
  C  C20  1  0.65369500  0.02871000  0.62498500  1
  C  C21  1  0.97129000  0.59627500  0.62498500  1
  C  C22  1  0.97129000  0.34630500  0.37501500  1
  C  C23  1  0.34627500  0.22129000  0.12498500  1
  Ni  Ni24  1  0.00000000  0.00000000  0.00000000  1
  Ni  Ni25  1  0.75000000  0.25000000  0.50000000  1
  Ni  Ni26  1  0.25000000  0.75000000  0.50000000  1
  Ni  Ni27  1  0.50000000  0.50000000  0.00000000  1
  Ni  Ni28  1  0.37500000  0.47843300  0.60343300  1
  Ni  Ni29  1  0.22843300  0.12500000  0.60343300  1
  Ni  Ni30  1  0.52156700  0.62500000  0.39656700  1
  Ni  Ni31  1  0.87500000  0.77156700  0.39656700  1
  Ni  Ni32  1  0.37500000  0.77156700  0.89656700  1
  Ni  Ni33  1  0.52156700  0.12500000  0.89656700  1
  Ni  Ni34  1  0.22843300  0.62500000  0.10343300  1
  Ni  Ni35  1  0.87500000  0.47843300  0.10343300  1
  Cu  Cu36  1  0.27394000  0.27394000  0.00000000  1
  Cu  Cu37  1  0.02394000  0.52394000  0.50000000  1
  Cu  Cu38  1  0.47606000  0.97606000  0.50000000  1
  Cu  Cu39  1  0.72606000  0.72606000  0.00000000  1
  Cu  Cu40  1  0.70075400  0.46881500  0.76806000  1
  Cu  Cu41  1  0.70075400  0.93269400  0.23194000  1
  Cu  Cu42  1  0.53118500  0.29924600  0.23194000  1
  Cu  Cu43  1  0.68269400  0.95075400  0.73194000  1
  Cu  Cu44  1  0.21881500  0.95075400  0.26806000  1
  Cu  Cu45  1  0.04924600  0.31730600  0.26806000  1
  Cu  Cu46  1  0.04924600  0.78118500  0.73194000  1
  Cu  Cu47  1  0.06730600  0.29924600  0.76806000  1
  Cu  Cu48  1  0.79408800  0.55816500  0.51839000  1
  Cu  Cu49  1  0.03977500  0.27569800  0.48161000  1
  Cu  Cu50  1  0.44183500  0.20591200  0.48161000  1
  Cu  Cu51  1  0.02569800  0.04408800  0.73592400  1
  Cu  Cu52  1  0.30816500  0.28977500  0.26407600  1
  Cu  Cu53  1  0.95591200  0.97430200  0.26407600  1
  Cu  Cu54  1  0.71022500  0.69183500  0.73592400  1
  Cu  Cu55  1  0.72430200  0.96022500  0.51839000  1
  Cu  Cu56  1  0.95591200  0.69183500  0.98161000  1
  Cu  Cu57  1  0.71022500  0.97430200  0.01839000  1
  Cu  Cu58  1  0.30816500  0.04408800  0.01839000  1
  Cu  Cu59  1  0.72430200  0.20591200  0.76407600  1
  Cu  Cu60  1  0.44183500  0.96022500  0.23592400  1
  Cu  Cu61  1  0.79408800  0.27569800  0.23592400  1
  Cu  Cu62  1  0.03977500  0.55816500  0.76407600  1
  Cu  Cu63  1  0.02569800  0.28977500  0.98161000  1
