# generated using pymatgen
data_Cu6Ni3C13
_symmetry_space_group_name_H-M   'P 1'
_cell_length_a   5.86948200
_cell_length_b   8.44494600
_cell_length_c   10.70486800
_cell_angle_alpha   90.00000000
_cell_angle_beta   90.00000000
_cell_angle_gamma   90.00000000
_symmetry_Int_Tables_number   1
_chemical_formula_structural   Cu6Ni3C13
_chemical_formula_sum   'Cu12 Ni6 C26'
_cell_volume   530.61310074
_cell_formula_units_Z   2
loop_
 _symmetry_equiv_pos_site_id
 _symmetry_equiv_pos_as_xyz
  1  'x, y, z'
loop_
 _atom_site_type_symbol
 _atom_site_label
 _atom_site_symmetry_multiplicity
 _atom_site_fract_x
 _atom_site_fract_y
 _atom_site_fract_z
 _atom_site_occupancy
  Ni  Ni0  1  0.50000000  0.26377800  0.50000000  1
  Ni  Ni1  1  0.50000000  0.73622200  0.50000000  1
  Ni  Ni2  1  0.50000000  0.73622200  0.00000000  1
  Ni  Ni3  1  0.50000000  0.26377800  0.00000000  1
  Ni  Ni4  1  0.61660000  0.00000000  0.75000000  1
  Ni  Ni5  1  0.38340000  0.00000000  0.25000000  1
  Cu  Cu6  1  0.00000000  0.35439300  0.50000000  1
  Cu  Cu7  1  0.00000000  0.64560700  0.50000000  1
  Cu  Cu8  1  0.00000000  0.64560700  0.00000000  1
  Cu  Cu9  1  0.00000000  0.35439300  0.00000000  1
  Cu  Cu10  1  0.14659800  0.14704700  0.75000000  1
  Cu  Cu11  1  0.85340200  0.85295300  0.25000000  1
  Cu  Cu12  1  0.14659800  0.85295300  0.75000000  1
  Cu  Cu13  1  0.85340200  0.14704700  0.25000000  1
  Cu  Cu14  1  0.78094300  0.31442900  0.75000000  1
  Cu  Cu15  1  0.21905700  0.68557100  0.25000000  1
  Cu  Cu16  1  0.78094300  0.68557100  0.75000000  1
  Cu  Cu17  1  0.21905700  0.31442900  0.25000000  1
  C  C18  1  0.26311900  0.50000000  0.75000000  1
  C  C19  1  0.73688100  0.50000000  0.25000000  1
  C  C20  1  0.00000000  0.00000000  0.50000000  1
  C  C21  1  0.00000000  0.00000000  0.00000000  1
  C  C22  1  0.13423400  0.17364300  0.11097700  1
  C  C23  1  0.86576600  0.82635700  0.88902300  1
  C  C24  1  0.13423400  0.82635700  0.38902300  1
  C  C25  1  0.86576600  0.17364300  0.88902300  1
  C  C26  1  0.86576600  0.17364300  0.61097700  1
  C  C27  1  0.13423400  0.82635700  0.11097700  1
  C  C28  1  0.86576600  0.82635700  0.61097700  1
  C  C29  1  0.13423400  0.17364300  0.38902300  1
  C  C30  1  0.94299200  0.50000000  0.75000000  1
  C  C31  1  0.05700800  0.50000000  0.25000000  1
  C  C32  1  0.25206200  0.50000000  0.56035900  1
  C  C33  1  0.74793800  0.50000000  0.43964100  1
  C  C34  1  0.25206200  0.50000000  0.93964100  1
  C  C35  1  0.74793800  0.50000000  0.06035900  1
  C  C36  1  0.28224800  0.00000000  0.60731200  1
  C  C37  1  0.71775200  0.00000000  0.39268800  1
  C  C38  1  0.28224800  0.00000000  0.89268800  1
  C  C39  1  0.71775200  0.00000000  0.10731200  1
  C  C40  1  0.43123300  0.30072400  0.75000000  1
  C  C41  1  0.56876700  0.69927600  0.25000000  1
  C  C42  1  0.43123300  0.69927600  0.75000000  1
  C  C43  1  0.56876700  0.30072400  0.25000000  1
