# generated using pymatgen
data_Cu7NiC
_symmetry_space_group_name_H-M   'P 1'
_cell_length_a   6.99009000
_cell_length_b   7.47837600
_cell_length_c   19.52064000
_cell_angle_alpha   90.00000000
_cell_angle_beta   90.00000000
_cell_angle_gamma   90.00000000
_symmetry_Int_Tables_number   1
_chemical_formula_structural   Cu7NiC
_chemical_formula_sum   'Cu56 Ni8 C8'
_cell_volume   1020.43211135
_cell_formula_units_Z   8
loop_
 _symmetry_equiv_pos_site_id
 _symmetry_equiv_pos_as_xyz
  1  'x, y, z'
loop_
 _atom_site_type_symbol
 _atom_site_label
 _atom_site_symmetry_multiplicity
 _atom_site_fract_x
 _atom_site_fract_y
 _atom_site_fract_z
 _atom_site_occupancy
  C  C0  1  0.00086600  0.29598500  0.37305200  1
  C  C1  1  0.49913400  0.20401500  0.87305200  1
  C  C2  1  0.50086600  0.70401500  0.62694800  1
  C  C3  1  0.99913400  0.79598500  0.12694800  1
  C  C4  1  0.99913400  0.70401500  0.62694800  1
  C  C5  1  0.50086600  0.79598500  0.12694800  1
  C  C6  1  0.49913400  0.29598500  0.37305200  1
  C  C7  1  0.00086600  0.20401500  0.87305200  1
  Ni  Ni8  1  0.75000000  0.94841500  0.37983200  1
  Ni  Ni9  1  0.75000000  0.55158500  0.87983200  1
  Ni  Ni10  1  0.25000000  0.05158500  0.62016800  1
  Ni  Ni11  1  0.25000000  0.44841500  0.12016800  1
  Ni  Ni12  1  0.25000000  0.63886600  0.37281500  1
  Ni  Ni13  1  0.25000000  0.86113400  0.87281500  1
  Ni  Ni14  1  0.75000000  0.36113400  0.62718500  1
  Ni  Ni15  1  0.75000000  0.13886600  0.12718500  1
  Cu  Cu16  1  0.92584100  0.04910300  0.35660700  1
  Cu  Cu17  1  0.57415900  0.45089700  0.85660700  1
  Cu  Cu18  1  0.42584100  0.95089700  0.64339300  1
  Cu  Cu19  1  0.07415900  0.54910300  0.14339300  1
  Cu  Cu20  1  0.07415900  0.95089700  0.64339300  1
  Cu  Cu21  1  0.42584100  0.54910300  0.14339300  1
  Cu  Cu22  1  0.57415900  0.04910300  0.35660700  1
  Cu  Cu23  1  0.92584100  0.45089700  0.85660700  1
  Cu  Cu24  1  0.07313300  0.53471300  0.39715000  1
  Cu  Cu25  1  0.42686700  0.96528700  0.89715000  1
  Cu  Cu26  1  0.57313300  0.46528700  0.60285000  1
  Cu  Cu27  1  0.92686700  0.03471300  0.10285000  1
  Cu  Cu28  1  0.92686700  0.46528700  0.60285000  1
  Cu  Cu29  1  0.57313300  0.03471300  0.10285000  1
  Cu  Cu30  1  0.42686700  0.53471300  0.39715000  1
  Cu  Cu31  1  0.07313300  0.96528700  0.89715000  1
  Cu  Cu32  1  0.75000000  0.77507900  0.34447700  1
  Cu  Cu33  1  0.75000000  0.72492100  0.84447700  1
  Cu  Cu34  1  0.25000000  0.22492100  0.65552300  1
  Cu  Cu35  1  0.25000000  0.27507900  0.15552300  1
  Cu  Cu36  1  0.75000000  0.91783100  0.45426900  1
  Cu  Cu37  1  0.75000000  0.58216900  0.95426900  1
  Cu  Cu38  1  0.25000000  0.08216900  0.54573100  1
  Cu  Cu39  1  0.25000000  0.41783100  0.04573100  1
  Cu  Cu40  1  0.25000000  0.80857000  0.40781700  1
  Cu  Cu41  1  0.25000000  0.69143000  0.90781700  1
  Cu  Cu42  1  0.75000000  0.19143000  0.59218300  1
  Cu  Cu43  1  0.75000000  0.30857000  0.09218300  1
  Cu  Cu44  1  0.25000000  0.64657700  0.29734400  1
  Cu  Cu45  1  0.25000000  0.85342300  0.79734400  1
  Cu  Cu46  1  0.75000000  0.35342300  0.70265600  1
  Cu  Cu47  1  0.75000000  0.14657700  0.20265600  1
  Cu  Cu48  1  0.75000000  0.37778300  0.37558400  1
  Cu  Cu49  1  0.75000000  0.12221700  0.87558400  1
  Cu  Cu50  1  0.25000000  0.62221700  0.62441600  1
  Cu  Cu51  1  0.25000000  0.87778300  0.12441600  1
  Cu  Cu52  1  0.25000000  0.21076000  0.37079600  1
  Cu  Cu53  1  0.25000000  0.28924000  0.87079600  1
  Cu  Cu54  1  0.75000000  0.78924000  0.62920400  1
  Cu  Cu55  1  0.75000000  0.71076000  0.12920400  1
  Cu  Cu56  1  0.96569100  0.27736800  0.46498400  1
  Cu  Cu57  1  0.53430900  0.22263200  0.96498400  1
  Cu  Cu58  1  0.46569100  0.72263200  0.53501600  1
  Cu  Cu59  1  0.03430900  0.77736800  0.03501600  1
  Cu  Cu60  1  0.03430900  0.72263200  0.53501600  1
  Cu  Cu61  1  0.46569100  0.77736800  0.03501600  1
  Cu  Cu62  1  0.53430900  0.27736800  0.46498400  1
  Cu  Cu63  1  0.96569100  0.22263200  0.96498400  1
  Cu  Cu64  1  0.03972800  0.32569300  0.28326700  1
  Cu  Cu65  1  0.46027200  0.17430700  0.78326700  1
  Cu  Cu66  1  0.53972800  0.67430700  0.71673300  1
  Cu  Cu67  1  0.96027200  0.82569300  0.21673300  1
  Cu  Cu68  1  0.96027200  0.67430700  0.71673300  1
  Cu  Cu69  1  0.53972800  0.82569300  0.21673300  1
  Cu  Cu70  1  0.46027200  0.32569300  0.28326700  1
  Cu  Cu71  1  0.03972800  0.17430700  0.78326700  1
