# generated using pymatgen
data_Cu5NiC36
_symmetry_space_group_name_H-M   'P 1'
_cell_length_a   7.32383437
_cell_length_b   7.92242385
_cell_length_c   10.20966856
_cell_angle_alpha   107.44175026
_cell_angle_beta   86.22123101
_cell_angle_gamma   94.68255370
_symmetry_Int_Tables_number   1
_chemical_formula_structural   Cu5NiC36
_chemical_formula_sum   'Cu5 Ni1 C36'
_cell_volume   562.73246347
_cell_formula_units_Z   1
loop_
 _symmetry_equiv_pos_site_id
 _symmetry_equiv_pos_as_xyz
  1  'x, y, z'
loop_
 _atom_site_type_symbol
 _atom_site_label
 _atom_site_symmetry_multiplicity
 _atom_site_fract_x
 _atom_site_fract_y
 _atom_site_fract_z
 _atom_site_occupancy
  Ni  Ni0  1  0.99676672  0.19998550  0.61258849  1
  Cu  Cu1  1  0.26158571  0.87180293  0.60113355  1
  Cu  Cu2  1  0.24269365  0.83056105  0.06436334  1
  Cu  Cu3  1  0.49299822  0.49465883  0.99423989  1
  Cu  Cu4  1  0.73428774  0.15137399  0.94574858  1
  Cu  Cu5  1  0.72090413  0.12719068  0.38347192  1
  C  C6  1  0.15477462  0.20152738  0.03521101  1
  C  C7  1  0.16365786  0.17291052  0.31482022  1
  C  C8  1  0.29211504  0.54175781  0.74242981  1
  C  C9  1  0.46732930  0.74984491  0.30560904  1
  C  C10  1  0.53747846  0.25096142  0.68597273  1
  C  C11  1  0.71995276  0.45336853  0.24401418  1
  C  C12  1  0.84462428  0.84652914  0.69680162  1
  C  C13  1  0.83680169  0.78798825  0.96939558  1
  C  C14  1  0.99731398  0.76481361  0.05199104  1
  C  C15  1  0.98689470  0.13191754  0.40212787  1
  C  C16  1  0.12703087  0.41095417  0.72131825  1
  C  C17  1  0.07588970  0.22414573  0.18952034  1
  C  C18  1  0.29116087  0.35786732  0.03689697  1
  C  C19  1  0.28281655  0.31540024  0.40369856  1
  C  C20  1  0.29480953  0.68932786  0.67964416  1
  C  C21  1  0.30583565  0.77961233  0.40527720  1
  C  C22  1  0.33240171  0.62068137  0.90015280  1
  C  C23  1  0.38369541  0.11112624  0.64042844  1
  C  C24  1  0.24773143  0.02430958  0.98009735  1
  C  C25  1  0.41505826  0.70712250  0.15245654  1
  C  C26  1  0.25690665  0.00001217  0.24215538  1
  C  C27  1  0.47482142  0.43535784  0.67766116  1
  C  C28  1  0.55393735  0.57616946  0.31346244  1
  C  C29  1  0.69606472  0.97528662  0.77573990  1
  C  C30  1  0.58890871  0.28920246  0.83809104  1
  C  C31  1  0.74529319  0.96388008  0.03555077  1
  C  C32  1  0.62053557  0.90177009  0.33753226  1
  C  C33  1  0.65029198  0.35588422  0.09398350  1
  C  C34  1  0.71558088  0.21463867  0.59105093  1
  C  C35  1  0.69546822  0.31058944  0.32162479  1
  C  C36  1  0.77841362  0.69125427  0.58625031  1
  C  C37  1  0.70241855  0.62707414  0.95401677  1
  C  C38  1  0.92610063  0.78446360  0.82178759  1
  C  C39  1  0.89979426  0.55183674  0.24825257  1
  C  C40  1  0.00834803  0.96626968  0.65632060  1
  C  C41  1  0.98943538  0.21357113  0.95336051  1
