# generated using pymatgen
data_CuNiC9
_symmetry_space_group_name_H-M   'P 1'
_cell_length_a   7.72827075
_cell_length_b   7.72846653
_cell_length_c   12.51192189
_cell_angle_alpha   80.92820364
_cell_angle_beta   80.92552675
_cell_angle_gamma   89.00779227
_symmetry_Int_Tables_number   1
_chemical_formula_structural   CuNiC9
_chemical_formula_sum   'Cu4 Ni4 C36'
_cell_volume   728.70238041
_cell_formula_units_Z   4
loop_
 _symmetry_equiv_pos_site_id
 _symmetry_equiv_pos_as_xyz
  1  'x, y, z'
loop_
 _atom_site_type_symbol
 _atom_site_label
 _atom_site_symmetry_multiplicity
 _atom_site_fract_x
 _atom_site_fract_y
 _atom_site_fract_z
 _atom_site_occupancy
  C  C0  1  0.28724300  0.79250800  0.34776000  1
  C  C1  1  0.78619600  0.29318100  0.34782400  1
  C  C2  1  0.70691500  0.21393200  0.65216500  1
  C  C3  1  0.20756600  0.71282700  0.65225700  1
  C  C4  1  0.70849900  0.71619000  0.65270000  1
  C  C5  1  0.20916600  0.21677500  0.65278200  1
  C  C6  1  0.78315000  0.79072400  0.34724800  1
  C  C7  1  0.28371700  0.29138500  0.34727400  1
  C  C8  1  0.49678200  0.00332800  0.50001400  1
  C  C9  1  0.99675600  0.50318800  0.50001000  1
  C  C10  1  0.99661400  0.00322300  0.50001400  1
  C  C11  1  0.49646600  0.50318100  0.49995900  1
  Ni  Ni12  1  0.43240100  0.40624900  0.86982800  1
  Ni  Ni13  1  0.93251100  0.90630300  0.86964300  1
  Ni  Ni14  1  0.09372000  0.06750500  0.13035700  1
  Ni  Ni15  1  0.59377800  0.56756800  0.13017400  1
  Cu  Cu16  1  0.60457200  0.08969500  0.12960400  1
  Cu  Cu17  1  0.10418500  0.58981000  0.12981600  1
  Cu  Cu18  1  0.41026900  0.89576900  0.87019400  1
  Cu  Cu19  1  0.91029100  0.39545400  0.87037800  1
  C  C20  1  0.74938200  0.00386000  0.49452200  1
  C  C21  1  0.24918500  0.50378900  0.49409100  1
  C  C22  1  0.49620700  0.75077600  0.50588600  1
  C  C23  1  0.99616800  0.25056800  0.50546900  1
  C  C24  1  0.24434700  0.00163300  0.50507000  1
  C  C25  1  0.74433200  0.50154200  0.50552300  1
  C  C26  1  0.49848000  0.25564800  0.49446200  1
  C  C27  1  0.99845500  0.75562500  0.49501000  1
  C  C28  1  0.53195100  0.03800500  0.31148200  1
  C  C29  1  0.03012500  0.53792300  0.31196400  1
  C  C30  1  0.46222100  0.96994000  0.68806200  1
  C  C31  1  0.96200400  0.46806500  0.68850800  1
  C  C32  1  0.93024000  0.94550200  0.69725000  1
  C  C33  1  0.43007000  0.44553000  0.69730200  1
  C  C34  1  0.55444100  0.56989500  0.30271400  1
  C  C35  1  0.05459700  0.06974800  0.30276000  1
  C  C36  1  0.86002400  0.92101900  0.13945900  1
  C  C37  1  0.35994600  0.42122000  0.13957000  1
  C  C38  1  0.57879800  0.64006500  0.86042600  1
  C  C39  1  0.07898200  0.13998300  0.86054400  1
  C  C40  1  0.66094800  0.24675000  0.85556600  1
  C  C41  1  0.16116700  0.74660100  0.85554700  1
  C  C42  1  0.25339100  0.83885000  0.14445600  1
  C  C43  1  0.75334400  0.33907000  0.14435700  1
