# generated using pymatgen
data_CuNiC2
_symmetry_space_group_name_H-M   'P 1'
_cell_length_a   5.73117700
_cell_length_b   6.41399800
_cell_length_c   5.30106200
_cell_angle_alpha   90.00000000
_cell_angle_beta   90.00000000
_cell_angle_gamma   90.00000000
_symmetry_Int_Tables_number   1
_chemical_formula_structural   CuNiC2
_chemical_formula_sum   'Cu4 Ni4 C8'
_cell_volume   194.86575529
_cell_formula_units_Z   4
loop_
 _symmetry_equiv_pos_site_id
 _symmetry_equiv_pos_as_xyz
  1  'x, y, z'
loop_
 _atom_site_type_symbol
 _atom_site_label
 _atom_site_symmetry_multiplicity
 _atom_site_fract_x
 _atom_site_fract_y
 _atom_site_fract_z
 _atom_site_occupancy
  Ni  Ni0  1  0.56213600  0.88648600  0.01226100  1
  Ni  Ni1  1  0.43786400  0.11351400  0.51226100  1
  Ni  Ni2  1  0.93786400  0.38648600  0.51226100  1
  Ni  Ni3  1  0.06213600  0.61351400  0.01226100  1
  Cu  Cu4  1  0.55077100  0.40190700  0.98900500  1
  Cu  Cu5  1  0.44922900  0.59809300  0.48900500  1
  Cu  Cu6  1  0.94922900  0.90190700  0.48900500  1
  Cu  Cu7  1  0.05077100  0.09809300  0.98900500  1
  C  C8  1  0.61343500  0.35898200  0.35345400  1
  C  C9  1  0.38656500  0.64101800  0.85345400  1
  C  C10  1  0.88656500  0.85898200  0.85345400  1
  C  C11  1  0.11343500  0.14101800  0.35345400  1
  C  C12  1  0.61962400  0.84964100  0.39528100  1
  C  C13  1  0.38037600  0.15035900  0.89528100  1
  C  C14  1  0.88037600  0.34964100  0.89528100  1
  C  C15  1  0.11962400  0.65035900  0.39528100  1
