# generated using pymatgen
data_Cu3NiC2
_symmetry_space_group_name_H-M   'P 1'
_cell_length_a   3.27162803
_cell_length_b   3.27162803
_cell_length_c   39.05846800
_cell_angle_alpha   90.00000000
_cell_angle_beta   90.00000000
_cell_angle_gamma   120.00000071
_symmetry_Int_Tables_number   1
_chemical_formula_structural   Cu3NiC2
_chemical_formula_sum   'Cu6 Ni2 C4'
_cell_volume   362.05427142
_cell_formula_units_Z   2
loop_
 _symmetry_equiv_pos_site_id
 _symmetry_equiv_pos_as_xyz
  1  'x, y, z'
loop_
 _atom_site_type_symbol
 _atom_site_label
 _atom_site_symmetry_multiplicity
 _atom_site_fract_x
 _atom_site_fract_y
 _atom_site_fract_z
 _atom_site_occupancy
  Ni  Ni0  1  0.66666700  0.33333300  0.41992100  1
  Ni  Ni1  1  0.66666700  0.33333300  0.51862600  1
  C  C2  1  0.33333300  0.66666700  0.46930600  1
  C  C3  1  0.66666700  0.33333300  0.28096300  1
  C  C4  1  0.33333300  0.66666700  0.09378900  1
  C  C5  1  0.66666700  0.33333300  0.65886000  1
  Cu  Cu6  1  0.33333300  0.66666700  0.32039400  1
  Cu  Cu7  1  0.33333300  0.66666700  0.69839900  1
  Cu  Cu8  1  0.66666700  0.33333300  0.05426200  1
  Cu  Cu9  1  0.66666700  0.33333300  0.13336200  1
  Cu  Cu10  1  0.33333300  0.66666700  0.24156800  1
  Cu  Cu11  1  0.33333300  0.66666700  0.61929700  1
