# generated using pymatgen
data_CuNi7C12
_symmetry_space_group_name_H-M   'P 1'
_cell_length_a   11.06716324
_cell_length_b   11.06716324
_cell_length_c   11.06716324
_cell_angle_alpha   117.49690346
_cell_angle_beta   117.49690346
_cell_angle_gamma   94.39308258
_symmetry_Int_Tables_number   1
_chemical_formula_structural   CuNi7C12
_chemical_formula_sum   'Cu2 Ni14 C24'
_cell_volume   991.61487509
_cell_formula_units_Z   2
loop_
 _symmetry_equiv_pos_site_id
 _symmetry_equiv_pos_as_xyz
  1  'x, y, z'
loop_
 _atom_site_type_symbol
 _atom_site_label
 _atom_site_symmetry_multiplicity
 _atom_site_fract_x
 _atom_site_fract_y
 _atom_site_fract_z
 _atom_site_occupancy
  C  C0  1  0.14675200  0.64675200  0.50000000  1
  C  C1  1  0.85324800  0.35324800  0.50000000  1
  C  C2  1  0.64675200  0.14675200  0.50000000  1
  C  C3  1  0.35324800  0.85324800  0.50000000  1
  C  C4  1  0.83791700  0.70085300  0.26536000  1
  C  C5  1  0.16208300  0.29914700  0.73464000  1
  C  C6  1  0.43549300  0.57255700  0.73464000  1
  C  C7  1  0.70085300  0.43549300  0.86293700  1
  C  C8  1  0.06450700  0.79914700  0.13706300  1
  C  C9  1  0.56450700  0.42744300  0.26536000  1
  C  C10  1  0.29914700  0.56450700  0.13706300  1
  C  C11  1  0.93549300  0.20085300  0.86293700  1
  C  C12  1  0.57255700  0.83791700  0.13706300  1
  C  C13  1  0.66208300  0.92744300  0.86293700  1
  C  C14  1  0.42744300  0.16208300  0.86293700  1
  C  C15  1  0.33791700  0.07255700  0.13706300  1
  C  C16  1  0.92744300  0.06450700  0.26536000  1
  C  C17  1  0.07255700  0.93549300  0.73464000  1
  C  C18  1  0.79914700  0.66208300  0.73464000  1
  C  C19  1  0.20085300  0.33791700  0.26536000  1
  C  C20  1  0.17058900  0.67058900  0.84117800  1
  C  C21  1  0.82941100  0.32941100  0.15882200  1
  C  C22  1  0.67058900  0.82941100  0.50000000  1
  C  C23  1  0.32941100  0.17058900  0.50000000  1
  Ni  Ni24  1  0.61856900  0.11856900  0.73713800  1
  Ni  Ni25  1  0.38143100  0.88143100  0.26286200  1
  Ni  Ni26  1  0.11856900  0.38143100  0.50000000  1
  Ni  Ni27  1  0.88143100  0.61856900  0.50000000  1
  Ni  Ni28  1  0.50000000  0.50000000  0.00000000  1
  Ni  Ni29  1  0.00000000  0.00000000  0.00000000  1
  Ni  Ni30  1  0.38094900  0.88094900  0.85548600  1
  Ni  Ni31  1  0.61905100  0.11905100  0.14451400  1
  Ni  Ni32  1  0.02546200  0.52546200  0.14451400  1
  Ni  Ni33  1  0.88094900  0.02546200  0.50000000  1
  Ni  Ni34  1  0.47453800  0.61905100  0.50000000  1
  Ni  Ni35  1  0.97453800  0.47453800  0.85548600  1
  Ni  Ni36  1  0.11905100  0.97453800  0.50000000  1
  Ni  Ni37  1  0.52546200  0.38094900  0.50000000  1
  Cu  Cu38  1  0.75000000  0.75000000  0.00000000  1
  Cu  Cu39  1  0.25000000  0.25000000  0.00000000  1
