# generated using pymatgen
data_CuNi2C
_symmetry_space_group_name_H-M   'P 1'
_cell_length_a   3.73007600
_cell_length_b   5.82159000
_cell_length_c   5.97231220
_cell_angle_alpha   64.45782397
_cell_angle_beta   90.00000000
_cell_angle_gamma   90.00000000
_symmetry_Int_Tables_number   1
_chemical_formula_structural   CuNi2C
_chemical_formula_sum   'Cu2 Ni4 C2'
_cell_volume   117.01389057
_cell_formula_units_Z   2
loop_
 _symmetry_equiv_pos_site_id
 _symmetry_equiv_pos_as_xyz
  1  'x, y, z'
loop_
 _atom_site_type_symbol
 _atom_site_label
 _atom_site_symmetry_multiplicity
 _atom_site_fract_x
 _atom_site_fract_y
 _atom_site_fract_z
 _atom_site_occupancy
  C  C0  1  0.00000000  0.63455600  0.68042300  1
  C  C1  1  0.50000000  0.36142800  0.31214700  1
  Ni  Ni2  1  0.00000000  0.08015500  0.59060500  1
  Ni  Ni3  1  0.50000000  0.40102300  0.67071000  1
  Ni  Ni4  1  0.50000000  0.67330700  0.88566500  1
  Ni  Ni5  1  0.50000000  0.92147300  0.46470400  1
  Cu  Cu6  1  0.00000000  0.61772200  0.30232600  1
  Cu  Cu7  1  0.00000000  0.31033600  0.09341900  1
