# generated using pymatgen
data_Cu11NiC6
_symmetry_space_group_name_H-M   'P 1'
_cell_length_a   5.71038124
_cell_length_b   5.71038124
_cell_length_c   54.15496500
_cell_angle_alpha   90.00000000
_cell_angle_beta   90.00000000
_cell_angle_gamma   119.99999120
_symmetry_Int_Tables_number   1
_chemical_formula_structural   Cu11NiC6
_chemical_formula_sum   'Cu44 Ni4 C24'
_cell_volume   1529.32277943
_cell_formula_units_Z   4
loop_
 _symmetry_equiv_pos_site_id
 _symmetry_equiv_pos_as_xyz
  1  'x, y, z'
loop_
 _atom_site_type_symbol
 _atom_site_label
 _atom_site_symmetry_multiplicity
 _atom_site_fract_x
 _atom_site_fract_y
 _atom_site_fract_z
 _atom_site_occupancy
  C  C0  1  0.00000000  0.00000000  0.13535800  1
  C  C1  1  0.00000000  0.00000000  0.46879700  1
  C  C2  1  0.00000000  0.00000000  0.80213100  1
  C  C3  1  0.00000000  0.00000000  0.19800100  1
  C  C4  1  0.00000000  0.00000000  0.53079600  1
  C  C5  1  0.00000000  0.00000000  0.86412100  1
  C  C6  1  0.00000000  0.00000000  0.30212700  1
  C  C7  1  0.00000000  0.00000000  0.63640200  1
  C  C8  1  0.00000000  0.00000000  0.96972900  1
  C  C9  1  0.00000000  0.00000000  0.03128900  1
  C  C10  1  0.00000000  0.00000000  0.36461900  1
  C  C11  1  0.00000000  0.00000000  0.69801400  1
  C  C12  1  0.66666700  0.33333300  0.28128400  1
  C  C13  1  0.66666700  0.33333300  0.61458900  1
  C  C14  1  0.66666700  0.33333300  0.94789500  1
  C  C15  1  0.33333300  0.66666700  0.05188900  1
  C  C16  1  0.33333300  0.66666700  0.38540600  1
  C  C17  1  0.33333300  0.66666700  0.71856900  1
  C  C18  1  0.33333300  0.66666700  0.11480800  1
  C  C19  1  0.33333300  0.66666700  0.44811200  1
  C  C20  1  0.33333300  0.66666700  0.78141100  1
  C  C21  1  0.66666700  0.33333300  0.21849300  1
  C  C22  1  0.66666700  0.33333300  0.55229900  1
  C  C23  1  0.66666700  0.33333300  0.88561200  1
  Ni  Ni24  1  0.66666700  0.33333300  0.12528500  1
  Ni  Ni25  1  0.66666700  0.33333300  0.45789100  1
  Ni  Ni26  1  0.66666700  0.33333300  0.79123600  1
  Ni  Ni27  1  0.33333300  0.66666700  0.20801200  1
  Cu  Cu28  1  0.83280000  0.66559900  0.08450200  1
  Cu  Cu29  1  0.83277100  0.66554300  0.41785600  1
  Cu  Cu30  1  0.83274800  0.66549700  0.75117600  1
  Cu  Cu31  1  0.83280000  0.16720000  0.08450200  1
  Cu  Cu32  1  0.83277100  0.16722900  0.41785600  1
  Cu  Cu33  1  0.83274800  0.16725200  0.75117600  1
  Cu  Cu34  1  0.33440100  0.16720000  0.08450200  1
  Cu  Cu35  1  0.33445700  0.16722900  0.41785600  1
  Cu  Cu36  1  0.33450300  0.16725200  0.75117600  1
  Cu  Cu37  1  0.16738600  0.33477100  0.24876300  1
  Cu  Cu38  1  0.16246900  0.32493900  0.58333600  1
  Cu  Cu39  1  0.16243500  0.32487100  0.91667400  1
  Cu  Cu40  1  0.16738600  0.83261400  0.24876300  1
  Cu  Cu41  1  0.16246900  0.83753100  0.58333600  1
  Cu  Cu42  1  0.16243500  0.83756500  0.91667400  1
  Cu  Cu43  1  0.66522900  0.83261400  0.24876300  1
  Cu  Cu44  1  0.67506100  0.83753100  0.58333600  1
  Cu  Cu45  1  0.67512900  0.83756500  0.91667400  1
  Cu  Cu46  1  0.49990300  0.99980600  0.16672700  1
  Cu  Cu47  1  0.50289300  0.00578600  0.49883900  1
  Cu  Cu48  1  0.50305400  0.00610900  0.83219500  1
  Cu  Cu49  1  0.49990300  0.50009700  0.16672700  1
  Cu  Cu50  1  0.50289300  0.49710700  0.49883900  1
  Cu  Cu51  1  0.50305400  0.49694600  0.83219500  1
  Cu  Cu52  1  0.00019400  0.50009700  0.16672700  1
  Cu  Cu53  1  0.99421400  0.49710700  0.49883900  1
  Cu  Cu54  1  0.99389100  0.49694600  0.83219500  1
  Cu  Cu55  1  0.50059400  0.00118800  0.99989300  1
  Cu  Cu56  1  0.49993400  0.99986800  0.33334300  1
  Cu  Cu57  1  0.50056500  0.00112900  0.66656500  1
  Cu  Cu58  1  0.49993400  0.50006600  0.33334300  1
  Cu  Cu59  1  0.50056500  0.49943500  0.66656500  1
  Cu  Cu60  1  0.50059400  0.49940600  0.99989300  1
  Cu  Cu61  1  0.99881200  0.49940600  0.99989300  1
  Cu  Cu62  1  0.00013200  0.50006600  0.33334300  1
  Cu  Cu63  1  0.99887100  0.49943500  0.66656500  1
  Cu  Cu64  1  0.33333300  0.66666700  0.54144500  1
  Cu  Cu65  1  0.33333300  0.66666700  0.87475400  1
  Cu  Cu66  1  0.33333300  0.66666700  0.29033500  1
  Cu  Cu67  1  0.33333300  0.66666700  0.62377900  1
  Cu  Cu68  1  0.33333300  0.66666700  0.95710000  1
  Cu  Cu69  1  0.66666700  0.33333300  0.04293700  1
  Cu  Cu70  1  0.66666700  0.33333300  0.37629500  1
  Cu  Cu71  1  0.66666700  0.33333300  0.70956800  1
