# generated using pymatgen
data_Cu4NiC
_symmetry_space_group_name_H-M   'P 1'
_cell_length_a   11.18607378
_cell_length_b   11.18607378
_cell_length_c   8.00002100
_cell_angle_alpha   90.00000000
_cell_angle_beta   90.00000000
_cell_angle_gamma   119.99999871
_symmetry_Int_Tables_number   1
_chemical_formula_structural   Cu4NiC
_chemical_formula_sum   'Cu36 Ni9 C9'
_cell_volume   866.91620952
_cell_formula_units_Z   9
loop_
 _symmetry_equiv_pos_site_id
 _symmetry_equiv_pos_as_xyz
  1  'x, y, z'
loop_
 _atom_site_type_symbol
 _atom_site_label
 _atom_site_symmetry_multiplicity
 _atom_site_fract_x
 _atom_site_fract_y
 _atom_site_fract_z
 _atom_site_occupancy
  C  C0  1  0.89459900  0.78549100  0.70528100  1
  C  C1  1  0.21450900  0.10910800  0.03861400  1
  C  C2  1  0.89089200  0.10540100  0.37194800  1
  C  C3  1  0.54874500  0.76628700  0.07546600  1
  C  C4  1  0.23371300  0.78245800  0.40880000  1
  C  C5  1  0.21754200  0.45125500  0.74213300  1
  C  C6  1  0.56344800  0.11808800  0.73962200  1
  C  C7  1  0.88191200  0.44536000  0.07295500  1
  C  C8  1  0.55464000  0.43655200  0.40628800  1
  Ni  Ni9  1  0.83481800  0.93126000  0.02271700  1
  Ni  Ni10  1  0.06874000  0.90355800  0.35605100  1
  Ni  Ni11  1  0.09644200  0.16518200  0.68938400  1
  Ni  Ni12  1  0.39910400  0.82972800  0.76367300  1
  Ni  Ni13  1  0.17027200  0.56937600  0.09700700  1
  Ni  Ni14  1  0.43062400  0.60089600  0.43034000  1
  Ni  Ni15  1  0.50259800  0.23893400  0.08039900  1
  Ni  Ni16  1  0.76106600  0.26366500  0.41373300  1
  Ni  Ni17  1  0.73633500  0.49740200  0.74706600  1
  Cu  Cu18  1  0.31457900  0.69793000  0.78917500  1
  Cu  Cu19  1  0.30207000  0.61664900  0.12250900  1
  Cu  Cu20  1  0.38335100  0.68542100  0.45584200  1
  Cu  Cu21  1  0.43020200  0.84479200  0.24444800  1
  Cu  Cu22  1  0.15520800  0.58541100  0.57778100  1
  Cu  Cu23  1  0.41458900  0.56979800  0.91111400  1
  Cu  Cu24  1  0.65344900  0.36614600  0.77313500  1
  Cu  Cu25  1  0.63385400  0.28730400  0.10646800  1
  Cu  Cu26  1  0.71269600  0.34655100  0.43980100  1
  Cu  Cu27  1  0.51075000  0.89137500  0.85189300  1
  Cu  Cu28  1  0.10862500  0.61937500  0.18522600  1
  Cu  Cu29  1  0.38062500  0.48925000  0.51855900  1
  Cu  Cu30  1  0.77049400  0.81882400  0.93644700  1
  Cu  Cu31  1  0.18117600  0.95167000  0.26978100  1
  Cu  Cu32  1  0.04833000  0.22950600  0.60311400  1
  Cu  Cu33  1  0.77157600  0.96340100  0.13321300  1
  Cu  Cu34  1  0.03659900  0.80817500  0.46654600  1
  Cu  Cu35  1  0.19182500  0.22842400  0.79987900  1
  Cu  Cu36  1  0.43746300  0.28469700  0.16847500  1
  Cu  Cu37  1  0.71530300  0.15276500  0.50180800  1
  Cu  Cu38  1  0.84723500  0.56253700  0.83514200  1
  Cu  Cu39  1  0.09416200  0.91629600  0.86448200  1
  Cu  Cu40  1  0.08370400  0.17786600  0.19781500  1
  Cu  Cu41  1  0.82213400  0.90583800  0.53114800  1
  Cu  Cu42  1  0.43910300  0.14279100  0.97122200  1
  Cu  Cu43  1  0.85720900  0.29631200  0.30455500  1
  Cu  Cu44  1  0.70368800  0.56089700  0.63788800  1
  Cu  Cu45  1  0.76453300  0.25444800  0.89403000  1
  Cu  Cu46  1  0.74555200  0.51008500  0.22736400  1
  Cu  Cu47  1  0.48991500  0.23546700  0.56069700  1
  Cu  Cu48  1  0.96604600  0.01554100  0.99192600  1
  Cu  Cu49  1  0.98445900  0.95050500  0.32525900  1
  Cu  Cu50  1  0.04949500  0.03395400  0.65859200  1
  Cu  Cu51  1  0.36811600  0.89642100  0.65659600  1
  Cu  Cu52  1  0.10357900  0.47169500  0.98992900  1
  Cu  Cu53  1  0.52830500  0.63188400  0.32326300  1
