# generated using pymatgen
data_Cu5Ni17C6
_symmetry_space_group_name_H-M   'P 1'
_cell_length_a   8.14588316
_cell_length_b   8.14588316
_cell_length_c   15.64515275
_cell_angle_alpha   76.18624278
_cell_angle_beta   76.18624278
_cell_angle_gamma   30.43515608
_symmetry_Int_Tables_number   1
_chemical_formula_structural   Cu5Ni17C6
_chemical_formula_sum   'Cu5 Ni17 C6'
_cell_volume   509.52980987
_cell_formula_units_Z   1
loop_
 _symmetry_equiv_pos_site_id
 _symmetry_equiv_pos_as_xyz
  1  'x, y, z'
loop_
 _atom_site_type_symbol
 _atom_site_label
 _atom_site_symmetry_multiplicity
 _atom_site_fract_x
 _atom_site_fract_y
 _atom_site_fract_z
 _atom_site_occupancy
  C  C0  1  0.74935100  0.74935100  0.75133500  1
  C  C1  1  0.25064900  0.25064900  0.24866500  1
  C  C2  1  0.60040100  0.60040100  0.59993200  1
  C  C3  1  0.09628000  0.09628000  0.09633100  1
  C  C4  1  0.90372000  0.90372000  0.90366900  1
  C  C5  1  0.39959900  0.39959900  0.40006800  1
  Ni  Ni6  1  0.82150000  0.82150000  0.54026000  1
  Ni  Ni7  1  0.32686000  0.32686000  0.04185000  1
  Ni  Ni8  1  0.67314000  0.67314000  0.95815000  1
  Ni  Ni9  1  0.17850000  0.17850000  0.45974000  1
  Ni  Ni10  1  0.54233400  0.54233400  0.82670300  1
  Ni  Ni11  1  0.04038500  0.04038500  0.32182300  1
  Ni  Ni12  1  0.95961500  0.95961500  0.67817700  1
  Ni  Ni13  1  0.45766600  0.45766600  0.17329700  1
  Ni  Ni14  1  0.26443200  0.26443200  0.89559200  1
  Ni  Ni15  1  0.76063400  0.76063400  0.39422600  1
  Ni  Ni16  1  0.23936600  0.23936600  0.60577400  1
  Ni  Ni17  1  0.73556800  0.73556800  0.10440800  1
  Ni  Ni18  1  0.39547000  0.39547000  0.76173000  1
  Ni  Ni19  1  0.89382300  0.89382300  0.26368500  1
  Ni  Ni20  1  0.10617700  0.10617700  0.73631500  1
  Ni  Ni21  1  0.60453000  0.60453000  0.23827000  1
  Ni  Ni22  1  0.00000000  0.00000000  0.50000000  1
  Cu  Cu23  1  0.10041900  0.10041900  0.89961300  1
  Cu  Cu24  1  0.59032100  0.59032100  0.40933100  1
  Cu  Cu25  1  0.40967900  0.40967900  0.59066900  1
  Cu  Cu26  1  0.89958100  0.89958100  0.10038700  1
  Cu  Cu27  1  0.50000000  0.50000000  0.00000000  1
