# generated using pymatgen
data_Cu6Ni4C23
_symmetry_space_group_name_H-M   'P 1'
_cell_length_a   5.28365331
_cell_length_b   13.62339635
_cell_length_c   27.99561145
_cell_angle_alpha   90.00000000
_cell_angle_beta   90.00000000
_cell_angle_gamma   90.00000000
_symmetry_Int_Tables_number   1
_chemical_formula_structural   Cu6Ni4C23
_chemical_formula_sum   'Cu24 Ni16 C92'
_cell_volume   2015.16059656
_cell_formula_units_Z   4
loop_
 _symmetry_equiv_pos_site_id
 _symmetry_equiv_pos_as_xyz
  1  'x, y, z'
loop_
 _atom_site_type_symbol
 _atom_site_label
 _atom_site_symmetry_multiplicity
 _atom_site_fract_x
 _atom_site_fract_y
 _atom_site_fract_z
 _atom_site_occupancy
  Ni  Ni0  1  0.25000000  -0.00000000  0.84739093  1
  Ni  Ni1  1  0.75000000  -0.00000000  0.15260907  1
  Ni  Ni2  1  0.25000000  0.50000000  0.65260907  1
  Ni  Ni3  1  0.75000000  0.50000000  0.34739093  1
  Ni  Ni4  1  0.25000000  -0.00000000  0.08551066  1
  Ni  Ni5  1  0.75000000  -0.00000000  0.91448934  1
  Ni  Ni6  1  0.25000000  0.50000000  0.41448934  1
  Ni  Ni7  1  0.75000000  0.50000000  0.58551066  1
  Ni  Ni8  1  0.25000000  -0.00000000  0.19311691  1
  Ni  Ni9  1  0.75000000  -0.00000000  0.80688309  1
  Ni  Ni10  1  0.25000000  0.50000000  0.30688309  1
  Ni  Ni11  1  0.75000000  0.50000000  0.69311691  1
  Ni  Ni12  1  0.25000000  -0.00000000  0.97760574  1
  Ni  Ni13  1  0.75000000  -0.00000000  0.02239426  1
  Ni  Ni14  1  0.25000000  0.50000000  0.52239426  1
  Ni  Ni15  1  0.75000000  0.50000000  0.47760574  1
  Cu  Cu16  1  0.56097643  0.20527792  0.19615426  1
  Cu  Cu17  1  0.43902357  0.79472208  0.80384574  1
  Cu  Cu18  1  0.93902357  0.79472208  0.19615426  1
  Cu  Cu19  1  0.93902357  0.70527792  0.30384574  1
  Cu  Cu20  1  0.06097643  0.20527792  0.80384574  1
  Cu  Cu21  1  0.06097643  0.29472208  0.69615426  1
  Cu  Cu22  1  0.56097643  0.29472208  0.30384574  1
  Cu  Cu23  1  0.43902357  0.70527792  0.69615426  1
  Cu  Cu24  1  0.06896544  0.20429185  0.13959039  1
  Cu  Cu25  1  0.93103456  0.79570815  0.86040961  1
  Cu  Cu26  1  0.43103456  0.79570815  0.13959039  1
  Cu  Cu27  1  0.43103456  0.70429185  0.36040961  1
  Cu  Cu28  1  0.56896544  0.20429185  0.86040961  1
  Cu  Cu29  1  0.56896544  0.29570815  0.63959039  1
  Cu  Cu30  1  0.06896544  0.29570815  0.36040961  1
  Cu  Cu31  1  0.93103456  0.70429185  0.63959039  1
  Cu  Cu32  1  0.07446942  0.20413848  0.02839800  1
  Cu  Cu33  1  0.92553058  0.79586152  0.97160200  1
  Cu  Cu34  1  0.42553058  0.79586152  0.02839800  1
  Cu  Cu35  1  0.42553058  0.70413848  0.47160200  1
  Cu  Cu36  1  0.57446942  0.20413848  0.97160200  1
  Cu  Cu37  1  0.57446942  0.29586152  0.52839800  1
  Cu  Cu38  1  0.07446942  0.29586152  0.47160200  1
  Cu  Cu39  1  0.92553058  0.70413848  0.52839800  1
  C  C40  1  0.25000000  -0.00000000  0.32865919  1
  C  C41  1  0.75000000  -0.00000000  0.67134081  1
  C  C42  1  0.25000000  0.50000000  0.17134081  1
  C  C43  1  0.75000000  0.50000000  0.82865919  1
  C  C44  1  0.99655071  0.08626790  0.24961661  1
  C  C45  1  0.00344929  0.91373210  0.75038339  1
  C  C46  1  0.50344929  0.91373210  0.24961661  1
  C  C47  1  0.50344929  0.58626790  0.25038339  1
  C  C48  1  0.49655071  0.08626790  0.75038339  1
  C  C49  1  0.49655071  0.41373210  0.74961661  1
  C  C50  1  0.99655071  0.41373210  0.25038339  1
  C  C51  1  0.00344929  0.58626790  0.74961661  1
  C  C52  1  0.25000000  -0.00000000  0.51583592  1
  C  C53  1  0.75000000  -0.00000000  0.48416408  1
  C  C54  1  0.25000000  0.50000000  0.98416408  1
  C  C55  1  0.75000000  0.50000000  0.01583592  1
  C  C56  1  0.07695978  0.58771842  0.08342279  1
  C  C57  1  0.92304022  0.41228158  0.91657721  1
  C  C58  1  0.42304022  0.41228158  0.08342279  1
  C  C59  1  0.42304022  0.08771842  0.41657721  1
  C  C60  1  0.57695978  0.58771842  0.91657721  1
  C  C61  1  0.57695978  0.91228158  0.58342279  1
  C  C62  1  0.07695978  0.91228158  0.41657721  1
  C  C63  1  0.92304022  0.08771842  0.58342279  1
  C  C64  1  0.65892724  0.04640371  0.08672883  1
  C  C65  1  0.34107276  0.95359629  0.91327117  1
  C  C66  1  0.84107276  0.95359629  0.08672883  1
  C  C67  1  0.84107276  0.54640371  0.41327117  1
  C  C68  1  0.15892724  0.04640371  0.91327117  1
  C  C69  1  0.15892724  0.45359629  0.58672883  1
  C  C70  1  0.65892724  0.45359629  0.41327117  1
  C  C71  1  0.34107276  0.54640371  0.58672883  1
  C  C72  1  0.08905048  0.08409987  0.14243385  1
  C  C73  1  0.91094952  0.91590013  0.85756615  1
  C  C74  1  0.41094952  0.91590013  0.14243385  1
  C  C75  1  0.41094952  0.58409987  0.35756615  1
  C  C76  1  0.58905048  0.08409987  0.85756615  1
  C  C77  1  0.58905048  0.41590013  0.64243385  1
  C  C78  1  0.08905048  0.41590013  0.35756615  1
  C  C79  1  0.91094952  0.58409987  0.64243385  1
  C  C80  1  0.32390569  0.24461710  0.99974527  1
  C  C81  1  0.67609431  0.75538290  0.00025473  1
  C  C82  1  0.17609431  0.75538290  0.99974527  1
  C  C83  1  0.17609431  0.74461710  0.50025473  1
  C  C84  1  0.82390569  0.24461710  0.00025473  1
  C  C85  1  0.82390569  0.25538290  0.49974527  1
  C  C86  1  0.32390569  0.25538290  0.50025473  1
  C  C87  1  0.67609431  0.74461710  0.49974527  1
  C  C88  1  0.31309175  0.24981764  0.16809751  1
  C  C89  1  0.68690825  0.75018236  0.83190249  1
  C  C90  1  0.18690825  0.75018236  0.16809751  1
  C  C91  1  0.18690825  0.74981764  0.33190249  1
  C  C92  1  0.81309175  0.24981764  0.83190249  1
  C  C93  1  0.81309175  0.25018236  0.66809751  1
  C  C94  1  0.31309175  0.25018236  0.33190249  1
  C  C95  1  0.68690825  0.74981764  0.66809751  1
  C  C96  1  0.07059019  0.24145141  0.08399372  1
  C  C97  1  0.92940981  0.75854859  0.91600628  1
  C  C98  1  0.42940981  0.75854859  0.08399372  1
  C  C99  1  0.42940981  0.74145141  0.41600628  1
  C  C100  1  0.57059019  0.24145141  0.91600628  1
  C  C101  1  0.57059019  0.25854859  0.58399372  1
  C  C102  1  0.07059019  0.25854859  0.41600628  1
  C  C103  1  0.92940981  0.74145141  0.58399372  1
  C  C104  1  0.09152288  0.08343394  0.02802821  1
  C  C105  1  0.90847712  0.91656606  0.97197179  1
  C  C106  1  0.40847712  0.91656606  0.02802821  1
  C  C107  1  0.40847712  0.58343394  0.47197179  1
  C  C108  1  0.59152288  0.08343394  0.97197179  1
  C  C109  1  0.59152288  0.41656606  0.52802821  1
  C  C110  1  0.09152288  0.41656606  0.47197179  1
  C  C111  1  0.90847712  0.58343394  0.52802821  1
  C  C112  1  0.55155311  0.08553586  0.19789166  1
  C  C113  1  0.44844689  0.91446414  0.80210834  1
  C  C114  1  0.94844689  0.91446414  0.19789166  1
  C  C115  1  0.94844689  0.58553586  0.30210834  1
  C  C116  1  0.05155311  0.08553586  0.80210834  1
  C  C117  1  0.05155311  0.41446414  0.69789166  1
  C  C118  1  0.55155311  0.41446414  0.30210834  1
  C  C119  1  0.44844689  0.58553586  0.69789166  1
  C  C120  1  0.56619380  0.25000000  0.25000000  1
  C  C121  1  0.43380620  0.75000000  0.75000000  1
  C  C122  1  0.93380620  0.75000000  0.25000000  1
  C  C123  1  0.06619380  0.25000000  0.75000000  1
  C  C124  1  0.31334700  0.25812270  0.66712775  1
  C  C125  1  0.68665300  0.74187730  0.33287225  1
  C  C126  1  0.18665300  0.74187730  0.66712775  1
  C  C127  1  0.18665300  0.75812270  0.83287225  1
  C  C128  1  0.81334700  0.25812270  0.33287225  1
  C  C129  1  0.81334700  0.24187730  0.16712775  1
  C  C130  1  0.31334700  0.24187730  0.83287225  1
  C  C131  1  0.68665300  0.75812270  0.16712775  1
