# generated using pymatgen
data_Cu2Ni2C9
_symmetry_space_group_name_H-M   'P 1'
_cell_length_a   7.22978600
_cell_length_b   6.80485700
_cell_length_c   9.74717788
_cell_angle_alpha   64.77504765
_cell_angle_beta   90.00000000
_cell_angle_gamma   90.00000000
_symmetry_Int_Tables_number   1
_chemical_formula_structural   Cu2Ni2C9
_chemical_formula_sum   'Cu4 Ni4 C18'
_cell_volume   433.81030384
_cell_formula_units_Z   2
loop_
 _symmetry_equiv_pos_site_id
 _symmetry_equiv_pos_as_xyz
  1  'x, y, z'
loop_
 _atom_site_type_symbol
 _atom_site_label
 _atom_site_symmetry_multiplicity
 _atom_site_fract_x
 _atom_site_fract_y
 _atom_site_fract_z
 _atom_site_occupancy
  C  C0  1  0.86281000  0.22259500  0.61730500  1
  C  C1  1  0.36281000  0.77740500  0.88269500  1
  C  C2  1  0.13719000  0.77740500  0.38269500  1
  C  C3  1  0.63719000  0.22259500  0.11730500  1
  Ni  Ni4  1  0.61919800  0.76057100  0.54008200  1
  Ni  Ni5  1  0.11919800  0.23942900  0.95991800  1
  Ni  Ni6  1  0.38080200  0.23942900  0.45991800  1
  Ni  Ni7  1  0.88080200  0.76057100  0.04008200  1
  Cu  Cu8  1  0.88865000  0.64603700  0.77547700  1
  Cu  Cu9  1  0.38865000  0.35396300  0.72452300  1
  Cu  Cu10  1  0.11135000  0.35396300  0.22452300  1
  Cu  Cu11  1  0.61135000  0.64603700  0.27547700  1
  C  C12  1  0.84013900  0.74477700  0.62303200  1
  C  C13  1  0.34013900  0.25522300  0.87696800  1
  C  C14  1  0.15986100  0.25522300  0.37696800  1
  C  C15  1  0.65986100  0.74477700  0.12303200  1
  C  C16  1  0.83176100  0.74062800  0.86857100  1
  C  C17  1  0.33176100  0.25937200  0.63142900  1
  C  C18  1  0.16823900  0.25937200  0.13142900  1
  C  C19  1  0.66823900  0.74062800  0.36857100  1
  C  C20  1  0.50000000  0.00000000  0.50000000  1
  C  C21  1  0.00000000  0.00000000  0.00000000  1
  C  C22  1  0.99422500  0.46125400  0.82769400  1
  C  C23  1  0.49422500  0.53874600  0.67230600  1
  C  C24  1  0.00577500  0.53874600  0.17230600  1
  C  C25  1  0.50577500  0.46125400  0.32769400  1
