# generated using pymatgen
data_CuNiC10
_symmetry_space_group_name_H-M   'P 1'
_cell_length_a   6.71122438
_cell_length_b   6.71122438
_cell_length_c   6.71122438
_cell_angle_alpha   131.56896944
_cell_angle_beta   131.56896944
_cell_angle_gamma   70.91065067
_symmetry_Int_Tables_number   1
_chemical_formula_structural   CuNiC10
_chemical_formula_sum   'Cu1 Ni1 C10'
_cell_volume   165.69921821
_cell_formula_units_Z   1
loop_
 _symmetry_equiv_pos_site_id
 _symmetry_equiv_pos_as_xyz
  1  'x, y, z'
loop_
 _atom_site_type_symbol
 _atom_site_label
 _atom_site_symmetry_multiplicity
 _atom_site_fract_x
 _atom_site_fract_y
 _atom_site_fract_z
 _atom_site_occupancy
  C  C0  1  0.00000000  0.00000000  0.00000000  1
  Ni  Ni1  1  0.75000000  0.25000000  0.50000000  1
  Cu  Cu2  1  0.50000000  0.50000000  0.00000000  1
  C  C3  1  0.25000000  0.75000000  0.50000000  1
  C  C4  1  0.86415100  0.38450000  0.99998100  1
  C  C5  1  0.61550000  0.61548100  0.47965100  1
  C  C6  1  0.38451900  0.86417000  0.00001900  1
  C  C7  1  0.13583000  0.13584900  0.52034900  1
  C  C8  1  0.13583000  0.61548100  0.99998100  1
  C  C9  1  0.86415100  0.86417000  0.47965100  1
  C  C10  1  0.61550000  0.13584900  0.00001900  1
  C  C11  1  0.38451900  0.38450000  0.52034900  1
