# generated using pymatgen
data_Cu5NiC8
_symmetry_space_group_name_H-M   'P 1'
_cell_length_a   17.98133400
_cell_length_b   5.80056700
_cell_length_c   4.92295100
_cell_angle_alpha   90.00000000
_cell_angle_beta   90.00000000
_cell_angle_gamma   90.00000000
_symmetry_Int_Tables_number   1
_chemical_formula_structural   Cu5NiC8
_chemical_formula_sum   'Cu20 Ni4 C32'
_cell_volume   513.47330348
_cell_formula_units_Z   4
loop_
 _symmetry_equiv_pos_site_id
 _symmetry_equiv_pos_as_xyz
  1  'x, y, z'
loop_
 _atom_site_type_symbol
 _atom_site_label
 _atom_site_symmetry_multiplicity
 _atom_site_fract_x
 _atom_site_fract_y
 _atom_site_fract_z
 _atom_site_occupancy
  C  C0  1  0.26175500  0.75000000  0.37025800  1
  C  C1  1  0.76175500  0.75000000  0.12974200  1
  C  C2  1  0.73824500  0.25000000  0.62974200  1
  C  C3  1  0.23824500  0.25000000  0.87025800  1
  C  C4  1  0.15089500  0.75000000  0.80512800  1
  C  C5  1  0.65089500  0.75000000  0.69487200  1
  C  C6  1  0.84910500  0.25000000  0.19487200  1
  C  C7  1  0.34910500  0.25000000  0.30512800  1
  C  C8  1  0.02033600  0.75000000  0.07955000  1
  C  C9  1  0.52033600  0.75000000  0.42045000  1
  C  C10  1  0.97966400  0.25000000  0.92045000  1
  C  C11  1  0.47966400  0.25000000  0.57955000  1
  C  C12  1  0.02156300  0.75000000  0.43195500  1
  C  C13  1  0.52156300  0.75000000  0.06804500  1
  C  C14  1  0.97843700  0.25000000  0.56804500  1
  C  C15  1  0.47843700  0.25000000  0.93195500  1
  C  C16  1  0.34853600  0.88579900  0.79890300  1
  C  C17  1  0.84853600  0.61420100  0.70109700  1
  C  C18  1  0.65146400  0.38579900  0.20109700  1
  C  C19  1  0.15146400  0.11420100  0.29890300  1
  C  C20  1  0.65146400  0.11420100  0.20109700  1
  C  C21  1  0.15146400  0.38579900  0.29890300  1
  C  C22  1  0.34853600  0.61420100  0.79890300  1
  C  C23  1  0.84853600  0.88579900  0.70109700  1
  C  C24  1  0.95504700  0.60280400  0.25629800  1
  C  C25  1  0.45504700  0.89719600  0.24370200  1
  C  C26  1  0.04495300  0.10280400  0.74370200  1
  C  C27  1  0.54495300  0.39719600  0.75629800  1
  C  C28  1  0.04495300  0.39719600  0.74370200  1
  C  C29  1  0.54495300  0.10280400  0.75629800  1
  C  C30  1  0.95504700  0.89719600  0.25629800  1
  C  C31  1  0.45504700  0.60280400  0.24370200  1
  Ni  Ni32  1  0.98768400  0.75000000  0.25722200  1
  Ni  Ni33  1  0.48768400  0.75000000  0.24277800  1
  Ni  Ni34  1  0.01231600  0.25000000  0.74277800  1
  Ni  Ni35  1  0.51231600  0.25000000  0.75722200  1
  Cu  Cu36  1  0.16624100  0.75000000  0.11141100  1
  Cu  Cu37  1  0.66624100  0.75000000  0.38858900  1
  Cu  Cu38  1  0.83375900  0.25000000  0.88858900  1
  Cu  Cu39  1  0.33375900  0.25000000  0.61141100  1
  Cu  Cu40  1  0.18770100  0.96433500  0.66222000  1
  Cu  Cu41  1  0.68770100  0.53566500  0.83778000  1
  Cu  Cu42  1  0.81229900  0.46433500  0.33778000  1
  Cu  Cu43  1  0.31229900  0.03566500  0.16222000  1
  Cu  Cu44  1  0.81229900  0.03566500  0.33778000  1
  Cu  Cu45  1  0.31229900  0.46433500  0.16222000  1
  Cu  Cu46  1  0.18770100  0.53566500  0.66222000  1
  Cu  Cu47  1  0.68770100  0.96433500  0.83778000  1
  Cu  Cu48  1  0.35585000  0.75000000  0.68160600  1
  Cu  Cu49  1  0.85585000  0.75000000  0.81839400  1
  Cu  Cu50  1  0.64415000  0.25000000  0.31839400  1
  Cu  Cu51  1  0.14415000  0.25000000  0.18160600  1
  Cu  Cu52  1  0.06526400  0.75000000  0.75467000  1
  Cu  Cu53  1  0.56526400  0.75000000  0.74533000  1
  Cu  Cu54  1  0.93473600  0.25000000  0.24533000  1
  Cu  Cu55  1  0.43473600  0.25000000  0.25467000  1
