# generated using pymatgen
data_Cu2NiC7
_symmetry_space_group_name_H-M   'P 1'
_cell_length_a   5.59378321
_cell_length_b   5.85326500
_cell_length_c   8.07552969
_cell_angle_alpha   90.00000000
_cell_angle_beta   90.68571198
_cell_angle_gamma   90.00000000
_symmetry_Int_Tables_number   1
_chemical_formula_structural   Cu2NiC7
_chemical_formula_sum   'Cu4 Ni2 C14'
_cell_volume   264.38921323
_cell_formula_units_Z   2
loop_
 _symmetry_equiv_pos_site_id
 _symmetry_equiv_pos_as_xyz
  1  'x, y, z'
loop_
 _atom_site_type_symbol
 _atom_site_label
 _atom_site_symmetry_multiplicity
 _atom_site_fract_x
 _atom_site_fract_y
 _atom_site_fract_z
 _atom_site_occupancy
  Ni  Ni0  1  0.50000000  0.50000000  0.00000000  1
  Ni  Ni1  1  0.00000000  0.00000000  0.50000000  1
  Cu  Cu2  1  0.48295300  0.94386200  0.75660600  1
  Cu  Cu3  1  0.01704700  0.44386200  0.74339400  1
  Cu  Cu4  1  0.51704700  0.05613800  0.24339400  1
  Cu  Cu5  1  0.98295300  0.55613800  0.25660600  1
  C  C6  1  0.50000000  0.50000000  0.50000000  1
  C  C7  1  0.00000000  0.00000000  0.00000000  1
  C  C8  1  0.33597600  0.23203400  0.57401300  1
  C  C9  1  0.16402400  0.73203400  0.92598700  1
  C  C10  1  0.66402400  0.76796600  0.42598700  1
  C  C11  1  0.83597600  0.26796600  0.07401300  1
  C  C12  1  0.61444200  0.55878100  0.71906600  1
  C  C13  1  0.88555800  0.05878100  0.78093400  1
  C  C14  1  0.38555800  0.44121900  0.28093400  1
  C  C15  1  0.11444200  0.94121900  0.21906600  1
  C  C16  1  0.22309000  0.67547000  0.54673300  1
  C  C17  1  0.27691000  0.17547000  0.95326700  1
  C  C18  1  0.77691000  0.32453000  0.45326700  1
  C  C19  1  0.72309000  0.82453000  0.04673300  1
