# generated using pymatgen
data_Cu3NiC5
_symmetry_space_group_name_H-M   'P 1'
_cell_length_a   7.49300000
_cell_length_b   8.35073600
_cell_length_c   15.74370964
_cell_angle_alpha   58.32981357
_cell_angle_beta   90.00000000
_cell_angle_gamma   90.00000000
_symmetry_Int_Tables_number   1
_chemical_formula_structural   Cu3NiC5
_chemical_formula_sum   'Cu12 Ni4 C20'
_cell_volume   838.41723819
_cell_formula_units_Z   4
loop_
 _symmetry_equiv_pos_site_id
 _symmetry_equiv_pos_as_xyz
  1  'x, y, z'
loop_
 _atom_site_type_symbol
 _atom_site_label
 _atom_site_symmetry_multiplicity
 _atom_site_fract_x
 _atom_site_fract_y
 _atom_site_fract_z
 _atom_site_occupancy
  C  C0  1  0.49625200  0.09283400  0.24004500  1
  C  C1  1  0.99625200  0.90716600  0.25995500  1
  C  C2  1  0.50374800  0.90716600  0.75995500  1
  C  C3  1  0.00374800  0.09283400  0.74004500  1
  C  C4  1  0.04008300  0.41172900  0.41107200  1
  C  C5  1  0.54008300  0.58827100  0.08892800  1
  C  C6  1  0.95991700  0.58827100  0.58892800  1
  C  C7  1  0.45991700  0.41172900  0.91107200  1
  C  C8  1  0.52197000  0.25256400  0.41202300  1
  C  C9  1  0.02197000  0.74743600  0.08797700  1
  C  C10  1  0.47803000  0.74743600  0.58797700  1
  C  C11  1  0.97803000  0.25256400  0.91202300  1
  C  C12  1  0.66045700  0.99533400  0.08215400  1
  C  C13  1  0.16045700  0.00466600  0.41784600  1
  C  C14  1  0.33954300  0.00466600  0.91784600  1
  C  C15  1  0.83954300  0.99533400  0.58215400  1
  C  C16  1  0.85772900  0.31509000  0.25758500  1
  C  C17  1  0.35772900  0.68491000  0.24241500  1
  C  C18  1  0.14227100  0.68491000  0.74241500  1
  C  C19  1  0.64227100  0.31509000  0.75758500  1
  Ni  Ni20  1  0.64716400  0.66118200  0.41095200  1
  Ni  Ni21  1  0.14716400  0.33881800  0.08904800  1
  Ni  Ni22  1  0.35283600  0.33881800  0.58904800  1
  Ni  Ni23  1  0.85283600  0.66118200  0.91095200  1
  Cu  Cu24  1  0.70197500  0.33468700  0.57105100  1
  Cu  Cu25  1  0.20197500  0.66531300  0.92894900  1
  Cu  Cu26  1  0.29802500  0.66531300  0.42894900  1
  Cu  Cu27  1  0.79802500  0.33468700  0.07105100  1
  Cu  Cu28  1  0.76751600  0.93830800  0.41784000  1
  Cu  Cu29  1  0.26751600  0.06169200  0.08216000  1
  Cu  Cu30  1  0.23248400  0.06169200  0.58216000  1
  Cu  Cu31  1  0.73248400  0.93830800  0.91784000  1
  Cu  Cu32  1  0.74515800  0.63860900  0.26372600  1
  Cu  Cu33  1  0.24515800  0.36139100  0.23627400  1
  Cu  Cu34  1  0.25484200  0.36139100  0.73627400  1
  Cu  Cu35  1  0.75484200  0.63860900  0.76372600  1
