# generated using pymatgen
data_Cu6NiC44
_symmetry_space_group_name_H-M   'P 1'
_cell_length_a   9.59696066
_cell_length_b   9.59696066
_cell_length_c   9.59696069
_cell_angle_alpha   81.53596045
_cell_angle_beta   81.53596045
_cell_angle_gamma   81.53596228
_symmetry_Int_Tables_number   1
_chemical_formula_structural   Cu6NiC44
_chemical_formula_sum   'Cu6 Ni1 C44'
_cell_volume   857.59958620
_cell_formula_units_Z   1
loop_
 _symmetry_equiv_pos_site_id
 _symmetry_equiv_pos_as_xyz
  1  'x, y, z'
loop_
 _atom_site_type_symbol
 _atom_site_label
 _atom_site_symmetry_multiplicity
 _atom_site_fract_x
 _atom_site_fract_y
 _atom_site_fract_z
 _atom_site_occupancy
  C  C0  1  0.32464100  0.87710400  0.32464100  1
  C  C1  1  0.87710400  0.32464100  0.32464100  1
  C  C2  1  0.32464100  0.32464100  0.87710400  1
  C  C3  1  0.67535900  0.12289600  0.67535900  1
  C  C4  1  0.12289600  0.67535900  0.67535900  1
  C  C5  1  0.67535900  0.67535900  0.12289600  1
  C  C6  1  0.60160900  0.60160900  0.60160900  1
  C  C7  1  0.39839100  0.39839100  0.39839100  1
  Ni  Ni8  1  0.00000000  0.00000000  0.00000000  1
  Cu  Cu9  1  0.26101900  0.00000000  0.73898100  1
  Cu  Cu10  1  0.73898100  0.00000000  0.26101900  1
  Cu  Cu11  1  0.00000000  0.73898100  0.26101900  1
  Cu  Cu12  1  0.00000000  0.26101900  0.73898100  1
  Cu  Cu13  1  0.73898100  0.26101900  0.00000000  1
  Cu  Cu14  1  0.26101900  0.73898100  0.00000000  1
  C  C15  1  0.90170500  0.35702600  0.90170500  1
  C  C16  1  0.35702600  0.90170500  0.90170500  1
  C  C17  1  0.90170500  0.90170500  0.35702600  1
  C  C18  1  0.09829500  0.64297400  0.09829500  1
  C  C19  1  0.64297400  0.09829500  0.09829500  1
  C  C20  1  0.09829500  0.09829500  0.64297400  1
  C  C21  1  0.13478900  0.88771400  0.13478900  1
  C  C22  1  0.88771400  0.13478900  0.13478900  1
  C  C23  1  0.13478900  0.13478900  0.88771400  1
  C  C24  1  0.86521100  0.11228600  0.86521100  1
  C  C25  1  0.11228600  0.86521100  0.86521100  1
  C  C26  1  0.86521100  0.86521100  0.11228600  1
  C  C27  1  0.68528100  0.38477100  0.13021400  1
  C  C28  1  0.13021400  0.38477100  0.68528100  1
  C  C29  1  0.38477100  0.13021400  0.68528100  1
  C  C30  1  0.38477100  0.68528100  0.13021400  1
  C  C31  1  0.13021400  0.68528100  0.38477100  1
  C  C32  1  0.68528100  0.13021400  0.38477100  1
  C  C33  1  0.31471900  0.61522900  0.86978600  1
  C  C34  1  0.86978600  0.61522900  0.31471900  1
  C  C35  1  0.61522900  0.86978600  0.31471900  1
  C  C36  1  0.61522900  0.31471900  0.86978600  1
  C  C37  1  0.86978600  0.31471900  0.61522900  1
  C  C38  1  0.31471900  0.86978600  0.61522900  1
  C  C39  1  0.80375300  0.61903700  0.80375300  1
  C  C40  1  0.61903700  0.80375300  0.80375300  1
  C  C41  1  0.80375300  0.80375300  0.61903700  1
  C  C42  1  0.19624700  0.38096300  0.19624700  1
  C  C43  1  0.38096300  0.19624700  0.19624700  1
  C  C44  1  0.19624700  0.19624700  0.38096300  1
  C  C45  1  0.64950200  0.83231700  0.64950200  1
  C  C46  1  0.83231700  0.64950200  0.64950200  1
  C  C47  1  0.64950200  0.64950200  0.83231700  1
  C  C48  1  0.35049800  0.16768300  0.35049800  1
  C  C49  1  0.16768300  0.35049800  0.35049800  1
  C  C50  1  0.35049800  0.35049800  0.16768300  1
