# generated using pymatgen
data_CuNiC16
_symmetry_space_group_name_H-M   'P 1'
_cell_length_a   6.90471100
_cell_length_b   7.28849067
_cell_length_c   9.29062438
_cell_angle_alpha   97.22164061
_cell_angle_beta   97.91970839
_cell_angle_gamma   114.68461396
_symmetry_Int_Tables_number   1
_chemical_formula_structural   CuNiC16
_chemical_formula_sum   'Cu2 Ni2 C32'
_cell_volume   411.95810562
_cell_formula_units_Z   2
loop_
 _symmetry_equiv_pos_site_id
 _symmetry_equiv_pos_as_xyz
  1  'x, y, z'
loop_
 _atom_site_type_symbol
 _atom_site_label
 _atom_site_symmetry_multiplicity
 _atom_site_fract_x
 _atom_site_fract_y
 _atom_site_fract_z
 _atom_site_occupancy
  C  C0  1  0.17441800  0.36784200  0.60863100  1
  C  C1  1  0.82558200  0.63215800  0.39136900  1
  C  C2  1  0.17979700  0.54026700  0.82920000  1
  C  C3  1  0.82020300  0.45973300  0.17080000  1
  C  C4  1  0.44278000  0.59479400  0.89403200  1
  C  C5  1  0.55722000  0.40520600  0.10596800  1
  C  C6  1  0.24119300  0.35714500  0.89978500  1
  C  C7  1  0.75880700  0.64285500  0.10021500  1
  C  C8  1  0.56745600  0.19447900  0.53316500  1
  C  C9  1  0.43254400  0.80552100  0.46683500  1
  C  C10  1  0.33681500  0.23113400  0.45445600  1
  C  C11  1  0.66318500  0.76886600  0.54554400  1
  C  C12  1  0.80412700  0.79044500  0.87722700  1
  C  C13  1  0.19587300  0.20955500  0.12277300  1
  C  C14  1  0.73844900  0.92556500  0.98901500  1
  C  C15  1  0.26155100  0.07443500  0.01098500  1
  Ni  Ni16  1  0.44855400  0.32194600  0.67913500  1
  Ni  Ni17  1  0.55144600  0.67805400  0.32086500  1
  Cu  Cu18  1  0.03025900  0.76287600  0.68669800  1
  Cu  Cu19  1  0.96974100  0.23712400  0.31330200  1
  C  C20  1  0.57232500  0.33554000  0.80976900  1
  C  C21  1  0.42767500  0.66446000  0.19023100  1
  C  C22  1  0.71712900  0.25661800  0.80919100  1
  C  C23  1  0.28287100  0.74338200  0.19080900  1
  C  C24  1  0.30586400  0.40534600  0.69344700  1
  C  C25  1  0.69413600  0.59465400  0.30655300  1
  C  C26  1  0.28845200  0.47432000  0.83836100  1
  C  C27  1  0.71154800  0.52568000  0.16163900  1
  C  C28  1  0.45091800  0.24425100  0.54314400  1
  C  C29  1  0.54908200  0.75574900  0.45685600  1
  C  C30  1  0.75397000  0.18087200  0.69224200  1
  C  C31  1  0.24603000  0.81912800  0.30775800  1
  C  C32  1  0.81767300  0.26432700  0.93517000  1
  C  C33  1  0.18232700  0.73567300  0.06483000  1
  C  C34  1  0.70738100  0.78320900  0.94855400  1
  C  C35  1  0.29261900  0.21679100  0.05144600  1
