# generated using pymatgen
data_Cu3NiC14
_symmetry_space_group_name_H-M   'P 1'
_cell_length_a   5.44072300
_cell_length_b   5.63235100
_cell_length_c   16.19781733
_cell_angle_alpha   69.73191990
_cell_angle_beta   90.00000000
_cell_angle_gamma   90.00000000
_symmetry_Int_Tables_number   1
_chemical_formula_structural   Cu3NiC14
_chemical_formula_sum   'Cu6 Ni2 C28'
_cell_volume   465.63290047
_cell_formula_units_Z   2
loop_
 _symmetry_equiv_pos_site_id
 _symmetry_equiv_pos_as_xyz
  1  'x, y, z'
loop_
 _atom_site_type_symbol
 _atom_site_label
 _atom_site_symmetry_multiplicity
 _atom_site_fract_x
 _atom_site_fract_y
 _atom_site_fract_z
 _atom_site_occupancy
  C  C0  1  0.52028000  0.13391600  0.89089700  1
  C  C1  1  0.02028000  0.86608400  0.60910300  1
  C  C2  1  0.47678400  0.58433000  0.39082900  1
  C  C3  1  0.97678400  0.41567000  0.10917100  1
  C  C4  1  0.47972000  0.86608400  0.10910300  1
  C  C5  1  0.97972000  0.13391600  0.39089700  1
  C  C6  1  0.52321600  0.41567000  0.60917100  1
  C  C7  1  0.02321600  0.58433000  0.89082900  1
  Ni  Ni8  1  0.50000000  0.50000000  0.00000000  1
  Ni  Ni9  1  0.00000000  0.50000000  0.50000000  1
  Cu  Cu10  1  0.55149000  0.81637400  0.74767500  1
  Cu  Cu11  1  0.05149000  0.18362600  0.75232500  1
  Cu  Cu12  1  0.44851000  0.18362600  0.25232500  1
  Cu  Cu13  1  0.94851000  0.81637400  0.24767500  1
  Cu  Cu14  1  0.50000000  0.00000000  0.50000000  1
  Cu  Cu15  1  0.00000000  0.00000000  0.00000000  1
  C  C16  1  0.46376300  0.56562800  0.85212200  1
  C  C17  1  0.96376300  0.43437200  0.64787800  1
  C  C18  1  0.52684800  0.20512000  0.36349900  1
  C  C19  1  0.02684800  0.79488000  0.13650100  1
  C  C20  1  0.53623700  0.43437200  0.14787800  1
  C  C21  1  0.03623700  0.56562800  0.35212200  1
  C  C22  1  0.47315200  0.79488000  0.63650100  1
  C  C23  1  0.97315200  0.20512000  0.86349900  1
  C  C24  1  0.23470900  0.25434600  0.01554900  1
  C  C25  1  0.73470900  0.74565400  0.48445100  1
  C  C26  1  0.76913100  0.21975600  0.51603800  1
  C  C27  1  0.26913100  0.78024400  0.98396200  1
  C  C28  1  0.76529100  0.74565400  0.98445100  1
  C  C29  1  0.26529100  0.25434600  0.51554900  1
  C  C30  1  0.23086900  0.78024400  0.48396200  1
  C  C31  1  0.73086900  0.21975600  0.01603800  1
  C  C32  1  0.40936700  0.13241100  0.74980700  1
  C  C33  1  0.90936700  0.86758900  0.75019300  1
  C  C34  1  0.59063300  0.86758900  0.25019300  1
  C  C35  1  0.09063300  0.13241100  0.24980700  1
