# generated using pymatgen
data_CuNiC8
_symmetry_space_group_name_H-M   'P 1'
_cell_length_a   8.37331474
_cell_length_b   8.49512031
_cell_length_c   8.47802903
_cell_angle_alpha   90.00000000
_cell_angle_beta   90.00000000
_cell_angle_gamma   90.00000000
_symmetry_Int_Tables_number   1
_chemical_formula_structural   CuNiC8
_chemical_formula_sum   'Cu4 Ni4 C32'
_cell_volume   603.06184095
_cell_formula_units_Z   4
loop_
 _symmetry_equiv_pos_site_id
 _symmetry_equiv_pos_as_xyz
  1  'x, y, z'
loop_
 _atom_site_type_symbol
 _atom_site_label
 _atom_site_symmetry_multiplicity
 _atom_site_fract_x
 _atom_site_fract_y
 _atom_site_fract_z
 _atom_site_occupancy
  Ni  Ni0  1  0.50000000  0.00000000  0.50000000  1
  Ni  Ni1  1  0.50000000  0.50000000  0.00000000  1
  Ni  Ni2  1  0.00000000  0.50000000  0.00000000  1
  Ni  Ni3  1  0.00000000  -0.00000000  0.50000000  1
  C  C4  1  0.00000000  0.50000000  0.50000000  1
  C  C5  1  0.50000000  0.00000000  -0.00000000  1
  C  C6  1  0.00000000  0.00000000  0.00000000  1
  C  C7  1  0.50000000  0.50000000  0.50000000  1
  Cu  Cu8  1  0.25000000  0.25000000  0.25000000  1
  Cu  Cu9  1  0.75000000  0.75000000  0.25000000  1
  Cu  Cu10  1  0.75000000  0.25000000  0.75000000  1
  Cu  Cu11  1  0.25000000  0.75000000  0.75000000  1
  C  C12  1  0.75000000  0.75000000  0.75000000  1
  C  C13  1  0.25000000  0.25000000  0.75000000  1
  C  C14  1  0.25000000  0.75000000  0.25000000  1
  C  C15  1  0.75000000  0.25000000  0.25000000  1
  C  C16  1  0.98315607  0.21666319  0.27319350  1
  C  C17  1  0.01684393  0.78333681  0.27319350  1
  C  C18  1  0.01684393  0.21666319  0.72680650  1
  C  C19  1  0.98315607  0.78333681  0.72680650  1
  C  C20  1  0.28016232  0.98415318  0.19819275  1
  C  C21  1  0.28016232  0.01584682  0.80180725  1
  C  C22  1  0.71983768  0.01584682  0.19819275  1
  C  C23  1  0.71983768  0.98415318  0.80180725  1
  C  C24  1  0.21544965  0.26027364  0.98345927  1
  C  C25  1  0.78455035  0.26027364  0.01654073  1
  C  C26  1  0.21544965  0.73972636  0.01654073  1
  C  C27  1  0.78455035  0.73972636  0.98345927  1
  C  C28  1  0.51684393  0.28333681  0.22680650  1
  C  C29  1  0.48315607  0.71666319  0.22680650  1
  C  C30  1  0.48315607  0.28333681  0.77319350  1
  C  C31  1  0.51684393  0.71666319  0.77319350  1
  C  C32  1  0.21983768  0.51584682  0.30180725  1
  C  C33  1  0.21983768  0.48415318  0.69819275  1
  C  C34  1  0.78016232  0.48415318  0.30180725  1
  C  C35  1  0.78016232  0.51584682  0.69819275  1
  C  C36  1  0.28455035  0.23972636  0.51654073  1
  C  C37  1  0.71544965  0.23972636  0.48345927  1
  C  C38  1  0.28455035  0.76027364  0.48345927  1
  C  C39  1  0.71544965  0.76027364  0.51654073  1
