# generated using pymatgen
data_CuNiC40
_symmetry_space_group_name_H-M   'P 1'
_cell_length_a   20.87768600
_cell_length_b   6.68351600
_cell_length_c   6.76107467
_cell_angle_alpha   60.69434716
_cell_angle_beta   90.00000000
_cell_angle_gamma   90.00000000
_symmetry_Int_Tables_number   1
_chemical_formula_structural   CuNiC40
_chemical_formula_sum   'Cu2 Ni2 C80'
_cell_volume   822.67826350
_cell_formula_units_Z   2
loop_
 _symmetry_equiv_pos_site_id
 _symmetry_equiv_pos_as_xyz
  1  'x, y, z'
loop_
 _atom_site_type_symbol
 _atom_site_label
 _atom_site_symmetry_multiplicity
 _atom_site_fract_x
 _atom_site_fract_y
 _atom_site_fract_z
 _atom_site_occupancy
  Ni  Ni0  1  0.36621500  0.30576100  0.37797900  1
  Ni  Ni1  1  0.86621500  0.69423900  0.62202100  1
  Cu  Cu2  1  0.48005600  0.98339100  0.07790200  1
  Cu  Cu3  1  0.98005600  0.01660900  0.92209800  1
  C  C4  1  0.49437100  0.87888300  0.65956800  1
  C  C5  1  0.99437100  0.12111700  0.34043200  1
  C  C6  1  0.01692300  0.51462800  0.03004200  1
  C  C7  1  0.51692300  0.48537200  0.96995800  1
  C  C8  1  0.21281100  0.30878800  0.42163300  1
  C  C9  1  0.71281100  0.69121200  0.57836700  1
  C  C10  1  0.01722000  0.69381900  0.60942700  1
  C  C11  1  0.51722000  0.30618100  0.39057300  1
  C  C12  1  0.33998100  0.97679800  0.05859000  1
  C  C13  1  0.83998100  0.02320200  0.94141000  1
  C  C14  1  0.23523500  0.89592500  0.24703800  1
  C  C15  1  0.73523500  0.10407500  0.75296200  1
  C  C16  1  0.49872400  0.56274800  0.57442700  1
  C  C17  1  0.99872400  0.43725200  0.42557300  1
  C  C18  1  0.86191000  0.59679300  0.20655700  1
  C  C19  1  0.36191000  0.40320700  0.79344300  1
  C  C20  1  0.35547700  0.71868300  0.87570000  1
  C  C21  1  0.85547700  0.28131700  0.12430000  1
  C  C22  1  0.11924800  0.59977500  0.81763400  1
  C  C23  1  0.61924800  0.40022500  0.18236600  1
  C  C24  1  0.33587400  0.79502400  0.48064900  1
  C  C25  1  0.83587400  0.20497600  0.51935100  1
  C  C26  1  0.12495900  0.37243900  0.29638600  1
  C  C27  1  0.62495900  0.62756100  0.70361400  1
  C  C28  1  0.14297500  0.83369000  0.36964200  1
  C  C29  1  0.64297500  0.16631000  0.63035800  1
  C  C30  1  0.60962200  0.85552600  0.27823300  1
  C  C31  1  0.10962200  0.14447400  0.72176700  1
  C  C32  1  0.22111800  0.47893400  0.07198000  1
  C  C33  1  0.72111800  0.52106600  0.92802000  1
  C  C34  1  0.74266600  0.87624600  0.23781100  1
  C  C35  1  0.24266600  0.12375400  0.76218900  1
  C  C36  1  0.12268100  0.00525800  0.99258300  1
  C  C37  1  0.62268200  0.99474200  0.00741700  1
  C  C38  1  0.21062500  0.65631400  0.68675600  1
  C  C39  1  0.71062500  0.34368600  0.31324400  1
  C  C40  1  0.99212500  0.27489300  0.11291600  1
  C  C41  1  0.49212500  0.72510700  0.88708400  1
  C  C42  1  0.08750200  0.50362000  0.02118500  1
  C  C43  1  0.58750200  0.49638000  0.97881500  1
  C  C44  1  0.75441900  0.78549200  0.39969800  1
  C  C45  1  0.25441900  0.21450800  0.60030200  1
  C  C46  1  0.49832400  0.80058000  0.50220300  1
  C  C47  1  0.99832400  0.19942000  0.49779700  1
  C  C48  1  0.36133100  0.76821700  0.04795000  1
  C  C49  1  0.86133100  0.23178300  0.95205000  1
  C  C50  1  0.18544300  0.58618100  0.82965700  1
  C  C51  1  0.68544300  0.41381900  0.17034300  1
  C  C52  1  0.49546200  0.51552900  0.40055500  1
  C  C53  1  0.99546200  0.48447100  0.59944500  1
  C  C54  1  0.87115600  0.82464400  0.13754700  1
  C  C55  1  0.37115600  0.17535600  0.86245300  1
  C  C56  1  0.08817500  0.70248800  0.61144400  1
  C  C57  1  0.58817500  0.29751200  0.38855600  1
  C  C58  1  0.99077400  0.89345300  0.40504000  1
  C  C59  1  0.49077400  0.10654700  0.59496000  1
  C  C60  1  0.24532500  0.41265800  0.21899300  1
  C  C61  1  0.74532500  0.58734200  0.78100700  1
  C  C62  1  0.16919200  0.90518800  0.22921300  1
  C  C63  1  0.66919200  0.09481200  0.77078700  1
  C  C64  1  0.48906000  0.31887900  0.18538600  1
  C  C65  1  0.98906000  0.68112100  0.81461400  1
  C  C66  1  0.00089300  0.59244900  0.19852900  1
  C  C67  1  0.50089300  0.40755100  0.80147100  1
  C  C68  1  0.36620500  0.95842800  0.26814400  1
  C  C69  1  0.86620500  0.04157200  0.73185600  1
  C  C70  1  0.35078100  0.87109300  0.64977300  1
  C  C71  1  0.85078100  0.12890700  0.35022700  1
  C  C72  1  0.14729300  0.29866700  0.44558100  1
  C  C73  1  0.64729300  0.70133300  0.55441900  1
  C  C74  1  0.58958400  0.94833200  0.12778700  1
  C  C75  1  0.08958400  0.05166800  0.87221300  1
  C  C76  1  0.85574000  0.51806200  0.05198900  1
  C  C77  1  0.35574000  0.48193800  0.94801100  1
  C  C78  1  0.36056200  0.55697200  0.56617600  1
  C  C79  1  0.86056200  0.44302800  0.43382400  1
  C  C80  1  0.26979200  0.99478600  0.04825800  1
  C  C81  1  0.76979200  0.00521400  0.95174200  1
  C  C82  1  0.26487100  0.79196000  0.45586400  1
  C  C83  1  0.76487100  0.20804000  0.54413600  1
