# generated using pymatgen
data_Cu3Ni4
_symmetry_space_group_name_H-M   'P 1'
_cell_length_a   10.87457000
_cell_length_b   13.11138900
_cell_length_c   13.93991100
_cell_angle_alpha   90.00000000
_cell_angle_beta   90.00000000
_cell_angle_gamma   90.00000000
_symmetry_Int_Tables_number   1
_chemical_formula_structural   Cu3Ni4
_chemical_formula_sum   'Cu48 Ni64'
_cell_volume   1987.56251196
_cell_formula_units_Z   16
loop_
 _symmetry_equiv_pos_site_id
 _symmetry_equiv_pos_as_xyz
  1  'x, y, z'
loop_
 _atom_site_type_symbol
 _atom_site_label
 _atom_site_symmetry_multiplicity
 _atom_site_fract_x
 _atom_site_fract_y
 _atom_site_fract_z
 _atom_site_occupancy
  Ni  Ni0  1  0.09455900  0.08819800  0.18413300  1
  Ni  Ni1  1  0.90544100  0.91180200  0.81586700  1
  Ni  Ni2  1  0.40544100  0.91180200  0.68413300  1
  Ni  Ni3  1  0.90544100  0.58819800  0.31586700  1
  Ni  Ni4  1  0.59455900  0.08819800  0.31586700  1
  Ni  Ni5  1  0.09455900  0.41180200  0.68413300  1
  Ni  Ni6  1  0.59455900  0.41180200  0.81586700  1
  Ni  Ni7  1  0.40544100  0.58819800  0.18413300  1
  Ni  Ni8  1  0.20094500  0.06854600  0.04462700  1
  Ni  Ni9  1  0.79905500  0.93145400  0.95537300  1
  Ni  Ni10  1  0.29905500  0.93145400  0.54462700  1
  Ni  Ni11  1  0.79905500  0.56854600  0.45537300  1
  Ni  Ni12  1  0.70094500  0.06854600  0.45537300  1
  Ni  Ni13  1  0.20094500  0.43145400  0.54462700  1
  Ni  Ni14  1  0.70094500  0.43145400  0.95537300  1
  Ni  Ni15  1  0.29905500  0.56854600  0.04462700  1
  Ni  Ni16  1  0.22706400  0.49384300  0.46281800  1
  Ni  Ni17  1  0.77293600  0.50615700  0.53718200  1
  Ni  Ni18  1  0.27293600  0.50615700  0.96281800  1
  Ni  Ni19  1  0.77293600  0.99384300  0.03718200  1
  Ni  Ni20  1  0.72706400  0.49384300  0.03718200  1
  Ni  Ni21  1  0.22706400  0.00615700  0.96281800  1
  Ni  Ni22  1  0.72706400  0.00615700  0.53718200  1
  Ni  Ni23  1  0.27293600  0.99384300  0.46281800  1
  Ni  Ni24  1  0.12729200  0.24586600  0.28124800  1
  Ni  Ni25  1  0.87270800  0.75413400  0.71875200  1
  Ni  Ni26  1  0.37270800  0.75413400  0.78124800  1
  Ni  Ni27  1  0.87270800  0.74586600  0.21875200  1
  Ni  Ni28  1  0.62729200  0.24586600  0.21875200  1
  Ni  Ni29  1  0.12729200  0.25413400  0.78124800  1
  Ni  Ni30  1  0.62729200  0.25413400  0.71875200  1
  Ni  Ni31  1  0.37270800  0.74586600  0.28124800  1
  Ni  Ni32  1  0.35413600  0.29952800  0.49645100  1
  Ni  Ni33  1  0.64586400  0.70047200  0.50354900  1
  Ni  Ni34  1  0.14586400  0.70047200  0.99645100  1
  Ni  Ni35  1  0.64586400  0.79952800  0.00354900  1
  Ni  Ni36  1  0.85413600  0.29952800  0.00354900  1
  Ni  Ni37  1  0.35413600  0.20047200  0.99645100  1
  Ni  Ni38  1  0.85413600  0.20047200  0.50354900  1
  Ni  Ni39  1  0.14586400  0.79952800  0.49645100  1
  Ni  Ni40  1  0.15367900  0.18362200  0.19930500  1
  Ni  Ni41  1  0.84632100  0.81637800  0.80069500  1
  Ni  Ni42  1  0.34632100  0.81637800  0.69930500  1
  Ni  Ni43  1  0.84632100  0.68362200  0.30069500  1
  Ni  Ni44  1  0.65367900  0.18362200  0.30069500  1
  Ni  Ni45  1  0.15367900  0.31637800  0.69930500  1
  Ni  Ni46  1  0.65367900  0.31637800  0.80069500  1
  Ni  Ni47  1  0.34632100  0.68362200  0.19930500  1
  Ni  Ni48  1  0.50731200  0.04801900  0.24877100  1
  Ni  Ni49  1  0.49268800  0.95198100  0.75122900  1
  Ni  Ni50  1  0.99268800  0.95198100  0.74877100  1
  Ni  Ni51  1  0.49268800  0.54801900  0.25122900  1
  Ni  Ni52  1  0.00731200  0.04801900  0.25122900  1
  Ni  Ni53  1  0.50731200  0.45198100  0.74877100  1
  Ni  Ni54  1  0.00731200  0.45198100  0.75122900  1
  Ni  Ni55  1  0.99268800  0.54801900  0.24877100  1
  Ni  Ni56  1  0.26199500  0.16288600  0.06080000  1
  Ni  Ni57  1  0.73800500  0.83711400  0.93920000  1
  Ni  Ni58  1  0.23800500  0.83711400  0.56080000  1
  Ni  Ni59  1  0.73800500  0.66288600  0.43920000  1
  Ni  Ni60  1  0.76199500  0.16288600  0.43920000  1
  Ni  Ni61  1  0.26199500  0.33711400  0.56080000  1
  Ni  Ni62  1  0.76199500  0.33711400  0.93920000  1
  Ni  Ni63  1  0.23800500  0.66288600  0.06080000  1
  Cu  Cu64  1  0.43024600  0.26903800  0.44483700  1
  Cu  Cu65  1  0.56975400  0.73096200  0.55516300  1
  Cu  Cu66  1  0.06975400  0.73096200  0.94483700  1
  Cu  Cu67  1  0.56975400  0.76903800  0.05516300  1
  Cu  Cu68  1  0.93024600  0.26903800  0.05516300  1
  Cu  Cu69  1  0.43024600  0.23096200  0.94483700  1
  Cu  Cu70  1  0.93024600  0.23096200  0.55516300  1
  Cu  Cu71  1  0.06975400  0.76903800  0.44483700  1
  Cu  Cu72  1  0.11790600  0.03197700  0.10631900  1
  Cu  Cu73  1  0.88209400  0.96802300  0.89368100  1
  Cu  Cu74  1  0.38209400  0.96802300  0.60631900  1
  Cu  Cu75  1  0.88209400  0.53197700  0.39368100  1
  Cu  Cu76  1  0.61790600  0.03197700  0.39368100  1
  Cu  Cu77  1  0.11790600  0.46802300  0.60631900  1
  Cu  Cu78  1  0.61790600  0.46802300  0.89368100  1
  Cu  Cu79  1  0.38209400  0.53197700  0.10631900  1
  Cu  Cu80  1  0.43571900  0.01585500  0.19417900  1
  Cu  Cu81  1  0.56428100  0.98414500  0.80582100  1
  Cu  Cu82  1  0.06428100  0.98414500  0.69417900  1
  Cu  Cu83  1  0.56428100  0.51585500  0.30582100  1
  Cu  Cu84  1  0.93571900  0.01585500  0.30582100  1
  Cu  Cu85  1  0.43571900  0.48414500  0.69417900  1
  Cu  Cu86  1  0.93571900  0.48414500  0.80582100  1
  Cu  Cu87  1  0.06428100  0.51585500  0.19417900  1
  Cu  Cu88  1  0.23712700  0.22000600  0.13779100  1
  Cu  Cu89  1  0.76287300  0.77999400  0.86220900  1
  Cu  Cu90  1  0.26287300  0.77999400  0.63779100  1
  Cu  Cu91  1  0.76287300  0.72000600  0.36220900  1
  Cu  Cu92  1  0.73712700  0.22000600  0.36220900  1
  Cu  Cu93  1  0.23712700  0.27999400  0.63779100  1
  Cu  Cu94  1  0.73712700  0.27999400  0.86220900  1
  Cu  Cu95  1  0.26287300  0.72000600  0.13779100  1
  Cu  Cu96  1  0.10554100  0.29594300  0.34820100  1
  Cu  Cu97  1  0.89445900  0.70405700  0.65179900  1
  Cu  Cu98  1  0.39445900  0.70405700  0.84820100  1
  Cu  Cu99  1  0.89445900  0.79594300  0.15179900  1
  Cu  Cu100  1  0.60554100  0.29594300  0.15179900  1
  Cu  Cu101  1  0.10554100  0.20405700  0.84820100  1
  Cu  Cu102  1  0.60554100  0.20405700  0.65179900  1
  Cu  Cu103  1  0.39445900  0.79594300  0.34820100  1
  Cu  Cu104  1  0.24920600  0.04534000  0.39710700  1
  Cu  Cu105  1  0.75079400  0.95466000  0.60289300  1
  Cu  Cu106  1  0.25079400  0.95466000  0.89710700  1
  Cu  Cu107  1  0.75079400  0.54534000  0.10289300  1
  Cu  Cu108  1  0.74920600  0.04534000  0.10289300  1
  Cu  Cu109  1  0.24920600  0.45466000  0.89710700  1
  Cu  Cu110  1  0.74920600  0.45466000  0.60289300  1
  Cu  Cu111  1  0.25079400  0.54534000  0.39710700  1
