# generated using pymatgen
data_Cu6Ni6C
_symmetry_space_group_name_H-M   'P 1'
_cell_length_a   10.36990040
_cell_length_b   10.36990040
_cell_length_c   5.41210300
_cell_angle_alpha   90.00000000
_cell_angle_beta   90.00000000
_cell_angle_gamma   128.86439674
_symmetry_Int_Tables_number   1
_chemical_formula_structural   Cu6Ni6C
_chemical_formula_sum   'Cu12 Ni12 C2'
_cell_volume   453.15643040
_cell_formula_units_Z   2
loop_
 _symmetry_equiv_pos_site_id
 _symmetry_equiv_pos_as_xyz
  1  'x, y, z'
loop_
 _atom_site_type_symbol
 _atom_site_label
 _atom_site_symmetry_multiplicity
 _atom_site_fract_x
 _atom_site_fract_y
 _atom_site_fract_z
 _atom_site_occupancy
  C  C0  1  0.87284100  0.12715900  0.75000000  1
  C  C1  1  0.12715900  0.87284100  0.25000000  1
  Ni  Ni2  1  0.50000000  0.00000000  0.00000000  1
  Ni  Ni3  1  0.00000000  0.50000000  0.00000000  1
  Ni  Ni4  1  0.50000000  0.00000000  0.50000000  1
  Ni  Ni5  1  0.00000000  0.50000000  0.50000000  1
  Ni  Ni6  1  0.75385500  0.75385500  0.00000000  1
  Ni  Ni7  1  0.75385500  0.75385500  0.50000000  1
  Ni  Ni8  1  0.24614500  0.24614500  0.00000000  1
  Ni  Ni9  1  0.24614500  0.24614500  0.50000000  1
  Ni  Ni10  1  0.62766500  0.87825000  0.25000000  1
  Ni  Ni11  1  0.87825000  0.62766500  0.75000000  1
  Ni  Ni12  1  0.37233500  0.12175000  0.75000000  1
  Ni  Ni13  1  0.12175000  0.37233500  0.25000000  1
  Cu  Cu14  1  0.53836400  0.78706800  0.75000000  1
  Cu  Cu15  1  0.78706800  0.53836400  0.25000000  1
  Cu  Cu16  1  0.46163600  0.21293200  0.25000000  1
  Cu  Cu17  1  0.21293200  0.46163600  0.75000000  1
  Cu  Cu18  1  0.95688000  0.04312000  0.25000000  1
  Cu  Cu19  1  0.04312000  0.95688000  0.75000000  1
  Cu  Cu20  1  0.45787300  0.54212700  0.25000000  1
  Cu  Cu21  1  0.54212700  0.45787300  0.75000000  1
  Cu  Cu22  1  0.78871500  0.21128500  0.25000000  1
  Cu  Cu23  1  0.21128500  0.78871500  0.75000000  1
  Cu  Cu24  1  0.29428000  0.70572000  0.25000000  1
  Cu  Cu25  1  0.70572000  0.29428100  0.75000000  1
