# generated using pymatgen
data_Cu3NiC
_symmetry_space_group_name_H-M   'P 1'
_cell_length_a   7.00645700
_cell_length_b   7.01295600
_cell_length_c   12.61701700
_cell_angle_alpha   90.00000000
_cell_angle_beta   90.00000000
_cell_angle_gamma   90.00000000
_symmetry_Int_Tables_number   1
_chemical_formula_structural   Cu3NiC
_chemical_formula_sum   'Cu24 Ni8 C8'
_cell_volume   619.94942756
_cell_formula_units_Z   8
loop_
 _symmetry_equiv_pos_site_id
 _symmetry_equiv_pos_as_xyz
  1  'x, y, z'
loop_
 _atom_site_type_symbol
 _atom_site_label
 _atom_site_symmetry_multiplicity
 _atom_site_fract_x
 _atom_site_fract_y
 _atom_site_fract_z
 _atom_site_occupancy
  C  C0  1  0.24565100  0.63640800  0.96967900  1
  C  C1  1  0.74565100  0.86359200  0.03032100  1
  C  C2  1  0.75434900  0.13640800  0.53032100  1
  C  C3  1  0.25434900  0.36359200  0.46967900  1
  C  C4  1  0.75434900  0.36359200  0.03032100  1
  C  C5  1  0.25434900  0.13640800  0.96967900  1
  C  C6  1  0.24565100  0.86359200  0.46967900  1
  C  C7  1  0.74565100  0.63640800  0.53032100  1
  Ni  Ni8  1  0.48762900  0.88355700  0.78629700  1
  Ni  Ni9  1  0.98762900  0.61644300  0.21370300  1
  Ni  Ni10  1  0.51237100  0.38355700  0.71370300  1
  Ni  Ni11  1  0.01237100  0.11644300  0.28629700  1
  Ni  Ni12  1  0.51237100  0.11644300  0.21370300  1
  Ni  Ni13  1  0.01237100  0.38355700  0.78629700  1
  Ni  Ni14  1  0.48762900  0.61644300  0.28629700  1
  Ni  Ni15  1  0.98762900  0.88355700  0.71370300  1
  Cu  Cu16  1  0.48361300  0.07649400  0.87115600  1
  Cu  Cu17  1  0.98361300  0.42350600  0.12884400  1
  Cu  Cu18  1  0.51638700  0.57649400  0.62884400  1
  Cu  Cu19  1  0.01638700  0.92350600  0.37115600  1
  Cu  Cu20  1  0.51638700  0.92350600  0.12884400  1
  Cu  Cu21  1  0.01638700  0.57649400  0.87115600  1
  Cu  Cu22  1  0.48361300  0.42350600  0.37115600  1
  Cu  Cu23  1  0.98361300  0.07649400  0.62884400  1
  Cu  Cu24  1  0.45726400  0.67993000  0.86216200  1
  Cu  Cu25  1  0.95726400  0.82007000  0.13783800  1
  Cu  Cu26  1  0.54273600  0.17993000  0.63783800  1
  Cu  Cu27  1  0.04273600  0.32007000  0.36216200  1
  Cu  Cu28  1  0.54273600  0.32007000  0.13783800  1
  Cu  Cu29  1  0.04273600  0.17993000  0.86216200  1
  Cu  Cu30  1  0.45726400  0.82007000  0.36216200  1
  Cu  Cu31  1  0.95726400  0.67993000  0.63783800  1
  Cu  Cu32  1  0.22301300  0.88629700  0.03027800  1
  Cu  Cu33  1  0.72301300  0.61370300  0.96972200  1
  Cu  Cu34  1  0.77698700  0.38629700  0.46972200  1
  Cu  Cu35  1  0.27698700  0.11370300  0.53027800  1
  Cu  Cu36  1  0.77698700  0.11370300  0.96972200  1
  Cu  Cu37  1  0.27698700  0.38629700  0.03027800  1
  Cu  Cu38  1  0.22301300  0.61370300  0.53027800  1
  Cu  Cu39  1  0.72301300  0.88629700  0.46972200  1
