# generated using pymatgen
data_Cu8Ni2C5
_symmetry_space_group_name_H-M   'P 1'
_cell_length_a   6.84304868
_cell_length_b   6.84304868
_cell_length_c   20.46749200
_cell_angle_alpha   90.00000000
_cell_angle_beta   90.00000000
_cell_angle_gamma   97.00362762
_symmetry_Int_Tables_number   1
_chemical_formula_structural   Cu8Ni2C5
_chemical_formula_sum   'Cu16 Ni4 C10'
_cell_volume   951.28625445
_cell_formula_units_Z   2
loop_
 _symmetry_equiv_pos_site_id
 _symmetry_equiv_pos_as_xyz
  1  'x, y, z'
loop_
 _atom_site_type_symbol
 _atom_site_label
 _atom_site_symmetry_multiplicity
 _atom_site_fract_x
 _atom_site_fract_y
 _atom_site_fract_z
 _atom_site_occupancy
  C  C0  1  0.88238700  0.47244300  0.38211900  1
  C  C1  1  0.47244300  0.88238700  0.61788100  1
  C  C2  1  0.38238700  0.97244300  0.11788100  1
  C  C3  1  0.97244300  0.38238700  0.88211900  1
  C  C4  1  0.83252000  0.92494000  0.24467600  1
  C  C5  1  0.92494000  0.83252000  0.75532400  1
  C  C6  1  0.33252000  0.42494000  0.25532400  1
  C  C7  1  0.42494000  0.33252000  0.74467600  1
  C  C8  1  0.54002600  0.54002600  0.00000000  1
  C  C9  1  0.04002600  0.04002600  0.50000000  1
  Ni  Ni10  1  0.89614800  0.47411600  0.13556600  1
  Ni  Ni11  1  0.47411600  0.89614800  0.86443400  1
  Ni  Ni12  1  0.97411600  0.39614800  0.63556600  1
  Ni  Ni13  1  0.39614800  0.97411600  0.36443400  1
  Cu  Cu14  1  0.30415100  0.77164200  0.96310200  1
  Cu  Cu15  1  0.77164200  0.30415100  0.03689800  1
  Cu  Cu16  1  0.82980200  0.24407600  0.72965900  1
  Cu  Cu17  1  0.24407600  0.82980200  0.27034100  1
  Cu  Cu18  1  0.32980200  0.74407600  0.77034100  1
  Cu  Cu19  1  0.74407600  0.32980100  0.22965900  1
  Cu  Cu20  1  0.42830500  0.23891800  0.86825000  1
  Cu  Cu21  1  0.23891800  0.42830500  0.13175000  1
  Cu  Cu22  1  0.92830500  0.73891800  0.63175000  1
  Cu  Cu23  1  0.73891800  0.92830500  0.36825000  1
  Cu  Cu24  1  0.31472400  0.35033300  0.62341200  1
  Cu  Cu25  1  0.35033300  0.31472400  0.37658800  1
  Cu  Cu26  1  0.81472400  0.85033300  0.87658800  1
  Cu  Cu27  1  0.85033300  0.81472400  0.12341200  1
  Cu  Cu28  1  0.80415100  0.27164200  0.53689800  1
  Cu  Cu29  1  0.27164200  0.80415100  0.46310200  1
