# generated using pymatgen
data_Cu(NiC5)2
_symmetry_space_group_name_H-M   'P 1'
_cell_length_a   5.44410438
_cell_length_b   6.47665453
_cell_length_c   10.06182997
_cell_angle_alpha   108.75858096
_cell_angle_beta   91.96402467
_cell_angle_gamma   90.00657765
_symmetry_Int_Tables_number   1
_chemical_formula_structural   Cu(NiC5)2
_chemical_formula_sum   'Cu2 Ni4 C20'
_cell_volume   335.71034528
_cell_formula_units_Z   2
loop_
 _symmetry_equiv_pos_site_id
 _symmetry_equiv_pos_as_xyz
  1  'x, y, z'
loop_
 _atom_site_type_symbol
 _atom_site_label
 _atom_site_symmetry_multiplicity
 _atom_site_fract_x
 _atom_site_fract_y
 _atom_site_fract_z
 _atom_site_occupancy
  C  C0  1  0.75551300  0.45779400  0.58132800  1
  C  C1  1  0.74358000  0.87574700  0.41834900  1
  C  C2  1  0.24372500  0.54025300  0.41786100  1
  C  C3  1  0.25548700  0.12218900  0.58054100  1
  Ni  Ni4  1  0.74333100  0.25752100  0.22597300  1
  Ni  Ni5  1  0.75584100  0.03151500  0.77320000  1
  Ni  Ni6  1  0.25588100  0.74054700  0.77334100  1
  Ni  Ni7  1  0.24340400  0.96626400  0.22575000  1
  Cu  Cu8  1  0.24989300  0.35390600  0.99946200  1
  Cu  Cu9  1  0.74991800  0.64303900  0.99972300  1
  C  C10  1  0.07447700  0.18868300  0.14173100  1
  C  C11  1  0.42468900  0.04695400  0.85754900  1
  C  C12  1  0.92466700  0.80913600  0.85739700  1
  C  C13  1  0.57448600  0.95123600  0.14154900  1
  C  C14  1  0.57507700  0.40421500  0.11643000  1
  C  C15  1  0.92447600  0.28729800  0.88305100  1
  C  C16  1  0.42444300  0.59448500  0.88309100  1
  C  C17  1  0.07513800  0.71033000  0.11599600  1
  C  C18  1  0.48362600  0.24535000  0.36475500  1
  C  C19  1  0.01551800  0.88106100  0.63447200  1
  C  C20  1  0.98363900  0.11687500  0.36457100  1
  C  C21  1  0.51559100  0.75263800  0.63452900  1
  C  C22  1  0.33796600  0.84274700  0.37084700  1
  C  C23  1  0.16132300  0.47196800  0.62811900  1
  C  C24  1  0.66106900  0.15520800  0.62820100  1
  C  C25  1  0.83794100  0.52609900  0.37115000  1
