# generated using pymatgen
data_Cu36NiC11
_symmetry_space_group_name_H-M   'P 1'
_cell_length_a   9.93060581
_cell_length_b   9.93060581
_cell_length_c   17.67134193
_cell_angle_alpha   88.68964887
_cell_angle_beta   88.68964887
_cell_angle_gamma   58.85519061
_symmetry_Int_Tables_number   1
_chemical_formula_structural   Cu36NiC11
_chemical_formula_sum   'Cu72 Ni2 C22'
_cell_volume   1490.99247976
_cell_formula_units_Z   2
loop_
 _symmetry_equiv_pos_site_id
 _symmetry_equiv_pos_as_xyz
  1  'x, y, z'
loop_
 _atom_site_type_symbol
 _atom_site_label
 _atom_site_symmetry_multiplicity
 _atom_site_fract_x
 _atom_site_fract_y
 _atom_site_fract_z
 _atom_site_occupancy
  C  C0  1  0.23310500  0.19282800  0.26622800  1
  C  C1  1  0.76689500  0.80717200  0.73377200  1
  C  C2  1  0.80717200  0.76689500  0.23377200  1
  C  C3  1  0.19282800  0.23310500  0.76622800  1
  C  C4  1  0.67298200  0.32701800  0.25000000  1
  C  C5  1  0.32701800  0.67298200  0.75000000  1
  C  C6  1  0.86565500  0.01377300  0.14059800  1
  C  C7  1  0.13434500  0.98622700  0.85940200  1
  C  C8  1  0.98622700  0.13434500  0.35940200  1
  C  C9  1  0.01377300  0.86565500  0.64059800  1
  C  C10  1  0.58540200  0.65220300  0.33252700  1
  C  C11  1  0.41459800  0.34779700  0.66747300  1
  C  C12  1  0.34779700  0.41459800  0.16747300  1
  C  C13  1  0.65220300  0.58540200  0.83252700  1
  C  C14  1  0.46002700  0.91023900  0.15092100  1
  C  C15  1  0.53997300  0.08976100  0.84907900  1
  C  C16  1  0.08976100  0.53997300  0.34907900  1
  C  C17  1  0.91023900  0.46002700  0.65092100  1
  C  C18  1  0.57412100  0.09431400  0.31824500  1
  C  C19  1  0.42587900  0.90568600  0.68175500  1
  C  C20  1  0.90568600  0.42587900  0.18175500  1
  C  C21  1  0.09431400  0.57412100  0.81824500  1
  Ni  Ni22  1  0.23248200  0.76751800  0.25000000  1
  Ni  Ni23  1  0.76751800  0.23248200  0.75000000  1
  Cu  Cu24  1  0.29589400  0.09864800  0.51984400  1
  Cu  Cu25  1  0.70410600  0.90135200  0.48015600  1
  Cu  Cu26  1  0.90135200  0.70410600  0.98015600  1
  Cu  Cu27  1  0.09864800  0.29589400  0.01984400  1
  Cu  Cu28  1  0.33654100  0.28246100  0.20380700  1
  Cu  Cu29  1  0.66345900  0.71753900  0.79619300  1
  Cu  Cu30  1  0.71753900  0.66345900  0.29619300  1
  Cu  Cu31  1  0.28246100  0.33654100  0.70380700  1
  Cu  Cu32  1  0.57912700  0.24188200  0.31957300  1
  Cu  Cu33  1  0.42087300  0.75811800  0.68042700  1
  Cu  Cu34  1  0.75811800  0.42087300  0.18042700  1
  Cu  Cu35  1  0.24188200  0.57912700  0.81957300  1
  Cu  Cu36  1  0.51993100  0.25847500  0.03299300  1
  Cu  Cu37  1  0.48006900  0.74152500  0.96700700  1
  Cu  Cu38  1  0.74152500  0.48006900  0.46700700  1
  Cu  Cu39  1  0.25847500  0.51993100  0.53299300  1
  Cu  Cu40  1  0.14341100  0.10695400  0.32954100  1
  Cu  Cu41  1  0.85658900  0.89304600  0.67045900  1
  Cu  Cu42  1  0.89304600  0.85658900  0.17045900  1
  Cu  Cu43  1  0.10695400  0.14341100  0.82954100  1
  Cu  Cu44  1  0.62062900  0.86935700  0.18061000  1
  Cu  Cu45  1  0.37937100  0.13064300  0.81939000  1
  Cu  Cu46  1  0.13064300  0.37937100  0.31939000  1
  Cu  Cu47  1  0.86935700  0.62062900  0.68061000  1
  Cu  Cu48  1  0.80337500  0.03503100  0.05597000  1
  Cu  Cu49  1  0.19662500  0.96496900  0.94403000  1
  Cu  Cu50  1  0.96496900  0.19662500  0.44403000  1
  Cu  Cu51  1  0.03503100  0.80337500  0.55597000  1
  Cu  Cu52  1  0.42511100  0.98991800  0.07140200  1
  Cu  Cu53  1  0.57488900  0.01008200  0.92859800  1
  Cu  Cu54  1  0.01008200  0.57488900  0.42859800  1
  Cu  Cu55  1  0.98991800  0.42511100  0.57140200  1
  Cu  Cu56  1  0.62762100  0.03908300  0.45815100  1
  Cu  Cu57  1  0.37237900  0.96091700  0.54184900  1
  Cu  Cu58  1  0.96091700  0.37237900  0.04184900  1
  Cu  Cu59  1  0.03908300  0.62762100  0.95815100  1
  Cu  Cu60  1  0.42093600  0.10263100  0.32881100  1
  Cu  Cu61  1  0.57906400  0.89736900  0.67118900  1
  Cu  Cu62  1  0.89736900  0.57906400  0.17118900  1
  Cu  Cu63  1  0.10263100  0.42093600  0.82881100  1
  Cu  Cu64  1  0.48639200  0.42536000  0.19057400  1
  Cu  Cu65  1  0.51360800  0.57464000  0.80942600  1
  Cu  Cu66  1  0.57464000  0.51360800  0.30942600  1
  Cu  Cu67  1  0.42536000  0.48639200  0.69057400  1
  Cu  Cu68  1  0.64881500  0.24342600  0.03227800  1
  Cu  Cu69  1  0.35118500  0.75657400  0.96772200  1
  Cu  Cu70  1  0.75657400  0.35118500  0.46772100  1
  Cu  Cu71  1  0.24342600  0.64881500  0.53227800  1
  Cu  Cu72  1  0.32918000  0.01520200  0.20706300  1
  Cu  Cu73  1  0.67082000  0.98479800  0.79293700  1
  Cu  Cu74  1  0.98479800  0.67082000  0.29293700  1
  Cu  Cu75  1  0.01520200  0.32918000  0.70706300  1
  Cu  Cu76  1  0.72072000  0.94177500  0.30333800  1
  Cu  Cu77  1  0.27928000  0.05822500  0.69666200  1
  Cu  Cu78  1  0.05822500  0.27928000  0.19666200  1
  Cu  Cu79  1  0.94177500  0.72072000  0.80333800  1
  Cu  Cu80  1  0.45781800  0.76073700  0.13084800  1
  Cu  Cu81  1  0.54218200  0.23926300  0.86915200  1
  Cu  Cu82  1  0.23926300  0.54218200  0.36915200  1
  Cu  Cu83  1  0.76073700  0.45781800  0.63084800  1
  Cu  Cu84  1  0.47923000  0.76264700  0.39015200  1
  Cu  Cu85  1  0.52077000  0.23735300  0.60984800  1
  Cu  Cu86  1  0.23735300  0.52076900  0.10984800  1
  Cu  Cu87  1  0.76264700  0.47923100  0.89015200  1
  Cu  Cu88  1  0.01997300  0.00993300  0.12055200  1
  Cu  Cu89  1  0.98002700  0.99006700  0.87944800  1
  Cu  Cu90  1  0.99006700  0.98002700  0.37944800  1
  Cu  Cu91  1  0.00993300  0.01997300  0.62055200  1
  Cu  Cu92  1  0.74981900  0.15043700  0.18992900  1
  Cu  Cu93  1  0.25018100  0.84956300  0.81007100  1
  Cu  Cu94  1  0.84956300  0.25018100  0.31007100  1
  Cu  Cu95  1  0.15043700  0.74981900  0.68992900  1
