# generated using pymatgen
data_Cu(NiC8)2
_symmetry_space_group_name_H-M   'P 1'
_cell_length_a   21.66580014
_cell_length_b   21.66580014
_cell_length_c   21.66580014
_cell_angle_alpha   169.67066164
_cell_angle_beta   169.67066164
_cell_angle_gamma   14.62781042
_symmetry_Int_Tables_number   1
_chemical_formula_structural   Cu(NiC8)2
_chemical_formula_sum   'Cu1 Ni2 C16'
_cell_volume   326.96352384
_cell_formula_units_Z   1
loop_
 _symmetry_equiv_pos_site_id
 _symmetry_equiv_pos_as_xyz
  1  'x, y, z'
loop_
 _atom_site_type_symbol
 _atom_site_label
 _atom_site_symmetry_multiplicity
 _atom_site_fract_x
 _atom_site_fract_y
 _atom_site_fract_z
 _atom_site_occupancy
  C  C0  1  0.65843300  0.65843300  0.00000000  1
  C  C1  1  0.43032200  0.43032200  0.00000000  1
  C  C2  1  0.56861900  0.56861900  0.00000000  1
  C  C3  1  0.34446600  0.34446600  0.00000000  1
  C  C4  1  0.77768100  0.77768100  0.00000000  1
  C  C5  1  0.22417900  0.22417900  0.00000000  1
  Ni  Ni6  1  0.88385200  0.88385200  0.00000000  1
  Ni  Ni7  1  0.11405000  0.11405000  0.00000000  1
  Cu  Cu8  1  0.99980900  0.99980900  0.00000000  1
  C  C9  1  0.27268000  0.27268000  0.00000000  1
  C  C10  1  0.72875400  0.72875400  0.00000000  1
  C  C11  1  0.95292400  0.95292400  0.00000000  1
  C  C12  1  0.04657600  0.04657600  0.00000000  1
  C  C13  1  0.38488700  0.88488700  0.50000000  1
  C  C14  1  0.88488700  0.38488700  0.50000000  1
  C  C15  1  0.61290300  0.11290300  0.50000000  1
  C  C16  1  0.11290300  0.61290300  0.50000000  1
  C  C17  1  0.82534700  0.82534700  0.00000000  1
  C  C18  1  0.17672900  0.17672900  0.00000000  1
