# generated using pymatgen
data_Cu6NiC7
_symmetry_space_group_name_H-M   'P 1'
_cell_length_a   10.64731900
_cell_length_b   10.64731900
_cell_length_c   10.64731900
_cell_angle_alpha   90.00000000
_cell_angle_beta   90.00000000
_cell_angle_gamma   90.00000000
_symmetry_Int_Tables_number   1
_chemical_formula_structural   Cu6NiC7
_chemical_formula_sum   'Cu24 Ni4 C28'
_cell_volume   1207.03759746
_cell_formula_units_Z   4
loop_
 _symmetry_equiv_pos_site_id
 _symmetry_equiv_pos_as_xyz
  1  'x, y, z'
loop_
 _atom_site_type_symbol
 _atom_site_label
 _atom_site_symmetry_multiplicity
 _atom_site_fract_x
 _atom_site_fract_y
 _atom_site_fract_z
 _atom_site_occupancy
  C  C0  1  0.14912200  0.17698900  0.48868500  1
  C  C1  1  0.64912200  0.32301100  0.51131500  1
  C  C2  1  0.85087800  0.67698900  0.01131500  1
  C  C3  1  0.32301100  0.51131500  0.64912200  1
  C  C4  1  0.01131500  0.85087800  0.67698900  1
  C  C5  1  0.51131500  0.64912200  0.32301100  1
  C  C6  1  0.17698900  0.48868500  0.14912200  1
  C  C7  1  0.48868500  0.14912200  0.17698900  1
  C  C8  1  0.67698900  0.01131500  0.85087800  1
  C  C9  1  0.82301100  0.98868500  0.35087800  1
  C  C10  1  0.98868500  0.35087800  0.82301100  1
  C  C11  1  0.35087800  0.82301100  0.98868500  1
  C  C12  1  0.25648800  0.97200300  0.76601800  1
  C  C13  1  0.75648800  0.52799700  0.23398200  1
  C  C14  1  0.74351200  0.47200300  0.73398200  1
  C  C15  1  0.52799700  0.23398200  0.75648800  1
  C  C16  1  0.73398200  0.74351200  0.47200300  1
  C  C17  1  0.23398200  0.75648800  0.52799700  1
  C  C18  1  0.97200300  0.76601800  0.25648800  1
  C  C19  1  0.76601800  0.25648800  0.97200300  1
  C  C20  1  0.47200300  0.73398200  0.74351200  1
  C  C21  1  0.02799700  0.26601800  0.24351200  1
  C  C22  1  0.26601800  0.24351200  0.02799700  1
  C  C23  1  0.24351200  0.02799700  0.26601800  1
  C  C24  1  0.60268200  0.89731800  0.10268200  1
  C  C25  1  0.89731800  0.10268200  0.60268200  1
  C  C26  1  0.10268200  0.60268200  0.89731800  1
  C  C27  1  0.39731800  0.39731800  0.39731800  1
  Ni  Ni28  1  0.99552900  0.50447100  0.49552900  1
  Ni  Ni29  1  0.50447100  0.49552900  0.99552900  1
  Ni  Ni30  1  0.49552900  0.99552900  0.50447100  1
  Ni  Ni31  1  0.00447100  0.00447100  0.00447100  1
  Cu  Cu32  1  0.36953600  0.11769800  0.61600800  1
  Cu  Cu33  1  0.86953600  0.38230200  0.38399200  1
  Cu  Cu34  1  0.63046400  0.61769800  0.88399200  1
  Cu  Cu35  1  0.38230200  0.38399200  0.86953600  1
  Cu  Cu36  1  0.88399200  0.63046400  0.61769800  1
  Cu  Cu37  1  0.38399200  0.86953600  0.38230200  1
  Cu  Cu38  1  0.11769800  0.61600800  0.36953600  1
  Cu  Cu39  1  0.61600800  0.36953600  0.11769800  1
  Cu  Cu40  1  0.61769800  0.88399200  0.63046400  1
  Cu  Cu41  1  0.88230200  0.11600800  0.13046400  1
  Cu  Cu42  1  0.11600800  0.13046400  0.88230200  1
  Cu  Cu43  1  0.13046400  0.88230200  0.11600800  1
  Cu  Cu44  1  0.73463200  0.76536800  0.23463200  1
  Cu  Cu45  1  0.52812300  0.52812300  0.52812300  1
  Cu  Cu46  1  0.76536800  0.23463200  0.73463200  1
  Cu  Cu47  1  0.26536800  0.26536800  0.26536800  1
  Cu  Cu48  1  0.11670600  0.38329400  0.61670600  1
  Cu  Cu49  1  0.38329400  0.61670600  0.11670600  1
  Cu  Cu50  1  0.61670600  0.11670600  0.38329400  1
  Cu  Cu51  1  0.88329400  0.88329400  0.88329400  1
  Cu  Cu52  1  0.47187700  0.02812300  0.97187700  1
  Cu  Cu53  1  0.02812300  0.97187700  0.47187700  1
  Cu  Cu54  1  0.97187700  0.47187700  0.02812300  1
  Cu  Cu55  1  0.23463200  0.73463200  0.76536800  1
