# generated using pymatgen
data_CuNiC4
_symmetry_space_group_name_H-M   'P 1'
_cell_length_a   9.37224000
_cell_length_b   12.71292800
_cell_length_c   9.74045183
_cell_angle_alpha   90.00000000
_cell_angle_beta   105.34074287
_cell_angle_gamma   90.00000000
_symmetry_Int_Tables_number   1
_chemical_formula_structural   CuNiC4
_chemical_formula_sum   'Cu16 Ni16 C64'
_cell_volume   1119.20997921
_cell_formula_units_Z   16
loop_
 _symmetry_equiv_pos_site_id
 _symmetry_equiv_pos_as_xyz
  1  'x, y, z'
loop_
 _atom_site_type_symbol
 _atom_site_label
 _atom_site_symmetry_multiplicity
 _atom_site_fract_x
 _atom_site_fract_y
 _atom_site_fract_z
 _atom_site_occupancy
  C  C0  1  0.74723200  0.24379000  0.24982900  1
  C  C1  1  0.25276800  0.74379000  0.25017100  1
  C  C2  1  0.25276800  0.75621000  0.75017100  1
  C  C3  1  0.74723200  0.25621000  0.74982900  1
  C  C4  1  0.75198600  0.41552800  0.00694500  1
  C  C5  1  0.24801400  0.91552800  0.49305500  1
  C  C6  1  0.24801400  0.58447200  0.99305500  1
  C  C7  1  0.75198600  0.08447200  0.50694500  1
  Ni  Ni8  1  0.51967600  0.44358100  0.21827500  1
  Ni  Ni9  1  0.48032400  0.94358100  0.28172500  1
  Ni  Ni10  1  0.48032400  0.55641900  0.78172500  1
  Ni  Ni11  1  0.51967600  0.05641900  0.71827500  1
  Ni  Ni12  1  0.95884900  0.03886300  0.27650000  1
  Ni  Ni13  1  0.04115100  0.53886300  0.22350000  1
  Ni  Ni14  1  0.04115100  0.96113700  0.72350000  1
  Ni  Ni15  1  0.95884900  0.46113700  0.77650000  1
  Ni  Ni16  1  0.97940000  0.20923200  0.05960200  1
  Ni  Ni17  1  0.02060000  0.70923200  0.44039800  1
  Ni  Ni18  1  0.02060000  0.79076800  0.94039800  1
  Ni  Ni19  1  0.97940000  0.29076800  0.55960200  1
  Ni  Ni20  1  0.51059100  0.27978200  0.43870200  1
  Ni  Ni21  1  0.48940900  0.77978200  0.06129800  1
  Ni  Ni22  1  0.48940900  0.72021800  0.56129800  1
  Ni  Ni23  1  0.51059100  0.22021800  0.93870200  1
  Cu  Cu24  1  0.51720600  0.59004400  0.34810600  1
  Cu  Cu25  1  0.48279400  0.09004400  0.15189400  1
  Cu  Cu26  1  0.48279400  0.40995600  0.65189400  1
  Cu  Cu27  1  0.51720600  0.90995600  0.84810600  1
  Cu  Cu28  1  0.95972400  0.88970800  0.16580200  1
  Cu  Cu29  1  0.04027600  0.38970800  0.33419800  1
  Cu  Cu30  1  0.04027600  0.11029200  0.83419800  1
  Cu  Cu31  1  0.95972400  0.61029200  0.66580200  1
  Cu  Cu32  1  0.37613900  0.14758900  0.47765200  1
  Cu  Cu33  1  0.62386100  0.64758900  0.02234800  1
  Cu  Cu34  1  0.62386100  0.85241100  0.52234800  1
  Cu  Cu35  1  0.37613900  0.35241100  0.97765200  1
  Cu  Cu36  1  0.17551200  0.28530900  0.02141800  1
  Cu  Cu37  1  0.82448800  0.78530900  0.47858200  1
  Cu  Cu38  1  0.82448800  0.71469100  0.97858200  1
  Cu  Cu39  1  0.17551200  0.21469100  0.52141800  1
  C  C40  1  0.64906800  0.38725300  0.18176000  1
  C  C41  1  0.35093200  0.88725300  0.31824000  1
  C  C42  1  0.35093200  0.61274700  0.81824000  1
  C  C43  1  0.64906800  0.11274700  0.68176000  1
  C  C44  1  0.83741500  0.09918300  0.32111400  1
  C  C45  1  0.16258500  0.59918300  0.17888600  1
  C  C46  1  0.16258500  0.90081700  0.67888600  1
  C  C47  1  0.83741500  0.40081700  0.82111400  1
  C  C48  1  0.45206300  0.36738700  0.31946800  1
  C  C49  1  0.54793700  0.86738700  0.18053200  1
  C  C50  1  0.54793700  0.63261300  0.68053200  1
  C  C51  1  0.45206300  0.13261300  0.81946800  1
  C  C52  1  0.87583300  0.28262600  0.11191200  1
  C  C53  1  0.12416700  0.78262600  0.38808800  1
  C  C54  1  0.12416700  0.71737400  0.88808800  1
  C  C55  1  0.87583300  0.21737400  0.61191200  1
  C  C56  1  0.61487600  0.20582100  0.38790200  1
  C  C57  1  0.38512400  0.70582100  0.11209800  1
  C  C58  1  0.38512400  0.79417900  0.61209800  1
  C  C59  1  0.61487600  0.29417900  0.88790200  1
  C  C60  1  0.90105700  0.52286500  0.10654000  1
  C  C61  1  0.09894300  0.02286500  0.39346000  1
  C  C62  1  0.09894300  0.47713500  0.89346000  1
  C  C63  1  0.90105700  0.97713500  0.60654000  1
  C  C64  1  0.60772400  0.53668900  0.91278300  1
  C  C65  1  0.39227600  0.03668900  0.58721700  1
  C  C66  1  0.39227600  0.46331100  0.08721700  1
  C  C67  1  0.60772400  0.96331100  0.41278300  1
  C  C68  1  0.92455900  0.31913800  0.40287100  1
  C  C69  1  0.07544100  0.81913800  0.09712900  1
  C  C70  1  0.07544100  0.68086200  0.59712900  1
  C  C71  1  0.92455900  0.18086200  0.90287100  1
  C  C72  1  0.58304400  0.54205900  0.30764500  1
  C  C73  1  0.41695600  0.04205900  0.19235500  1
  C  C74  1  0.41695600  0.45794100  0.69235500  1
  C  C75  1  0.58304400  0.95794100  0.80764500  1
  C  C76  1  0.57882600  0.16762600  0.08157100  1
  C  C77  1  0.42117400  0.66762600  0.41842900  1
  C  C78  1  0.42117400  0.83237400  0.91842900  1
  C  C79  1  0.57882600  0.33237400  0.58157100  1
  C  C80  1  0.88844500  0.93679300  0.19840300  1
  C  C81  1  0.11155500  0.43679300  0.30159700  1
  C  C82  1  0.11155500  0.06320700  0.80159700  1
  C  C83  1  0.88844500  0.56320700  0.69840300  1
  C  C84  1  0.00488300  0.10586500  0.15391200  1
  C  C85  1  0.99511700  0.60586500  0.34608800  1
  C  C86  1  0.99511700  0.89413500  0.84608800  1
  C  C87  1  0.00488300  0.39413500  0.65391200  1
  C  C88  1  0.36180700  0.22088600  0.43740600  1
  C  C89  1  0.63819300  0.72088600  0.06259400  1
  C  C90  1  0.63819300  0.77911400  0.56259400  1
  C  C91  1  0.36180700  0.27911400  0.93740600  1
  C  C92  1  0.14218400  0.25291800  0.09844500  1
  C  C93  1  0.85781600  0.75291800  0.40155500  1
  C  C94  1  0.85781600  0.74708200  0.90155500  1
  C  C95  1  0.14218400  0.24708200  0.59844500  1
