# generated using pymatgen
data_Cu6Ni2C7
_symmetry_space_group_name_H-M   'P 1'
_cell_length_a   15.55256500
_cell_length_b   8.35802600
_cell_length_c   14.21329904
_cell_angle_alpha   90.00000000
_cell_angle_beta   95.15778707
_cell_angle_gamma   90.00000000
_symmetry_Int_Tables_number   1
_chemical_formula_structural   Cu6Ni2C7
_chemical_formula_sum   'Cu24 Ni8 C28'
_cell_volume   1840.08788360
_cell_formula_units_Z   4
loop_
 _symmetry_equiv_pos_site_id
 _symmetry_equiv_pos_as_xyz
  1  'x, y, z'
loop_
 _atom_site_type_symbol
 _atom_site_label
 _atom_site_symmetry_multiplicity
 _atom_site_fract_x
 _atom_site_fract_y
 _atom_site_fract_z
 _atom_site_occupancy
  C  C0  1  0.89172700  0.04624100  0.46098100  1
  C  C1  1  0.10827300  0.54624100  0.03901900  1
  C  C2  1  0.10827300  0.95375900  0.53901900  1
  C  C3  1  0.89172700  0.45375900  0.96098100  1
  C  C4  1  0.87244800  0.60770900  0.32202900  1
  C  C5  1  0.12755200  0.10770900  0.17797100  1
  C  C6  1  0.12755200  0.39229100  0.67797100  1
  C  C7  1  0.87244800  0.89229100  0.82202900  1
  C  C8  1  0.67153900  0.08700300  0.59312300  1
  C  C9  1  0.32846100  0.58700300  0.90687700  1
  C  C10  1  0.32846100  0.91299700  0.40687700  1
  C  C11  1  0.67153900  0.41299700  0.09312300  1
  C  C12  1  0.57673200  0.51172500  0.41034900  1
  C  C13  1  0.42326800  0.01172500  0.08965100  1
  C  C14  1  0.42326800  0.48827500  0.58965100  1
  C  C15  1  0.57673200  0.98827500  0.91034900  1
  Ni  Ni16  1  0.79041800  0.52094500  0.58002500  1
  Ni  Ni17  1  0.20958200  0.02094500  0.91997500  1
  Ni  Ni18  1  0.20958200  0.47905500  0.41997500  1
  Ni  Ni19  1  0.79041800  0.97905500  0.08002500  1
  Ni  Ni20  1  0.68122000  0.51003400  0.76849400  1
  Ni  Ni21  1  0.31878000  0.01003400  0.73150600  1
  Ni  Ni22  1  0.31878000  0.48996600  0.23150600  1
  Ni  Ni23  1  0.68122000  0.98996600  0.26849400  1
  Cu  Cu24  1  0.76725500  0.35726200  0.44853500  1
  Cu  Cu25  1  0.23274500  0.85726200  0.05146500  1
  Cu  Cu26  1  0.23274500  0.64273800  0.55146500  1
  Cu  Cu27  1  0.76725500  0.14273800  0.94853500  1
  Cu  Cu28  1  0.66716800  0.67650300  0.62529300  1
  Cu  Cu29  1  0.33283200  0.17650300  0.87470700  1
  Cu  Cu30  1  0.33283200  0.32349700  0.37470700  1
  Cu  Cu31  1  0.66716800  0.82349700  0.12529300  1
  Cu  Cu32  1  0.81269700  0.36606000  0.72604200  1
  Cu  Cu33  1  0.18730300  0.86606000  0.77395800  1
  Cu  Cu34  1  0.18730300  0.63394000  0.27395800  1
  Cu  Cu35  1  0.81269700  0.13394000  0.22604200  1
  Cu  Cu36  1  0.93226300  0.69330100  0.59296100  1
  Cu  Cu37  1  0.06773700  0.19330100  0.90703900  1
  Cu  Cu38  1  0.06773700  0.30669900  0.40703900  1
  Cu  Cu39  1  0.93226300  0.80669900  0.09296100  1
  Cu  Cu40  1  0.70554500  0.65136200  0.90762200  1
  Cu  Cu41  1  0.29445500  0.15136200  0.59237800  1
  Cu  Cu42  1  0.29445500  0.34863800  0.09237800  1
  Cu  Cu43  1  0.70554500  0.84863800  0.40762200  1
  Cu  Cu44  1  0.55975700  0.32576300  0.74687200  1
  Cu  Cu45  1  0.44024300  0.82576300  0.75312800  1
  Cu  Cu46  1  0.44024300  0.67423700  0.25312800  1
  Cu  Cu47  1  0.55975700  0.17423700  0.24687200  1
  C  C48  1  0.95631900  0.73942100  0.48012900  1
  C  C49  1  0.04368100  0.23942100  0.01987100  1
  C  C50  1  0.04368100  0.26057900  0.51987100  1
  C  C51  1  0.95631900  0.76057900  0.98012900  1
  C  C52  1  0.55399700  0.29212800  0.62320600  1
  C  C53  1  0.44600300  0.79212800  0.87679400  1
  C  C54  1  0.44600300  0.70787200  0.37679400  1
  C  C55  1  0.55399700  0.20787200  0.12320600  1
  C  C56  1  0.10008600  0.12912000  0.36128400  1
  C  C57  1  0.89991400  0.62912000  0.13871600  1
  C  C58  1  0.89991400  0.87088000  0.63871600  1
  C  C59  1  0.10008600  0.37088000  0.86128400  1
