# generated using pymatgen
data_CuNiC68
_symmetry_space_group_name_H-M   'P 1'
_cell_length_a   8.91760700
_cell_length_b   9.36286206
_cell_length_c   12.92915060
_cell_angle_alpha   93.81950518
_cell_angle_beta   90.00062041
_cell_angle_gamma   90.00663963
_symmetry_Int_Tables_number   1
_chemical_formula_structural   CuNiC68
_chemical_formula_sum   'Cu1 Ni1 C68'
_cell_volume   1077.11292892
_cell_formula_units_Z   1
loop_
 _symmetry_equiv_pos_site_id
 _symmetry_equiv_pos_as_xyz
  1  'x, y, z'
loop_
 _atom_site_type_symbol
 _atom_site_label
 _atom_site_symmetry_multiplicity
 _atom_site_fract_x
 _atom_site_fract_y
 _atom_site_fract_z
 _atom_site_occupancy
  Ni  Ni0  1  0.50000000  0.50000000  0.50000000  1
  Cu  Cu1  1  0.00000000  0.00000000  0.00000000  1
  C  C2  1  0.00025300  0.71570300  0.64103500  1
  C  C3  1  0.49967300  0.21816000  0.14214300  1
  C  C4  1  0.99974700  0.28429700  0.35896500  1
  C  C5  1  0.50032700  0.78184000  0.85785700  1
  C  C6  1  0.49889300  0.19860100  0.65356800  1
  C  C7  1  0.00123000  0.70263700  0.14589800  1
  C  C8  1  0.50110700  0.80139900  0.34643200  1
  C  C9  1  0.99877000  0.29736300  0.85410200  1
  C  C10  1  0.21077300  0.99716400  0.75918500  1
  C  C11  1  0.71475200  0.50085800  0.25292400  1
  C  C12  1  0.63926400  0.85077300  0.60624100  1
  C  C13  1  0.13678500  0.34907800  0.10732600  1
  C  C14  1  0.14728700  0.63980600  0.39189600  1
  C  C15  1  0.65131500  0.13414900  0.89620700  1
  C  C16  1  0.78922700  0.00283600  0.24081500  1
  C  C17  1  0.28524800  0.49914200  0.74707600  1
  C  C18  1  0.36073600  0.14922700  0.39375900  1
  C  C19  1  0.86321500  0.65092200  0.89267400  1
  C  C20  1  0.85271300  0.36019400  0.60810400  1
  C  C21  1  0.34868500  0.86585100  0.10379300  1
  C  C22  1  0.37309300  0.02877900  0.11194500  1
  C  C23  1  0.86871800  0.52443500  0.61287900  1
  C  C24  1  0.68801700  0.09007500  0.17238900  1
  C  C25  1  0.19005700  0.58320800  0.67223000  1
  C  C26  1  0.44001100  0.21895700  0.30385000  1
  C  C27  1  0.93984700  0.71146900  0.79863000  1
  C  C28  1  0.62690700  0.97122100  0.88805500  1
  C  C29  1  0.13128200  0.47556500  0.38712100  1
  C  C30  1  0.31198300  0.90992500  0.82761100  1
  C  C31  1  0.80994300  0.41679200  0.32777000  1
  C  C32  1  0.55998900  0.78104300  0.69615000  1
  C  C33  1  0.06015300  0.28853100  0.20137000  1
  C  C34  1  0.06237500  0.70839700  0.48601600  1
  C  C35  1  0.56525900  0.20720500  0.98800400  1
  C  C36  1  0.12537100  0.89867700  0.67942000  1
  C  C37  1  0.62839500  0.39947400  0.17607900  1
  C  C38  1  0.81031700  0.83473800  0.61407200  1
  C  C39  1  0.30822600  0.33557300  0.11367900  1
  C  C40  1  0.93762500  0.29160300  0.51398400  1
  C  C41  1  0.43474100  0.79279500  0.01199600  1
  C  C42  1  0.87462900  0.10132300  0.32058000  1
  C  C43  1  0.37160500  0.60052600  0.82392100  1
  C  C44  1  0.18968300  0.16526200  0.38592800  1
  C  C45  1  0.69177400  0.66442700  0.88632100  1
  C  C46  1  0.90311600  0.91870400  0.16769100  1
  C  C47  1  0.39999800  0.40679700  0.68107600  1
  C  C48  1  0.41543300  0.22412000  0.49813200  1
  C  C49  1  0.92132600  0.74091900  0.99080100  1
  C  C50  1  0.68304700  0.32270100  0.59743700  1
  C  C51  1  0.17666800  0.83980400  0.08805300  1
  C  C52  1  0.09688400  0.08129600  0.83230900  1
  C  C53  1  0.60000200  0.59320300  0.31892400  1
  C  C54  1  0.58456700  0.77588000  0.50186800  1
  C  C55  1  0.07867400  0.25908100  0.00919900  1
  C  C56  1  0.31695300  0.67729900  0.40256300  1
  C  C57  1  0.82333200  0.16019600  0.91194700  1
  C  C58  1  0.30525100  0.10490100  0.70085000  1
  C  C59  1  0.81188000  0.60273400  0.19145900  1
  C  C60  1  0.59918600  0.01103600  0.60584700  1
  C  C61  1  0.09638700  0.50913300  0.09903100  1
  C  C62  1  0.60019400  0.20087200  0.79584500  1
  C  C63  1  0.08834100  0.70221800  0.29165700  1
  C  C64  1  0.69474900  0.89509900  0.29915000  1
  C  C65  1  0.18812000  0.39726600  0.80854100  1
  C  C66  1  0.40081400  0.98896400  0.39415300  1
  C  C67  1  0.90361300  0.49086700  0.90096900  1
  C  C68  1  0.39980600  0.79912800  0.20415500  1
  C  C69  1  0.91165900  0.29778200  0.70834300  1
