# generated using pymatgen
data_Cu11NiC24
_symmetry_space_group_name_H-M   'P 1'
_cell_length_a   5.90142050
_cell_length_b   5.90142050
_cell_length_c   13.37931300
_cell_angle_alpha   90.00000000
_cell_angle_beta   90.00000000
_cell_angle_gamma   120.81937563
_symmetry_Int_Tables_number   1
_chemical_formula_structural   Cu11NiC24
_chemical_formula_sum   'Cu11 Ni1 C24'
_cell_volume   400.15867917
_cell_formula_units_Z   1
loop_
 _symmetry_equiv_pos_site_id
 _symmetry_equiv_pos_as_xyz
  1  'x, y, z'
loop_
 _atom_site_type_symbol
 _atom_site_label
 _atom_site_symmetry_multiplicity
 _atom_site_fract_x
 _atom_site_fract_y
 _atom_site_fract_z
 _atom_site_occupancy
  C  C0  1  0.66438300  0.33561700  0.50000000  1
  C  C1  1  0.33223200  0.66776800  0.00000000  1
  Ni  Ni2  1  0.66593000  0.33407000  0.00000000  1
  Cu  Cu3  1  0.99994700  0.00005300  0.60347700  1
  Cu  Cu4  1  0.99927900  0.00072100  0.89885600  1
  Cu  Cu5  1  0.99927900  0.00072100  0.10114400  1
  Cu  Cu6  1  0.99994700  0.00005300  0.39652300  1
  Cu  Cu7  1  0.50683100  0.00816800  0.24802900  1
  Cu  Cu8  1  0.49842400  0.50157600  0.25050800  1
  Cu  Cu9  1  0.99183200  0.49316900  0.24802900  1
  Cu  Cu10  1  0.50683100  0.00816800  0.75197100  1
  Cu  Cu11  1  0.49842400  0.50157600  0.74949200  1
  Cu  Cu12  1  0.99183200  0.49316900  0.75197100  1
  Cu  Cu13  1  0.33290600  0.66709400  0.50000000  1
  C  C14  1  0.65976200  0.34023800  0.16111500  1
  C  C15  1  0.33714400  0.66285600  0.33296500  1
  C  C16  1  0.33714400  0.66285600  0.66703500  1
  C  C17  1  0.65976200  0.34023800  0.83888500  1
  C  C18  1  0.82010500  0.64544300  0.32787600  1
  C  C19  1  0.82541600  0.17458400  0.33210900  1
  C  C20  1  0.35455700  0.17989500  0.32787600  1
  C  C21  1  0.17608600  0.34554300  0.17102200  1
  C  C22  1  0.17973200  0.82026800  0.17172200  1
  C  C23  1  0.65445700  0.82391400  0.17102200  1
  C  C24  1  0.17608600  0.34554300  0.82897800  1
  C  C25  1  0.17973200  0.82026800  0.82827800  1
  C  C26  1  0.65445700  0.82391400  0.82897800  1
  C  C27  1  0.82010500  0.64544300  0.67212400  1
  C  C28  1  0.82541600  0.17458400  0.66789100  1
  C  C29  1  0.35455700  0.17989500  0.67212400  1
  C  C30  1  0.15242600  0.29738400  0.50000000  1
  C  C31  1  0.14698500  0.85301500  0.50000000  1
  C  C32  1  0.70261600  0.84757400  0.50000000  1
  C  C33  1  0.84560100  0.68946400  0.00000000  1
  C  C34  1  0.83924000  0.16076000  0.00000000  1
  C  C35  1  0.31053600  0.15439900  0.00000000  1
