# generated using pymatgen
data_Cu9Ni2C7
_symmetry_space_group_name_H-M   'P 1'
_cell_length_a   5.94324958
_cell_length_b   5.94324958
_cell_length_c   13.80149800
_cell_angle_alpha   90.00000000
_cell_angle_beta   90.00000000
_cell_angle_gamma   119.99999536
_symmetry_Int_Tables_number   1
_chemical_formula_structural   Cu9Ni2C7
_chemical_formula_sum   'Cu18 Ni4 C14'
_cell_volume   422.18696076
_cell_formula_units_Z   2
loop_
 _symmetry_equiv_pos_site_id
 _symmetry_equiv_pos_as_xyz
  1  'x, y, z'
loop_
 _atom_site_type_symbol
 _atom_site_label
 _atom_site_symmetry_multiplicity
 _atom_site_fract_x
 _atom_site_fract_y
 _atom_site_fract_z
 _atom_site_occupancy
  C  C0  1  0.33333300  0.66666700  0.99004200  1
  C  C1  1  0.33333300  0.66666700  0.49004200  1
  C  C2  1  0.33161000  0.01008100  0.25400000  1
  C  C3  1  0.98991900  0.32152900  0.25400000  1
  C  C4  1  0.67847100  0.66839000  0.25400000  1
  C  C5  1  0.98991900  0.66839000  0.75400000  1
  C  C6  1  0.33161000  0.32152900  0.75400000  1
  C  C7  1  0.67847100  0.01008100  0.75400000  1
  C  C8  1  0.33333300  0.66666700  0.17143600  1
  C  C9  1  0.33333300  0.66666700  0.67143600  1
  C  C10  1  0.00000000  0.00000000  0.13254800  1
  C  C11  1  0.00000000  0.00000000  0.63254800  1
  C  C12  1  0.66666700  0.33333300  0.87039400  1
  C  C13  1  0.66666700  0.33333300  0.37039400  1
  Ni  Ni14  1  0.00000000  0.00000000  0.43960700  1
  Ni  Ni15  1  0.00000000  0.00000000  0.93960700  1
  Ni  Ni16  1  0.66666700  0.33333300  0.56372800  1
  Ni  Ni17  1  0.66666700  0.33333300  0.06372800  1
  Cu  Cu18  1  0.33333300  0.66666700  0.24219900  1
  Cu  Cu19  1  0.33333300  0.66666700  0.74219900  1
  Cu  Cu20  1  0.00000000  0.00000000  0.20395600  1
  Cu  Cu21  1  0.00000000  0.00000000  0.70395600  1
  Cu  Cu22  1  0.66666700  0.33333300  0.79908400  1
  Cu  Cu23  1  0.66666700  0.33333300  0.29908400  1
  Cu  Cu24  1  0.18307500  0.91211500  0.39479900  1
  Cu  Cu25  1  0.08788500  0.27096100  0.39479900  1
  Cu  Cu26  1  0.72903900  0.81692500  0.39479900  1
  Cu  Cu27  1  0.08788500  0.81692500  0.89479900  1
  Cu  Cu28  1  0.18307500  0.27096100  0.89479900  1
  Cu  Cu29  1  0.72903900  0.91211500  0.89479900  1
  Cu  Cu30  1  0.48243300  0.42024700  0.60830500  1
  Cu  Cu31  1  0.57975300  0.06218600  0.60830500  1
  Cu  Cu32  1  0.93781400  0.51756700  0.60830500  1
  Cu  Cu33  1  0.57975300  0.51756700  0.10830500  1
  Cu  Cu34  1  0.48243300  0.06218600  0.10830500  1
  Cu  Cu35  1  0.93781400  0.42024700  0.10830500  1
