# generated using pymatgen
data_Cu2Ni3C14
_symmetry_space_group_name_H-M   'P 1'
_cell_length_a   10.61965000
_cell_length_b   10.61965000
_cell_length_c   10.61965000
_cell_angle_alpha   90.00000000
_cell_angle_beta   90.00000000
_cell_angle_gamma   90.00000000
_symmetry_Int_Tables_number   1
_chemical_formula_structural   Cu2Ni3C14
_chemical_formula_sum   'Cu8 Ni12 C56'
_cell_volume   1197.65190828
_cell_formula_units_Z   4
loop_
 _symmetry_equiv_pos_site_id
 _symmetry_equiv_pos_as_xyz
  1  'x, y, z'
loop_
 _atom_site_type_symbol
 _atom_site_label
 _atom_site_symmetry_multiplicity
 _atom_site_fract_x
 _atom_site_fract_y
 _atom_site_fract_z
 _atom_site_occupancy
  C  C0  1  0.05698800  0.05698800  0.05698800  1
  C  C1  1  0.44301200  0.94301200  0.55698800  1
  C  C2  1  0.55698800  0.44301200  0.94301200  1
  C  C3  1  0.94301200  0.55698800  0.44301200  1
  C  C4  1  0.29654600  0.29654600  0.29654600  1
  C  C5  1  0.20345400  0.70345400  0.79654600  1
  C  C6  1  0.79654600  0.20345400  0.70345400  1
  C  C7  1  0.70345400  0.79654600  0.20345400  1
  Ni  Ni8  1  0.62459700  0.47435200  0.26193000  1
  Ni  Ni9  1  0.87540300  0.52564800  0.76193000  1
  Ni  Ni10  1  0.37540300  0.97435200  0.23807000  1
  Ni  Ni11  1  0.12459700  0.02564800  0.73807000  1
  Ni  Ni12  1  0.97435200  0.23807000  0.37540300  1
  Ni  Ni13  1  0.73807000  0.12459700  0.02564800  1
  Ni  Ni14  1  0.23807000  0.37540300  0.97435200  1
  Ni  Ni15  1  0.52564800  0.76193000  0.87540300  1
  Ni  Ni16  1  0.76193000  0.87540300  0.52564800  1
  Ni  Ni17  1  0.02564800  0.73807000  0.12459700  1
  Ni  Ni18  1  0.47435200  0.26193000  0.62459700  1
  Ni  Ni19  1  0.26193000  0.62459700  0.47435200  1
  Cu  Cu20  1  0.57906000  0.57906000  0.57906000  1
  Cu  Cu21  1  0.92094000  0.42094000  0.07906000  1
  Cu  Cu22  1  0.07906000  0.92094000  0.42094000  1
  Cu  Cu23  1  0.42094000  0.07906000  0.92094000  1
  Cu  Cu24  1  0.83765100  0.83765100  0.83765100  1
  Cu  Cu25  1  0.66234900  0.16234900  0.33765100  1
  Cu  Cu26  1  0.33765100  0.66234900  0.16234900  1
  Cu  Cu27  1  0.16234900  0.33765100  0.66234900  1
  C  C28  1  0.39759200  0.66686500  0.51147400  1
  C  C29  1  0.42973500  0.83724800  0.24054700  1
  C  C30  1  0.07026500  0.16275200  0.74054700  1
  C  C31  1  0.83724800  0.24054700  0.42973500  1
  C  C32  1  0.97556900  0.43103000  0.70995400  1
  C  C33  1  0.52443100  0.56897000  0.20995400  1
  C  C34  1  0.20995400  0.52443100  0.56897000  1
  C  C35  1  0.56897000  0.20995400  0.52443100  1
  C  C36  1  0.93103000  0.79004600  0.02443100  1
  C  C37  1  0.70995400  0.97556900  0.43103000  1
  C  C38  1  0.43103000  0.70995400  0.97556900  1
  C  C39  1  0.29004600  0.47556900  0.06897000  1
  C  C40  1  0.79004600  0.02443100  0.93103000  1
  C  C41  1  0.06897000  0.29004600  0.47556900  1
  C  C42  1  0.02443100  0.93103000  0.79004600  1
  C  C43  1  0.47556900  0.06897000  0.29004600  1
  C  C44  1  0.66686500  0.51147400  0.39759200  1
  C  C45  1  0.92973500  0.66275200  0.75945300  1
  C  C46  1  0.51147400  0.39759200  0.66686500  1
  C  C47  1  0.98852600  0.60240800  0.16686500  1
  C  C48  1  0.89759200  0.83313500  0.48852600  1
  C  C49  1  0.48852600  0.89759200  0.83313500  1
  C  C50  1  0.10240800  0.33313500  0.01147400  1
  C  C51  1  0.60240800  0.16686500  0.98852600  1
  C  C52  1  0.01147400  0.10240800  0.33313500  1
  C  C53  1  0.16686500  0.98852600  0.60240800  1
  C  C54  1  0.33313500  0.01147400  0.10240800  1
  C  C55  1  0.83313500  0.48852600  0.89759200  1
  C  C56  1  0.73919300  0.48506900  0.17011100  1
  C  C57  1  0.17011100  0.73919300  0.48506900  1
  C  C58  1  0.48506900  0.17011100  0.73919300  1
  C  C59  1  0.01493100  0.82988900  0.23919300  1
  C  C60  1  0.67011100  0.76080700  0.51493100  1
  C  C61  1  0.51493100  0.67011100  0.76080700  1
  C  C62  1  0.32988900  0.26080700  0.98506900  1
  C  C63  1  0.82988900  0.23919300  0.01493100  1
  C  C64  1  0.98506900  0.32988900  0.26080700  1
  C  C65  1  0.23919300  0.01493100  0.82988900  1
  C  C66  1  0.26080700  0.98506900  0.32988900  1
  C  C67  1  0.76080700  0.51493100  0.67011100  1
  C  C68  1  0.57026500  0.33724800  0.25945300  1
  C  C69  1  0.25945300  0.57026500  0.33724800  1
  C  C70  1  0.33724800  0.25945300  0.57026500  1
  C  C71  1  0.16275200  0.74054700  0.07026500  1
  C  C72  1  0.75945300  0.92973500  0.66275200  1
  C  C73  1  0.74054700  0.07026500  0.16275200  1
  C  C74  1  0.24054700  0.42973500  0.83724800  1
  C  C75  1  0.66275200  0.75945300  0.92973500  1
