# generated using pymatgen
data_Cu10NiC20
_symmetry_space_group_name_H-M   'P 1'
_cell_length_a   10.54296200
_cell_length_b   10.71734777
_cell_length_c   11.24286062
_cell_angle_alpha   117.61683799
_cell_angle_beta   95.28214002
_cell_angle_gamma   95.70901376
_symmetry_Int_Tables_number   1
_chemical_formula_structural   Cu10NiC20
_chemical_formula_sum   'Cu10 Ni1 C20'
_cell_volume   1106.20160543
_cell_formula_units_Z   1
loop_
 _symmetry_equiv_pos_site_id
 _symmetry_equiv_pos_as_xyz
  1  'x, y, z'
loop_
 _atom_site_type_symbol
 _atom_site_label
 _atom_site_symmetry_multiplicity
 _atom_site_fract_x
 _atom_site_fract_y
 _atom_site_fract_z
 _atom_site_occupancy
  C  C0  1  0.16044300  0.75599500  0.28179700  1
  C  C1  1  0.83955700  0.24400500  0.71820300  1
  C  C2  1  0.15403200  0.92045700  0.81501600  1
  C  C3  1  0.84596800  0.07954300  0.18498400  1
  C  C4  1  0.23011900  0.23360900  0.99744500  1
  C  C5  1  0.76988100  0.76639100  0.00255500  1
  Ni  Ni6  1  0.00000000  0.00000000  0.00000000  1
  C  C7  1  0.34729100  0.98994200  0.25112000  1
  C  C8  1  0.65270900  0.01005800  0.74888000  1
  C  C9  1  0.93135800  0.72334200  0.83895900  1
  C  C10  1  0.06864200  0.27665800  0.16104100  1
  C  C11  1  0.27633300  0.71010800  0.08813100  1
  C  C12  1  0.72366700  0.28989200  0.91186900  1
  C  C13  1  0.33776800  0.13779900  0.83467600  1
  C  C14  1  0.66223200  0.86220100  0.16532400  1
  C  C15  1  0.93980800  0.57657200  0.25229000  1
  C  C16  1  0.06019200  0.42342800  0.74771000  1
  C  C17  1  0.00710500  0.85219900  0.41484800  1
  C  C18  1  0.99289500  0.14780100  0.58515200  1
  C  C19  1  0.46713100  0.64935200  0.69240800  1
  C  C20  1  0.53286900  0.35064800  0.30759200  1
  Cu  Cu21  1  0.24720300  0.62228800  0.43336600  1
  Cu  Cu22  1  0.75279700  0.37771200  0.56663400  1
  Cu  Cu23  1  0.35125100  0.36335900  0.99119500  1
  Cu  Cu24  1  0.64874900  0.63664100  0.00880500  1
  Cu  Cu25  1  0.23761200  0.87222400  0.72138000  1
  Cu  Cu26  1  0.76238800  0.12777600  0.27862000  1
  Cu  Cu27  1  0.68344500  0.78271500  0.51925000  1
  Cu  Cu28  1  0.31655500  0.21728500  0.48075000  1
  Cu  Cu29  1  0.60397800  0.68066500  0.54951800  1
  Cu  Cu30  1  0.39602200  0.31933500  0.45048200  1
