# generated using pymatgen
data_Cu2NiC8
_symmetry_space_group_name_H-M   'P 1'
_cell_length_a   4.14478700
_cell_length_b   7.58091300
_cell_length_c   20.38550000
_cell_angle_alpha   90.00000000
_cell_angle_beta   90.00000000
_cell_angle_gamma   90.00000000
_symmetry_Int_Tables_number   1
_chemical_formula_structural   Cu2NiC8
_chemical_formula_sum   'Cu8 Ni4 C32'
_cell_volume   640.53829246
_cell_formula_units_Z   4
loop_
 _symmetry_equiv_pos_site_id
 _symmetry_equiv_pos_as_xyz
  1  'x, y, z'
loop_
 _atom_site_type_symbol
 _atom_site_label
 _atom_site_symmetry_multiplicity
 _atom_site_fract_x
 _atom_site_fract_y
 _atom_site_fract_z
 _atom_site_occupancy
  Ni  Ni0  1  0.00000000  0.50000000  0.75084100  1
  Ni  Ni1  1  0.00000000  0.50000000  0.24915900  1
  Ni  Ni2  1  0.00000000  0.00000000  0.74915900  1
  Ni  Ni3  1  0.00000000  0.00000000  0.25084100  1
  Cu  Cu4  1  0.91385000  0.24957200  0.59170800  1
  Cu  Cu5  1  0.91385000  0.75042800  0.40829200  1
  Cu  Cu6  1  0.08615000  0.25042800  0.90829200  1
  Cu  Cu7  1  0.08615000  0.74957200  0.09170800  1
  Cu  Cu8  1  0.08615000  0.75042800  0.59170800  1
  Cu  Cu9  1  0.08615000  0.24957200  0.40829200  1
  Cu  Cu10  1  0.91385000  0.74957200  0.90829200  1
  Cu  Cu11  1  0.91385000  0.25042800  0.09170800  1
  C  C12  1  0.50000000  0.50000000  0.74685300  1
  C  C13  1  0.50000000  0.50000000  0.25314700  1
  C  C14  1  0.50000000  0.00000000  0.75314700  1
  C  C15  1  0.50000000  0.00000000  0.24685300  1
  C  C16  1  0.00000000  0.75561300  0.50000000  1
  C  C17  1  0.00000000  0.24438700  0.50000000  1
  C  C18  1  0.00000000  0.74438700  0.00000000  1
  C  C19  1  0.00000000  0.25561300  0.00000000  1
  C  C20  1  0.00000000  0.50000000  0.10930700  1
  C  C21  1  0.00000000  0.50000000  0.89069300  1
  C  C22  1  0.00000000  0.00000000  0.39069300  1
  C  C23  1  0.00000000  0.00000000  0.60930700  1
  C  C24  1  0.00000000  0.00000000  0.10357500  1
  C  C25  1  0.00000000  0.00000000  0.89642500  1
  C  C26  1  0.00000000  0.50000000  0.39642500  1
  C  C27  1  0.00000000  0.50000000  0.60357500  1
  C  C28  1  0.01055600  0.75335900  0.18999700  1
  C  C29  1  0.01055600  0.24664100  0.81000300  1
  C  C30  1  0.98944400  0.74664100  0.31000300  1
  C  C31  1  0.98944400  0.25335900  0.68999700  1
  C  C32  1  0.98944400  0.24664100  0.18999700  1
  C  C33  1  0.98944400  0.75335900  0.81000300  1
  C  C34  1  0.01055600  0.25335900  0.31000300  1
  C  C35  1  0.01055600  0.74664100  0.68999700  1
  C  C36  1  0.49478200  0.24775600  0.58992400  1
  C  C37  1  0.49478200  0.75224400  0.41007600  1
  C  C38  1  0.50521800  0.25224400  0.91007600  1
  C  C39  1  0.50521800  0.74775600  0.08992400  1
  C  C40  1  0.50521800  0.75224400  0.58992400  1
  C  C41  1  0.50521800  0.24775600  0.41007600  1
  C  C42  1  0.49478200  0.74775600  0.91007600  1
  C  C43  1  0.49478200  0.25224400  0.08992400  1
