# generated using pymatgen
data_CuNi8C9
_symmetry_space_group_name_H-M   'P 1'
_cell_length_a   6.13267861
_cell_length_b   7.86475842
_cell_length_c   13.74456200
_cell_angle_alpha   90.00000000
_cell_angle_beta   90.00000000
_cell_angle_gamma   88.72975096
_symmetry_Int_Tables_number   1
_chemical_formula_structural   CuNi8C9
_chemical_formula_sum   'Cu4 Ni32 C36'
_cell_volume   662.76529491
_cell_formula_units_Z   4
loop_
 _symmetry_equiv_pos_site_id
 _symmetry_equiv_pos_as_xyz
  1  'x, y, z'
loop_
 _atom_site_type_symbol
 _atom_site_label
 _atom_site_symmetry_multiplicity
 _atom_site_fract_x
 _atom_site_fract_y
 _atom_site_fract_z
 _atom_site_occupancy
  C  C0  1  0.92690800  0.77688200  0.09987700  1
  C  C1  1  0.42690800  0.27688200  0.40012300  1
  C  C2  1  0.07309200  0.22311800  0.90012300  1
  C  C3  1  0.57309200  0.72311800  0.59987700  1
  Ni  Ni4  1  0.69165700  0.72676600  0.26370700  1
  Ni  Ni5  1  0.19165700  0.22676600  0.23629300  1
  Ni  Ni6  1  0.30834300  0.27323400  0.73629300  1
  Ni  Ni7  1  0.80834300  0.77323400  0.76370700  1
  Ni  Ni8  1  0.92623700  0.78176300  0.30603300  1
  Ni  Ni9  1  0.42623700  0.28176300  0.19396700  1
  Ni  Ni10  1  0.07376300  0.21823700  0.69396700  1
  Ni  Ni11  1  0.57376300  0.71823700  0.80603300  1
  Ni  Ni12  1  0.30534200  0.88182300  0.18635400  1
  Ni  Ni13  1  0.80534200  0.38182300  0.31364600  1
  Ni  Ni14  1  0.69465800  0.11817700  0.81364600  1
  Ni  Ni15  1  0.19465800  0.61817700  0.68635400  1
  Ni  Ni16  1  0.23052700  0.02608900  0.10744900  1
  Ni  Ni17  1  0.73052700  0.52608900  0.39255100  1
  Ni  Ni18  1  0.76947300  0.97391100  0.89255100  1
  Ni  Ni19  1  0.26947300  0.47391100  0.60744900  1
  Ni  Ni20  1  0.54487500  0.68143400  0.02119500  1
  Ni  Ni21  1  0.04487500  0.18143400  0.47880500  1
  Ni  Ni22  1  0.45512500  0.31856600  0.97880500  1
  Ni  Ni23  1  0.95512500  0.81856600  0.52119500  1
  Ni  Ni24  1  0.64370200  0.52130300  0.07950000  1
  Ni  Ni25  1  0.14370200  0.02130300  0.42050000  1
  Ni  Ni26  1  0.35629800  0.47869700  0.92050000  1
  Ni  Ni27  1  0.85629800  0.97869700  0.57950000  1
  Ni  Ni28  1  0.20414700  0.55740300  0.18513100  1
  Ni  Ni29  1  0.70414700  0.05740300  0.31486900  1
  Ni  Ni30  1  0.79585300  0.44259700  0.81486900  1
  Ni  Ni31  1  0.29585300  0.94259700  0.68513100  1
  Ni  Ni32  1  0.08056900  0.44437500  0.10435100  1
  Ni  Ni33  1  0.58056900  0.94437500  0.39564900  1
  Ni  Ni34  1  0.91943100  0.55562500  0.89564900  1
  Ni  Ni35  1  0.41943100  0.05562500  0.60435100  1
  Cu  Cu36  1  0.80697700  0.18104700  0.11158300  1
  Cu  Cu37  1  0.30697700  0.68104700  0.38841700  1
  Cu  Cu38  1  0.19302300  0.81895300  0.88841700  1
  Cu  Cu39  1  0.69302300  0.31895300  0.61158300  1
  C  C40  1  0.75341100  0.00771900  0.07793400  1
  C  C41  1  0.25341100  0.50771900  0.42206600  1
  C  C42  1  0.24658900  0.99228100  0.92206600  1
  C  C43  1  0.74658900  0.49228100  0.57793400  1
  C  C44  1  0.00312400  0.24390500  0.05608900  1
  C  C45  1  0.50312400  0.74390500  0.44391100  1
  C  C46  1  0.99687600  0.75609500  0.94391100  1
  C  C47  1  0.49687600  0.25609500  0.55608900  1
  C  C48  1  0.86292200  0.18757800  0.21655600  1
  C  C49  1  0.36292200  0.68757800  0.28344400  1
  C  C50  1  0.13707800  0.81242200  0.78344400  1
  C  C51  1  0.63707800  0.31242200  0.71655600  1
  C  C52  1  0.61209100  0.29624500  0.09216100  1
  C  C53  1  0.11209100  0.79624500  0.40783900  1
  C  C54  1  0.38790900  0.70375500  0.90783900  1
  C  C55  1  0.88790900  0.20375500  0.59216100  1
  C  C56  1  0.82717900  0.78634200  0.24921800  1
  C  C57  1  0.32717900  0.28634200  0.25078200  1
  C  C58  1  0.17282100  0.21365800  0.75078200  1
  C  C59  1  0.67282100  0.71365800  0.74921800  1
  C  C60  1  0.20645600  0.91255900  0.13290800  1
  C  C61  1  0.70645600  0.41255900  0.36709200  1
  C  C62  1  0.79354400  0.08744100  0.86709200  1
  C  C63  1  0.29354400  0.58744100  0.63290800  1
  C  C64  1  0.64364300  0.64723900  0.07474100  1
  C  C65  1  0.14364300  0.14723900  0.42525900  1
  C  C66  1  0.35635700  0.35276100  0.92525900  1
  C  C67  1  0.85635700  0.85276100  0.57474100  1
  C  C68  1  0.11823100  0.56104300  0.12472900  1
  C  C69  1  0.61823100  0.06104300  0.37527100  1
  C  C70  1  0.88176900  0.43895700  0.87527100  1
  C  C71  1  0.38176900  0.93895700  0.62472900  1
