# generated using pymatgen
data_Cu4Ni3C
_symmetry_space_group_name_H-M   'P 1'
_cell_length_a   4.64835122
_cell_length_b   4.64835122
_cell_length_c   4.64835154
_cell_angle_alpha   90.67586356
_cell_angle_beta   90.67586356
_cell_angle_gamma   90.67584673
_symmetry_Int_Tables_number   1
_chemical_formula_structural   Cu4Ni3C
_chemical_formula_sum   'Cu4 Ni3 C1'
_cell_volume   100.41658833
_cell_formula_units_Z   1
loop_
 _symmetry_equiv_pos_site_id
 _symmetry_equiv_pos_as_xyz
  1  'x, y, z'
loop_
 _atom_site_type_symbol
 _atom_site_label
 _atom_site_symmetry_multiplicity
 _atom_site_fract_x
 _atom_site_fract_y
 _atom_site_fract_z
 _atom_site_occupancy
  Ni  Ni0  1  0.34244400  0.16046100  0.65346900  1
  Ni  Ni1  1  0.16046100  0.65346900  0.34244400  1
  Ni  Ni2  1  0.65346900  0.34244400  0.16046100  1
  Cu  Cu3  1  0.13641600  0.13641600  0.13641600  1
  Cu  Cu4  1  0.64449000  0.86131400  0.36075800  1
  Cu  Cu5  1  0.86131400  0.36075800  0.64449000  1
  Cu  Cu6  1  0.36075800  0.64449000  0.86131400  1
  C  C7  1  0.84064800  0.84064800  0.84064800  1
