# generated using pymatgen
data_Cu3Ni9C13
_symmetry_space_group_name_H-M   'P 1'
_cell_length_a   14.16973600
_cell_length_b   12.45402200
_cell_length_c   16.35090380
_cell_angle_alpha   87.33449412
_cell_angle_beta   90.00000000
_cell_angle_gamma   90.00000000
_symmetry_Int_Tables_number   1
_chemical_formula_structural   Cu3Ni9C13
_chemical_formula_sum   'Cu12 Ni36 C52'
_cell_volume   2882.32542810
_cell_formula_units_Z   4
loop_
 _symmetry_equiv_pos_site_id
 _symmetry_equiv_pos_as_xyz
  1  'x, y, z'
loop_
 _atom_site_type_symbol
 _atom_site_label
 _atom_site_symmetry_multiplicity
 _atom_site_fract_x
 _atom_site_fract_y
 _atom_site_fract_z
 _atom_site_occupancy
  C  C0  1  0.73740900  0.30453500  0.57929300  1
  C  C1  1  0.23740900  0.69546500  0.92070700  1
  C  C2  1  0.26259100  0.69546500  0.42070700  1
  C  C3  1  0.76259100  0.30453500  0.07929300  1
  C  C4  1  0.77731100  0.28310000  0.81701500  1
  C  C5  1  0.27731100  0.71690000  0.68298500  1
  C  C6  1  0.22268900  0.71690000  0.18298500  1
  C  C7  1  0.72268900  0.28310000  0.31701500  1
  Ni  Ni8  1  0.75551600  0.86292700  0.68453200  1
  Ni  Ni9  1  0.25551600  0.13707300  0.81546800  1
  Ni  Ni10  1  0.24448400  0.13707300  0.31546800  1
  Ni  Ni11  1  0.74448400  0.86292700  0.18453200  1
  Ni  Ni12  1  0.79060500  0.96895000  0.80835500  1
  Ni  Ni13  1  0.29060500  0.03105000  0.69164500  1
  Ni  Ni14  1  0.20939500  0.03105000  0.19164500  1
  Ni  Ni15  1  0.70939500  0.96895000  0.30835500  1
  Ni  Ni16  1  0.62287600  0.94239100  0.76306100  1
  Ni  Ni17  1  0.12287600  0.05760900  0.73693900  1
  Ni  Ni18  1  0.37712400  0.05760900  0.23693900  1
  Ni  Ni19  1  0.87712400  0.94239100  0.26306100  1
  Ni  Ni20  1  0.46044700  0.34213200  0.57473200  1
  Ni  Ni21  1  0.96044700  0.65786800  0.92526800  1
  Ni  Ni22  1  0.53955300  0.65786800  0.42526800  1
  Ni  Ni23  1  0.03955300  0.34213200  0.07473200  1
  Ni  Ni24  1  0.99021400  0.35244700  0.55760900  1
  Ni  Ni25  1  0.49021400  0.64755300  0.94239100  1
  Ni  Ni26  1  0.00978600  0.64755300  0.44239100  1
  Ni  Ni27  1  0.50978600  0.35244700  0.05760900  1
  Ni  Ni28  1  0.13848600  0.33706600  0.94759500  1
  Ni  Ni29  1  0.63848600  0.66293400  0.55240500  1
  Ni  Ni30  1  0.86151400  0.66293400  0.05240500  1
  Ni  Ni31  1  0.36151400  0.33706600  0.44759500  1
  Ni  Ni32  1  0.08038000  0.16484600  0.01617200  1
  Ni  Ni33  1  0.58038000  0.83515400  0.48382800  1
  Ni  Ni34  1  0.91962000  0.83515400  0.98382800  1
  Ni  Ni35  1  0.41962000  0.16484600  0.51617200  1
  Ni  Ni36  1  0.40611200  0.33043700  0.93448500  1
  Ni  Ni37  1  0.90611200  0.66956300  0.56551500  1
  Ni  Ni38  1  0.59388800  0.66956300  0.06551500  1
  Ni  Ni39  1  0.09388800  0.33043700  0.43448500  1
  Ni  Ni40  1  0.46734300  0.16758300  0.01390400  1
  Ni  Ni41  1  0.96734300  0.83241700  0.48609600  1
  Ni  Ni42  1  0.53265700  0.83241700  0.98609600  1
  Ni  Ni43  1  0.03265700  0.16758300  0.51390400  1
  Cu  Cu44  1  0.73205800  0.13611900  0.63673900  1
  Cu  Cu45  1  0.23205800  0.86388100  0.86326100  1
  Cu  Cu46  1  0.26794200  0.86388100  0.36326100  1
  Cu  Cu47  1  0.76794200  0.13611900  0.13673900  1
  Cu  Cu48  1  0.90655600  0.29201800  0.89964900  1
  Cu  Cu49  1  0.40655600  0.70798200  0.60035100  1
  Cu  Cu50  1  0.09344400  0.70798200  0.10035100  1
  Cu  Cu51  1  0.59344400  0.29201800  0.39964900  1
  Cu  Cu52  1  0.63599100  0.27921000  0.88338200  1
  Cu  Cu53  1  0.13599100  0.72079000  0.61661800  1
  Cu  Cu54  1  0.36400900  0.72079000  0.11661800  1
  Cu  Cu55  1  0.86400900  0.27921000  0.38338200  1
  C  C56  1  0.77520100  0.99369600  0.58363200  1
  C  C57  1  0.27520100  0.00630400  0.91636800  1
  C  C58  1  0.22479900  0.00630400  0.41636800  1
  C  C59  1  0.72479900  0.99369600  0.08363200  1
  C  C60  1  0.82192400  0.13365600  0.74180300  1
  C  C61  1  0.32192400  0.86634400  0.75819700  1
  C  C62  1  0.17807600  0.86634400  0.25819700  1
  C  C63  1  0.67807600  0.13365600  0.24180300  1
  C  C64  1  0.59963500  0.09790800  0.68705400  1
  C  C65  1  0.09963500  0.90209200  0.81294600  1
  C  C66  1  0.40036500  0.90209200  0.31294600  1
  C  C67  1  0.90036500  0.09790800  0.18705400  1
  C  C68  1  0.60401200  0.37288500  0.51171200  1
  C  C69  1  0.10401200  0.62711500  0.98828800  1
  C  C70  1  0.39598800  0.62711500  0.48828800  1
  C  C71  1  0.89598800  0.37288500  0.01171200  1
  C  C72  1  0.84992600  0.37421000  0.48837300  1
  C  C73  1  0.34992600  0.62579000  0.01162700  1
  C  C74  1  0.15007400  0.62579000  0.51162700  1
  C  C75  1  0.65007400  0.37421000  0.98837300  1
  C  C76  1  0.02704500  0.36389800  0.84794000  1
  C  C77  1  0.52704500  0.63610200  0.65206000  1
  C  C78  1  0.97295500  0.63610200  0.15206000  1
  C  C79  1  0.47295500  0.36389800  0.34794000  1
  C  C80  1  0.94947000  0.13752500  0.93938400  1
  C  C81  1  0.44947000  0.86247500  0.56061600  1
  C  C82  1  0.05053000  0.86247500  0.06061600  1
  C  C83  1  0.55053000  0.13752500  0.43938400  1
  C  C84  1  0.51334400  0.34593500  0.83067800  1
  C  C85  1  0.01334400  0.65406500  0.66932200  1
  C  C86  1  0.48665600  0.65406500  0.16932200  1
  C  C87  1  0.98665600  0.34593500  0.33067800  1
  C  C88  1  0.59420000  0.13018700  0.93442100  1
  C  C89  1  0.09420000  0.86981300  0.56557900  1
  C  C90  1  0.40580000  0.86981300  0.06557900  1
  C  C91  1  0.90580000  0.13018700  0.43442100  1
  C  C92  1  0.76712200  0.43457700  0.70051700  1
  C  C93  1  0.26712200  0.56542300  0.79948300  1
  C  C94  1  0.23287800  0.56542300  0.29948300  1
  C  C95  1  0.73287800  0.43457700  0.20051700  1
  C  C96  1  0.77805700  0.71943900  0.37551600  1
  C  C97  1  0.27805700  0.28056100  0.12448400  1
  C  C98  1  0.22194300  0.28056100  0.62448400  1
  C  C99  1  0.72194300  0.71943900  0.87551600  1
