# generated using pymatgen
data_CuNiC15
_symmetry_space_group_name_H-M   'P 1'
_cell_length_a   7.83162264
_cell_length_b   7.83162261
_cell_length_c   7.83162242
_cell_angle_alpha   64.18847295
_cell_angle_beta   64.18847470
_cell_angle_gamma   64.18846850
_symmetry_Int_Tables_number   1
_chemical_formula_structural   CuNiC15
_chemical_formula_sum   'Cu2 Ni2 C30'
_cell_volume   370.93962519
_cell_formula_units_Z   2
loop_
 _symmetry_equiv_pos_site_id
 _symmetry_equiv_pos_as_xyz
  1  'x, y, z'
loop_
 _atom_site_type_symbol
 _atom_site_label
 _atom_site_symmetry_multiplicity
 _atom_site_fract_x
 _atom_site_fract_y
 _atom_site_fract_z
 _atom_site_occupancy
  Ni  Ni0  1  0.00000000  0.00000000  0.00000000  1
  Ni  Ni1  1  0.50000000  0.50000000  0.50000000  1
  C  C2  1  0.49731100  0.98743100  0.77793600  1
  C  C3  1  0.49731100  0.77793600  0.98743100  1
  C  C4  1  0.77793600  0.49731100  0.98743100  1
  C  C5  1  0.98743100  0.49731100  0.77793600  1
  C  C6  1  0.98743100  0.77793600  0.49731100  1
  C  C7  1  0.77793600  0.98743100  0.49731100  1
  C  C8  1  0.50268900  0.01256900  0.22206400  1
  C  C9  1  0.50268900  0.22206400  0.01256900  1
  C  C10  1  0.22206400  0.50268900  0.01256900  1
  C  C11  1  0.01256900  0.50268900  0.22206400  1
  C  C12  1  0.01256900  0.22206400  0.50268900  1
  C  C13  1  0.22206400  0.01256900  0.50268900  1
  Cu  Cu14  1  0.75151700  0.75151700  0.75151700  1
  Cu  Cu15  1  0.24848300  0.24848300  0.24848300  1
  C  C16  1  0.56598300  0.84354300  0.84354300  1
  C  C17  1  0.84354300  0.56598300  0.84354300  1
  C  C18  1  0.84354300  0.84354300  0.56598300  1
  C  C19  1  0.43401700  0.15645700  0.15645700  1
  C  C20  1  0.15645700  0.43401700  0.15645700  1
  C  C21  1  0.15645700  0.15645700  0.43401700  1
  C  C22  1  0.13465100  0.85586300  0.85586300  1
  C  C23  1  0.85586300  0.13465100  0.85586300  1
  C  C24  1  0.85586300  0.85586300  0.13465100  1
  C  C25  1  0.86534900  0.14413700  0.14413700  1
  C  C26  1  0.14413700  0.86534900  0.14413700  1
  C  C27  1  0.14413700  0.14413700  0.86534900  1
  C  C28  1  0.73696000  0.45816400  0.45816400  1
  C  C29  1  0.45816400  0.73696000  0.45816400  1
  C  C30  1  0.45816400  0.45816400  0.73696000  1
  C  C31  1  0.26304000  0.54183600  0.54183600  1
  C  C32  1  0.54183600  0.26304000  0.54183600  1
  C  C33  1  0.54183600  0.54183600  0.26304000  1
