# generated using pymatgen
data_Cu4NiC2
_symmetry_space_group_name_H-M   'P 1'
_cell_length_a   6.33507304
_cell_length_b   6.33507304
_cell_length_c   11.06415500
_cell_angle_alpha   90.00000000
_cell_angle_beta   90.00000000
_cell_angle_gamma   119.89642746
_symmetry_Int_Tables_number   1
_chemical_formula_structural   Cu4NiC2
_chemical_formula_sum   'Cu8 Ni2 C4'
_cell_volume   384.95011076
_cell_formula_units_Z   2
loop_
 _symmetry_equiv_pos_site_id
 _symmetry_equiv_pos_as_xyz
  1  'x, y, z'
loop_
 _atom_site_type_symbol
 _atom_site_label
 _atom_site_symmetry_multiplicity
 _atom_site_fract_x
 _atom_site_fract_y
 _atom_site_fract_z
 _atom_site_occupancy
  C  C0  1  0.76308100  0.23985400  0.50000000  1
  C  C1  1  0.23691900  0.76014600  0.50000000  1
  C  C2  1  0.76014600  0.23691900  0.00000000  1
  C  C3  1  0.23985400  0.76308100  0.00000000  1
  Ni  Ni4  1  0.50000000  0.50000000  0.75000000  1
  Ni  Ni5  1  0.50000000  0.50000000  0.25000000  1
  Cu  Cu6  1  0.34817700  0.18847400  0.50000000  1
  Cu  Cu7  1  0.65182300  0.81152600  0.50000000  1
  Cu  Cu8  1  0.81152600  0.65182300  0.00000000  1
  Cu  Cu9  1  0.18847400  0.34817700  0.00000000  1
  Cu  Cu10  1  0.50000000  0.00000000  0.82992600  1
  Cu  Cu11  1  0.00000000  0.50000000  0.67007400  1
  Cu  Cu12  1  0.50000000  0.00000000  0.17007400  1
  Cu  Cu13  1  0.00000000  0.50000000  0.32992600  1
