# generated using pymatgen
data_Cu(NiC4)3
_symmetry_space_group_name_H-M   'P 1'
_cell_length_a   5.87073700
_cell_length_b   7.33031906
_cell_length_c   12.44476741
_cell_angle_alpha   87.77220225
_cell_angle_beta   82.73997888
_cell_angle_gamma   78.70293927
_symmetry_Int_Tables_number   1
_chemical_formula_structural   Cu(NiC4)3
_chemical_formula_sum   'Cu1 Ni3 C12'
_cell_volume   520.91102946
_cell_formula_units_Z   1
loop_
 _symmetry_equiv_pos_site_id
 _symmetry_equiv_pos_as_xyz
  1  'x, y, z'
loop_
 _atom_site_type_symbol
 _atom_site_label
 _atom_site_symmetry_multiplicity
 _atom_site_fract_x
 _atom_site_fract_y
 _atom_site_fract_z
 _atom_site_occupancy
  C  C0  1  0.07292400  0.03179200  0.67783200  1
  C  C1  1  0.57230500  0.53248500  0.17685200  1
  C  C2  1  0.42706700  0.46732000  0.82311700  1
  C  C3  1  0.92777100  0.96825400  0.32219700  1
  Ni  Ni4  1  0.25138100  0.49587100  0.49852500  1
  Ni  Ni5  1  0.74859300  0.50446700  0.50144700  1
  Ni  Ni6  1  0.24834600  0.00438200  0.00153900  1
  Cu  Cu7  1  0.75168500  0.99529500  0.99849000  1
  C  C8  1  0.95425100  0.55838200  0.63921700  1
  C  C9  1  0.45498200  0.05808900  0.13904400  1
  C  C10  1  0.94644500  0.23767300  0.95960100  1
  C  C11  1  0.44685500  0.73788500  0.45947400  1
  C  C12  1  0.54680500  0.94144900  0.86100000  1
  C  C13  1  0.04555400  0.44192000  0.36087700  1
  C  C14  1  0.55308900  0.26234500  0.54045500  1
  C  C15  1  0.05194600  0.76238800  0.04033200  1
