# generated using pymatgen
data_Cu(NiC2)4
_symmetry_space_group_name_H-M   'P 1'
_cell_length_a   7.37313977
_cell_length_b   7.37313977
_cell_length_c   9.55550078
_cell_angle_alpha   50.60499143
_cell_angle_beta   50.60499143
_cell_angle_gamma   23.63099377
_symmetry_Int_Tables_number   1
_chemical_formula_structural   Cu(NiC2)4
_chemical_formula_sum   'Cu1 Ni4 C8'
_cell_volume   158.52198908
_cell_formula_units_Z   1
loop_
 _symmetry_equiv_pos_site_id
 _symmetry_equiv_pos_as_xyz
  1  'x, y, z'
loop_
 _atom_site_type_symbol
 _atom_site_label
 _atom_site_symmetry_multiplicity
 _atom_site_fract_x
 _atom_site_fract_y
 _atom_site_fract_z
 _atom_site_occupancy
  Ni  Ni0  1  0.37350500  0.37350500  0.43332100  1
  Ni  Ni1  1  0.85817700  0.85817700  0.79831800  1
  Ni  Ni2  1  0.16003000  0.16003000  0.16476000  1
  Ni  Ni3  1  0.64859300  0.64859300  0.50714900  1
  Cu  Cu4  1  0.66799900  0.66799900  0.79803200  1
  C  C5  1  0.14478400  0.14478400  0.37925400  1
  C  C6  1  0.53625100  0.53625100  0.25353100  1
  C  C7  1  0.46472800  0.46472800  0.71319000  1
  C  C8  1  0.86300300  0.86300300  0.58621000  1
  C  C9  1  0.83060300  0.83060300  0.35720100  1
  C  C10  1  0.21459300  0.21459300  0.90036000  1
  C  C11  1  0.16684900  0.16684900  0.65343600  1
  C  C12  1  0.78542400  0.78542400  0.03880600  1
