# generated using pymatgen
data_Cu14Ni3C2
_symmetry_space_group_name_H-M   'P 1'
_cell_length_a   8.17494400
_cell_length_b   8.51796129
_cell_length_c   8.51796129
_cell_angle_alpha   120.05986942
_cell_angle_beta   90.00000000
_cell_angle_gamma   90.00000000
_symmetry_Int_Tables_number   1
_chemical_formula_structural   Cu14Ni3C2
_chemical_formula_sum   'Cu28 Ni6 C4'
_cell_volume   513.36283273
_cell_formula_units_Z   2
loop_
 _symmetry_equiv_pos_site_id
 _symmetry_equiv_pos_as_xyz
  1  'x, y, z'
loop_
 _atom_site_type_symbol
 _atom_site_label
 _atom_site_symmetry_multiplicity
 _atom_site_fract_x
 _atom_site_fract_y
 _atom_site_fract_z
 _atom_site_occupancy
  C  C0  1  0.75000000  0.99991300  0.00008700  1
  C  C1  1  0.25000000  0.00008700  0.99991300  1
  C  C2  1  0.25000000  0.66671900  0.33328100  1
  C  C3  1  0.75000000  0.33328100  0.66671900  1
  Ni  Ni4  1  0.50000000  0.50000000  0.00000000  1
  Ni  Ni5  1  0.50000000  0.50000000  0.50000000  1
  Ni  Ni6  1  0.50000000  0.00000000  0.50000000  1
  Ni  Ni7  1  0.00000000  0.50000000  0.00000000  1
  Ni  Ni8  1  0.00000000  0.50000000  0.50000000  1
  Ni  Ni9  1  0.00000000  0.00000000  0.50000000  1
  Cu  Cu10  1  0.61086800  0.66666200  0.33333800  1
  Cu  Cu11  1  0.38913200  0.33333800  0.66666200  1
  Cu  Cu12  1  0.11086800  0.33333800  0.66666200  1
  Cu  Cu13  1  0.88913200  0.66666200  0.33333800  1
  Cu  Cu14  1  0.75000000  0.67930200  0.02785800  1
  Cu  Cu15  1  0.75000000  0.34852500  0.32050100  1
  Cu  Cu16  1  0.75000000  0.97242400  0.65169900  1
  Cu  Cu17  1  0.75000000  0.34830100  0.02757600  1
  Cu  Cu18  1  0.75000000  0.97214200  0.32069800  1
  Cu  Cu19  1  0.75000000  0.67949900  0.65147500  1
  Cu  Cu20  1  0.25000000  0.32069800  0.97214200  1
  Cu  Cu21  1  0.25000000  0.65147500  0.67949900  1
  Cu  Cu22  1  0.25000000  0.02757600  0.34830100  1
  Cu  Cu23  1  0.25000000  0.65169900  0.97242400  1
  Cu  Cu24  1  0.25000000  0.02785800  0.67930200  1
  Cu  Cu25  1  0.25000000  0.32050100  0.34852500  1
  Cu  Cu26  1  0.48603000  0.83455600  0.66879600  1
  Cu  Cu27  1  0.48593300  0.83442700  0.16557300  1
  Cu  Cu28  1  0.48603000  0.33120400  0.16544400  1
  Cu  Cu29  1  0.51397000  0.16544400  0.33120400  1
  Cu  Cu30  1  0.51406700  0.16557300  0.83442700  1
  Cu  Cu31  1  0.51397000  0.66879600  0.83455600  1
  Cu  Cu32  1  0.98603000  0.16544400  0.33120400  1
  Cu  Cu33  1  0.98593300  0.16557300  0.83442700  1
  Cu  Cu34  1  0.98603000  0.66879600  0.83455600  1
  Cu  Cu35  1  0.01397000  0.83455600  0.66879600  1
  Cu  Cu36  1  0.01406700  0.83442700  0.16557300  1
  Cu  Cu37  1  0.01397000  0.33120400  0.16544400  1
