# generated using pymatgen
data_Cu5(Ni5C12)2
_symmetry_space_group_name_H-M   'P 1'
_cell_length_a   9.40781200
_cell_length_b   9.40781200
_cell_length_c   11.57727904
_cell_angle_alpha   66.02707092
_cell_angle_beta   66.02707092
_cell_angle_gamma   90.00000000
_symmetry_Int_Tables_number   1
_chemical_formula_structural   Cu5(Ni5C12)2
_chemical_formula_sum   'Cu5 Ni10 C24'
_cell_volume   838.62322087
_cell_formula_units_Z   1
loop_
 _symmetry_equiv_pos_site_id
 _symmetry_equiv_pos_as_xyz
  1  'x, y, z'
loop_
 _atom_site_type_symbol
 _atom_site_label
 _atom_site_symmetry_multiplicity
 _atom_site_fract_x
 _atom_site_fract_y
 _atom_site_fract_z
 _atom_site_occupancy
  C  C0  1  0.64667600  0.92958800  0.04256200  1
  C  C1  1  0.98070300  0.70882900  0.51330900  1
  C  C2  1  0.24401300  0.54117100  0.98669100  1
  C  C3  1  0.43923800  0.32041200  0.45743800  1
  C  C4  1  0.57720900  0.07720900  0.80753400  1
  C  C5  1  0.95126900  0.75984100  0.28889000  1
  C  C6  1  0.11525800  0.61525800  0.80753400  1
  C  C7  1  0.25984100  0.45126900  0.28889000  1
  C  C8  1  0.42958800  0.14667600  0.04256200  1
  C  C9  1  0.82041200  0.93923800  0.45743800  1
  C  C10  1  0.04117100  0.74401300  0.98669100  1
  C  C11  1  0.20882900  0.48070300  0.51330900  1
  C  C12  1  0.26929700  0.97213800  0.98669100  1
  C  C13  1  0.60332400  0.72215000  0.45743800  1
  C  C14  1  0.81076200  0.52785000  0.04256200  1
  C  C15  1  0.00598700  0.27786200  0.51330900  1
  C  C16  1  0.29873100  0.79873100  0.21111000  1
  C  C17  1  0.67279100  0.63474200  0.69246600  1
  C  C18  1  0.99015900  0.49015900  0.21111000  1
  C  C19  1  0.13474200  0.17279100  0.69246600  1
  C  C20  1  0.47213800  0.76929700  0.98669100  1
  C  C21  1  0.77786200  0.50598700  0.51330900  1
  C  C22  1  0.02785000  0.31076200  0.04256200  1
  C  C23  1  0.22215000  0.10332400  0.45743800  1
  Ni  Ni24  1  0.62500000  0.62500000  0.25000000  1
  Ni  Ni25  1  0.88545500  0.38545500  0.72909000  1
  Ni  Ni26  1  0.12500000  0.12500000  0.25000000  1
  Ni  Ni27  1  0.36454500  0.86454500  0.77091000  1
  Ni  Ni28  1  0.37500000  0.37500000  0.75000000  1
  Ni  Ni29  1  0.87500000  0.87500000  0.75000000  1
  Ni  Ni30  1  0.95980300  0.02231100  0.01788600  1
  Ni  Ni31  1  0.29019700  0.79019700  0.48211400  1
  Ni  Ni32  1  0.52231100  0.45980300  0.01788600  1
  Ni  Ni33  1  0.72768900  0.22768900  0.48211400  1
  Cu  Cu34  1  0.45950000  0.95950000  0.01442100  1
  Cu  Cu35  1  0.79050000  0.72392100  0.48557900  1
  Cu  Cu36  1  0.02607900  0.52607900  0.01442100  1
  Cu  Cu37  1  0.22392100  0.29050000  0.48557900  1
  Cu  Cu38  1  0.12500000  0.62500000  0.25000000  1
