# generated using pymatgen
data_Cu11(Ni7C16)2
_symmetry_space_group_name_H-M   'P 1'
_cell_length_a   5.92610100
_cell_length_b   6.11211899
_cell_length_c   19.78187756
_cell_angle_alpha   82.38280369
_cell_angle_beta   81.38542303
_cell_angle_gamma   61.27042640
_symmetry_Int_Tables_number   1
_chemical_formula_structural   Cu11(Ni7C16)2
_chemical_formula_sum   'Cu11 Ni14 C32'
_cell_volume   619.70961197
_cell_formula_units_Z   1
loop_
 _symmetry_equiv_pos_site_id
 _symmetry_equiv_pos_as_xyz
  1  'x, y, z'
loop_
 _atom_site_type_symbol
 _atom_site_label
 _atom_site_symmetry_multiplicity
 _atom_site_fract_x
 _atom_site_fract_y
 _atom_site_fract_z
 _atom_site_occupancy
  Ni  Ni0  1  0.51253500  0.73820800  0.75251300  1
  Ni  Ni1  1  0.61389400  0.70210200  0.93622500  1
  Ni  Ni2  1  0.05825100  0.73255900  0.84633200  1
  Ni  Ni3  1  0.12536100  0.42990300  0.68919100  1
  Ni  Ni4  1  0.04597000  0.41672000  0.51094600  1
  Ni  Ni5  1  0.31881900  0.34040900  0.96994900  1
  Ni  Ni6  1  0.05808500  0.21947400  0.84368600  1
  Ni  Ni7  1  0.58541500  0.26159700  0.43461500  1
  Ni  Ni8  1  0.57864100  0.94413900  0.60281600  1
  Ni  Ni9  1  0.53814400  0.17878000  0.25741700  1
  Ni  Ni10  1  0.07449200  0.01643000  0.16674900  1
  Ni  Ni11  1  0.06184000  0.71977900  0.34322500  1
  Ni  Ni12  1  0.55266800  0.98470200  0.09038700  1
  Ni  Ni13  1  0.54616000  0.48279800  0.08885500  1
  Cu  Cu14  1  0.56479200  0.22210800  0.84339900  1
  Cu  Cu15  1  0.56976200  0.45403800  0.59635800  1
  Cu  Cu16  1  0.07466100  0.94745700  0.60022800  1
  Cu  Cu17  1  0.81668100  0.09078500  0.72066000  1
  Cu  Cu18  1  0.81751500  0.83474400  0.46836900  1
  Cu  Cu19  1  0.06062400  0.21874800  0.34216600  1
  Cu  Cu20  1  0.56204300  0.71764600  0.34321600  1
  Cu  Cu21  1  0.31341600  0.84301200  0.47016700  1
  Cu  Cu22  1  0.30623900  0.60310600  0.21752800  1
  Cu  Cu23  1  0.04765500  0.48864700  0.08627300  1
  Cu  Cu24  1  0.81232100  0.58948200  0.21701100  1
  C  C25  1  0.41987000  0.53338100  0.90593900  1
  C  C26  1  0.18918600  0.40834000  0.78844200  1
  C  C27  1  0.95248500  0.52888200  0.90588500  1
  C  C28  1  0.42276900  0.05610900  0.90613400  1
  C  C29  1  0.70326200  0.39162900  0.78281600  1
  C  C30  1  0.93397000  0.26704300  0.65403100  1
  C  C31  1  0.18427200  0.90891400  0.78422900  1
  C  C32  1  0.69340100  0.13772900  0.53132300  1
  C  C33  1  0.45429100  0.26060400  0.65362900  1
  C  C34  1  0.93164200  0.04149800  0.89231600  1
  C  C35  1  0.70485500  0.90334400  0.78434800  1
  C  C36  1  0.93393900  0.78496800  0.65673900  1
  C  C37  1  0.44050400  0.03386400  0.40634500  1
  C  C38  1  0.22927500  0.08544800  0.54097300  1
  C  C39  1  0.17651600  0.92635800  0.26859400  1
  C  C40  1  0.69401200  0.65293200  0.53161000  1
  C  C41  1  0.45073200  0.76451700  0.65356200  1
  C  C42  1  0.92490000  0.04081400  0.40781600  1
  C  C43  1  0.18823600  0.64351800  0.53059500  1
  C  C44  1  0.40356500  0.58949600  0.40071100  1
  C  C45  1  0.72028700  0.84578600  0.28514500  1
  C  C46  1  0.93271000  0.78624400  0.15333200  1
  C  C47  1  0.66857100  0.67843800  0.03497000  1
  C  C48  1  0.19288400  0.40313500  0.27825900  1
  C  C49  1  0.43135400  0.78004200  0.15123600  1
  C  C50  1  0.93893000  0.51807700  0.41148300  1
  C  C51  1  0.88888400  0.35570900  0.14370800  1
  C  C52  1  0.68039800  0.41057400  0.27983600  1
  C  C53  1  0.21822300  0.61161100  0.03622600  1
  C  C54  1  0.65096100  0.19267200  0.04023500  1
  C  C55  1  0.44769000  0.28273100  0.16030900  1
  C  C56  1  0.20644300  0.18572100  0.03844500  1
