# generated using pymatgen
data_Cu5(NiC14)2
_symmetry_space_group_name_H-M   'P 1'
_cell_length_a   9.21146060
_cell_length_b   14.79020073
_cell_length_c   14.91788929
_cell_angle_alpha   103.69789593
_cell_angle_beta   90.00000000
_cell_angle_gamma   90.00000000
_symmetry_Int_Tables_number   1
_chemical_formula_structural   Cu5(NiC14)2
_chemical_formula_sum   'Cu20 Ni8 C112'
_cell_volume   1974.59756495
_cell_formula_units_Z   4
loop_
 _symmetry_equiv_pos_site_id
 _symmetry_equiv_pos_as_xyz
  1  'x, y, z'
loop_
 _atom_site_type_symbol
 _atom_site_label
 _atom_site_symmetry_multiplicity
 _atom_site_fract_x
 _atom_site_fract_y
 _atom_site_fract_z
 _atom_site_occupancy
  C  C0  1  0.49883654  0.49996562  0.99968487  1
  C  C1  1  0.00116346  -0.00003438  0.49968487  1
  C  C2  1  0.35348300  0.35717140  0.53802296  1
  C  C3  1  0.14651700  0.85717140  0.03802296  1
  C  C4  1  0.64188890  0.64493762  0.46100908  1
  C  C5  1  0.85811110  0.14493762  0.96100908  1
  C  C6  1  0.02320739  0.68713955  0.76293159  1
  C  C7  1  0.47679261  0.18713955  0.26293159  1
  C  C8  1  0.97928898  0.31503813  0.24026603  1
  C  C9  1  0.52071102  0.81503813  0.74026603  1
  C  C10  1  0.33347739  0.14290181  0.62380194  1
  C  C11  1  0.16652261  0.64290181  0.12380194  1
  C  C12  1  0.66812322  0.85729761  0.37630142  1
  C  C13  1  0.83187678  0.35729761  0.87630142  1
  C  C14  1  0.59898534  0.54263053  0.69604729  1
  C  C15  1  0.90101466  0.04263053  0.19604729  1
  C  C16  1  0.39175496  0.45637420  0.30642955  1
  C  C17  1  0.10824504  0.95637420  0.80642955  1
  C  C18  1  0.98990201  0.51678414  0.50786385  1
  C  C19  1  0.51009799  0.01678414  0.00786385  1
  C  C20  1  0.70827860  0.29271437  0.62416466  1
  C  C21  1  0.79172140  0.79271437  0.12416466  1
  C  C22  1  0.29161262  0.70773728  0.37566638  1
  C  C23  1  0.20838738  0.20773728  0.87566638  1
  C  C24  1  0.17494759  0.50222360  0.86141141  1
  C  C25  1  0.32505241  0.00222360  0.36141141  1
  C  C26  1  0.82366306  0.49696681  0.13688411  1
  C  C27  1  0.67633694  0.99696681  0.63688411  1
  Ni  Ni28  1  0.02576168  0.23941182  0.56813292  1
  Ni  Ni29  1  0.47423832  0.73941182  0.06813292  1
  Ni  Ni30  1  0.97452640  0.76161815  0.43182593  1
  Ni  Ni31  1  0.52547360  0.26161815  0.93182593  1
  Ni  Ni32  1  0.85145518  0.21960369  0.42644584  1
  Ni  Ni33  1  0.64854482  0.71960369  0.92644584  1
  Ni  Ni34  1  0.14853862  0.78184159  0.57376025  1
  Ni  Ni35  1  0.35146138  0.28184159  0.07376025  1
  Cu  Cu36  1  0.63241679  0.10888785  0.46680347  1
  Cu  Cu37  1  0.86758321  0.60888785  0.96680347  1
  Cu  Cu38  1  0.36841046  0.89107910  0.53312946  1
  Cu  Cu39  1  0.13158954  0.39107910  0.03312946  1
  Cu  Cu40  1  0.99256095  0.41453255  0.69634400  1
  Cu  Cu41  1  0.50743905  0.91453255  0.19634400  1
  Cu  Cu42  1  0.00829108  0.58497066  0.30543714  1
  Cu  Cu43  1  0.49170892  0.08497066  0.80543714  1
  Cu  Cu44  1  0.92015592  0.15550321  0.70589067  1
  Cu  Cu45  1  0.57984408  0.65550321  0.20589067  1
  Cu  Cu46  1  0.08007058  0.84416045  0.29331131  1
  Cu  Cu47  1  0.41992942  0.34416045  0.79331131  1
  Cu  Cu48  1  0.67341889  0.37559528  0.44168464  1
  Cu  Cu49  1  0.82658111  0.87559528  0.94168464  1
  Cu  Cu50  1  0.32532107  0.62547245  0.55887036  1
  Cu  Cu51  1  0.17467893  0.12547245  0.05887036  1
  Cu  Cu52  1  0.35759144  0.70424866  0.89459400  1
  Cu  Cu53  1  0.14240856  0.20424866  0.39459400  1
  Cu  Cu54  1  0.64132488  0.29549919  0.10490602  1
  Cu  Cu55  1  0.85867512  0.79549919  0.60490602  1
  C  C56  1  0.26335712  0.62092336  0.84827294  1
  C  C57  1  0.23664288  0.12092336  0.34827294  1
  C  C58  1  0.73841008  0.37670622  0.15251900  1
  C  C59  1  0.76158992  0.87670622  0.65251900  1
  C  C60  1  0.03346419  0.17247931  0.63099807  1
  C  C61  1  0.46653581  0.67247931  0.13099807  1
  C  C62  1  0.96637455  0.82723471  0.36799499  1
  C  C63  1  0.53362545  0.32723471  0.86799499  1
  C  C64  1  0.06281322  0.33611050  0.61687048  1
  C  C65  1  0.43718678  0.83611050  0.11687048  1
  C  C66  1  0.93803509  0.66421965  0.38464914  1
  C  C67  1  0.56196491  0.16421965  0.88464914  1
  C  C68  1  0.80677345  0.30660622  0.40346606  1
  C  C69  1  0.69322655  0.80660622  0.90346606  1
  C  C70  1  0.19088463  0.69405871  0.59634522  1
  C  C71  1  0.30911537  0.19405871  0.09634522  1
  C  C72  1  0.71463588  0.47344755  0.43748706  1
  C  C73  1  0.78536412  0.97344755  0.93748706  1
  C  C74  1  0.28254321  0.52809132  0.56362679  1
  C  C75  1  0.21745679  0.02809132  0.06362679  1
  C  C76  1  0.73816915  0.14506201  0.39957307  1
  C  C77  1  0.76183085  0.64506201  0.89957307  1
  C  C78  1  0.26314133  0.85501378  0.60076526  1
  C  C79  1  0.23685867  0.35501378  0.10076526  1
  C  C80  1  0.35311776  0.70709146  0.00226044  1
  C  C81  1  0.14688224  0.20709146  0.50226044  1
  C  C82  1  0.64641002  0.29487394  0.99760458  1
  C  C83  1  0.85358998  0.79487394  0.49760458  1
  C  C84  1  0.65580128  0.37658296  0.54841244  1
  C  C85  1  0.84419872  0.87658296  0.04841244  1
  C  C86  1  0.34324049  0.62416993  0.45213264  1
  C  C87  1  0.15675951  0.12416993  0.95213264  1
  C  C88  1  0.53573435  0.33860758  0.38974711  1
  C  C89  1  0.96426565  0.83860758  0.88974711  1
  C  C90  1  0.46262729  0.66268531  0.61109458  1
  C  C91  1  0.03737271  0.16268531  0.11109458  1
  C  C92  1  0.82539509  0.39763706  0.69889822  1
  C  C93  1  0.67460491  0.89763706  0.19889822  1
  C  C94  1  0.17495770  0.60318907  0.30110962  1
  C  C95  1  0.32504230  0.10318907  0.80110962  1
  C  C96  1  0.20481877  0.46939752  0.99670756  1
  C  C97  1  0.29518123  0.96939752  0.49670756  1
  C  C98  1  0.79428874  0.53039843  0.00324700  1
  C  C99  1  0.70571126  0.03039843  0.50324700  1
  C  C100  1  0.00125143  0.57345732  0.90697262  1
  C  C101  1  0.49874857  0.07345732  0.40697262  1
  C  C102  1  -0.00230325  0.42624566  0.09297601  1
  C  C103  1  0.50230325  0.92624566  0.59297601  1
  C  C104  1  0.86548321  0.05242423  0.67197519  1
  C  C105  1  0.63451679  0.55242423  0.17197519  1
  C  C106  1  0.13478515  0.94706638  0.32710247  1
  C  C107  1  0.36521485  0.44706638  0.82710247  1
  C  C108  1  0.88587205  0.23314369  0.52442475  1
  C  C109  1  0.61412795  0.73314369  0.02442475  1
  C  C110  1  0.11450360  0.76863137  0.47565441  1
  C  C111  1  0.38549640  0.26863137  0.97565441  1
  C  C112  1  0.97828356  0.18088023  0.36632259  1
  C  C113  1  0.52171644  0.68088023  0.86632259  1
  C  C114  1  0.02206705  0.82112674  0.63371202  1
  C  C115  1  0.47793295  0.32112674  0.13371202  1
  C  C116  1  0.02720922  0.50965819  0.68299137  1
  C  C117  1  0.47279078  0.00965819  0.18299137  1
  C  C118  1  0.97739874  0.49091744  0.32279303  1
  C  C119  1  0.52260126  0.99091744  0.82279303  1
  C  C120  1  0.49964759  0.33535024  0.70216855  1
  C  C121  1  0.00035241  0.83535024  0.20216855  1
  C  C122  1  0.50025339  0.66425087  0.29692491  1
  C  C123  1  -0.00025339  0.16425087  0.79692491  1
  C  C124  1  0.30883509  0.79408304  0.87342050  1
  C  C125  1  0.19116491  0.29408304  0.37342050  1
  C  C126  1  0.68463172  0.20305563  0.12273160  1
  C  C127  1  0.81536828  0.70305563  0.62273160  1
  C  C128  1  0.58631614  0.19094814  0.54728182  1
  C  C129  1  0.91368386  0.69094814  0.04728182  1
  C  C130  1  0.41448347  0.80878660  0.45282489  1
  C  C131  1  0.08551653  0.30878660  0.95282489  1
  C  C132  1  0.79341913  0.22422661  0.71177625  1
  C  C133  1  0.70658087  0.72422661  0.21177625  1
  C  C134  1  0.20661193  0.77554379  0.28757072  1
  C  C135  1  0.29338807  0.27554379  0.78757072  1
  C  C136  1  0.05997993  0.40090329  0.78899039  1
  C  C137  1  0.44002007  0.90090329  0.28899039  1
  C  C138  1  0.93884737  0.59652658  0.21288249  1
  C  C139  1  0.56115263  0.09652658  0.71288249  1
