# generated using pymatgen
data_Cu(NiC3)2
_symmetry_space_group_name_H-M   'P 1'
_cell_length_a   40.62468322
_cell_length_b   23.45467182
_cell_length_c   18.44297856
_cell_angle_alpha   50.51546294
_cell_angle_beta   42.75701659
_cell_angle_gamma   30.00000008
_symmetry_Int_Tables_number   1
_chemical_formula_structural   Cu(NiC3)2
_chemical_formula_sum   'Cu2 Ni4 C12'
_cell_volume   5965.13468236
_cell_formula_units_Z   2
loop_
 _symmetry_equiv_pos_site_id
 _symmetry_equiv_pos_as_xyz
  1  'x, y, z'
loop_
 _atom_site_type_symbol
 _atom_site_label
 _atom_site_symmetry_multiplicity
 _atom_site_fract_x
 _atom_site_fract_y
 _atom_site_fract_z
 _atom_site_occupancy
  Ni  Ni0  1  0.25000000  0.66672015  0.25000000  1
  Ni  Ni1  1  0.58338615  0.66656069  0.25000000  1
  Ni  Ni2  1  0.75000000  0.33333300  0.75000000  1
  Ni  Ni3  1  0.91661385  0.66672015  0.25000000  1
  Cu  Cu4  1  0.08332958  0.33333300  0.75001025  1
  Cu  Cu5  1  0.41667042  0.33333300  0.74998975  1
  C  C6  1  0.02331155  0.33333300  0.93006436  1
  C  C7  1  0.14335974  0.33333300  0.56991977  1
  C  C8  1  0.31224731  0.66664402  0.06325664  1
  C  C9  1  0.18775269  0.66664257  0.43674336  1
  C  C10  1  0.35664026  0.33333300  0.93008023  1
  C  C11  1  0.47668845  0.33333300  0.56993564  1
  C  C12  1  0.52106127  0.66671441  0.43674336  1
  C  C13  1  0.64555733  0.66671441  0.06325664  1
  C  C14  1  0.68763086  0.33333300  0.93710742  1
  C  C15  1  0.81236914  0.33333300  0.56289258  1
  C  C16  1  0.97893873  0.66664257  0.06325664  1
  C  C17  1  0.85444267  0.66664402  0.43674336  1
