# generated using pymatgen
data_Cu3(Ni8C11)2
_symmetry_space_group_name_H-M   'P 1'
_cell_length_a   6.67742000
_cell_length_b   7.67980983
_cell_length_c   18.42882074
_cell_angle_alpha   101.47037636
_cell_angle_beta   90.00000000
_cell_angle_gamma   115.76866364
_symmetry_Int_Tables_number   1
_chemical_formula_structural   Cu3(Ni8C11)2
_chemical_formula_sum   'Cu6 Ni32 C44'
_cell_volume   830.06563318
_cell_formula_units_Z   2
loop_
 _symmetry_equiv_pos_site_id
 _symmetry_equiv_pos_as_xyz
  1  'x, y, z'
loop_
 _atom_site_type_symbol
 _atom_site_label
 _atom_site_symmetry_multiplicity
 _atom_site_fract_x
 _atom_site_fract_y
 _atom_site_fract_z
 _atom_site_occupancy
  C  C0  1  0.18884300  0.33406600  0.39247200  1
  C  C1  1  0.85477800  0.66593400  0.10752800  1
  C  C2  1  0.81115700  0.66593400  0.60752800  1
  C  C3  1  0.14522200  0.33406600  0.89247200  1
  Ni  Ni4  1  0.20916700  0.70235700  0.48115600  1
  Ni  Ni5  1  0.50681000  0.29764300  0.01884400  1
  Ni  Ni6  1  0.79083300  0.29764300  0.51884400  1
  Ni  Ni7  1  0.49319000  0.70235700  0.98115600  1
  Ni  Ni8  1  0.46182300  0.74039700  0.48606400  1
  Ni  Ni9  1  0.72142600  0.25960300  0.01393600  1
  Ni  Ni10  1  0.53817700  0.25960300  0.51393600  1
  Ni  Ni11  1  0.27857400  0.74039700  0.98606400  1
  Ni  Ni12  1  0.16433600  0.99305000  0.45538100  1
  Ni  Ni13  1  0.17128600  0.00695000  0.04461900  1
  Ni  Ni14  1  0.83566400  0.00695000  0.54461900  1
  Ni  Ni15  1  0.82871400  0.99305000  0.95538100  1
  Ni  Ni16  1  0.33054100  0.02079600  0.39302100  1
  Ni  Ni17  1  0.30974500  0.97920400  0.10697900  1
  Ni  Ni18  1  0.66945900  0.97920400  0.60697900  1
  Ni  Ni19  1  0.69025500  0.02079600  0.89302100  1
  Ni  Ni20  1  0.24269500  0.44701200  0.24673700  1
  Ni  Ni21  1  0.79568300  0.55298800  0.25326300  1
  Ni  Ni22  1  0.75730500  0.55298800  0.75326300  1
  Ni  Ni23  1  0.20431700  0.44701200  0.74673700  1
  Ni  Ni24  1  0.26837700  0.64152000  0.30542700  1
  Ni  Ni25  1  0.62685700  0.35848000  0.19457300  1
  Ni  Ni26  1  0.73162300  0.35848000  0.69457300  1
  Ni  Ni27  1  0.37314300  0.64152000  0.80542700  1
  Ni  Ni28  1  0.85183500  0.90318900  0.35535000  1
  Ni  Ni29  1  0.94864600  0.09681100  0.14465000  1
  Ni  Ni30  1  0.14816500  0.09681100  0.64465000  1
  Ni  Ni31  1  0.05135400  0.90318900  0.85535000  1
  Ni  Ni32  1  0.71571100  0.02557500  0.34670600  1
  Ni  Ni33  1  0.69013600  0.97442500  0.15329400  1
  Ni  Ni34  1  0.28428900  0.97442500  0.65329400  1
  Ni  Ni35  1  0.30986400  0.02557500  0.84670600  1
  Cu  Cu36  1  0.19407400  0.44233600  0.58938000  1
  Cu  Cu37  1  0.75173800  0.55766400  0.91062000  1
  Cu  Cu38  1  0.80592600  0.55766400  0.41062000  1
  Cu  Cu39  1  0.24826200  0.44233600  0.08938000  1
  Cu  Cu40  1  0.31075400  0.00000000  0.25000000  1
  Cu  Cu41  1  0.68924600  0.00000000  0.75000000  1
  C  C42  1  0.13332700  0.32681100  0.64779400  1
  C  C43  1  0.80651600  0.67318900  0.85220600  1
  C  C44  1  0.86667300  0.67318900  0.35220600  1
  C  C45  1  0.19348400  0.32681100  0.14779400  1
  C  C46  1  0.43718000  0.53004000  0.58324400  1
  C  C47  1  0.90714000  0.46996000  0.91675600  1
  C  C48  1  0.56282000  0.46996000  0.41675600  1
  C  C49  1  0.09286000  0.53004000  0.08324400  1
  C  C50  1  0.07847700  0.30557900  0.51505300  1
  C  C51  1  0.77289700  0.69442100  0.98494700  1
  C  C52  1  0.92152300  0.69442100  0.48494700  1
  C  C53  1  0.22710300  0.30557900  0.01505300  1
  C  C54  1  0.12102100  0.60217500  0.60455100  1
  C  C55  1  0.51884600  0.39782500  0.89544900  1
  C  C56  1  0.87897900  0.39782500  0.39544900  1
  C  C57  1  0.48115400  0.60217500  0.10455100  1
  C  C58  1  0.40421700  0.93235200  0.30644200  1
  C  C59  1  0.47186500  0.06764800  0.19355800  1
  C  C60  1  0.59578300  0.06764800  0.69355800  1
  C  C61  1  0.52813500  0.93235200  0.80644200  1
  C  C62  1  0.26461000  0.16630200  0.28840200  1
  C  C63  1  0.09830700  0.83369800  0.21159800  1
  C  C64  1  0.73539000  0.83369800  0.71159800  1
  C  C65  1  0.90169300  0.16630200  0.78840200  1
  C  C66  1  0.32092400  0.67345200  0.45325500  1
  C  C67  1  0.64747200  0.32654800  0.04674500  1
  C  C68  1  0.67907600  0.32654800  0.54674500  1
  C  C69  1  0.35252800  0.67345200  0.95325500  1
  C  C70  1  0.28539800  0.09440300  0.43583400  1
  C  C71  1  0.19099500  0.90559700  0.06416600  1
  C  C72  1  0.71460200  0.90559700  0.56416600  1
  C  C73  1  0.80900500  0.09440300  0.93583400  1
  C  C74  1  0.23939200  0.50251200  0.29967900  1
  C  C75  1  0.73688000  0.49748800  0.20032100  1
  C  C76  1  0.76060800  0.49748800  0.70032100  1
  C  C77  1  0.26312000  0.50251200  0.79967900  1
  C  C78  1  0.85832700  0.03730400  0.36712200  1
  C  C79  1  0.82102200  0.96269600  0.13287800  1
  C  C80  1  0.14167300  0.96269600  0.63287800  1
  C  C81  1  0.17897800  0.03730400  0.86712200  1
