# generated using pymatgen
data_CuNiC5
_symmetry_space_group_name_H-M   'P 1'
_cell_length_a   8.38498600
_cell_length_b   8.90829100
_cell_length_c   17.97896270
_cell_angle_alpha   60.40338799
_cell_angle_beta   90.00000000
_cell_angle_gamma   90.00000000
_symmetry_Int_Tables_number   1
_chemical_formula_structural   CuNiC5
_chemical_formula_sum   'Cu12 Ni12 C60'
_cell_volume   1167.73153834
_cell_formula_units_Z   12
loop_
 _symmetry_equiv_pos_site_id
 _symmetry_equiv_pos_as_xyz
  1  'x, y, z'
loop_
 _atom_site_type_symbol
 _atom_site_label
 _atom_site_symmetry_multiplicity
 _atom_site_fract_x
 _atom_site_fract_y
 _atom_site_fract_z
 _atom_site_occupancy
  C  C0  1  0.02369600  0.71321400  0.06542800  1
  C  C1  1  0.52369600  0.28678600  0.43457200  1
  C  C2  1  0.97630400  0.28678600  0.93457200  1
  C  C3  1  0.47630400  0.71321400  0.56542800  1
  C  C4  1  0.46892700  0.64068000  0.08969700  1
  C  C5  1  0.96892700  0.35932000  0.41030300  1
  C  C6  1  0.53107300  0.35932000  0.91030300  1
  C  C7  1  0.03107300  0.64068000  0.58969700  1
  C  C8  1  0.44798700  0.00286400  0.25327300  1
  C  C9  1  0.94798700  0.99713600  0.24672700  1
  C  C10  1  0.55201300  0.99713600  0.74672700  1
  C  C11  1  0.05201300  0.00286400  0.75327300  1
  Ni  Ni12  1  0.16607100  0.34775800  0.09196500  1
  Ni  Ni13  1  0.66607100  0.65224200  0.40803500  1
  Ni  Ni14  1  0.83392900  0.65224200  0.90803500  1
  Ni  Ni15  1  0.33392900  0.34775800  0.59196500  1
  Ni  Ni16  1  0.16937400  0.97715200  0.42251500  1
  Ni  Ni17  1  0.66937400  0.02284800  0.07748500  1
  Ni  Ni18  1  0.83062600  0.02284800  0.57748500  1
  Ni  Ni19  1  0.33062600  0.97715200  0.92251500  1
  Ni  Ni20  1  0.17009100  0.68539700  0.23694300  1
  Ni  Ni21  1  0.67009100  0.31460300  0.26305700  1
  Ni  Ni22  1  0.82990900  0.31460300  0.76305700  1
  Ni  Ni23  1  0.32990900  0.68539700  0.73694300  1
  Cu  Cu24  1  0.28356600  0.03004100  0.07847800  1
  Cu  Cu25  1  0.78356600  0.96995900  0.42152200  1
  Cu  Cu26  1  0.71643400  0.96995900  0.92152200  1
  Cu  Cu27  1  0.21643400  0.03004100  0.57847800  1
  Cu  Cu28  1  0.27872700  0.65165900  0.40996100  1
  Cu  Cu29  1  0.77872700  0.34834100  0.09003900  1
  Cu  Cu30  1  0.72127300  0.34834100  0.59003900  1
  Cu  Cu31  1  0.22127300  0.65165900  0.90996100  1
  Cu  Cu32  1  0.28290000  0.31531900  0.26629200  1
  Cu  Cu33  1  0.78290000  0.68468100  0.23370800  1
  Cu  Cu34  1  0.71710000  0.68468100  0.73370800  1
  Cu  Cu35  1  0.21710000  0.31531900  0.76629200  1
  C  C36  1  0.47175300  0.59195700  0.39431400  1
  C  C37  1  0.97175300  0.40804300  0.10568600  1
  C  C38  1  0.52824700  0.40804300  0.60568600  1
  C  C39  1  0.02824700  0.59195700  0.89431400  1
  C  C40  1  0.47739300  0.11727500  0.05049800  1
  C  C41  1  0.97739300  0.88272500  0.44950200  1
  C  C42  1  0.52260700  0.88272500  0.94950200  1
  C  C43  1  0.02260700  0.11727500  0.55049800  1
  C  C44  1  0.47749500  0.26223800  0.30964100  1
  C  C45  1  0.97749500  0.73776200  0.19035900  1
  C  C46  1  0.52250500  0.73776200  0.69035900  1
  C  C47  1  0.02250500  0.26223800  0.80964100  1
  C  C48  1  0.14890200  0.59921800  0.34877500  1
  C  C49  1  0.64890200  0.40078200  0.15122500  1
  C  C50  1  0.85109800  0.40078200  0.65122500  1
  C  C51  1  0.35109800  0.59921800  0.84877500  1
  C  C52  1  0.15149200  0.20384200  0.05087200  1
  C  C53  1  0.65149200  0.79615800  0.44912800  1
  C  C54  1  0.84850800  0.79615800  0.94912800  1
  C  C55  1  0.34850800  0.20384200  0.55087200  1
  C  C56  1  0.27230700  0.87699100  0.37237500  1
  C  C57  1  0.15317000  0.20397000  0.35426500  1
  C  C58  1  0.84683000  0.79603000  0.64573500  1
  C  C59  1  0.34683000  0.20397000  0.85426500  1
  C  C60  1  0.26777900  0.54197100  0.02053700  1
  C  C61  1  0.76777900  0.45802900  0.47946300  1
  C  C62  1  0.73222100  0.45802900  0.97946300  1
  C  C63  1  0.23222100  0.54197100  0.52053700  1
  C  C64  1  0.23282400  0.92341100  0.02058700  1
  C  C65  1  0.73282400  0.07658900  0.47941300  1
  C  C66  1  0.76717600  0.07658900  0.97941300  1
  C  C67  1  0.26717600  0.92341100  0.52058700  1
  C  C68  1  0.25782400  0.54104300  0.20806000  1
  C  C69  1  0.75782400  0.45895700  0.29194000  1
  C  C70  1  0.74217600  0.45895700  0.79194000  1
  C  C71  1  0.24217600  0.54104300  0.70806000  1
  C  C72  1  0.23772900  0.23901000  0.69253400  1
  C  C73  1  0.73772900  0.76099000  0.80746600  1
  C  C74  1  0.76227100  0.76099000  0.30746600  1
  C  C75  1  0.26227100  0.23901000  0.19253400  1
  C  C76  1  0.22296900  0.88257600  0.68973200  1
  C  C77  1  0.72296900  0.11742400  0.81026800  1
  C  C78  1  0.77703100  0.11742400  0.31026800  1
  C  C79  1  0.27703100  0.88257600  0.18973200  1
  C  C80  1  0.22769300  0.87699100  0.87237500  1
  C  C81  1  0.72769300  0.12300900  0.62762500  1
  C  C82  1  0.77230700  0.12300900  0.12762500  1
  C  C83  1  0.65317000  0.79603000  0.14573500  1
