# generated using pymatgen
data_CuNiC7
_symmetry_space_group_name_H-M   'P 1'
_cell_length_a   6.17583316
_cell_length_b   6.93431190
_cell_length_c   6.93431190
_cell_angle_alpha   83.25195458
_cell_angle_beta   84.25441059
_cell_angle_gamma   84.25441059
_symmetry_Int_Tables_number   1
_chemical_formula_structural   CuNiC7
_chemical_formula_sum   'Cu2 Ni2 C14'
_cell_volume   292.24892633
_cell_formula_units_Z   2
loop_
 _symmetry_equiv_pos_site_id
 _symmetry_equiv_pos_as_xyz
  1  'x, y, z'
loop_
 _atom_site_type_symbol
 _atom_site_label
 _atom_site_symmetry_multiplicity
 _atom_site_fract_x
 _atom_site_fract_y
 _atom_site_fract_z
 _atom_site_occupancy
  Ni  Ni0  1  0.50000000  0.69786200  0.30213800  1
  Ni  Ni1  1  0.50000000  0.30213800  0.69786200  1
  Cu  Cu2  1  0.00000000  0.50000000  0.00000000  1
  Cu  Cu3  1  0.00000000  0.00000000  0.50000000  1
  C  C4  1  0.48825400  0.19970700  0.19970700  1
  C  C5  1  0.51174600  0.80029300  0.80029300  1
  C  C6  1  0.87002800  0.57689900  0.26729100  1
  C  C7  1  0.87002800  0.26729100  0.57689900  1
  C  C8  1  0.12997200  0.42310100  0.73270900  1
  C  C9  1  0.12997200  0.73270900  0.42310100  1
  C  C10  1  0.24059200  0.15577400  0.15577400  1
  C  C11  1  0.75940800  0.84422600  0.84422600  1
  C  C12  1  0.47178000  0.36428200  0.36428200  1
  C  C13  1  0.52822000  0.63571800  0.63571800  1
  C  C14  1  0.62880100  0.29559100  0.99607000  1
  C  C15  1  0.62880100  0.99607000  0.29559100  1
  C  C16  1  0.37119900  0.70440900  0.00393000  1
  C  C17  1  0.37119900  0.00393000  0.70440900  1
