# generated using pymatgen
data_Cu6NiC34
_symmetry_space_group_name_H-M   'P 1'
_cell_length_a   8.94527533
_cell_length_b   8.94527533
_cell_length_c   8.94527565
_cell_angle_alpha   58.37209221
_cell_angle_beta   58.37209221
_cell_angle_gamma   58.37209007
_symmetry_Int_Tables_number   1
_chemical_formula_structural   Cu6NiC34
_chemical_formula_sum   'Cu6 Ni1 C34'
_cell_volume   487.27292370
_cell_formula_units_Z   1
loop_
 _symmetry_equiv_pos_site_id
 _symmetry_equiv_pos_as_xyz
  1  'x, y, z'
loop_
 _atom_site_type_symbol
 _atom_site_label
 _atom_site_symmetry_multiplicity
 _atom_site_fract_x
 _atom_site_fract_y
 _atom_site_fract_z
 _atom_site_occupancy
  C  C0  1  0.93027300  0.63577400  0.29238700  1
  C  C1  1  0.63577400  0.29238700  0.93027300  1
  C  C2  1  0.29238700  0.93027300  0.63577400  1
  C  C3  1  0.24885000  0.40301300  0.69811200  1
  C  C4  1  0.69811200  0.24885000  0.40301300  1
  C  C5  1  0.40301300  0.69811200  0.24885000  1
  C  C6  1  0.99598400  0.99598400  0.99598400  1
  C  C7  1  0.65716400  0.65716400  0.65716400  1
  C  C8  1  0.85912100  0.85912100  0.85912100  1
  C  C9  1  0.34358300  0.34358300  0.34358300  1
  Ni  Ni10  1  0.15904300  0.15904300  0.15904300  1
  Cu  Cu11  1  0.24586600  0.57162700  0.93974200  1
  Cu  Cu12  1  0.04103600  0.76138400  0.46382700  1
  Cu  Cu13  1  0.57162700  0.93974200  0.24586600  1
  Cu  Cu14  1  0.46382700  0.04103600  0.76138400  1
  Cu  Cu15  1  0.93974200  0.24586600  0.57162700  1
  Cu  Cu16  1  0.76138400  0.46382700  0.04103600  1
  C  C17  1  0.19652500  0.52386900  0.15039000  1
  C  C18  1  0.12899300  0.78400600  0.86280800  1
  C  C19  1  0.45783400  0.53745000  0.82848500  1
  C  C20  1  0.15039000  0.19652500  0.52386900  1
  C  C21  1  0.00886400  0.80952400  0.62174600  1
  C  C22  1  0.11394400  0.90137200  0.26353800  1
  C  C23  1  0.52386900  0.15039000  0.19652500  1
  C  C24  1  0.19992200  0.44754100  0.90957800  1
  C  C25  1  0.20262600  0.56970600  0.46392200  1
  C  C26  1  0.78400600  0.86280800  0.12899300  1
  C  C27  1  0.53745000  0.82848500  0.45783400  1
  C  C28  1  0.44754100  0.90957800  0.19992200  1
  C  C29  1  0.62174600  0.00886400  0.80952400  1
  C  C30  1  0.46392200  0.20262600  0.56970600  1
  C  C31  1  0.26353800  0.11394400  0.90137200  1
  C  C32  1  0.82848500  0.45783400  0.53745000  1
  C  C33  1  0.80952400  0.62174600  0.00886400  1
  C  C34  1  0.47350700  0.86182500  0.76550600  1
  C  C35  1  0.86280800  0.12899300  0.78400600  1
  C  C36  1  0.90957800  0.19992200  0.44754100  1
  C  C37  1  0.86182500  0.76550600  0.47350700  1
  C  C38  1  0.56970600  0.46392200  0.20262600  1
  C  C39  1  0.76550600  0.47350700  0.86182500  1
  C  C40  1  0.90137200  0.26353800  0.11394400  1
