# generated using pymatgen
data_CuNi7C8
_symmetry_space_group_name_H-M   'P 1'
_cell_length_a   13.36431300
_cell_length_b   13.36431300
_cell_length_c   13.36431300
_cell_angle_alpha   90.00000000
_cell_angle_beta   90.00000000
_cell_angle_gamma   90.00000000
_symmetry_Int_Tables_number   1
_chemical_formula_structural   CuNi7C8
_chemical_formula_sum   'Cu4 Ni28 C32'
_cell_volume   2386.93127858
_cell_formula_units_Z   4
loop_
 _symmetry_equiv_pos_site_id
 _symmetry_equiv_pos_as_xyz
  1  'x, y, z'
loop_
 _atom_site_type_symbol
 _atom_site_label
 _atom_site_symmetry_multiplicity
 _atom_site_fract_x
 _atom_site_fract_y
 _atom_site_fract_z
 _atom_site_occupancy
  Ni  Ni0  1  0.81324400  0.45853000  0.77290500  1
  Ni  Ni1  1  0.77290500  0.81324400  0.45853000  1
  Ni  Ni2  1  0.18675600  0.95853000  0.72709500  1
  Ni  Ni3  1  0.68675600  0.54147000  0.27290500  1
  Ni  Ni4  1  0.72709500  0.18675600  0.95853000  1
  Ni  Ni5  1  0.54147000  0.27290500  0.68675600  1
  Ni  Ni6  1  0.95853000  0.72709500  0.18675600  1
  Ni  Ni7  1  0.45853000  0.77290500  0.81324400  1
  Ni  Ni8  1  0.95853000  0.77290500  0.68675600  1
  Ni  Ni9  1  0.68675600  0.95853000  0.77290500  1
  Ni  Ni10  1  0.77290500  0.68675600  0.95853000  1
  Ni  Ni11  1  0.72709500  0.31324400  0.45853000  1
  Ni  Ni12  1  0.27290500  0.68675600  0.54147000  1
  Ni  Ni13  1  0.22709500  0.18675600  0.54147000  1
  Ni  Ni14  1  0.81324400  0.04147000  0.27290500  1
  Ni  Ni15  1  0.31324400  0.45853000  0.72709500  1
  Ni  Ni16  1  0.27290500  0.81324400  0.04147000  1
  Ni  Ni17  1  0.45853000  0.72709500  0.31324400  1
  Ni  Ni18  1  0.04147000  0.27290500  0.81324400  1
  Ni  Ni19  1  0.54147000  0.22709500  0.18675600  1
  Ni  Ni20  1  0.00000000  0.00000000  0.00000000  1
  Ni  Ni21  1  0.50000000  0.00000000  0.50000000  1
  Ni  Ni22  1  0.50000000  0.50000000  0.00000000  1
  Ni  Ni23  1  0.00000000  0.50000000  0.50000000  1
  Ni  Ni24  1  0.22709500  0.31324400  0.04147000  1
  Ni  Ni25  1  0.31324400  0.04147000  0.22709500  1
  Ni  Ni26  1  0.04147000  0.22709500  0.31324400  1
  Ni  Ni27  1  0.18675600  0.54147000  0.22709500  1
  Cu  Cu28  1  0.50000000  0.00000000  0.00000000  1
  Cu  Cu29  1  0.00000000  0.50000000  0.00000000  1
  Cu  Cu30  1  0.00000000  0.00000000  0.50000000  1
  Cu  Cu31  1  0.50000000  0.50000000  0.50000000  1
  C  C32  1  0.70138000  0.70138000  0.70138000  1
  C  C33  1  0.79862000  0.29862000  0.20138000  1
  C  C34  1  0.20138000  0.79862000  0.29862000  1
  C  C35  1  0.29862000  0.20138000  0.79862000  1
  C  C36  1  0.20537900  0.92572000  0.44324000  1
  C  C37  1  0.44324000  0.20537900  0.92572000  1
  C  C38  1  0.92572000  0.44324000  0.20537900  1
  C  C39  1  0.57428000  0.55676000  0.70537900  1
  C  C40  1  0.94324000  0.29462100  0.07428000  1
  C  C41  1  0.07428000  0.94324000  0.29462100  1
  C  C42  1  0.05676000  0.79462100  0.42572000  1
  C  C43  1  0.55676000  0.70537900  0.57428000  1
  C  C44  1  0.42572000  0.05676000  0.79462100  1
  C  C45  1  0.70138000  0.79862000  0.20138000  1
  C  C46  1  0.79462100  0.42572000  0.05676000  1
  C  C47  1  0.29462100  0.07428000  0.94324000  1
  C  C48  1  0.79462100  0.07428000  0.55676000  1
  C  C49  1  0.55676000  0.79462100  0.07428000  1
  C  C50  1  0.07428000  0.55676000  0.79462100  1
  C  C51  1  0.42572000  0.44324000  0.29462100  1
  C  C52  1  0.05676000  0.70537900  0.92572000  1
  C  C53  1  0.92572000  0.05676000  0.70537900  1
  C  C54  1  0.94324000  0.20537900  0.57428000  1
  C  C55  1  0.44324000  0.29462100  0.42572000  1
  C  C56  1  0.57428000  0.94324000  0.20537900  1
  C  C57  1  0.29462100  0.42572000  0.44324000  1
  C  C58  1  0.20537900  0.57428000  0.94324000  1
  C  C59  1  0.70537900  0.92572000  0.05676000  1
  C  C60  1  0.79862000  0.20138000  0.70138000  1
  C  C61  1  0.20138000  0.70138000  0.79862000  1
  C  C62  1  0.70537900  0.57428000  0.55676000  1
  C  C63  1  0.29862000  0.29862000  0.29862000  1
