# generated using pymatgen
data_Cu13NiC4
_symmetry_space_group_name_H-M   'P 1'
_cell_length_a   8.31426600
_cell_length_b   12.92535300
_cell_length_c   13.37027600
_cell_angle_alpha   90.00000000
_cell_angle_beta   90.00000000
_cell_angle_gamma   90.00000000
_symmetry_Int_Tables_number   1
_chemical_formula_structural   Cu13NiC4
_chemical_formula_sum   'Cu52 Ni4 C16'
_cell_volume   1436.83434361
_cell_formula_units_Z   4
loop_
 _symmetry_equiv_pos_site_id
 _symmetry_equiv_pos_as_xyz
  1  'x, y, z'
loop_
 _atom_site_type_symbol
 _atom_site_label
 _atom_site_symmetry_multiplicity
 _atom_site_fract_x
 _atom_site_fract_y
 _atom_site_fract_z
 _atom_site_occupancy
  C  C0  1  0.31323900  0.22345500  0.75000000  1
  C  C1  1  0.68676100  0.77654500  0.25000000  1
  C  C2  1  0.31323900  0.27654500  0.25000000  1
  C  C3  1  0.68676100  0.72345500  0.75000000  1
  C  C4  1  0.45403200  0.25000000  0.50000000  1
  C  C5  1  0.54596800  0.75000000  0.00000000  1
  C  C6  1  0.54596800  0.75000000  0.50000000  1
  C  C7  1  0.45403200  0.25000000  0.00000000  1
  C  C8  1  0.61689300  0.52219700  0.60180200  1
  C  C9  1  0.38310700  0.47780300  0.10180200  1
  C  C10  1  0.61689300  0.97780300  0.39819800  1
  C  C11  1  0.38310700  0.02219700  0.89819800  1
  C  C12  1  0.38310700  0.47780300  0.39819800  1
  C  C13  1  0.61689300  0.52219700  0.89819800  1
  C  C14  1  0.38310700  0.02219700  0.60180200  1
  C  C15  1  0.61689300  0.97780300  0.10180200  1
  Ni  Ni16  1  0.96646100  0.44223600  0.75000000  1
  Ni  Ni17  1  0.03353900  0.55776400  0.25000000  1
  Ni  Ni18  1  0.96646100  0.05776400  0.25000000  1
  Ni  Ni19  1  0.03353900  0.94223600  0.75000000  1
  Cu  Cu20  1  0.53825300  0.28950000  0.66672400  1
  Cu  Cu21  1  0.46174700  0.71050000  0.16672400  1
  Cu  Cu22  1  0.53825300  0.21050000  0.33327600  1
  Cu  Cu23  1  0.46174700  0.78950000  0.83327600  1
  Cu  Cu24  1  0.46174700  0.71050000  0.33327600  1
  Cu  Cu25  1  0.53825300  0.28950000  0.83327600  1
  Cu  Cu26  1  0.46174700  0.78950000  0.66672400  1
  Cu  Cu27  1  0.53825300  0.21050000  0.16672400  1
  Cu  Cu28  1  0.44166900  0.59632100  0.51211900  1
  Cu  Cu29  1  0.55833100  0.40367900  0.01211900  1
  Cu  Cu30  1  0.44166900  0.90367900  0.48788100  1
  Cu  Cu31  1  0.55833100  0.09632100  0.98788100  1
  Cu  Cu32  1  0.55833100  0.40367900  0.48788100  1
  Cu  Cu33  1  0.44166900  0.59632100  0.98788100  1
  Cu  Cu34  1  0.55833100  0.09632100  0.51211900  1
  Cu  Cu35  1  0.44166900  0.90367900  0.01211900  1
  Cu  Cu36  1  0.76108500  0.40049000  0.75000000  1
  Cu  Cu37  1  0.23891500  0.59951000  0.25000000  1
  Cu  Cu38  1  0.76108500  0.09951000  0.25000000  1
  Cu  Cu39  1  0.23891500  0.90049000  0.75000000  1
  Cu  Cu40  1  0.09147800  0.32764100  0.75000000  1
  Cu  Cu41  1  0.90852200  0.67235900  0.25000000  1
  Cu  Cu42  1  0.09147800  0.17235900  0.25000000  1
  Cu  Cu43  1  0.90852200  0.82764100  0.75000000  1
  Cu  Cu44  1  0.57516700  0.57631400  0.75000000  1
  Cu  Cu45  1  0.42483300  0.42368600  0.25000000  1
  Cu  Cu46  1  0.57516700  0.92368600  0.25000000  1
  Cu  Cu47  1  0.42483300  0.07631400  0.75000000  1
  Cu  Cu48  1  0.45208300  0.37624200  0.67374100  1
  Cu  Cu49  1  0.54791700  0.62375800  0.17374100  1
  Cu  Cu50  1  0.45208300  0.12375800  0.32625900  1
  Cu  Cu51  1  0.54791700  0.87624200  0.82625900  1
  Cu  Cu52  1  0.54791700  0.62375800  0.32625900  1
  Cu  Cu53  1  0.45208300  0.37624200  0.82625900  1
  Cu  Cu54  1  0.54791700  0.87624200  0.67374100  1
  Cu  Cu55  1  0.45208300  0.12375800  0.17374100  1
  Cu  Cu56  1  0.71787000  0.67709800  0.59643100  1
  Cu  Cu57  1  0.28213000  0.32290200  0.09643100  1
  Cu  Cu58  1  0.71787000  0.82290200  0.40356900  1
  Cu  Cu59  1  0.28213000  0.17709800  0.90356900  1
  Cu  Cu60  1  0.28213000  0.32290200  0.40356900  1
  Cu  Cu61  1  0.71787000  0.67709800  0.90356900  1
  Cu  Cu62  1  0.28213000  0.17709800  0.59643100  1
  Cu  Cu63  1  0.71787000  0.82290200  0.09643100  1
  Cu  Cu64  1  0.98102900  0.51602700  0.63660000  1
  Cu  Cu65  1  0.01897100  0.48397300  0.13660000  1
  Cu  Cu66  1  0.98102900  0.98397300  0.36340000  1
  Cu  Cu67  1  0.01897100  0.01602700  0.86340000  1
  Cu  Cu68  1  0.01897100  0.48397300  0.36340000  1
  Cu  Cu69  1  0.98102900  0.51602700  0.86340000  1
  Cu  Cu70  1  0.01897100  0.01602700  0.63660000  1
  Cu  Cu71  1  0.98102900  0.98397300  0.13660000  1
