# generated using pymatgen
data_Cu13Ni8C9
_symmetry_space_group_name_H-M   'P 1'
_cell_length_a   9.03202509
_cell_length_b   13.96920155
_cell_length_c   16.75753654
_cell_angle_alpha   90.00000000
_cell_angle_beta   90.00000000
_cell_angle_gamma   90.00000000
_symmetry_Int_Tables_number   1
_chemical_formula_structural   Cu13Ni8C9
_chemical_formula_sum   'Cu52 Ni32 C36'
_cell_volume   2114.30138296
_cell_formula_units_Z   4
loop_
 _symmetry_equiv_pos_site_id
 _symmetry_equiv_pos_as_xyz
  1  'x, y, z'
loop_
 _atom_site_type_symbol
 _atom_site_label
 _atom_site_symmetry_multiplicity
 _atom_site_fract_x
 _atom_site_fract_y
 _atom_site_fract_z
 _atom_site_occupancy
  C  C0  1  0.00292414  0.63551676  0.55844642  1
  C  C1  1  0.49707586  0.86448324  0.05844642  1
  C  C2  1  0.50292414  0.36448324  0.44155358  1
  C  C3  1  0.99707586  0.13551676  0.94155358  1
  C  C4  1  0.99707586  0.36448324  0.44155358  1
  C  C5  1  0.50292414  0.13551676  0.94155358  1
  C  C6  1  0.49707586  0.63551676  0.55844642  1
  C  C7  1  0.00292414  0.86448324  0.05844642  1
  C  C8  1  0.25000000  0.70500171  0.76802696  1
  C  C9  1  0.25000000  0.79499829  0.26802696  1
  C  C10  1  0.75000000  0.29499829  0.23197304  1
  C  C11  1  0.75000000  0.20500171  0.73197304  1
  C  C12  1  0.25000000  0.14121096  0.52220535  1
  C  C13  1  0.25000000  0.35878904  0.02220535  1
  C  C14  1  0.75000000  0.85878904  0.47779465  1
  C  C15  1  0.75000000  0.64121096  0.97779465  1
  C  C16  1  0.99724641  0.43505251  0.81753446  1
  C  C17  1  0.50275359  0.06494749  0.31753446  1
  C  C18  1  0.49724641  0.56494749  0.18246554  1
  C  C19  1  0.00275359  0.93505251  0.68246554  1
  C  C20  1  0.00275359  0.56494749  0.18246554  1
  C  C21  1  0.49724641  0.93505251  0.68246554  1
  C  C22  1  0.50275359  0.43505251  0.81753446  1
  C  C23  1  0.99724641  0.06494749  0.31753446  1
  C  C24  1  0.25000000  0.85506561  0.49813962  1
  C  C25  1  0.25000000  0.64493439  0.99813962  1
  C  C26  1  0.75000000  0.14493439  0.50186038  1
  C  C27  1  0.75000000  0.35506561  0.00186038  1
  C  C28  1  0.25000000  0.43073966  0.61899995  1
  C  C29  1  0.25000000  0.06926034  0.11899995  1
  C  C30  1  0.75000000  0.56926034  0.38100005  1
  C  C31  1  0.75000000  0.93073966  0.88100005  1
  C  C32  1  0.25000000  0.21978517  0.76761905  1
  C  C33  1  0.25000000  0.28021483  0.26761905  1
  C  C34  1  0.75000000  0.78021483  0.23238095  1
  C  C35  1  0.75000000  0.71978517  0.73238095  1
  Ni  Ni36  1  0.66707292  0.05987536  0.58612115  1
  Ni  Ni37  1  0.83292708  0.44012464  0.08612115  1
  Ni  Ni38  1  0.16707292  0.94012464  0.41387885  1
  Ni  Ni39  1  0.33292708  0.55987536  0.91387885  1
  Ni  Ni40  1  0.33292708  0.94012464  0.41387885  1
  Ni  Ni41  1  0.16707292  0.55987536  0.91387885  1
  Ni  Ni42  1  0.83292708  0.05987536  0.58612115  1
  Ni  Ni43  1  0.66707292  0.44012464  0.08612115  1
  Ni  Ni44  1  0.66810963  0.02841787  0.80313882  1
  Ni  Ni45  1  0.83189037  0.47158213  0.30313882  1
  Ni  Ni46  1  0.16810963  0.97158213  0.19686118  1
  Ni  Ni47  1  0.33189037  0.52841787  0.69686118  1
  Ni  Ni48  1  0.33189037  0.97158213  0.19686118  1
  Ni  Ni49  1  0.16810963  0.52841787  0.69686118  1
  Ni  Ni50  1  0.83189037  0.02841787  0.80313882  1
  Ni  Ni51  1  0.66810963  0.47158213  0.30313882  1
  Ni  Ni52  1  0.16962928  0.12594730  0.68630099  1
  Ni  Ni53  1  0.33037072  0.37405270  0.18630099  1
  Ni  Ni54  1  0.66962928  0.87405270  0.31369901  1
  Ni  Ni55  1  0.83037072  0.62594730  0.81369901  1
  Ni  Ni56  1  0.83037072  0.87405270  0.31369901  1
  Ni  Ni57  1  0.66962928  0.62594730  0.81369901  1
  Ni  Ni58  1  0.33037072  0.12594730  0.68630099  1
  Ni  Ni59  1  0.16962928  0.37405270  0.18630099  1
  Ni  Ni60  1  0.25000000  0.32871220  0.69755022  1
  Ni  Ni61  1  0.25000000  0.17128780  0.19755022  1
  Ni  Ni62  1  0.75000000  0.67128780  0.30244978  1
  Ni  Ni63  1  0.75000000  0.82871220  0.80244978  1
  Ni  Ni64  1  0.25000000  0.59752885  0.28366353  1
  Ni  Ni65  1  0.25000000  0.90247115  0.78366353  1
  Ni  Ni66  1  0.75000000  0.40247115  0.71633647  1
  Ni  Ni67  1  0.75000000  0.09752885  0.21633647  1
  Cu  Cu68  1  0.25000000  0.73717210  0.09159983  1
  Cu  Cu69  1  0.25000000  0.76282790  0.59159983  1
  Cu  Cu70  1  0.75000000  0.26282790  0.90840017  1
  Cu  Cu71  1  0.75000000  0.23717210  0.40840017  1
  Cu  Cu72  1  0.25000000  0.95671132  0.58037865  1
  Cu  Cu73  1  0.25000000  0.54328868  0.08037865  1
  Cu  Cu74  1  0.75000000  0.04328868  0.41962135  1
  Cu  Cu75  1  0.75000000  0.45671132  0.91962135  1
  Cu  Cu76  1  0.25000000  0.75669220  0.93082517  1
  Cu  Cu77  1  0.25000000  0.74330780  0.43082517  1
  Cu  Cu78  1  0.75000000  0.24330780  0.06917483  1
  Cu  Cu79  1  0.75000000  0.25669220  0.56917483  1
  Cu  Cu80  1  0.53279450  0.34032694  0.98012928  1
  Cu  Cu81  1  0.96720550  0.15967306  0.48012928  1
  Cu  Cu82  1  0.03279450  0.65967306  0.01987072  1
  Cu  Cu83  1  0.46720550  0.84032694  0.51987072  1
  Cu  Cu84  1  0.46720550  0.65967306  0.01987072  1
  Cu  Cu85  1  0.03279450  0.84032694  0.51987072  1
  Cu  Cu86  1  0.96720550  0.34032694  0.98012928  1
  Cu  Cu87  1  0.53279450  0.15967306  0.48012928  1
  Cu  Cu88  1  0.25000000  0.33122127  0.53088692  1
  Cu  Cu89  1  0.25000000  0.16877873  0.03088692  1
  Cu  Cu90  1  0.75000000  0.66877873  0.46911308  1
  Cu  Cu91  1  0.75000000  0.83122127  0.96911308  1
  Cu  Cu92  1  0.25000000  0.52921491  0.53349697  1
  Cu  Cu93  1  0.25000000  0.97078509  0.03349697  1
  Cu  Cu94  1  0.75000000  0.47078509  0.46650303  1
  Cu  Cu95  1  0.75000000  0.02921491  0.96650303  1
  Cu  Cu96  1  0.03517913  0.41996341  0.59617086  1
  Cu  Cu97  1  0.46482087  0.08003659  0.09617086  1
  Cu  Cu98  1  0.53517913  0.58003659  0.40382914  1
  Cu  Cu99  1  0.96482087  0.91996341  0.90382914  1
  Cu  Cu100  1  0.96482087  0.58003659  0.40382914  1
  Cu  Cu101  1  0.53517913  0.91996341  0.90382914  1
  Cu  Cu102  1  0.46482087  0.41996341  0.59617086  1
  Cu  Cu103  1  0.03517913  0.08003659  0.09617086  1
  Cu  Cu104  1  0.25000000  0.12048301  0.85109576  1
  Cu  Cu105  1  0.25000000  0.37951699  0.35109576  1
  Cu  Cu106  1  0.75000000  0.87951699  0.14890424  1
  Cu  Cu107  1  0.75000000  0.62048301  0.64890424  1
  Cu  Cu108  1  0.25000000  0.31380515  0.86015026  1
  Cu  Cu109  1  0.25000000  0.18619485  0.36015026  1
  Cu  Cu110  1  0.75000000  0.68619485  0.13984974  1
  Cu  Cu111  1  0.75000000  0.81380515  0.63984974  1
  Cu  Cu112  1  0.03149107  0.23483421  0.78765541  1
  Cu  Cu113  1  0.46850893  0.26516579  0.28765541  1
  Cu  Cu114  1  0.53149107  0.76516579  0.21234459  1
  Cu  Cu115  1  0.96850893  0.73483421  0.71234459  1
  Cu  Cu116  1  0.96850893  0.76516579  0.21234459  1
  Cu  Cu117  1  0.53149107  0.73483421  0.71234459  1
  Cu  Cu118  1  0.46850893  0.23483421  0.78765541  1
  Cu  Cu119  1  0.03149107  0.26516579  0.28765541  1
