# generated using pymatgen
data_CuNi2C13
_symmetry_space_group_name_H-M   'P 1'
_cell_length_a   5.81205100
_cell_length_b   10.14674595
_cell_length_c   5.83116576
_cell_angle_alpha   73.76689240
_cell_angle_beta   119.89145889
_cell_angle_gamma   89.99988978
_symmetry_Int_Tables_number   1
_chemical_formula_structural   CuNi2C13
_chemical_formula_sum   'Cu2 Ni4 C26'
_cell_volume   282.21358505
_cell_formula_units_Z   2
loop_
 _symmetry_equiv_pos_site_id
 _symmetry_equiv_pos_as_xyz
  1  'x, y, z'
loop_
 _atom_site_type_symbol
 _atom_site_label
 _atom_site_symmetry_multiplicity
 _atom_site_fract_x
 _atom_site_fract_y
 _atom_site_fract_z
 _atom_site_occupancy
  C  C0  1  0.50000000  0.99999600  0.00000400  1
  C  C1  1  0.99999700  0.50000400  0.99999800  1
  C  C2  1  0.00000000  0.99999400  0.00000400  1
  C  C3  1  0.49999800  0.50000500  0.99999900  1
  C  C4  1  0.24999300  0.25000100  0.49999900  1
  C  C5  1  0.75000400  0.75000000  0.50000100  1
  C  C6  1  0.00000000  0.99999100  0.50000600  1
  C  C7  1  0.49999600  0.50000900  0.49999400  1
  C  C8  1  0.50000200  0.99999100  0.50000500  1
  C  C9  1  0.99999300  0.50000900  0.49999400  1
  Ni  Ni10  1  0.24999900  0.74999700  0.99998400  1
  Ni  Ni11  1  0.74999900  0.75000500  0.99999900  1
  Ni  Ni12  1  0.75000700  0.25000300  0.00002400  1
  Ni  Ni13  1  0.25001000  0.24999700  0.00000200  1
  Cu  Cu14  1  0.25000700  0.75000100  0.49998400  1
  Cu  Cu15  1  0.74999500  0.24999500  0.50000700  1
  C  C16  1  0.61531800  0.13809600  0.23064800  1
  C  C17  1  0.11531800  0.63810300  0.23062600  1
  C  C18  1  0.88467400  0.36190600  0.76935400  1
  C  C19  1  0.38468500  0.86189400  0.76936300  1
  C  C20  1  0.11128500  0.13892400  0.22257000  1
  C  C21  1  0.61127700  0.63892800  0.22255600  1
  C  C22  1  0.38871200  0.36107900  0.77742700  1
  C  C23  1  0.88872000  0.86107400  0.77744400  1
  C  C24  1  0.12107500  0.13725200  0.75721200  1
  C  C25  1  0.62108800  0.63725200  0.75721800  1
  C  C26  1  0.63612700  0.13724800  0.75721700  1
  C  C27  1  0.13614800  0.63725600  0.75721400  1
  C  C28  1  0.37892000  0.36274900  0.24279000  1
  C  C29  1  0.87892900  0.86274600  0.24278400  1
  C  C30  1  0.86386000  0.36274700  0.24279200  1
  C  C31  1  0.36386400  0.86274900  0.24277800  1
