# generated using pymatgen
data_Cu6Ni16C15
_symmetry_space_group_name_H-M   'P 1'
_cell_length_a   15.59564945
_cell_length_b   15.59564945
_cell_length_c   15.95755984
_cell_angle_alpha   119.25255982
_cell_angle_beta   119.25255982
_cell_angle_gamma   90.00000000
_symmetry_Int_Tables_number   1
_chemical_formula_structural   Cu6Ni16C15
_chemical_formula_sum   'Cu48 Ni128 C120'
_cell_volume   2805.33219531
_cell_formula_units_Z   8
loop_
 _symmetry_equiv_pos_site_id
 _symmetry_equiv_pos_as_xyz
  1  'x, y, z'
loop_
 _atom_site_type_symbol
 _atom_site_label
 _atom_site_symmetry_multiplicity
 _atom_site_fract_x
 _atom_site_fract_y
 _atom_site_fract_z
 _atom_site_occupancy
  C  C0  1  0.75000000  0.58151469  -0.00000000  1
  C  C1  1  0.75000000  0.08151469  -0.00000000  1
  C  C2  1  0.91848531  0.25000000  0.50000000  1
  C  C3  1  0.08151469  0.75000000  0.50000000  1
  C  C4  1  0.25000000  0.41848531  0.00000000  1
  C  C5  1  0.25000000  0.91848531  -0.00000000  1
  C  C6  1  0.41848531  0.25000000  0.50000000  1
  C  C7  1  0.58151469  0.75000000  0.50000000  1
  Ni  Ni8  1  0.69398784  0.73725986  0.98788673  1
  Ni  Ni9  1  0.79389890  0.23725986  0.98788673  1
  Ni  Ni10  1  0.75062688  0.29389890  0.48788673  1
  Ni  Ni11  1  0.23725986  0.79389890  0.48788673  1
  Ni  Ni12  1  0.30601216  0.26274014  0.01211327  1
  Ni  Ni13  1  0.20610110  0.76274014  0.01211327  1
  Ni  Ni14  1  0.24937312  0.70610110  0.51211327  1
  Ni  Ni15  1  0.76274014  0.20610110  0.51211327  1
  Ni  Ni16  1  0.19398784  0.25062688  0.98788673  1
  Ni  Ni17  1  0.29389890  0.75062688  0.98788673  1
  Ni  Ni18  1  0.25062688  0.19398784  0.48788673  1
  Ni  Ni19  1  0.73725986  0.69398784  0.48788673  1
  Ni  Ni20  1  0.80601216  0.74937312  0.01211327  1
  Ni  Ni21  1  0.70610110  0.24937312  0.01211327  1
  Ni  Ni22  1  0.74937312  0.80601216  0.51211327  1
  Ni  Ni23  1  0.26274014  0.30601216  0.51211327  1
  Ni  Ni24  1  0.57838754  0.60373166  0.98466438  1
  Ni  Ni25  1  0.90627684  0.10373166  0.98466438  1
  Ni  Ni26  1  0.88093272  0.40627684  0.48466438  1
  Ni  Ni27  1  0.10373166  0.90627684  0.48466438  1
  Ni  Ni28  1  0.42161246  0.39626834  0.01533562  1
  Ni  Ni29  1  0.09372316  0.89626834  0.01533562  1
  Ni  Ni30  1  0.11906728  0.59372316  0.51533562  1
  Ni  Ni31  1  0.89626834  0.09372316  0.51533562  1
  Ni  Ni32  1  0.07838754  0.38093272  0.98466438  1
  Ni  Ni33  1  0.40627684  0.88093272  0.98466438  1
  Ni  Ni34  1  0.38093272  0.07838754  0.48466438  1
  Ni  Ni35  1  0.60373166  0.57838754  0.48466438  1
  Ni  Ni36  1  0.92161246  0.61906728  0.01533562  1
  Ni  Ni37  1  0.59372316  0.11906728  0.01533562  1
  Ni  Ni38  1  0.61906728  0.92161246  0.51533562  1
  Ni  Ni39  1  0.39626834  0.42161246  0.51533562  1
  Ni  Ni40  1  0.55254060  0.48427461  0.88679511  1
  Ni  Ni41  1  0.83425451  0.98427461  0.88679511  1
  Ni  Ni42  1  0.90252050  0.33425451  0.38679511  1
  Ni  Ni43  1  0.98427461  0.83425451  0.38679511  1
  Ni  Ni44  1  0.44745940  0.51572539  0.11320489  1
  Ni  Ni45  1  0.16574549  0.01572539  0.11320489  1
  Ni  Ni46  1  0.09747950  0.66574549  0.61320489  1
  Ni  Ni47  1  0.01572539  0.16574549  0.61320489  1
  Ni  Ni48  1  0.05254060  0.40252050  0.88679511  1
  Ni  Ni49  1  0.33425451  0.90252050  0.88679511  1
  Ni  Ni50  1  0.40252050  0.05254060  0.38679511  1
  Ni  Ni51  1  0.48427461  0.55254060  0.38679511  1
  Ni  Ni52  1  0.94745940  0.59747950  0.11320489  1
  Ni  Ni53  1  0.66574549  0.09747950  0.11320489  1
  Ni  Ni54  1  0.59747950  0.94745940  0.61320489  1
  Ni  Ni55  1  0.51572539  0.44745940  0.61320489  1
  Ni  Ni56  1  0.76602971  0.62340595  0.18555130  1
  Ni  Ni57  1  0.91952159  0.12340595  0.18555130  1
  Ni  Ni58  1  0.06214534  0.41952159  0.68555130  1
  Ni  Ni59  1  0.12340595  0.91952159  0.68555130  1
  Ni  Ni60  1  0.23397029  0.37659405  0.81444870  1
  Ni  Ni61  1  0.08047841  0.87659405  0.81444870  1
  Ni  Ni62  1  0.93785466  0.58047841  0.31444870  1
  Ni  Ni63  1  0.87659405  0.08047841  0.31444870  1
  Ni  Ni64  1  0.26602971  0.56214534  0.18555130  1
  Ni  Ni65  1  0.41952159  0.06214534  0.18555130  1
  Ni  Ni66  1  0.56214534  0.26602971  0.68555130  1
  Ni  Ni67  1  0.62340595  0.76602971  0.68555130  1
  Ni  Ni68  1  0.73397029  0.43785466  0.81444870  1
  Ni  Ni69  1  0.58047841  0.93785466  0.81444870  1
  Ni  Ni70  1  0.43785466  0.73397029  0.31444870  1
  Ni  Ni71  1  0.37659405  0.23397029  0.31444870  1
  Ni  Ni72  1  0.81590841  0.73408386  0.20895828  1
  Ni  Ni73  1  0.89304987  0.23408386  0.20895828  1
  Ni  Ni74  1  0.97487442  0.39304987  0.70895828  1
  Ni  Ni75  1  0.23408386  0.89304987  0.70895828  1
  Ni  Ni76  1  0.18409159  0.26591614  0.79104172  1
  Ni  Ni77  1  0.10695013  0.76591614  0.79104172  1
  Ni  Ni78  1  0.02512558  0.60695013  0.29104172  1
  Ni  Ni79  1  0.76591614  0.10695013  0.29104172  1
  Ni  Ni80  1  0.31590841  0.47487442  0.20895828  1
  Ni  Ni81  1  0.39304987  0.97487442  0.20895828  1
  Ni  Ni82  1  0.47487442  0.31590841  0.70895828  1
  Ni  Ni83  1  0.73408386  0.81590841  0.70895828  1
  Ni  Ni84  1  0.68409159  0.52512558  0.79104172  1
  Ni  Ni85  1  0.60695013  0.02512558  0.79104172  1
  Ni  Ni86  1  0.52512558  0.68409159  0.29104172  1
  Ni  Ni87  1  0.26591614  0.18409159  0.29104172  1
  Ni  Ni88  1  0.80026624  0.41794221  0.99911485  1
  Ni  Ni89  1  0.69884861  0.91794221  0.99911485  1
  Ni  Ni90  1  0.08117264  0.19884861  0.49911485  1
  Ni  Ni91  1  0.91794221  0.69884861  0.49911485  1
  Ni  Ni92  1  0.19973376  0.58205779  0.00088515  1
  Ni  Ni93  1  0.30115139  0.08205779  0.00088515  1
  Ni  Ni94  1  0.91882736  0.80115139  0.50088515  1
  Ni  Ni95  1  0.08205779  0.30115139  0.50088515  1
  Ni  Ni96  1  0.30026624  0.58117264  0.99911485  1
  Ni  Ni97  1  0.19884861  0.08117264  0.99911485  1
  Ni  Ni98  1  0.58117264  0.30026624  0.49911485  1
  Ni  Ni99  1  0.41794221  0.80026624  0.49911485  1
  Ni  Ni100  1  0.69973376  0.41882736  0.00088515  1
  Ni  Ni101  1  0.80115139  0.91882736  0.00088515  1
  Ni  Ni102  1  0.41882736  0.69973376  0.50088515  1
  Ni  Ni103  1  0.58205779  0.19973376  0.50088515  1
  Ni  Ni104  1  0.53441916  0.64637406  0.13963245  1
  Ni  Ni105  1  0.10521329  0.14637406  0.13963245  1
  Ni  Ni106  1  0.99325839  0.60521329  0.63963245  1
  Ni  Ni107  1  0.14637406  0.10521329  0.63963245  1
  Ni  Ni108  1  0.46558084  0.35362594  0.86036755  1
  Ni  Ni109  1  0.89478671  0.85362594  0.86036755  1
  Ni  Ni110  1  0.00674161  0.39478671  0.36036755  1
  Ni  Ni111  1  0.85362594  0.89478671  0.36036755  1
  Ni  Ni112  1  0.03441916  0.49325839  0.13963245  1
  Ni  Ni113  1  0.60521329  0.99325839  0.13963245  1
  Ni  Ni114  1  0.49325839  0.03441916  0.63963245  1
  Ni  Ni115  1  0.64637406  0.53441916  0.63963245  1
  Ni  Ni116  1  0.96558084  0.50674161  0.86036755  1
  Ni  Ni117  1  0.39478671  0.00674161  0.86036755  1
  Ni  Ni118  1  0.50674161  0.96558084  0.36036755  1
  Ni  Ni119  1  0.35362594  0.46558084  0.36036755  1
  Ni  Ni120  1  0.61016989  0.60117977  0.20735877  1
  Ni  Ni121  1  0.09718888  0.10117977  0.20735877  1
  Ni  Ni122  1  0.10617900  0.59718888  0.70735877  1
  Ni  Ni123  1  0.10117977  0.09718888  0.70735877  1
  Ni  Ni124  1  0.38983011  0.39882023  0.79264123  1
  Ni  Ni125  1  0.90281112  0.89882023  0.79264123  1
  Ni  Ni126  1  0.89382100  0.40281112  0.29264123  1
  Ni  Ni127  1  0.89882023  0.90281112  0.29264123  1
  Ni  Ni128  1  0.11016989  0.60617900  0.20735877  1
  Ni  Ni129  1  0.59718888  0.10617900  0.20735877  1
  Ni  Ni130  1  0.60617900  0.11016989  0.70735877  1
  Ni  Ni131  1  0.60117977  0.61016989  0.70735877  1
  Ni  Ni132  1  0.88983011  0.39382100  0.79264123  1
  Ni  Ni133  1  0.40281112  0.89382100  0.79264123  1
  Ni  Ni134  1  0.39382100  0.88983011  0.29264123  1
  Ni  Ni135  1  0.39882023  0.38983011  0.29264123  1
  Cu  Cu136  1  0.18840633  0.81159367  0.25000000  1
  Cu  Cu137  1  0.56159367  0.31159367  0.25000000  1
  Cu  Cu138  1  0.93840633  0.06159367  0.75000000  1
  Cu  Cu139  1  0.31159367  0.56159367  0.75000000  1
  Cu  Cu140  1  0.81159367  0.18840633  0.75000000  1
  Cu  Cu141  1  0.43840633  0.68840633  0.75000000  1
  Cu  Cu142  1  0.06159367  0.93840633  0.25000000  1
  Cu  Cu143  1  0.68840633  0.43840633  0.25000000  1
  Cu  Cu144  1  0.21123936  0.89755902  0.35608767  1
  Cu  Cu145  1  0.64484831  0.39755902  0.35608767  1
  Cu  Cu146  1  0.95852865  0.14484831  0.85608767  1
  Cu  Cu147  1  0.39755902  0.64484831  0.85608767  1
  Cu  Cu148  1  0.78876064  0.10244098  0.64391233  1
  Cu  Cu149  1  0.35515169  0.60244098  0.64391233  1
  Cu  Cu150  1  0.04147135  0.85515169  0.14391233  1
  Cu  Cu151  1  0.60244098  0.35515169  0.14391233  1
  Cu  Cu152  1  0.71123936  0.45852865  0.35608767  1
  Cu  Cu153  1  0.14484831  0.95852865  0.35608767  1
  Cu  Cu154  1  0.45852865  0.71123936  0.85608767  1
  Cu  Cu155  1  0.89755902  0.21123936  0.85608767  1
  Cu  Cu156  1  0.28876064  0.54147135  0.64391233  1
  Cu  Cu157  1  0.85515169  0.04147135  0.64391233  1
  Cu  Cu158  1  0.54147135  0.28876064  0.14391233  1
  Cu  Cu159  1  0.10244098  0.78876064  0.14391233  1
  Cu  Cu160  1  0.30870533  0.92519062  0.46882220  1
  Cu  Cu161  1  0.66011687  0.42519062  0.46882220  1
  Cu  Cu162  1  0.04363157  0.16011687  0.96882220  1
  Cu  Cu163  1  0.42519062  0.66011687  0.96882220  1
  Cu  Cu164  1  0.69129467  0.07480938  0.53117780  1
  Cu  Cu165  1  0.33988313  0.57480938  0.53117780  1
  Cu  Cu166  1  0.95636843  0.83988313  0.03117780  1
  Cu  Cu167  1  0.57480938  0.33988313  0.03117780  1
  Cu  Cu168  1  0.80870533  0.54363157  0.46882220  1
  Cu  Cu169  1  0.16011687  0.04363157  0.46882220  1
  Cu  Cu170  1  0.54363157  0.80870533  0.96882220  1
  Cu  Cu171  1  0.92519062  0.30870533  0.96882220  1
  Cu  Cu172  1  0.19129467  0.45636843  0.53117780  1
  Cu  Cu173  1  0.83988313  0.95636843  0.53117780  1
  Cu  Cu174  1  0.45636843  0.19129467  0.03117780  1
  Cu  Cu175  1  0.07480938  0.69129467  0.03117780  1
  Cu  Cu176  1  0.25694262  0.74305738  0.25000000  1
  Cu  Cu177  1  0.49305738  0.24305738  0.25000000  1
  Cu  Cu178  1  0.00694262  0.99305738  0.75000000  1
  Cu  Cu179  1  0.24305738  0.49305738  0.75000000  1
  Cu  Cu180  1  0.74305738  0.25694262  0.75000000  1
  Cu  Cu181  1  0.50694262  0.75694262  0.75000000  1
  Cu  Cu182  1  0.99305738  0.00694262  0.25000000  1
  Cu  Cu183  1  0.75694262  0.50694262  0.25000000  1
  C  C184  1  0.37205258  0.01607372  0.53610165  1
  C  C185  1  0.66404907  0.51607372  0.53610165  1
  C  C186  1  0.02002792  0.16404907  0.03610165  1
  C  C187  1  0.51607372  0.66404907  0.03610165  1
  C  C188  1  0.62794742  0.98392628  0.46389835  1
  C  C189  1  0.33595093  0.48392628  0.46389835  1
  C  C190  1  0.97997208  0.83595093  0.96389835  1
  C  C191  1  0.48392628  0.33595093  0.96389835  1
  C  C192  1  0.87205258  0.52002792  0.53610165  1
  C  C193  1  0.16404907  0.02002792  0.53610165  1
  C  C194  1  0.52002792  0.87205258  0.03610165  1
  C  C195  1  0.01607372  0.37205258  0.03610165  1
  C  C196  1  0.12794742  0.47997208  0.46389835  1
  C  C197  1  0.83595093  0.97997208  0.46389835  1
  C  C198  1  0.47997208  0.12794742  0.96389835  1
  C  C199  1  0.98392628  0.62794742  0.96389835  1
  C  C200  1  0.32338158  0.85496682  0.48864504  1
  C  C201  1  0.66526346  0.35496682  0.48864504  1
  C  C202  1  0.13367821  0.16526346  0.98864504  1
  C  C203  1  0.35496682  0.66526346  0.98864504  1
  C  C204  1  0.67661842  0.14503318  0.51135496  1
  C  C205  1  0.33473654  0.64503318  0.51135496  1
  C  C206  1  0.86632179  0.83473654  0.01135496  1
  C  C207  1  0.64503318  0.33473654  0.01135496  1
  C  C208  1  0.82338158  0.63367821  0.48864504  1
  C  C209  1  0.16526346  0.13367821  0.48864504  1
  C  C210  1  0.63367821  0.82338158  0.98864504  1
  C  C211  1  0.85496682  0.32338158  0.98864504  1
  C  C212  1  0.17661842  0.36632179  0.51135496  1
  C  C213  1  0.83473654  0.86632179  0.51135496  1
  C  C214  1  0.36632179  0.17661842  0.01135496  1
  C  C215  1  0.14503318  0.67661842  0.01135496  1
  C  C216  1  0.34745432  0.78115046  0.28143227  1
  C  C217  1  0.43397796  0.28115046  0.28143227  1
  C  C218  1  0.00028182  0.93397796  0.78143227  1
  C  C219  1  0.28115046  0.43397796  0.78143227  1
  C  C220  1  0.65254568  0.21884954  0.71856773  1
  C  C221  1  0.56602204  0.71884954  0.71856773  1
  C  C222  1  0.99971818  0.06602204  0.21856773  1
  C  C223  1  0.71884954  0.56602204  0.21856773  1
  C  C224  1  0.84745432  0.50028182  0.28143227  1
  C  C225  1  0.93397796  0.00028182  0.28143227  1
  C  C226  1  0.50028182  0.84745432  0.78143227  1
  C  C227  1  0.78115046  0.34745432  0.78143227  1
  C  C228  1  0.15254568  0.49971818  0.71856773  1
  C  C229  1  0.06602204  0.99971818  0.71856773  1
  C  C230  1  0.49971818  0.15254568  0.21856773  1
  C  C231  1  0.21884954  0.65254568  0.21856773  1
  C  C232  1  0.75000000  0.70371566  -0.00000000  1
  C  C233  1  0.75000000  0.20371566  -0.00000000  1
  C  C234  1  0.79628434  0.25000000  0.50000000  1
  C  C235  1  0.20371566  0.75000000  0.50000000  1
  C  C236  1  0.25000000  0.29628434  0.00000000  1
  C  C237  1  0.25000000  0.79628434  -0.00000000  1
  C  C238  1  0.29628434  0.25000000  0.50000000  1
  C  C239  1  0.70371566  0.75000000  0.50000000  1
  C  C240  1  0.60669451  0.55451432  0.94214828  1
  C  C241  1  0.83545377  0.05451432  0.94214828  1
  C  C242  1  0.88763396  0.33545377  0.44214828  1
  C  C243  1  0.05451432  0.83545377  0.44214828  1
  C  C244  1  0.39330549  0.44548568  0.05785172  1
  C  C245  1  0.16454623  0.94548568  0.05785172  1
  C  C246  1  0.11236604  0.66454623  0.55785172  1
  C  C247  1  0.94548568  0.16454623  0.55785172  1
  C  C248  1  0.10669451  0.38763396  0.94214828  1
  C  C249  1  0.33545377  0.88763396  0.94214828  1
  C  C250  1  0.38763396  0.10669451  0.44214828  1
  C  C251  1  0.55451432  0.60669451  0.44214828  1
  C  C252  1  0.89330549  0.61236604  0.05785172  1
  C  C253  1  0.66454623  0.11236604  0.05785172  1
  C  C254  1  0.61236604  0.89330549  0.55785172  1
  C  C255  1  0.44548568  0.39330549  0.55785172  1
  C  C256  1  0.78471034  0.65667883  0.15320824  1
  C  C257  1  0.86849789  0.15667883  0.15320824  1
  C  C258  1  0.99652941  0.36849789  0.65320824  1
  C  C259  1  0.15667883  0.86849789  0.65320824  1
  C  C260  1  0.21528966  0.34332117  0.84679176  1
  C  C261  1  0.13150211  0.84332117  0.84679176  1
  C  C262  1  0.00347059  0.63150211  0.34679176  1
  C  C263  1  0.84332117  0.13150211  0.34679176  1
  C  C264  1  0.28471034  0.49652941  0.15320824  1
  C  C265  1  0.36849789  0.99652941  0.15320824  1
  C  C266  1  0.49652941  0.28471034  0.65320824  1
  C  C267  1  0.65667883  0.78471034  0.65320824  1
  C  C268  1  0.71528966  0.50347059  0.84679176  1
  C  C269  1  0.63150211  0.00347059  0.84679176  1
  C  C270  1  0.50347059  0.71528966  0.34679176  1
  C  C271  1  0.34332117  0.21528966  0.34679176  1
  C  C272  1  0.75000000  0.45766112  -0.00000000  1
  C  C273  1  0.75000000  0.95766112  -0.00000000  1
  C  C274  1  0.04233888  0.25000000  0.50000000  1
  C  C275  1  0.95766112  0.75000000  0.50000000  1
  C  C276  1  0.25000000  0.54233888  0.00000000  1
  C  C277  1  0.25000000  0.04233888  0.00000000  1
  C  C278  1  0.54233888  0.25000000  0.50000000  1
  C  C279  1  0.45766112  0.75000000  0.50000000  1
  C  C280  1  0.54523543  0.62051920  0.18967247  1
  C  C281  1  0.14443705  0.12051920  0.18967247  1
  C  C282  1  0.06915328  0.64443705  0.68967247  1
  C  C283  1  0.12051920  0.14443705  0.68967247  1
  C  C284  1  0.45476457  0.37948080  0.81032753  1
  C  C285  1  0.85556295  0.87948080  0.81032753  1
  C  C286  1  0.93084672  0.35556295  0.31032753  1
  C  C287  1  0.87948080  0.85556295  0.31032753  1
  C  C288  1  0.04523543  0.56915328  0.18967247  1
  C  C289  1  0.64443705  0.06915328  0.18967247  1
  C  C290  1  0.56915328  0.04523543  0.68967247  1
  C  C291  1  0.62051920  0.54523543  0.68967247  1
  C  C292  1  0.95476457  0.43084672  0.81032753  1
  C  C293  1  0.35556295  0.93084672  0.81032753  1
  C  C294  1  0.43084672  0.95476457  0.31032753  1
  C  C295  1  0.37948080  0.45476457  0.31032753  1
