# generated using pymatgen
data_CuNiC2
_symmetry_space_group_name_H-M   'P 1'
_cell_length_a   3.95412700
_cell_length_b   5.89159100
_cell_length_c   8.20955900
_cell_angle_alpha   90.00000000
_cell_angle_beta   90.00000000
_cell_angle_gamma   90.00000000
_symmetry_Int_Tables_number   1
_chemical_formula_structural   CuNiC2
_chemical_formula_sum   'Cu2 Ni2 C4'
_cell_volume   191.25069959
_cell_formula_units_Z   2
loop_
 _symmetry_equiv_pos_site_id
 _symmetry_equiv_pos_as_xyz
  1  'x, y, z'
loop_
 _atom_site_type_symbol
 _atom_site_label
 _atom_site_symmetry_multiplicity
 _atom_site_fract_x
 _atom_site_fract_y
 _atom_site_fract_z
 _atom_site_occupancy
  C  C0  1  0.00000000  0.13367100  0.68103500  1
  C  C1  1  0.00000000  0.86632900  0.18103500  1
  C  C2  1  0.50000000  0.36259900  0.31972400  1
  C  C3  1  0.50000000  0.63740100  0.81972400  1
  Ni  Ni4  1  0.50000000  0.88007500  0.46273100  1
  Ni  Ni5  1  0.50000000  0.11992500  0.96273100  1
  Cu  Cu6  1  0.00000000  0.62209200  0.53651000  1
  Cu  Cu7  1  0.00000000  0.37790800  0.03651000  1
