# generated using pymatgen
data_Cu2NiC8
_symmetry_space_group_name_H-M   'P 1'
_cell_length_a   4.12855296
_cell_length_b   4.06388985
_cell_length_c   8.22608000
_cell_angle_alpha   90.00000000
_cell_angle_beta   90.00000000
_cell_angle_gamma   90.25023345
_symmetry_Int_Tables_number   1
_chemical_formula_structural   Cu2NiC8
_chemical_formula_sum   'Cu2 Ni1 C8'
_cell_volume   138.01572640
_cell_formula_units_Z   1
loop_
 _symmetry_equiv_pos_site_id
 _symmetry_equiv_pos_as_xyz
  1  'x, y, z'
loop_
 _atom_site_type_symbol
 _atom_site_label
 _atom_site_symmetry_multiplicity
 _atom_site_fract_x
 _atom_site_fract_y
 _atom_site_fract_z
 _atom_site_occupancy
  C  C0  1  0.50000000  0.00000000  0.96288500  1
  C  C1  1  0.50000000  0.50000000  0.73213500  1
  Ni  Ni2  1  0.50000000  0.50000000  0.25257900  1
  Cu  Cu3  1  0.00000000  0.00000000  0.09159800  1
  Cu  Cu4  1  0.00000000  0.00000000  0.51395600  1
  C  C5  1  0.50000000  0.00000000  0.24457100  1
  C  C6  1  0.50000000  0.00000000  0.73946200  1
  C  C7  1  0.50000000  0.50000000  0.98463800  1
  C  C8  1  0.50000000  0.50000000  0.49368200  1
  C  C9  1  0.00000000  0.50000000  0.25447400  1
  C  C10  1  0.00000000  0.50000000  0.73001900  1
