# generated using pymatgen
data_Cu4NiC9
_symmetry_space_group_name_H-M   'P 1'
_cell_length_a   3.10569500
_cell_length_b   9.19034800
_cell_length_c   10.96046134
_cell_angle_alpha   89.51582346
_cell_angle_beta   90.00000000
_cell_angle_gamma   90.00000000
_symmetry_Int_Tables_number   1
_chemical_formula_structural   Cu4NiC9
_chemical_formula_sum   'Cu8 Ni2 C18'
_cell_volume   312.82689741
_cell_formula_units_Z   2
loop_
 _symmetry_equiv_pos_site_id
 _symmetry_equiv_pos_as_xyz
  1  'x, y, z'
loop_
 _atom_site_type_symbol
 _atom_site_label
 _atom_site_symmetry_multiplicity
 _atom_site_fract_x
 _atom_site_fract_y
 _atom_site_fract_z
 _atom_site_occupancy
  C  C0  1  0.25000000  0.73621800  0.84127500  1
  C  C1  1  0.75000000  0.26378200  0.15872500  1
  Ni  Ni2  1  0.25000000  0.23721500  0.66157000  1
  Ni  Ni3  1  0.75000000  0.76278500  0.33843000  1
  Cu  Cu4  1  0.25000000  0.05155000  0.88402700  1
  Cu  Cu5  1  0.25000000  0.55780200  0.61723900  1
  Cu  Cu6  1  0.75000000  0.94845000  0.11597300  1
  Cu  Cu7  1  0.75000000  0.44219800  0.38276100  1
  Cu  Cu8  1  0.25000000  0.09206200  0.39939200  1
  Cu  Cu9  1  0.25000000  0.58778600  0.09896900  1
  Cu  Cu10  1  0.75000000  0.90793800  0.60060800  1
  Cu  Cu11  1  0.75000000  0.41221400  0.90103100  1
  C  C12  1  0.25000000  0.08334800  0.06839500  1
  C  C13  1  0.25000000  0.58560600  0.43013600  1
  C  C14  1  0.75000000  0.91665200  0.93160500  1
  C  C15  1  0.75000000  0.41439400  0.56986400  1
  C  C16  1  0.25000000  0.96578000  0.70908700  1
  C  C17  1  0.25000000  0.45475600  0.78596200  1
  C  C18  1  0.75000000  0.03422000  0.29091300  1
  C  C19  1  0.75000000  0.54524400  0.21403800  1
  C  C20  1  0.25000000  0.38597100  0.02361400  1
  C  C21  1  0.25000000  0.88340000  0.47151500  1
  C  C22  1  0.75000000  0.61402900  0.97638600  1
  C  C23  1  0.75000000  0.11660000  0.52848500  1
  C  C24  1  0.25000000  0.30600900  0.33848000  1
  C  C25  1  0.25000000  0.80287200  0.16417200  1
  C  C26  1  0.75000000  0.69399100  0.66152000  1
  C  C27  1  0.75000000  0.19712800  0.83582800  1
