# generated using pymatgen
data_CuNi28C29
_symmetry_space_group_name_H-M   'P 1'
_cell_length_a   10.43290500
_cell_length_b   10.43290500
_cell_length_c   12.78315400
_cell_angle_alpha   90.00000000
_cell_angle_beta   90.00000000
_cell_angle_gamma   90.00000000
_symmetry_Int_Tables_number   1
_chemical_formula_structural   CuNi28C29
_chemical_formula_sum   'Cu2 Ni56 C58'
_cell_volume   1391.38887485
_cell_formula_units_Z   2
loop_
 _symmetry_equiv_pos_site_id
 _symmetry_equiv_pos_as_xyz
  1  'x, y, z'
loop_
 _atom_site_type_symbol
 _atom_site_label
 _atom_site_symmetry_multiplicity
 _atom_site_fract_x
 _atom_site_fract_y
 _atom_site_fract_z
 _atom_site_occupancy
  C  C0  1  0.50000000  0.50000000  0.00000000  1
  C  C1  1  0.00000000  0.00000000  0.50000000  1
  C  C2  1  0.68568200  0.73665600  0.00000000  1
  C  C3  1  0.23665600  0.18568200  0.50000000  1
  C  C4  1  0.26334400  0.68568200  0.00000000  1
  C  C5  1  0.18568200  0.76334400  0.50000000  1
  C  C6  1  0.76334400  0.81431800  0.50000000  1
  C  C7  1  0.31431800  0.26334400  0.00000000  1
  C  C8  1  0.81431800  0.23665600  0.50000000  1
  C  C9  1  0.73665600  0.31431800  0.00000000  1
  C  C10  1  0.55070300  0.70203100  0.24163900  1
  C  C11  1  0.79796900  0.94929700  0.25836100  1
  C  C12  1  0.70203100  0.44929700  0.24163900  1
  C  C13  1  0.05070300  0.79796900  0.74163900  1
  C  C14  1  0.79796900  0.94929700  0.74163900  1
  C  C15  1  0.70203100  0.44929700  0.75836100  1
  C  C16  1  0.94929700  0.20203100  0.25836100  1
  C  C17  1  0.55070300  0.70203100  0.75836100  1
  C  C18  1  0.20203100  0.05070300  0.74163900  1
  C  C19  1  0.94929700  0.20203100  0.74163900  1
  C  C20  1  0.20203100  0.05070300  0.25836100  1
  C  C21  1  0.44929700  0.29796900  0.75836100  1
  C  C22  1  0.05070300  0.79796900  0.25836100  1
  C  C23  1  0.29796900  0.55070300  0.75836100  1
  C  C24  1  0.29796900  0.55070300  0.24163900  1
  C  C25  1  0.44929700  0.29796900  0.24163900  1
  C  C26  1  0.85658800  0.49500200  0.62005000  1
  C  C27  1  0.49500200  0.14341200  0.37995000  1
  C  C28  1  0.40576400  0.69972200  0.47030300  1
  C  C29  1  0.35658800  0.00499800  0.87995000  1
  C  C30  1  0.80027800  0.09423600  0.02969700  1
  C  C31  1  0.90576400  0.80027800  0.02969700  1
  C  C32  1  0.49500200  0.14341200  0.62005000  1
  C  C33  1  0.59423600  0.30027800  0.47030300  1
  C  C34  1  0.50499800  0.85658800  0.62005000  1
  C  C35  1  0.80027800  0.09423600  0.97030300  1
  C  C36  1  0.14341200  0.50499800  0.37995000  1
  C  C37  1  0.19972200  0.90576400  0.97030300  1
  C  C38  1  0.00499800  0.64341200  0.12005000  1
  C  C39  1  0.69972200  0.59423600  0.52969700  1
  C  C40  1  0.09423600  0.19972200  0.97030300  1
  C  C41  1  0.35658800  0.00499800  0.12005000  1
  C  C42  1  0.90576400  0.80027800  0.97030300  1
  C  C43  1  0.30027800  0.40576400  0.47030300  1
  C  C44  1  0.99500200  0.35658800  0.87995000  1
  C  C45  1  0.64341200  0.99500200  0.87995000  1
  C  C46  1  0.85658800  0.49500200  0.37995000  1
  C  C47  1  0.50499800  0.85658800  0.37995000  1
  C  C48  1  0.69972200  0.59423600  0.47030300  1
  C  C49  1  0.14341200  0.50499800  0.62005000  1
  C  C50  1  0.30027800  0.40576400  0.52969700  1
  C  C51  1  0.99500200  0.35658800  0.12005000  1
  C  C52  1  0.64341200  0.99500200  0.12005000  1
  C  C53  1  0.00499800  0.64341200  0.87995000  1
  C  C54  1  0.59423600  0.30027800  0.52969700  1
  C  C55  1  0.40576400  0.69972200  0.52969700  1
  C  C56  1  0.19972200  0.90576400  0.02969700  1
  C  C57  1  0.09423600  0.19972200  0.02969700  1
  Ni  Ni58  1  0.03305600  0.78453900  0.38401300  1
  Ni  Ni59  1  0.66005000  0.59725900  0.72067800  1
  Ni  Ni60  1  0.83995000  0.09725900  0.77932200  1
  Ni  Ni61  1  0.70909500  0.92882400  0.12763000  1
  Ni  Ni62  1  0.21546100  0.03305600  0.38401300  1
  Ni  Ni63  1  0.46694400  0.28453900  0.11598700  1
  Ni  Ni64  1  0.20909500  0.57117600  0.62763000  1
  Ni  Ni65  1  0.28453900  0.53305600  0.88401300  1
  Ni  Ni66  1  0.66005000  0.59725900  0.27932200  1
  Ni  Ni67  1  0.92882400  0.29090500  0.12763000  1
  Ni  Ni68  1  0.96694400  0.21546100  0.61598700  1
  Ni  Ni69  1  0.36274100  0.13725900  0.75000000  1
  Ni  Ni70  1  0.71546100  0.46694400  0.88401300  1
  Ni  Ni71  1  0.07117600  0.70909500  0.87237000  1
  Ni  Ni72  1  0.96694400  0.21546100  0.38401300  1
  Ni  Ni73  1  0.13725900  0.63725900  0.75000000  1
  Ni  Ni74  1  0.53305600  0.71546100  0.11598700  1
  Ni  Ni75  1  0.86274100  0.36274100  0.25000000  1
  Ni  Ni76  1  0.36274100  0.13725900  0.25000000  1
  Ni  Ni77  1  0.86274100  0.36274100  0.75000000  1
  Ni  Ni78  1  0.21546100  0.03305600  0.61598700  1
  Ni  Ni79  1  0.40274100  0.66005000  0.72067800  1
  Ni  Ni80  1  0.16005000  0.90274100  0.77932200  1
  Ni  Ni81  1  0.33995000  0.40274100  0.72067800  1
  Ni  Ni82  1  0.83995000  0.09725900  0.22067800  1
  Ni  Ni83  1  0.16005000  0.90274100  0.22067800  1
  Ni  Ni84  1  0.92882400  0.29090500  0.87237000  1
  Ni  Ni85  1  0.03305600  0.78453900  0.61598700  1
  Ni  Ni86  1  0.70909500  0.92882400  0.87237000  1
  Ni  Ni87  1  0.07117600  0.70909500  0.12763000  1
  Ni  Ni88  1  0.29090500  0.07117600  0.87237000  1
  Ni  Ni89  1  0.63725900  0.86274100  0.25000000  1
  Ni  Ni90  1  0.13725900  0.63725900  0.25000000  1
  Ni  Ni91  1  0.40274100  0.66005000  0.27932200  1
  Ni  Ni92  1  0.78453900  0.96694400  0.38401300  1
  Ni  Ni93  1  0.63725900  0.86274100  0.75000000  1
  Ni  Ni94  1  0.79090500  0.42882400  0.62763000  1
  Ni  Ni95  1  0.29090500  0.07117600  0.12763000  1
  Ni  Ni96  1  0.53305600  0.71546100  0.88401300  1
  Ni  Ni97  1  0.20909500  0.57117600  0.37237000  1
  Ni  Ni98  1  0.90274100  0.83995000  0.22067800  1
  Ni  Ni99  1  0.90274100  0.83995000  0.77932200  1
  Ni  Ni100  1  0.42882400  0.20909500  0.37237000  1
  Ni  Ni101  1  0.57117600  0.79090500  0.62763000  1
  Ni  Ni102  1  0.59725900  0.33995000  0.27932200  1
  Ni  Ni103  1  0.71546100  0.46694400  0.11598700  1
  Ni  Ni104  1  0.09725900  0.16005000  0.22067800  1
  Ni  Ni105  1  0.33995000  0.40274100  0.27932200  1
  Ni  Ni106  1  0.09725900  0.16005000  0.77932200  1
  Ni  Ni107  1  0.28453900  0.53305600  0.11598700  1
  Ni  Ni108  1  0.42882400  0.20909500  0.62763000  1
  Ni  Ni109  1  0.59725900  0.33995000  0.72067800  1
  Ni  Ni110  1  0.78453900  0.96694400  0.61598700  1
  Ni  Ni111  1  0.46694400  0.28453900  0.88401300  1
  Ni  Ni112  1  0.57117600  0.79090500  0.37237000  1
  Ni  Ni113  1  0.79090500  0.42882400  0.37237000  1
  Cu  Cu114  1  0.50000000  0.50000000  0.50000000  1
  Cu  Cu115  1  0.00000000  0.00000000  0.00000000  1
