# generated using pymatgen
data_Cu4NiC5
_symmetry_space_group_name_H-M   'P 1'
_cell_length_a   6.77827600
_cell_length_b   11.74513600
_cell_length_c   21.15704500
_cell_angle_alpha   90.00000000
_cell_angle_beta   90.00000000
_cell_angle_gamma   90.00000000
_symmetry_Int_Tables_number   1
_chemical_formula_structural   Cu4NiC5
_chemical_formula_sum   'Cu32 Ni8 C40'
_cell_volume   1684.34987374
_cell_formula_units_Z   8
loop_
 _symmetry_equiv_pos_site_id
 _symmetry_equiv_pos_as_xyz
  1  'x, y, z'
loop_
 _atom_site_type_symbol
 _atom_site_label
 _atom_site_symmetry_multiplicity
 _atom_site_fract_x
 _atom_site_fract_y
 _atom_site_fract_z
 _atom_site_occupancy
  Ni  Ni0  1  0.42196400  0.15466000  0.49814100  1
  Ni  Ni1  1  0.92196400  0.84534000  0.00185900  1
  Ni  Ni2  1  0.07803600  0.65466000  0.50185900  1
  Ni  Ni3  1  0.57803600  0.34534000  0.99814100  1
  Ni  Ni4  1  0.57803600  0.84534000  0.50185900  1
  Ni  Ni5  1  0.07803600  0.15466000  0.99814100  1
  Ni  Ni6  1  0.92196400  0.34534000  0.49814100  1
  Ni  Ni7  1  0.42196400  0.65466000  0.00185900  1
  Cu  Cu8  1  0.58693500  0.92347400  0.25199100  1
  Cu  Cu9  1  0.08693500  0.07652600  0.24800900  1
  Cu  Cu10  1  0.91306500  0.42347400  0.74800900  1
  Cu  Cu11  1  0.41306500  0.57652600  0.75199100  1
  Cu  Cu12  1  0.41306500  0.07652600  0.74800900  1
  Cu  Cu13  1  0.91306500  0.92347400  0.75199100  1
  Cu  Cu14  1  0.08693500  0.57652600  0.25199100  1
  Cu  Cu15  1  0.58693500  0.42347400  0.24800900  1
  Cu  Cu16  1  0.40762700  0.94206800  0.06733200  1
  Cu  Cu17  1  0.59237300  0.55793200  0.56733200  1
  Cu  Cu18  1  0.09237300  0.44206800  0.93266800  1
  Cu  Cu19  1  0.09237300  0.94206800  0.56733200  1
  Cu  Cu20  1  0.59237300  0.05793200  0.93266800  1
  Cu  Cu21  1  0.40762700  0.44206800  0.43266800  1
  Cu  Cu22  1  0.90762700  0.55793200  0.06733200  1
  Cu  Cu23  1  0.08814200  0.32556000  0.32241100  1
  Cu  Cu24  1  0.58814200  0.67444000  0.17758900  1
  Cu  Cu25  1  0.41185800  0.82556000  0.67758900  1
  Cu  Cu26  1  0.91185800  0.67444000  0.67758900  1
  Cu  Cu27  1  0.41185800  0.32556000  0.82241100  1
  Cu  Cu28  1  0.58814200  0.17444000  0.32241100  1
  Cu  Cu29  1  0.08814200  0.82556000  0.17758900  1
  Cu  Cu30  1  0.41018000  0.70276500  0.36022000  1
  Cu  Cu31  1  0.91018000  0.29723500  0.13978000  1
  Cu  Cu32  1  0.08982000  0.20276500  0.63978000  1
  Cu  Cu33  1  0.58982000  0.79723500  0.86022000  1
  Cu  Cu34  1  0.58982000  0.29723500  0.63978000  1
  Cu  Cu35  1  0.08982000  0.70276500  0.86022000  1
  Cu  Cu36  1  0.91018000  0.79723500  0.36022000  1
  Cu  Cu37  1  0.41018000  0.20276500  0.13978000  1
  Cu  Cu38  1  0.90762700  0.05793200  0.43266800  1
  Cu  Cu39  1  0.91185800  0.17444000  0.82241100  1
  C  C40  1  0.80392200  0.53393200  0.37161900  1
  C  C41  1  0.30392200  0.46606800  0.12838100  1
  C  C42  1  0.69607800  0.03393200  0.62838100  1
  C  C43  1  0.19607800  0.96606800  0.87161900  1
  C  C44  1  0.19607800  0.46606800  0.62838100  1
  C  C45  1  0.69607800  0.53393200  0.87161900  1
  C  C46  1  0.30392200  0.96606800  0.37161900  1
  C  C47  1  0.80392200  0.03393200  0.12838100  1
  C  C48  1  0.27642100  0.88269900  0.79718500  1
  C  C49  1  0.77642100  0.11730100  0.70281500  1
  C  C50  1  0.22357900  0.38269900  0.20281500  1
  C  C51  1  0.72357900  0.61730100  0.29718500  1
  C  C52  1  0.72357900  0.11730100  0.20281500  1
  C  C53  1  0.22357900  0.88269900  0.29718500  1
  C  C54  1  0.77642100  0.61730100  0.79718500  1
  C  C55  1  0.27642100  0.38269900  0.70281500  1
  C  C56  1  0.31552400  0.39568800  0.55627400  1
  C  C57  1  0.81552400  0.60431200  0.94372600  1
  C  C58  1  0.81552400  0.10431200  0.55627400  1
  C  C59  1  0.31552400  0.89568800  0.94372600  1
  C  C60  1  0.68447600  0.60431200  0.44372600  1
  C  C61  1  0.18447600  0.39568800  0.05627400  1
  C  C62  1  0.08555000  0.53782900  0.37876100  1
  C  C63  1  0.58555000  0.46217100  0.12123900  1
  C  C64  1  0.41445000  0.03782900  0.62123900  1
  C  C65  1  0.91445000  0.96217100  0.87876100  1
  C  C66  1  0.91445000  0.46217100  0.62123900  1
  C  C67  1  0.41445000  0.53782900  0.87876100  1
  C  C68  1  0.18447600  0.89568800  0.44372600  1
  C  C69  1  0.58555000  0.96217100  0.37876100  1
  C  C70  1  0.08555000  0.03782900  0.12123900  1
  C  C71  1  0.72133700  0.37793900  0.36408200  1
  C  C72  1  0.22133700  0.62206100  0.13591800  1
  C  C73  1  0.77866300  0.87793900  0.63591800  1
  C  C74  1  0.27866300  0.12206100  0.86408200  1
  C  C75  1  0.27866300  0.62206100  0.63591800  1
  C  C76  1  0.77866300  0.37793900  0.86408200  1
  C  C77  1  0.22133700  0.12206100  0.36408200  1
  C  C78  1  0.72133700  0.87793900  0.13591800  1
  C  C79  1  0.68447600  0.10431200  0.05627400  1
