# generated using pymatgen
data_CuNiC8
_symmetry_space_group_name_H-M   'P 1'
_cell_length_a   8.44491849
_cell_length_b   8.45405176
_cell_length_c   8.46674679
_cell_angle_alpha   90.00000000
_cell_angle_beta   90.00000000
_cell_angle_gamma   90.00000000
_symmetry_Int_Tables_number   1
_chemical_formula_structural   CuNiC8
_chemical_formula_sum   'Cu4 Ni4 C32'
_cell_volume   604.47304091
_cell_formula_units_Z   4
loop_
 _symmetry_equiv_pos_site_id
 _symmetry_equiv_pos_as_xyz
  1  'x, y, z'
loop_
 _atom_site_type_symbol
 _atom_site_label
 _atom_site_symmetry_multiplicity
 _atom_site_fract_x
 _atom_site_fract_y
 _atom_site_fract_z
 _atom_site_occupancy
  C  C0  1  0.00000000  0.00000000  -0.00000000  1
  C  C1  1  0.50000000  0.50000000  0.50000000  1
  C  C2  1  0.00000000  0.50000000  0.50000000  1
  C  C3  1  0.50000000  0.00000000  -0.00000000  1
  Ni  Ni4  1  0.50000000  0.00000000  0.50000000  1
  Ni  Ni5  1  0.50000000  0.50000000  -0.00000000  1
  Ni  Ni6  1  0.00000000  0.50000000  -0.00000000  1
  Ni  Ni7  1  0.00000000  0.00000000  0.50000000  1
  Cu  Cu8  1  0.75000000  0.75000000  0.75000000  1
  Cu  Cu9  1  0.25000000  0.25000000  0.75000000  1
  Cu  Cu10  1  0.25000000  0.75000000  0.25000000  1
  Cu  Cu11  1  0.75000000  0.25000000  0.25000000  1
  C  C12  1  0.25000000  0.25000000  0.25000000  1
  C  C13  1  0.75000000  0.75000000  0.25000000  1
  C  C14  1  0.75000000  0.25000000  0.75000000  1
  C  C15  1  0.25000000  0.75000000  0.75000000  1
  C  C16  1  0.02458122  0.20233870  0.27920926  1
  C  C17  1  0.97541878  0.79766130  0.27920926  1
  C  C18  1  0.97541878  0.20233870  0.72079074  1
  C  C19  1  0.02458122  0.79766130  0.72079074  1
  C  C20  1  0.29349872  0.02556882  0.21334554  1
  C  C21  1  0.29349872  0.97443118  0.78665446  1
  C  C22  1  0.70650128  0.97443118  0.21334554  1
  C  C23  1  0.70650128  0.02556882  0.78665446  1
  C  C24  1  0.21504446  0.29139845  0.02335896  1
  C  C25  1  0.78495554  0.29139845  0.97664104  1
  C  C26  1  0.21504446  0.70860155  0.97664104  1
  C  C27  1  0.78495554  0.70860155  0.02335896  1
  C  C28  1  0.47541878  0.29766130  0.22079074  1
  C  C29  1  0.52458122  0.70233870  0.22079074  1
  C  C30  1  0.52458122  0.29766130  0.77920926  1
  C  C31  1  0.47541878  0.70233870  0.77920926  1
  C  C32  1  0.20650128  0.47443118  0.28665446  1
  C  C33  1  0.20650128  0.52556882  0.71334554  1
  C  C34  1  0.79349872  0.52556882  0.28665446  1
  C  C35  1  0.79349872  0.47443118  0.71334554  1
  C  C36  1  0.28495554  0.20860155  0.47664104  1
  C  C37  1  0.71504446  0.20860155  0.52335896  1
  C  C38  1  0.28495554  0.79139845  0.52335896  1
  C  C39  1  0.71504446  0.79139845  0.47664104  1
