# generated using pymatgen
data_CuNi3C8
_symmetry_space_group_name_H-M   'P 1'
_cell_length_a   7.66242332
_cell_length_b   7.66242332
_cell_length_c   5.43930022
_cell_angle_alpha   89.83533497
_cell_angle_beta   89.83533497
_cell_angle_gamma   90.37486617
_symmetry_Int_Tables_number   1
_chemical_formula_structural   CuNi3C8
_chemical_formula_sum   'Cu2 Ni6 C16'
_cell_volume   319.34668142
_cell_formula_units_Z   2
loop_
 _symmetry_equiv_pos_site_id
 _symmetry_equiv_pos_as_xyz
  1  'x, y, z'
loop_
 _atom_site_type_symbol
 _atom_site_label
 _atom_site_symmetry_multiplicity
 _atom_site_fract_x
 _atom_site_fract_y
 _atom_site_fract_z
 _atom_site_occupancy
  Ni  Ni0  1  0.62209000  0.86781300  0.75969100  1
  Ni  Ni1  1  0.12545200  0.87454800  0.75000000  1
  Ni  Ni2  1  0.86781300  0.62209000  0.25969100  1
  Ni  Ni3  1  0.37791000  0.13218700  0.24030900  1
  Ni  Ni4  1  0.13218700  0.37791000  0.74030900  1
  Ni  Ni5  1  0.87454800  0.12545200  0.25000000  1
  Cu  Cu6  1  0.36775500  0.63224500  0.25000000  1
  Cu  Cu7  1  0.63224500  0.36775500  0.75000000  1
  C  C8  1  0.60527700  0.63593000  0.05601500  1
  C  C9  1  0.36692500  0.88183600  0.98712200  1
  C  C10  1  0.38606300  0.85608100  0.47652700  1
  C  C11  1  0.63593000  0.60527700  0.55601500  1
  C  C12  1  0.14391900  0.61393700  0.02347300  1
  C  C13  1  0.88107900  0.86408100  0.99764500  1
  C  C14  1  0.86408100  0.88107900  0.49764500  1
  C  C15  1  0.11816400  0.63307500  0.51287800  1
  C  C16  1  0.63307500  0.11816400  0.01287800  1
  C  C17  1  0.39472300  0.36407000  0.94398500  1
  C  C18  1  0.36407000  0.39472300  0.44398500  1
  C  C19  1  0.61393700  0.14391900  0.52347300  1
  C  C20  1  0.11892100  0.13591900  0.00235500  1
  C  C21  1  0.85608100  0.38606300  0.97652700  1
  C  C22  1  0.88183600  0.36692500  0.48712200  1
  C  C23  1  0.13591900  0.11892100  0.50235500  1
