# generated using pymatgen
data_CuNiC7
_symmetry_space_group_name_H-M   'P 1'
_cell_length_a   5.32548900
_cell_length_b   11.21768200
_cell_length_c   15.19430600
_cell_angle_alpha   90.00000000
_cell_angle_beta   90.00000000
_cell_angle_gamma   90.00000000
_symmetry_Int_Tables_number   1
_chemical_formula_structural   CuNiC7
_chemical_formula_sum   'Cu8 Ni8 C56'
_cell_volume   907.70240234
_cell_formula_units_Z   8
loop_
 _symmetry_equiv_pos_site_id
 _symmetry_equiv_pos_as_xyz
  1  'x, y, z'
loop_
 _atom_site_type_symbol
 _atom_site_label
 _atom_site_symmetry_multiplicity
 _atom_site_fract_x
 _atom_site_fract_y
 _atom_site_fract_z
 _atom_site_occupancy
  C  C0  1  0.98020500  0.73705600  0.89260700  1
  C  C1  1  0.01979500  0.26294400  0.39260700  1
  C  C2  1  0.98020500  0.76294400  0.10739300  1
  C  C3  1  0.01979500  0.23705600  0.60739300  1
  C  C4  1  0.01979500  0.26294400  0.10739300  1
  C  C5  1  0.98020500  0.73705600  0.60739300  1
  C  C6  1  0.01979500  0.23705600  0.89260700  1
  C  C7  1  0.98020500  0.76294400  0.39260700  1
  C  C8  1  0.51285100  0.98572500  0.10732400  1
  C  C9  1  0.48714900  0.01427500  0.60732400  1
  C  C10  1  0.51285100  0.51427500  0.89267600  1
  C  C11  1  0.48714900  0.48572500  0.39267600  1
  C  C12  1  0.48714900  0.01427500  0.89267600  1
  C  C13  1  0.51285100  0.98572500  0.39267600  1
  C  C14  1  0.48714900  0.48572500  0.10732400  1
  C  C15  1  0.51285100  0.51427500  0.60732400  1
  Ni  Ni16  1  0.44681300  0.78376500  0.75000000  1
  Ni  Ni17  1  0.55318700  0.21623500  0.25000000  1
  Ni  Ni18  1  0.44681300  0.71623500  0.25000000  1
  Ni  Ni19  1  0.55318700  0.28376500  0.75000000  1
  Ni  Ni20  1  0.94941300  0.96692400  0.75000000  1
  Ni  Ni21  1  0.05058700  0.03307600  0.25000000  1
  Ni  Ni22  1  0.94941300  0.53307600  0.25000000  1
  Ni  Ni23  1  0.05058700  0.46692400  0.75000000  1
  Cu  Cu24  1  0.49384600  0.75000000  0.00000000  1
  Cu  Cu25  1  0.50615400  0.25000000  0.50000000  1
  Cu  Cu26  1  0.50615400  0.25000000  0.00000000  1
  Cu  Cu27  1  0.49384600  0.75000000  0.50000000  1
  Cu  Cu28  1  0.00000000  0.50000000  0.00000000  1
  Cu  Cu29  1  0.00000000  0.50000000  0.50000000  1
  Cu  Cu30  1  0.00000000  0.00000000  0.00000000  1
  Cu  Cu31  1  0.00000000  0.00000000  0.50000000  1
  C  C32  1  0.08043600  0.80629100  0.75000000  1
  C  C33  1  0.91956400  0.19370900  0.25000000  1
  C  C34  1  0.08043600  0.69370900  0.25000000  1
  C  C35  1  0.91956400  0.30629100  0.75000000  1
  C  C36  1  0.58462300  0.94417600  0.75000000  1
  C  C37  1  0.41537700  0.05582400  0.25000000  1
  C  C38  1  0.58462300  0.55582400  0.25000000  1
  C  C39  1  0.41537700  0.44417600  0.75000000  1
  C  C40  1  0.73973600  0.87550900  0.98220900  1
  C  C41  1  0.26026400  0.12449100  0.48220900  1
  C  C42  1  0.73973600  0.62449100  0.01779100  1
  C  C43  1  0.26026400  0.37550900  0.51779100  1
  C  C44  1  0.26026400  0.12449100  0.01779100  1
  C  C45  1  0.73973600  0.87550900  0.51779100  1
  C  C46  1  0.26026400  0.37550900  0.98220900  1
  C  C47  1  0.73973600  0.62449100  0.48220900  1
  C  C48  1  0.23771600  0.87652500  0.98971900  1
  C  C49  1  0.76228400  0.12347500  0.48971900  1
  C  C50  1  0.23771600  0.62347500  0.01028100  1
  C  C51  1  0.76228400  0.37652600  0.51028100  1
  C  C52  1  0.76228400  0.12347500  0.01028100  1
  C  C53  1  0.23771600  0.87652500  0.51028100  1
  C  C54  1  0.76228400  0.37652600  0.98971900  1
  C  C55  1  0.23771600  0.62347500  0.48971900  1
  C  C56  1  0.02673100  0.03433800  0.85981900  1
  C  C57  1  0.97326900  0.96566200  0.35981900  1
  C  C58  1  0.02673100  0.46566200  0.14018100  1
  C  C59  1  0.97326900  0.53433800  0.64018100  1
  C  C60  1  0.97326900  0.96566200  0.14018100  1
  C  C61  1  0.02673100  0.03433800  0.64018100  1
  C  C62  1  0.97326900  0.53433800  0.85981900  1
  C  C63  1  0.02673100  0.46566200  0.35981900  1
  C  C64  1  0.51408600  0.71472100  0.85883000  1
  C  C65  1  0.48591400  0.28527900  0.35883000  1
  C  C66  1  0.51408600  0.78527900  0.14117000  1
  C  C67  1  0.48591400  0.21472100  0.64117000  1
  C  C68  1  0.48591400  0.28527900  0.14117000  1
  C  C69  1  0.51408600  0.71472100  0.64117000  1
  C  C70  1  0.48591400  0.21472100  0.85883000  1
  C  C71  1  0.51408600  0.78527900  0.35883000  1
