# generated using pymatgen
data_Cu2Ni2C19
_symmetry_space_group_name_H-M   'P 1'
_cell_length_a   11.87343191
_cell_length_b   11.87343191
_cell_length_c   10.79944684
_cell_angle_alpha   63.49742360
_cell_angle_beta   63.49742360
_cell_angle_gamma   26.56877321
_symmetry_Int_Tables_number   1
_chemical_formula_structural   Cu2Ni2C19
_chemical_formula_sum   'Cu4 Ni4 C38'
_cell_volume   605.16826224
_cell_formula_units_Z   2
loop_
 _symmetry_equiv_pos_site_id
 _symmetry_equiv_pos_as_xyz
  1  'x, y, z'
loop_
 _atom_site_type_symbol
 _atom_site_label
 _atom_site_symmetry_multiplicity
 _atom_site_fract_x
 _atom_site_fract_y
 _atom_site_fract_z
 _atom_site_occupancy
  C  C0  1  0.70686100  0.79288700  0.13398900  1
  C  C1  1  0.29313900  0.20711300  0.86601100  1
  C  C2  1  0.79288700  0.70686100  0.63398900  1
  C  C3  1  0.20711300  0.29313900  0.36601100  1
  C  C4  1  0.88977000  0.97846300  0.95406000  1
  C  C5  1  0.47456600  0.39423100  0.67599400  1
  C  C6  1  0.60576900  0.52543400  0.82400600  1
  C  C7  1  0.02153700  0.11023000  0.54594000  1
  C  C8  1  0.11023000  0.02153700  0.04594000  1
  C  C9  1  0.52543400  0.60576900  0.32400600  1
  C  C10  1  0.39423100  0.47456600  0.17599400  1
  C  C11  1  0.97846300  0.88977000  0.45406000  1
  Ni  Ni12  1  0.87878800  0.80982000  0.78970400  1
  Ni  Ni13  1  0.19018000  0.12121200  0.71029600  1
  Ni  Ni14  1  0.12121200  0.19018000  0.21029600  1
  Ni  Ni15  1  0.80982000  0.87878800  0.28970400  1
  Cu  Cu16  1  0.31937100  0.38592600  0.01404400  1
  Cu  Cu17  1  0.61407400  0.68062900  0.48595600  1
  Cu  Cu18  1  0.68062900  0.61407400  0.98595600  1
  Cu  Cu19  1  0.38592600  0.31937100  0.51404400  1
  C  C20  1  0.06267900  0.65554700  0.13960300  1
  C  C21  1  0.14895400  0.56560900  0.64665400  1
  C  C22  1  0.43439100  0.85104600  0.85334600  1
  C  C23  1  0.34445300  0.93732100  0.36039700  1
  C  C24  1  0.93732100  0.34445300  0.86039700  1
  C  C25  1  0.85104600  0.43439100  0.35334600  1
  C  C26  1  0.56560900  0.14895400  0.14665400  1
  C  C27  1  0.65554700  0.06267900  0.63960300  1
  C  C28  1  0.60721200  0.10391300  0.89422300  1
  C  C29  1  0.89608700  0.39278800  0.60577700  1
  C  C30  1  0.39278800  0.89608700  0.10577700  1
  C  C31  1  0.10391300  0.60721200  0.39422300  1
  C  C32  1  0.24989400  0.75038400  0.97218500  1
  C  C33  1  0.24961600  0.75010600  0.52781500  1
  C  C34  1  0.75010600  0.24961600  0.02781500  1
  C  C35  1  0.75038400  0.24989400  0.47218500  1
  C  C36  1  0.75006200  0.24993800  0.75000000  1
  C  C37  1  0.24993800  0.75006200  0.25000000  1
  C  C38  1  0.86085300  0.34806100  0.14884100  1
  C  C39  1  0.65193900  0.13914700  0.35115900  1
  C  C40  1  0.13914700  0.65193900  0.85115900  1
  C  C41  1  0.34806100  0.86085300  0.64884100  1
  C  C42  1  0.69788100  0.80964700  0.38710800  1
  C  C43  1  0.30211900  0.19035300  0.61289200  1
  C  C44  1  0.80964700  0.69788100  0.88710800  1
  C  C45  1  0.19035300  0.30211900  0.11289200  1
