# generated using pymatgen
data_CuNiC4
_symmetry_space_group_name_H-M   'P 1'
_cell_length_a   8.88857700
_cell_length_b   6.69547400
_cell_length_c   12.13386537
_cell_angle_alpha   89.82228356
_cell_angle_beta   90.00000000
_cell_angle_gamma   90.00000000
_symmetry_Int_Tables_number   1
_chemical_formula_structural   CuNiC4
_chemical_formula_sum   'Cu8 Ni8 C32'
_cell_volume   722.12212200
_cell_formula_units_Z   8
loop_
 _symmetry_equiv_pos_site_id
 _symmetry_equiv_pos_as_xyz
  1  'x, y, z'
loop_
 _atom_site_type_symbol
 _atom_site_label
 _atom_site_symmetry_multiplicity
 _atom_site_fract_x
 _atom_site_fract_y
 _atom_site_fract_z
 _atom_site_occupancy
  Ni  Ni0  1  0.83975200  0.21581800  0.87949900  1
  Ni  Ni1  1  0.95484200  0.62722300  0.61415500  1
  Ni  Ni2  1  0.04515800  0.37277700  0.38584500  1
  Ni  Ni3  1  0.16024800  0.78418200  0.12050100  1
  Ni  Ni4  1  0.66024800  0.21581800  0.37949900  1
  Ni  Ni5  1  0.54515800  0.62722300  0.11415500  1
  Ni  Ni6  1  0.33975200  0.78418200  0.62050100  1
  Ni  Ni7  1  0.45484200  0.37277700  0.88584500  1
  Cu  Cu8  1  0.55021600  0.89507500  0.85724600  1
  Cu  Cu9  1  0.94978400  0.89507500  0.35724600  1
  Cu  Cu10  1  0.90222000  0.40411000  0.14091200  1
  Cu  Cu11  1  0.05021600  0.10492500  0.64275400  1
  Cu  Cu12  1  0.09778000  0.59589000  0.85908800  1
  Cu  Cu13  1  0.40222000  0.59589000  0.35908800  1
  Cu  Cu14  1  0.59778000  0.40411000  0.64091200  1
  Cu  Cu15  1  0.44978400  0.10492500  0.14275400  1
  C  C16  1  0.75456000  0.95911100  0.37569000  1
  C  C17  1  0.00182900  0.35027000  0.58510200  1
  C  C18  1  0.37815400  0.79301700  0.45557600  1
  C  C19  1  0.87815400  0.20698300  0.04442400  1
  C  C20  1  0.74544000  0.95911100  0.87569000  1
  C  C21  1  0.24544000  0.04088900  0.62431000  1
  C  C22  1  0.92602000  0.91029400  0.59140900  1
  C  C23  1  0.08788400  0.51423500  0.12631000  1
  C  C24  1  0.41211600  0.51423500  0.62631000  1
  C  C25  1  0.12635600  0.68537700  0.71476000  1
  C  C26  1  0.62635600  0.31462300  0.78524000  1
  C  C27  1  0.91211600  0.48576500  0.87369000  1
  C  C28  1  0.07398000  0.08970600  0.40859100  1
  C  C29  1  0.48500800  0.12648000  0.28630000  1
  C  C30  1  0.73867100  0.58401700  0.61154800  1
  C  C31  1  0.76132900  0.58401700  0.11154800  1
  C  C32  1  0.98500800  0.87352000  0.21370000  1
  C  C33  1  0.58788400  0.48576500  0.37369000  1
  C  C34  1  0.51499200  0.87352000  0.71370000  1
  C  C35  1  0.62184600  0.20698300  0.54442400  1
  C  C36  1  0.49817100  0.35027000  0.08510200  1
  C  C37  1  0.87364400  0.31462300  0.28524000  1
  C  C38  1  0.25456000  0.04088900  0.12431000  1
  C  C39  1  0.57398000  0.91029400  0.09140900  1
  C  C40  1  0.12184600  0.79301700  0.95557600  1
  C  C41  1  0.23867100  0.41598300  0.88845200  1
  C  C42  1  0.99817100  0.64973000  0.41489800  1
  C  C43  1  0.50182900  0.64973000  0.91489800  1
  C  C44  1  0.42602000  0.08970600  0.90859100  1
  C  C45  1  0.26132900  0.41598300  0.38845200  1
  C  C46  1  0.37364400  0.68537700  0.21476000  1
  C  C47  1  0.01499200  0.12648000  0.78630000  1
