# generated using pymatgen
data_Cu4Ni2C35
_symmetry_space_group_name_H-M   'P 1'
_cell_length_a   9.62034700
_cell_length_b   9.62034700
_cell_length_c   12.29437300
_cell_angle_alpha   90.00000000
_cell_angle_beta   90.00000000
_cell_angle_gamma   90.00000000
_symmetry_Int_Tables_number   1
_chemical_formula_structural   Cu4Ni2C35
_chemical_formula_sum   'Cu8 Ni4 C70'
_cell_volume   1137.85745482
_cell_formula_units_Z   2
loop_
 _symmetry_equiv_pos_site_id
 _symmetry_equiv_pos_as_xyz
  1  'x, y, z'
loop_
 _atom_site_type_symbol
 _atom_site_label
 _atom_site_symmetry_multiplicity
 _atom_site_fract_x
 _atom_site_fract_y
 _atom_site_fract_z
 _atom_site_occupancy
  C  C0  1  0.50000000  0.50000000  0.50000000  1
  C  C1  1  0.00000000  0.00000000  0.00000000  1
  C  C2  1  0.47512800  0.15320600  0.12867100  1
  C  C3  1  0.52487200  0.84679400  0.12867100  1
  C  C4  1  0.02487200  0.65320600  0.62867100  1
  C  C5  1  0.97512800  0.34679400  0.62867100  1
  C  C6  1  0.52487200  0.84679400  0.87132900  1
  C  C7  1  0.47512800  0.15320600  0.87132900  1
  C  C8  1  0.97512800  0.34679400  0.37132900  1
  C  C9  1  0.02487200  0.65320600  0.37132900  1
  C  C10  1  0.15320600  0.47512800  0.12867100  1
  C  C11  1  0.84679400  0.52487200  0.12867100  1
  C  C12  1  0.65320600  0.02487200  0.62867100  1
  C  C13  1  0.34679400  0.97512800  0.62867100  1
  C  C14  1  0.84679400  0.52487200  0.87132900  1
  C  C15  1  0.15320600  0.47512800  0.87132900  1
  C  C16  1  0.34679400  0.97512800  0.37132900  1
  C  C17  1  0.65320600  0.02487200  0.37132900  1
  C  C18  1  0.60008000  0.19410500  0.23251200  1
  C  C19  1  0.39992000  0.80589500  0.23251200  1
  C  C20  1  0.89992000  0.69410500  0.73251200  1
  C  C21  1  0.10008000  0.30589500  0.73251200  1
  C  C22  1  0.39992000  0.80589500  0.76748800  1
  C  C23  1  0.60008000  0.19410500  0.76748800  1
  C  C24  1  0.10008000  0.30589500  0.26748800  1
  C  C25  1  0.89992000  0.69410500  0.26748800  1
  C  C26  1  0.19410500  0.60008000  0.23251200  1
  C  C27  1  0.80589500  0.39992000  0.23251200  1
  C  C28  1  0.69410500  0.89992000  0.73251200  1
  C  C29  1  0.30589500  0.10008000  0.73251200  1
  C  C30  1  0.80589500  0.39992000  0.76748800  1
  C  C31  1  0.19410500  0.60008000  0.76748800  1
  C  C32  1  0.30589500  0.10008000  0.26748800  1
  C  C33  1  0.69410500  0.89992000  0.26748800  1
  C  C34  1  0.64225100  0.06782900  0.12935500  1
  C  C35  1  0.35774900  0.93217100  0.12935500  1
  C  C36  1  0.85774900  0.56782900  0.62935500  1
  C  C37  1  0.14225100  0.43217100  0.62935500  1
  C  C38  1  0.35774900  0.93217100  0.87064500  1
  C  C39  1  0.64225100  0.06782900  0.87064500  1
  C  C40  1  0.14225100  0.43217100  0.37064500  1
  C  C41  1  0.85774900  0.56782900  0.37064500  1
  C  C42  1  0.06782900  0.64225100  0.12935500  1
  C  C43  1  0.93217100  0.35774900  0.12935500  1
  C  C44  1  0.56782900  0.85774900  0.62935500  1
  C  C45  1  0.43217100  0.14225100  0.62935500  1
  C  C46  1  0.93217100  0.35774900  0.87064500  1
  C  C47  1  0.06782900  0.64225100  0.87064500  1
  C  C48  1  0.43217100  0.14225100  0.37064500  1
  C  C49  1  0.56782900  0.85774900  0.37064500  1
  C  C50  1  0.55942500  0.11267400  0.17929000  1
  C  C51  1  0.44057500  0.88732600  0.17929000  1
  C  C52  1  0.94057500  0.61267400  0.67929000  1
  C  C53  1  0.05942500  0.38732600  0.67929000  1
  C  C54  1  0.44057500  0.88732600  0.82071000  1
  C  C55  1  0.55942500  0.11267400  0.82071000  1
  C  C56  1  0.05942500  0.38732600  0.32071000  1
  C  C57  1  0.94057500  0.61267400  0.32071000  1
  C  C58  1  0.11267400  0.55942500  0.17929000  1
  C  C59  1  0.88732600  0.44057500  0.17929000  1
  C  C60  1  0.61267400  0.94057500  0.67929000  1
  C  C61  1  0.38732600  0.05942500  0.67929000  1
  C  C62  1  0.88732600  0.44057500  0.82071000  1
  C  C63  1  0.11267400  0.55942500  0.82071000  1
  C  C64  1  0.38732600  0.05942500  0.32071000  1
  C  C65  1  0.61267400  0.94057500  0.32071000  1
  Ni  Ni66  1  0.50000000  0.00000000  0.25000000  1
  Ni  Ni67  1  0.00000000  0.50000000  0.75000000  1
  Ni  Ni68  1  0.50000000  0.00000000  0.75000000  1
  Ni  Ni69  1  0.00000000  0.50000000  0.25000000  1
  Cu  Cu70  1  0.50000000  0.50000000  0.28526200  1
  Cu  Cu71  1  0.00000000  0.00000000  0.78526200  1
  Cu  Cu72  1  0.50000000  0.50000000  0.71473800  1
  Cu  Cu73  1  0.00000000  0.00000000  0.21473800  1
  Cu  Cu74  1  0.69650400  0.30349500  0.50000000  1
  Cu  Cu75  1  0.30349500  0.69650400  0.50000000  1
  Cu  Cu76  1  0.80349600  0.80349600  0.00000000  1
  Cu  Cu77  1  0.19650400  0.19650400  0.00000000  1
  C  C78  1  0.36814200  0.36814200  0.50000000  1
  C  C79  1  0.63185800  0.63185800  0.50000000  1
  C  C80  1  0.13185800  0.86814200  0.00000000  1
  C  C81  1  0.86814200  0.13185800  0.00000000  1
