# generated using pymatgen
data_Cu2Ni4C7
_symmetry_space_group_name_H-M   'P 1'
_cell_length_a   13.31685200
_cell_length_b   13.61771200
_cell_length_c   16.53000400
_cell_angle_alpha   90.00000000
_cell_angle_beta   90.00000000
_cell_angle_gamma   90.00000000
_symmetry_Int_Tables_number   1
_chemical_formula_structural   Cu2Ni4C7
_chemical_formula_sum   'Cu16 Ni32 C56'
_cell_volume   2997.63448920
_cell_formula_units_Z   8
loop_
 _symmetry_equiv_pos_site_id
 _symmetry_equiv_pos_as_xyz
  1  'x, y, z'
loop_
 _atom_site_type_symbol
 _atom_site_label
 _atom_site_symmetry_multiplicity
 _atom_site_fract_x
 _atom_site_fract_y
 _atom_site_fract_z
 _atom_site_occupancy
  C  C0  1  0.30183300  0.01046200  0.88689600  1
  C  C1  1  0.80183300  0.48953800  0.11310400  1
  C  C2  1  0.69816700  0.51046200  0.61310400  1
  C  C3  1  0.19816700  0.98953800  0.38689600  1
  C  C4  1  0.69816700  0.98953800  0.11310400  1
  C  C5  1  0.19816700  0.51046200  0.88689600  1
  C  C6  1  0.30183300  0.48953800  0.38689600  1
  C  C7  1  0.80183300  0.01046200  0.61310400  1
  Ni  Ni8  1  0.73067100  0.23747000  0.87216400  1
  Ni  Ni9  1  0.23067100  0.26253000  0.12783600  1
  Ni  Ni10  1  0.26932900  0.73747000  0.62783600  1
  Ni  Ni11  1  0.76932900  0.76253000  0.37216400  1
  Ni  Ni12  1  0.26932900  0.76253000  0.12783600  1
  Ni  Ni13  1  0.76932900  0.73747000  0.87216400  1
  Ni  Ni14  1  0.73067100  0.26253000  0.37216400  1
  Ni  Ni15  1  0.23067100  0.23747000  0.62783600  1
  Ni  Ni16  1  0.47894200  0.29365100  0.99529900  1
  Ni  Ni17  1  0.97894200  0.20634900  0.00470100  1
  Ni  Ni18  1  0.52105800  0.79365100  0.50470100  1
  Ni  Ni19  1  0.02105800  0.70634900  0.49529900  1
  Ni  Ni20  1  0.52105800  0.70634900  0.00470100  1
  Ni  Ni21  1  0.02105800  0.79365100  0.99529900  1
  Ni  Ni22  1  0.47894200  0.20634900  0.49529900  1
  Ni  Ni23  1  0.97894200  0.29365100  0.50470100  1
  Ni  Ni24  1  0.47968100  0.24584800  0.74595300  1
  Ni  Ni25  1  0.97968100  0.25415200  0.25404700  1
  Ni  Ni26  1  0.52031900  0.74584800  0.75404700  1
  Ni  Ni27  1  0.02031900  0.75415200  0.24595300  1
  Ni  Ni28  1  0.52031900  0.75415200  0.25404700  1
  Ni  Ni29  1  0.02031900  0.74584800  0.74595300  1
  Ni  Ni30  1  0.47968100  0.25415200  0.24595300  1
  Ni  Ni31  1  0.97968100  0.24584800  0.75404700  1
  Ni  Ni32  1  0.58947100  0.49217700  0.85510400  1
  Ni  Ni33  1  0.08947100  0.00782300  0.14489600  1
  Ni  Ni34  1  0.41052900  0.99217700  0.64489600  1
  Ni  Ni35  1  0.91052900  0.50782300  0.35510400  1
  Ni  Ni36  1  0.41052900  0.50782300  0.14489600  1
  Ni  Ni37  1  0.91052900  0.99217700  0.85510400  1
  Ni  Ni38  1  0.58947100  0.00782300  0.35510400  1
  Ni  Ni39  1  0.08947100  0.49217700  0.64489600  1
  Cu  Cu40  1  0.90103800  0.17187800  0.87299700  1
  Cu  Cu41  1  0.40103800  0.32812200  0.12700300  1
  Cu  Cu42  1  0.09896200  0.67187800  0.62700300  1
  Cu  Cu43  1  0.59896200  0.82812200  0.37299700  1
  Cu  Cu44  1  0.09896200  0.82812200  0.12700300  1
  Cu  Cu45  1  0.59896200  0.67187800  0.87299700  1
  Cu  Cu46  1  0.90103800  0.32812200  0.37299700  1
  Cu  Cu47  1  0.40103800  0.17187800  0.62700300  1
  Cu  Cu48  1  0.56478500  0.31315000  0.86461200  1
  Cu  Cu49  1  0.06478500  0.18685000  0.13538800  1
  Cu  Cu50  1  0.43521500  0.81315000  0.63538800  1
  Cu  Cu51  1  0.93521500  0.68685000  0.36461200  1
  Cu  Cu52  1  0.43521500  0.68685000  0.13538800  1
  Cu  Cu53  1  0.93521500  0.81315000  0.86461200  1
  Cu  Cu54  1  0.56478500  0.18685000  0.36461200  1
  Cu  Cu55  1  0.06478500  0.31315000  0.63538800  1
  C  C56  1  0.35961100  0.09800600  0.01027000  1
  C  C57  1  0.85961100  0.40199400  0.98973000  1
  C  C58  1  0.64038900  0.59800600  0.48973000  1
  C  C59  1  0.14038900  0.90199400  0.51027000  1
  C  C60  1  0.64038900  0.90199400  0.98973000  1
  C  C61  1  0.14038900  0.59800600  0.01027000  1
  C  C62  1  0.35961100  0.40199400  0.51027000  1
  C  C63  1  0.85961100  0.09800600  0.48973000  1
  C  C64  1  0.12711000  0.01187400  0.94755500  1
  C  C65  1  0.62711000  0.48812600  0.05244500  1
  C  C66  1  0.87289000  0.51187400  0.55244500  1
  C  C67  1  0.37289000  0.98812600  0.44755500  1
  C  C68  1  0.87289000  0.98812600  0.05244500  1
  C  C69  1  0.37289000  0.51187400  0.94755500  1
  C  C70  1  0.12711000  0.48812600  0.44755500  1
  C  C71  1  0.62711000  0.01187400  0.55244500  1
  C  C72  1  0.26582200  0.17018500  0.82103600  1
  C  C73  1  0.76582200  0.32981500  0.17896400  1
  C  C74  1  0.73417800  0.67018500  0.67896400  1
  C  C75  1  0.23417800  0.82981500  0.32103600  1
  C  C76  1  0.73417800  0.82981500  0.17896400  1
  C  C77  1  0.23417800  0.67018500  0.82103600  1
  C  C78  1  0.26582200  0.32981500  0.32103600  1
  C  C79  1  0.76582200  0.17018500  0.67896400  1
  C  C80  1  0.22856800  0.92891600  0.76543100  1
  C  C81  1  0.72856800  0.57108400  0.23456900  1
  C  C82  1  0.77143200  0.42891600  0.73456900  1
  C  C83  1  0.27143200  0.07108400  0.26543100  1
  C  C84  1  0.77143200  0.07108400  0.23456900  1
  C  C85  1  0.27143200  0.42891600  0.76543100  1
  C  C86  1  0.22856800  0.57108400  0.26543100  1
  C  C87  1  0.72856800  0.92891600  0.73456900  1
  C  C88  1  0.33568100  0.85001900  0.95304800  1
  C  C89  1  0.83568100  0.64998100  0.04695200  1
  C  C90  1  0.66431900  0.35001900  0.54695200  1
  C  C91  1  0.16431900  0.14998100  0.45304800  1
  C  C92  1  0.66431900  0.14998100  0.04695200  1
  C  C93  1  0.16431900  0.35001900  0.95304800  1
  C  C94  1  0.33568100  0.64998100  0.45304800  1
  C  C95  1  0.83568100  0.85001900  0.54695200  1
  C  C96  1  0.47294200  0.01189800  0.82708600  1
  C  C97  1  0.97294200  0.48810200  0.17291400  1
  C  C98  1  0.52705800  0.51189800  0.67291400  1
  C  C99  1  0.02705800  0.98810200  0.32708600  1
  C  C100  1  0.52705800  0.98810200  0.17291400  1
  C  C101  1  0.02705800  0.51189800  0.82708600  1
  C  C102  1  0.47294200  0.48810200  0.32708600  1
  C  C103  1  0.97294200  0.01189800  0.67291400  1
