# generated using pymatgen
data_Cu2NiC16
_symmetry_space_group_name_H-M   'P 1'
_cell_length_a   5.34897413
_cell_length_b   5.34057642
_cell_length_c   10.98953398
_cell_angle_alpha   89.88957897
_cell_angle_beta   89.98519134
_cell_angle_gamma   59.85192440
_symmetry_Int_Tables_number   1
_chemical_formula_structural   Cu2NiC16
_chemical_formula_sum   'Cu2 Ni1 C16'
_cell_volume   271.46737058
_cell_formula_units_Z   1
loop_
 _symmetry_equiv_pos_site_id
 _symmetry_equiv_pos_as_xyz
  1  'x, y, z'
loop_
 _atom_site_type_symbol
 _atom_site_label
 _atom_site_symmetry_multiplicity
 _atom_site_fract_x
 _atom_site_fract_y
 _atom_site_fract_z
 _atom_site_occupancy
  C  C0  1  0.00128000  0.99861700  0.53391800  1
  C  C1  1  0.00228400  0.99854100  0.96601000  1
  Ni  Ni2  1  0.99933700  0.00008000  0.25015500  1
  Cu  Cu3  1  0.33789900  0.33054300  0.75008800  1
  Cu  Cu4  1  0.66824600  0.66314200  0.25014700  1
  C  C5  1  0.66833600  0.66740800  0.74988400  1
  C  C6  1  0.33275600  0.33232000  0.25000200  1
  C  C7  1  0.97720500  0.37643400  0.64824000  1
  C  C8  1  0.64651900  0.97532400  0.64649600  1
  C  C9  1  0.37867900  0.65292900  0.64710000  1
  C  C10  1  0.65058400  0.02867600  0.15191900  1
  C  C11  1  0.31566500  0.65084100  0.15128000  1
  C  C12  1  0.02913600  0.32084100  0.15146900  1
  C  C13  1  0.03160300  0.65013700  0.34854900  1
  C  C14  1  0.31721500  0.03052600  0.34899900  1
  C  C15  1  0.64879500  0.32180200  0.34785900  1
  C  C16  1  0.37697600  0.97310400  0.85242700  1
  C  C17  1  0.64546400  0.37866600  0.85164300  1
  C  C18  1  0.97201900  0.65007100  0.85381500  1
