# generated using pymatgen
data_Cu(NiC18)2
_symmetry_space_group_name_H-M   'P 1'
_cell_length_a   7.90966349
_cell_length_b   7.87857900
_cell_length_c   16.01830440
_cell_angle_alpha   90.00000000
_cell_angle_beta   107.50292907
_cell_angle_gamma   90.00000000
_symmetry_Int_Tables_number   1
_chemical_formula_structural   Cu(NiC18)2
_chemical_formula_sum   'Cu2 Ni4 C72'
_cell_volume   951.99560781
_cell_formula_units_Z   2
loop_
 _symmetry_equiv_pos_site_id
 _symmetry_equiv_pos_as_xyz
  1  'x, y, z'
loop_
 _atom_site_type_symbol
 _atom_site_label
 _atom_site_symmetry_multiplicity
 _atom_site_fract_x
 _atom_site_fract_y
 _atom_site_fract_z
 _atom_site_occupancy
  C  C0  1  0.50629300  0.31063100  0.20461700  1
  C  C1  1  0.49370700  0.68936900  0.79538400  1
  C  C2  1  0.49370700  0.81063100  0.29538400  1
  C  C3  1  0.50629300  0.18936900  0.70461600  1
  Ni  Ni4  1  0.15921100  0.52518400  0.25301000  1
  Ni  Ni5  1  0.84078900  0.47481600  0.74699000  1
  Ni  Ni6  1  0.84078900  0.02518400  0.24699000  1
  Ni  Ni7  1  0.15921100  0.97481600  0.75301000  1
  C  C8  1  0.74927700  0.17196400  0.05381100  1
  C  C9  1  0.25072300  0.82803600  0.94618900  1
  C  C10  1  0.25072300  0.67196400  0.44618900  1
  C  C11  1  0.74927700  0.32803600  0.55381100  1
  C  C12  1  0.19953100  0.19903000  0.00249500  1
  C  C13  1  0.80046900  0.80097000  0.99750500  1
  C  C14  1  0.80046900  0.69903000  0.49750500  1
  C  C15  1  0.19953100  0.30097000  0.50249500  1
  C  C16  1  0.14896000  0.14409400  0.32388600  1
  C  C17  1  0.85104000  0.85590600  0.67611400  1
  C  C18  1  0.85104000  0.64409400  0.17611400  1
  C  C19  1  0.14896000  0.35590600  0.82388600  1
  Cu  Cu20  1  0.50000000  0.00000000  0.50000000  1
  Cu  Cu21  1  0.50000000  0.50000000  0.00000000  1
  C  C22  1  0.61842200  0.45989000  0.37995000  1
  C  C23  1  0.38157800  0.54011000  0.62005000  1
  C  C24  1  0.38157800  0.95989000  0.12005000  1
  C  C25  1  0.61842200  0.04011000  0.87995000  1
  C  C26  1  0.27287200  0.61885600  0.13195000  1
  C  C27  1  0.72712800  0.38114400  0.86805000  1
  C  C28  1  0.72712800  0.11885600  0.36805000  1
  C  C29  1  0.27287200  0.88114400  0.63195000  1
  C  C30  1  0.24149700  0.03050600  0.15981600  1
  C  C31  1  0.75850300  0.96949400  0.84018400  1
  C  C32  1  0.75850300  0.53050600  0.34018400  1
  C  C33  1  0.24149700  0.46949400  0.65981600  1
  C  C34  1  0.21527200  0.30605400  0.27388000  1
  C  C35  1  0.78472800  0.69394600  0.72612000  1
  C  C36  1  0.78472800  0.80605400  0.22612000  1
  C  C37  1  0.21527200  0.19394600  0.77388000  1
  C  C38  1  0.31102500  0.59122700  0.19438400  1
  C  C39  1  0.68897500  0.40877300  0.80561600  1
  C  C40  1  0.68897500  0.09122700  0.30561600  1
  C  C41  1  0.31102500  0.90877300  0.69438400  1
  C  C42  1  0.28373300  0.01172400  0.99680400  1
  C  C43  1  0.71626700  0.98827600  0.00319600  1
  C  C44  1  0.71626700  0.51172400  0.50319600  1
  C  C45  1  0.28373300  0.48827600  0.49680400  1
  C  C46  1  0.08603900  0.23405900  0.40683100  1
  C  C47  1  0.91396100  0.76594100  0.59316900  1
  C  C48  1  0.91396100  0.73405900  0.09316900  1
  C  C49  1  0.08603900  0.26594100  0.90683100  1
  C  C50  1  0.32525700  0.02119300  0.36897300  1
  C  C51  1  0.67474300  0.97880700  0.63102700  1
  C  C52  1  0.67474300  0.52119300  0.13102700  1
  C  C53  1  0.32525700  0.47880700  0.86897300  1
  C  C54  1  0.34804500  0.33403600  0.05560100  1
  C  C55  1  0.65195500  0.66596400  0.94439900  1
  C  C56  1  0.65195500  0.83403600  0.44439900  1
  C  C57  1  0.34804500  0.16596400  0.55560100  1
  C  C58  1  0.36807600  0.99816500  0.17649400  1
  C  C59  1  0.63192400  0.00183500  0.82350600  1
  C  C60  1  0.63192400  0.49816500  0.32350600  1
  C  C61  1  0.36807600  0.50183500  0.67649400  1
  C  C62  1  0.72332000  0.14511400  0.14971800  1
  C  C63  1  0.27668000  0.85488600  0.85028200  1
  C  C64  1  0.27668000  0.64511400  0.35028200  1
  C  C65  1  0.72332000  0.35488600  0.64971800  1
  C  C66  1  0.37655400  0.70744000  0.02081000  1
  C  C67  1  0.62344600  0.29256000  0.97919000  1
  C  C68  1  0.62344600  0.20744000  0.47919000  1
  C  C69  1  0.37655400  0.79256000  0.52081000  1
  C  C70  1  0.94764300  0.26772800  0.06554600  1
  C  C71  1  0.05235700  0.73227200  0.93445400  1
  C  C72  1  0.05235700  0.76772800  0.43445400  1
  C  C73  1  0.94764300  0.23227200  0.56554600  1
  C  C74  1  0.07971900  0.13394800  0.06838200  1
  C  C75  1  0.92028100  0.86605200  0.93161800  1
  C  C76  1  0.92028100  0.63394800  0.43161800  1
  C  C77  1  0.07971900  0.36605200  0.56838200  1
