# generated using pymatgen
data_CuNi3C8
_symmetry_space_group_name_H-M   'P 1'
_cell_length_a   3.40150771
_cell_length_b   3.40150771
_cell_length_c   40.68593200
_cell_angle_alpha   90.00000000
_cell_angle_beta   90.00000000
_cell_angle_gamma   119.99999429
_symmetry_Int_Tables_number   1
_chemical_formula_structural   CuNi3C8
_chemical_formula_sum   'Cu1 Ni3 C8'
_cell_volume   407.67853345
_cell_formula_units_Z   1
loop_
 _symmetry_equiv_pos_site_id
 _symmetry_equiv_pos_as_xyz
  1  'x, y, z'
loop_
 _atom_site_type_symbol
 _atom_site_label
 _atom_site_symmetry_multiplicity
 _atom_site_fract_x
 _atom_site_fract_y
 _atom_site_fract_z
 _atom_site_occupancy
  C  C0  1  0.33333300  0.66666700  0.70620500  1
  C  C1  1  0.66666700  0.33333300  0.42128900  1
  C  C2  1  0.66666700  0.33333300  0.51337600  1
  C  C3  1  0.33333300  0.66666700  0.61359200  1
  Ni  Ni4  1  0.33333300  0.66666700  0.09397500  1
  Ni  Ni5  1  0.33333300  0.66666700  0.46733900  1
  Ni  Ni6  1  0.66666700  0.33333300  0.28170100  1
  Cu  Cu7  1  0.66666700  0.33333300  0.65991300  1
  C  C8  1  0.66666700  0.33333300  0.05346900  1
  C  C9  1  0.66666700  0.33333300  0.13448400  1
  C  C10  1  0.33333300  0.66666700  0.31863400  1
  C  C11  1  0.33333300  0.66666700  0.24477100  1
