# generated using pymatgen
data_CuNiC8
_symmetry_space_group_name_H-M   'P 1'
_cell_length_a   5.46786477
_cell_length_b   7.82856175
_cell_length_c   5.58973052
_cell_angle_alpha   89.93786310
_cell_angle_beta   90.05019982
_cell_angle_gamma   91.78988851
_symmetry_Int_Tables_number   1
_chemical_formula_structural   CuNiC8
_chemical_formula_sum   'Cu2 Ni2 C16'
_cell_volume   239.15433584
_cell_formula_units_Z   2
loop_
 _symmetry_equiv_pos_site_id
 _symmetry_equiv_pos_as_xyz
  1  'x, y, z'
loop_
 _atom_site_type_symbol
 _atom_site_label
 _atom_site_symmetry_multiplicity
 _atom_site_fract_x
 _atom_site_fract_y
 _atom_site_fract_z
 _atom_site_occupancy
  C  C0  1  0.50297700  0.75066000  0.99985400  1
  C  C1  1  0.00292700  0.25201900  0.49969700  1
  C  C2  1  0.49702300  0.24934000  0.00014700  1
  C  C3  1  0.99707300  0.74798100  0.50030200  1
  Ni  Ni4  1  0.00000000  0.50000000  0.00000000  1
  Ni  Ni5  1  0.50000000  0.00000000  0.50000000  1
  Cu  Cu6  1  0.50000000  0.50000000  0.50000000  1
  Cu  Cu7  1  0.00000000  0.00000000  0.00000000  1
  C  C8  1  0.77611300  0.46858000  0.70254800  1
  C  C9  1  0.27499600  0.96885400  0.20183900  1
  C  C10  1  0.00549600  0.23958700  0.06859200  1
  C  C11  1  0.50529600  0.73885700  0.56771100  1
  C  C12  1  0.70740500  0.53661100  0.22938600  1
  C  C13  1  0.20799300  0.03673600  0.72966200  1
  C  C14  1  0.22388600  0.53142000  0.29745200  1
  C  C15  1  0.72500400  0.03114600  0.79816100  1
  C  C16  1  0.29259500  0.46338900  0.77061400  1
  C  C17  1  0.79200700  0.96326400  0.27033800  1
  C  C18  1  0.99450400  0.76041300  0.93140800  1
  C  C19  1  0.49470500  0.26114300  0.43228900  1
