# generated using pymatgen
data_Cu(NiC3)2
_symmetry_space_group_name_H-M   'P 1'
_cell_length_a   5.47762430
_cell_length_b   5.47762430
_cell_length_c   12.83776064
_cell_angle_alpha   89.81738350
_cell_angle_beta   89.81738350
_cell_angle_gamma   119.97541108
_symmetry_Int_Tables_number   1
_chemical_formula_structural   Cu(NiC3)2
_chemical_formula_sum   'Cu4 Ni8 C24'
_cell_volume   333.65921654
_cell_formula_units_Z   4
loop_
 _symmetry_equiv_pos_site_id
 _symmetry_equiv_pos_as_xyz
  1  'x, y, z'
loop_
 _atom_site_type_symbol
 _atom_site_label
 _atom_site_symmetry_multiplicity
 _atom_site_fract_x
 _atom_site_fract_y
 _atom_site_fract_z
 _atom_site_occupancy
  C  C0  1  0.66624600  0.33280000  0.75294100  1
  C  C1  1  0.33280000  0.66624600  0.25294100  1
  Ni  Ni2  1  0.00339800  0.00783000  0.64646700  1
  Ni  Ni3  1  0.99619200  0.99140100  0.35181100  1
  Ni  Ni4  1  0.00783000  0.00339800  0.14646700  1
  Ni  Ni5  1  0.99140100  0.99619200  0.85181100  1
  Ni  Ni6  1  0.33241600  0.66493700  0.72941100  1
  Ni  Ni7  1  0.66493700  0.33241600  0.22941100  1
  Ni  Ni8  1  0.50147400  0.00295600  0.49853600  1
  Ni  Ni9  1  0.00295600  0.50147400  0.99853600  1
  Cu  Cu10  1  0.99491600  0.49783800  0.49846500  1
  Cu  Cu11  1  0.50287400  0.49785700  0.49842200  1
  Cu  Cu12  1  0.49783800  0.99491600  0.99846500  1
  Cu  Cu13  1  0.49785700  0.50287400  0.99842200  1
  C  C14  1  0.18978100  0.83675600  0.07781900  1
  C  C15  1  0.18929300  0.35183200  0.07787600  1
  C  C16  1  0.64847800  0.82427200  0.07661800  1
  C  C17  1  0.81043100  0.16429900  0.92211000  1
  C  C18  1  0.81101900  0.64766000  0.92195300  1
  C  C19  1  0.35367900  0.17693500  0.92352200  1
  C  C20  1  0.83675600  0.18978100  0.57781900  1
  C  C21  1  0.82427200  0.64847800  0.57661800  1
  C  C22  1  0.35183200  0.18929300  0.57787600  1
  C  C23  1  0.16429900  0.81043100  0.42211000  1
  C  C24  1  0.17693500  0.35367900  0.42352200  1
  C  C25  1  0.64766000  0.81101900  0.42195300  1
  C  C26  1  0.15148200  0.84828200  0.74856500  1
  C  C27  1  0.15042000  0.30320900  0.75252400  1
  C  C28  1  0.69609000  0.84914900  0.74526400  1
  C  C29  1  0.84828200  0.15148200  0.24856500  1
  C  C30  1  0.84914900  0.69609000  0.24526400  1
  C  C31  1  0.30320900  0.15042000  0.25252400  1
  C  C32  1  0.32762900  0.65620400  0.57795000  1
  C  C33  1  0.67391600  0.34680700  0.42474100  1
  C  C34  1  0.65620400  0.32762900  0.07795000  1
  C  C35  1  0.34680700  0.67391600  0.92474100  1
