# generated using pymatgen
data_CuNiC5
_symmetry_space_group_name_H-M   'P 1'
_cell_length_a   11.34383000
_cell_length_b   3.59847400
_cell_length_c   13.09653100
_cell_angle_alpha   90.00000000
_cell_angle_beta   90.00000000
_cell_angle_gamma   90.00000000
_symmetry_Int_Tables_number   1
_chemical_formula_structural   CuNiC5
_chemical_formula_sum   'Cu4 Ni4 C20'
_cell_volume   534.60664660
_cell_formula_units_Z   4
loop_
 _symmetry_equiv_pos_site_id
 _symmetry_equiv_pos_as_xyz
  1  'x, y, z'
loop_
 _atom_site_type_symbol
 _atom_site_label
 _atom_site_symmetry_multiplicity
 _atom_site_fract_x
 _atom_site_fract_y
 _atom_site_fract_z
 _atom_site_occupancy
  C  C0  1  0.93733500  0.75000000  0.89886400  1
  C  C1  1  0.56266500  0.25000000  0.39886400  1
  C  C2  1  0.08845300  0.25000000  0.58868800  1
  C  C3  1  0.41154700  0.75000000  0.08868800  1
  Ni  Ni4  1  0.05057900  0.25000000  0.11883600  1
  Ni  Ni5  1  0.44942100  0.75000000  0.61883600  1
  Ni  Ni6  1  0.92498700  0.75000000  0.40154200  1
  Ni  Ni7  1  0.57501300  0.25000000  0.90154200  1
  Cu  Cu8  1  0.24139500  0.25000000  0.31591400  1
  Cu  Cu9  1  0.75597500  0.75000000  0.67033600  1
  Cu  Cu10  1  0.25860500  0.75000000  0.81591400  1
  Cu  Cu11  1  0.74402500  0.25000000  0.17033600  1
  C  C12  1  0.03562700  0.75000000  0.71656700  1
  C  C13  1  0.96791200  0.25000000  0.28941700  1
  C  C14  1  0.46437300  0.25000000  0.21656700  1
  C  C15  1  0.53208800  0.75000000  0.78941700  1
  C  C16  1  0.08780500  0.25000000  0.93705600  1
  C  C17  1  0.90928000  0.75000000  0.08551900  1
  C  C18  1  0.41219500  0.75000000  0.43705600  1
  C  C19  1  0.59072000  0.25000000  0.58551900  1
  C  C20  1  0.12596000  0.75000000  0.45846700  1
  C  C21  1  0.88097000  0.25000000  0.52245900  1
  C  C22  1  0.37404000  0.25000000  0.95846700  1
  C  C23  1  0.61903000  0.75000000  0.02245900  1
  C  C24  1  0.19205700  0.75000000  0.15084900  1
  C  C25  1  0.78981600  0.25000000  0.84548700  1
  C  C26  1  0.30794300  0.25000000  0.65084900  1
  C  C27  1  0.71018400  0.75000000  0.34548700  1
