# generated using pymatgen
data_CuNiC8
_symmetry_space_group_name_H-M   'P 1'
_cell_length_a   5.76691900
_cell_length_b   5.33001900
_cell_length_c   9.33213695
_cell_angle_alpha   55.43263033
_cell_angle_beta   90.00000000
_cell_angle_gamma   90.00000000
_symmetry_Int_Tables_number   1
_chemical_formula_structural   CuNiC8
_chemical_formula_sum   'Cu2 Ni2 C16'
_cell_volume   236.20877248
_cell_formula_units_Z   2
loop_
 _symmetry_equiv_pos_site_id
 _symmetry_equiv_pos_as_xyz
  1  'x, y, z'
loop_
 _atom_site_type_symbol
 _atom_site_label
 _atom_site_symmetry_multiplicity
 _atom_site_fract_x
 _atom_site_fract_y
 _atom_site_fract_z
 _atom_site_occupancy
  C  C0  1  0.07465700  0.72209900  0.75271500  1
  C  C1  1  0.92534300  0.27790100  0.24728500  1
  C  C2  1  0.57465700  0.27790100  0.74728500  1
  C  C3  1  0.42534300  0.72209900  0.25271500  1
  Ni  Ni4  1  0.50000000  0.50000000  0.00000000  1
  Ni  Ni5  1  0.00000000  0.50000000  0.50000000  1
  Cu  Cu6  1  0.50000000  0.00000000  0.50000000  1
  Cu  Cu7  1  0.00000000  0.00000000  0.00000000  1
  C  C8  1  0.44599000  0.88027800  0.74898000  1
  C  C9  1  0.55401000  0.11972200  0.25102000  1
  C  C10  1  0.94599000  0.11972200  0.75102000  1
  C  C11  1  0.05401000  0.88027800  0.24898000  1
  C  C12  1  0.80255500  0.74796000  0.56784500  1
  C  C13  1  0.19744500  0.25204000  0.43215500  1
  C  C14  1  0.30255500  0.25204000  0.93215500  1
  C  C15  1  0.69744500  0.74796000  0.06784500  1
  C  C16  1  0.31141300  0.62562200  0.55748800  1
  C  C17  1  0.68858700  0.37437800  0.44251200  1
  C  C18  1  0.81141300  0.37437800  0.94251200  1
  C  C19  1  0.18858700  0.62562200  0.05748800  1
