# generated using pymatgen
data_CuNiC3
_symmetry_space_group_name_H-M   'P 1'
_cell_length_a   5.91593300
_cell_length_b   6.12355700
_cell_length_c   8.61089700
_cell_angle_alpha   90.00000000
_cell_angle_beta   90.00000000
_cell_angle_gamma   90.00000000
_symmetry_Int_Tables_number   1
_chemical_formula_structural   CuNiC3
_chemical_formula_sum   'Cu4 Ni4 C12'
_cell_volume   311.94311598
_cell_formula_units_Z   4
loop_
 _symmetry_equiv_pos_site_id
 _symmetry_equiv_pos_as_xyz
  1  'x, y, z'
loop_
 _atom_site_type_symbol
 _atom_site_label
 _atom_site_symmetry_multiplicity
 _atom_site_fract_x
 _atom_site_fract_y
 _atom_site_fract_z
 _atom_site_occupancy
  Ni  Ni0  1  0.98414800  0.45233000  0.25000000  1
  Ni  Ni1  1  0.48414800  0.04767000  0.75000000  1
  Ni  Ni2  1  0.51585200  0.95233000  0.25000000  1
  Ni  Ni3  1  0.01585200  0.54767000  0.75000000  1
  Cu  Cu4  1  0.00000000  0.00000000  0.00000000  1
  Cu  Cu5  1  0.50000000  0.50000000  0.00000000  1
  Cu  Cu6  1  0.50000000  0.50000000  0.50000000  1
  Cu  Cu7  1  0.00000000  0.00000000  0.50000000  1
  C  C8  1  0.69107600  0.19297500  0.07092400  1
  C  C9  1  0.19107600  0.30702500  0.92907600  1
  C  C10  1  0.80892400  0.69297500  0.42907600  1
  C  C11  1  0.30892400  0.80702500  0.57092400  1
  C  C12  1  0.30892400  0.80702500  0.92907600  1
  C  C13  1  0.80892400  0.69297500  0.07092400  1
  C  C14  1  0.19107600  0.30702500  0.57092400  1
  C  C15  1  0.69107600  0.19297500  0.42907600  1
  C  C16  1  0.13274600  0.06272800  0.25000000  1
  C  C17  1  0.63274600  0.43727200  0.75000000  1
  C  C18  1  0.36725400  0.56272800  0.25000000  1
  C  C19  1  0.86725400  0.93727200  0.75000000  1
