# generated using pymatgen
data_Cu5Ni2C25
_symmetry_space_group_name_H-M   'P 1'
_cell_length_a   7.78583987
_cell_length_b   7.78583987
_cell_length_c   12.90237785
_cell_angle_alpha   87.70856351
_cell_angle_beta   87.70856351
_cell_angle_gamma   21.60810740
_symmetry_Int_Tables_number   1
_chemical_formula_structural   Cu5Ni2C25
_chemical_formula_sum   'Cu5 Ni2 C25'
_cell_volume   287.78661088
_cell_formula_units_Z   1
loop_
 _symmetry_equiv_pos_site_id
 _symmetry_equiv_pos_as_xyz
  1  'x, y, z'
loop_
 _atom_site_type_symbol
 _atom_site_label
 _atom_site_symmetry_multiplicity
 _atom_site_fract_x
 _atom_site_fract_y
 _atom_site_fract_z
 _atom_site_occupancy
  C  C0  1  0.56181000  0.56181000  0.81092800  1
  C  C1  1  0.43819000  0.43819000  0.18907200  1
  C  C2  1  0.31843700  0.31843700  0.55919500  1
  C  C3  1  0.18738200  0.18738200  0.93774000  1
  C  C4  1  0.06344000  0.06344000  0.32121500  1
  C  C5  1  0.93656000  0.93656000  0.67878500  1
  C  C6  1  0.81261800  0.81261800  0.06226000  1
  C  C7  1  0.68156300  0.68156300  0.44080500  1
  C  C8  1  0.50000000  0.50000000  0.50000000  1
  Ni  Ni9  1  0.12106000  0.12106000  0.61882600  1
  Ni  Ni10  1  0.87894000  0.87894000  0.38117400  1
  Cu  Cu11  1  0.00000000  0.00000000  0.00000000  1
  Cu  Cu12  1  0.74960000  0.74960000  0.74921700  1
  Cu  Cu13  1  0.62509700  0.62509700  0.12584900  1
  Cu  Cu14  1  0.37490300  0.37490300  0.87415100  1
  Cu  Cu15  1  0.25040000  0.25040000  0.25078300  1
  C  C16  1  0.54093000  0.54093000  0.65399800  1
  C  C17  1  0.41199800  0.41199800  0.02716600  1
  C  C18  1  0.29220900  0.29220900  0.40040400  1
  C  C19  1  0.16105300  0.16105300  0.77099000  1
  C  C20  1  0.03795800  0.03795800  0.15184600  1
  C  C21  1  0.90204700  0.90204700  0.51921900  1
  C  C22  1  0.78605000  0.78605000  0.90049700  1
  C  C23  1  0.66255100  0.66255100  0.27796500  1
  C  C24  1  0.58800200  0.58800200  0.97283400  1
  C  C25  1  0.45907000  0.45907000  0.34600200  1
  C  C26  1  0.33744900  0.33744900  0.72203500  1
  C  C27  1  0.21395000  0.21395000  0.09950300  1
  C  C28  1  0.09795300  0.09795300  0.48078100  1
  C  C29  1  0.96204200  0.96204200  0.84815400  1
  C  C30  1  0.83894700  0.83894700  0.22901000  1
  C  C31  1  0.70779100  0.70779100  0.59959600  1
