# generated using pymatgen
data_Cu40Ni3C52
_symmetry_space_group_name_H-M   'P 1'
_cell_length_a   13.53969850
_cell_length_b   13.53969850
_cell_length_c   13.53969815
_cell_angle_alpha   86.50331089
_cell_angle_beta   86.50331089
_cell_angle_gamma   86.50331031
_symmetry_Int_Tables_number   1
_chemical_formula_structural   Cu40Ni3C52
_chemical_formula_sum   'Cu80 Ni6 C104'
_cell_volume   2468.82143407
_cell_formula_units_Z   2
loop_
 _symmetry_equiv_pos_site_id
 _symmetry_equiv_pos_as_xyz
  1  'x, y, z'
loop_
 _atom_site_type_symbol
 _atom_site_label
 _atom_site_symmetry_multiplicity
 _atom_site_fract_x
 _atom_site_fract_y
 _atom_site_fract_z
 _atom_site_occupancy
  C  C0  1  0.72336980  0.72336980  0.72336980  1
  C  C1  1  0.27663020  0.27663020  0.27663020  1
  C  C2  1  0.68104108  0.82077737  0.31311370  1
  C  C3  1  0.82077737  0.31311370  0.68104108  1
  C  C4  1  0.31311370  0.68104108  0.82077737  1
  C  C5  1  0.31895892  0.17922263  0.68688630  1
  C  C6  1  0.17922263  0.68688630  0.31895892  1
  C  C7  1  0.68688630  0.31895892  0.17922263  1
  C  C8  1  0.82051342  0.90310111  0.23884955  1
  C  C9  1  0.90310111  0.23884955  0.82051342  1
  C  C10  1  0.23884955  0.82051342  0.90310111  1
  C  C11  1  0.17948658  0.09689889  0.76115045  1
  C  C12  1  0.09689889  0.76115045  0.17948658  1
  C  C13  1  0.76115045  0.17948658  0.09689889  1
  C  C14  1  0.78788260  0.86659311  0.11967458  1
  C  C15  1  0.86659311  0.11967458  0.78788260  1
  C  C16  1  0.11967458  0.78788260  0.86659311  1
  C  C17  1  0.21211740  0.13340689  0.88032542  1
  C  C18  1  0.13340689  0.88032542  0.21211740  1
  C  C19  1  0.88032542  0.21211740  0.13340689  1
  C  C20  1  0.70669699  0.95001659  0.18881237  1
  C  C21  1  0.95001659  0.18881237  0.70669699  1
  C  C22  1  0.18881237  0.70669699  0.95001659  1
  C  C23  1  0.29330301  0.04998341  0.81118763  1
  C  C24  1  0.04998341  0.81118763  0.29330301  1
  C  C25  1  0.81118763  0.29330301  0.04998341  1
  C  C26  1  0.57918755  0.71941450  0.23142020  1
  C  C27  1  0.71941450  0.23142020  0.57918755  1
  C  C28  1  0.23142020  0.57918755  0.71941450  1
  C  C29  1  0.42081245  0.28058550  0.76857980  1
  C  C30  1  0.28058550  0.76857980  0.42081245  1
  C  C31  1  0.76857980  0.42081245  0.28058550  1
  C  C32  1  0.57017859  0.84513528  0.18000517  1
  C  C33  1  0.84513528  0.18000517  0.57017859  1
  C  C34  1  0.18000517  0.57017859  0.84513528  1
  C  C35  1  0.42982141  0.15486472  0.81999483  1
  C  C36  1  0.15486472  0.81999483  0.42982141  1
  C  C37  1  0.81999483  0.42982141  0.15486472  1
  C  C38  1  0.64475400  0.75200145  0.11593845  1
  C  C39  1  0.75200145  0.11593845  0.64475400  1
  C  C40  1  0.11593845  0.64475400  0.75200145  1
  C  C41  1  0.35524600  0.24799855  0.88406155  1
  C  C42  1  0.24799855  0.88406155  0.35524600  1
  C  C43  1  0.88406155  0.35524600  0.24799855  1
  C  C44  1  0.72845302  0.65062216  0.29729652  1
  C  C45  1  0.65062216  0.29729652  0.72845302  1
  C  C46  1  0.29729652  0.72845302  0.65062216  1
  C  C47  1  0.27154698  0.34937784  0.70270348  1
  C  C48  1  0.34937784  0.70270348  0.27154698  1
  C  C49  1  0.70270348  0.27154698  0.34937784  1
  C  C50  1  0.80001283  0.68242931  0.18520075  1
  C  C51  1  0.68242931  0.18520075  0.80001283  1
  C  C52  1  0.18520075  0.80001283  0.68242931  1
  C  C53  1  0.19998717  0.31757069  0.81479925  1
  C  C54  1  0.31757069  0.81479925  0.19998717  1
  C  C55  1  0.81479925  0.19998717  0.31757069  1
  C  C56  1  0.83468160  0.72248408  0.30196927  1
  C  C57  1  0.72248408  0.30196927  0.83468160  1
  C  C58  1  0.30196927  0.83468160  0.72248408  1
  C  C59  1  0.16531840  0.27751592  0.69803073  1
  C  C60  1  0.27751592  0.69803073  0.16531840  1
  C  C61  1  0.69803073  0.16531840  0.27751592  1
  C  C62  1  0.92761480  0.88629056  0.70716883  1
  C  C63  1  0.88629056  0.70716883  0.92761480  1
  C  C64  1  0.70716883  0.92761480  0.88629056  1
  C  C65  1  0.07238520  0.11370944  0.29283117  1
  C  C66  1  0.11370944  0.29283117  0.07238520  1
  C  C67  1  0.29283117  0.07238520  0.11370944  1
  C  C68  1  0.76621987  0.89893251  0.51504522  1
  C  C69  1  0.89893251  0.51504522  0.76621987  1
  C  C70  1  0.51504522  0.76621987  0.89893251  1
  C  C71  1  0.23378013  0.10106749  0.48495478  1
  C  C72  1  0.10106749  0.48495478  0.23378013  1
  C  C73  1  0.48495478  0.23378013  0.10106749  1
  C  C74  1  0.54559794  0.93405151  0.69444519  1
  C  C75  1  0.93405151  0.69444519  0.54559794  1
  C  C76  1  0.69444519  0.54559794  0.93405151  1
  C  C77  1  0.45440206  0.06594849  0.30555481  1
  C  C78  1  0.06594849  0.30555481  0.45440206  1
  C  C79  1  0.30555481  0.45440206  0.06594849  1
  C  C80  1  0.55793506  0.72559786  0.52206601  1
  C  C81  1  0.72559786  0.52206601  0.55793506  1
  C  C82  1  0.52206601  0.55793506  0.72559786  1
  C  C83  1  0.44206494  0.27440214  0.47793399  1
  C  C84  1  0.27440214  0.47793399  0.44206494  1
  C  C85  1  0.47793399  0.44206494  0.27440214  1
  C  C86  1  0.75979973  0.88577982  0.19409050  1
  C  C87  1  0.88577982  0.19409050  0.75979973  1
  C  C88  1  0.19409050  0.75979973  0.88577982  1
  C  C89  1  0.24020027  0.11422018  0.80590950  1
  C  C90  1  0.11422018  0.80590950  0.24020027  1
  C  C91  1  0.80590950  0.24020027  0.11422018  1
  C  C92  1  0.61841289  0.77771262  0.18858659  1
  C  C93  1  0.77771262  0.18858659  0.61841289  1
  C  C94  1  0.18858659  0.61841289  0.77771262  1
  C  C95  1  0.38158711  0.22228738  0.81141341  1
  C  C96  1  0.22228738  0.81141341  0.38158711  1
  C  C97  1  0.81141341  0.38158711  0.22228738  1
  C  C98  1  0.77279829  0.70735497  0.25794577  1
  C  C99  1  0.70735497  0.25794577  0.77279829  1
  C  C100  1  0.25794577  0.77279829  0.70735497  1
  C  C101  1  0.22720171  0.29264503  0.74205423  1
  C  C102  1  0.29264503  0.74205423  0.22720171  1
  C  C103  1  0.74205423  0.22720171  0.29264503  1
  Ni  Ni104  1  0.70679276  0.79988285  0.24339151  1
  Ni  Ni105  1  0.79988285  0.24339151  0.70679276  1
  Ni  Ni106  1  0.24339151  0.70679276  0.79988285  1
  Ni  Ni107  1  0.29320724  0.20011715  0.75660849  1
  Ni  Ni108  1  0.20011715  0.75660849  0.29320724  1
  Ni  Ni109  1  0.75660849  0.29320724  0.20011715  1
  Cu  Cu110  1  0.80150585  0.77635195  0.65447159  1
  Cu  Cu111  1  0.77635195  0.65447159  0.80150585  1
  Cu  Cu112  1  0.65447159  0.80150585  0.77635195  1
  Cu  Cu113  1  0.19849415  0.22364805  0.34552841  1
  Cu  Cu114  1  0.22364805  0.34552841  0.19849415  1
  Cu  Cu115  1  0.34552841  0.19849415  0.22364805  1
  Cu  Cu116  1  0.66117173  0.66117173  0.66117173  1
  Cu  Cu117  1  0.33882827  0.33882827  0.33882827  1
  Cu  Cu118  1  0.81646862  0.94291616  0.78823707  1
  Cu  Cu119  1  0.94291616  0.78823707  0.81646862  1
  Cu  Cu120  1  0.78823707  0.81646862  0.94291616  1
  Cu  Cu121  1  0.18353138  0.05708384  0.21176293  1
  Cu  Cu122  1  0.05708384  0.21176293  0.18353138  1
  Cu  Cu123  1  0.21176293  0.18353138  0.05708384  1
  Cu  Cu124  1  0.66229087  0.95156362  0.60458368  1
  Cu  Cu125  1  0.95156362  0.60458368  0.66229087  1
  Cu  Cu126  1  0.60458368  0.66229087  0.95156362  1
  Cu  Cu127  1  0.33770913  0.04843638  0.39541632  1
  Cu  Cu128  1  0.04843638  0.39541632  0.33770913  1
  Cu  Cu129  1  0.39541632  0.33770913  0.04843638  1
  Cu  Cu130  1  0.67080410  0.80509196  0.48079171  1
  Cu  Cu131  1  0.80509196  0.48079171  0.67080410  1
  Cu  Cu132  1  0.48079171  0.67080410  0.80509196  1
  Cu  Cu133  1  0.32919590  0.19490804  0.51920829  1
  Cu  Cu134  1  0.19490804  0.51920829  0.32919590  1
  Cu  Cu135  1  0.51920829  0.32919590  0.19490804  1
  Cu  Cu136  1  0.51623435  0.83100641  0.60941118  1
  Cu  Cu137  1  0.83100641  0.60941118  0.51623435  1
  Cu  Cu138  1  0.60941118  0.51623435  0.83100641  1
  Cu  Cu139  1  0.48376565  0.16899359  0.39058882  1
  Cu  Cu140  1  0.16899359  0.39058882  0.48376565  1
  Cu  Cu141  1  0.39058882  0.48376565  0.16899359  1
  Cu  Cu142  1  0.86543278  0.95133526  0.59225525  1
  Cu  Cu143  1  0.95133526  0.59225525  0.86543278  1
  Cu  Cu144  1  0.59225525  0.86543278  0.95133526  1
  Cu  Cu145  1  0.13456722  0.04866474  0.40774475  1
  Cu  Cu146  1  0.04866474  0.40774475  0.13456722  1
  Cu  Cu147  1  0.40774475  0.13456722  0.04866474  1
  Cu  Cu148  1  0.61713544  0.99510690  0.79421927  1
  Cu  Cu149  1  0.99510690  0.79421927  0.61713544  1
  Cu  Cu150  1  0.79421927  0.61713544  0.99510690  1
  Cu  Cu151  1  0.38286456  0.00489310  0.20578073  1
  Cu  Cu152  1  0.00489310  0.20578073  0.38286456  1
  Cu  Cu153  1  0.20578073  0.38286456  0.00489310  1
  Cu  Cu154  1  0.87098878  0.80348573  0.46810884  1
  Cu  Cu155  1  0.80348573  0.46810884  0.87098878  1
  Cu  Cu156  1  0.46810884  0.87098878  0.80348573  1
  Cu  Cu157  1  0.12901122  0.19651427  0.53189116  1
  Cu  Cu158  1  0.19651427  0.53189116  0.12901122  1
  Cu  Cu159  1  0.53189116  0.12901122  0.19651427  1
  Cu  Cu160  1  0.63650289  0.60881823  0.47964546  1
  Cu  Cu161  1  0.60881823  0.47964546  0.63650289  1
  Cu  Cu162  1  0.47964546  0.63650289  0.60881823  1
  Cu  Cu163  1  0.36349711  0.39118177  0.52035454  1
  Cu  Cu164  1  0.39118177  0.52035454  0.36349711  1
  Cu  Cu165  1  0.52035454  0.36349711  0.39118177  1
  Cu  Cu166  1  0.02113848  0.96489370  0.72484760  1
  Cu  Cu167  1  0.96489370  0.72484760  0.02113848  1
  Cu  Cu168  1  0.72484760  0.02113848  0.96489370  1
  Cu  Cu169  1  0.97886152  0.03510630  0.27515240  1
  Cu  Cu170  1  0.03510630  0.27515240  0.97886152  1
  Cu  Cu171  1  0.27515240  0.97886152  0.03510630  1
  Cu  Cu172  1  0.76316212  0.98506414  0.41446558  1
  Cu  Cu173  1  0.98506414  0.41446558  0.76316212  1
  Cu  Cu174  1  0.41446558  0.76316212  0.98506414  1
  Cu  Cu175  1  0.23683788  0.01493586  0.58553442  1
  Cu  Cu176  1  0.01493586  0.58553442  0.23683788  1
  Cu  Cu177  1  0.58553442  0.23683788  0.01493586  1
  Cu  Cu178  1  0.46282155  0.03131879  0.65908960  1
  Cu  Cu179  1  0.03131879  0.65908960  0.46282155  1
  Cu  Cu180  1  0.65908960  0.46282155  0.03131879  1
  Cu  Cu181  1  0.53717845  0.96868121  0.34091040  1
  Cu  Cu182  1  0.96868121  0.34091040  0.53717845  1
  Cu  Cu183  1  0.34091040  0.53717845  0.96868121  1
  Cu  Cu184  1  0.48197432  0.74924551  0.42318605  1
  Cu  Cu185  1  0.74924551  0.42318605  0.48197432  1
  Cu  Cu186  1  0.42318605  0.48197432  0.74924551  1
  Cu  Cu187  1  0.51802568  0.25075449  0.57681395  1
  Cu  Cu188  1  0.25075449  0.57681395  0.51802568  1
  Cu  Cu189  1  0.57681395  0.51802568  0.25075449  1
