# generated using pymatgen
data_Cu(NiC)10
_symmetry_space_group_name_H-M   'P 1'
_cell_length_a   8.97710900
_cell_length_b   11.50652500
_cell_length_c   12.47950300
_cell_angle_alpha   90.00000000
_cell_angle_beta   90.00000000
_cell_angle_gamma   90.00000000
_symmetry_Int_Tables_number   1
_chemical_formula_structural   Cu(NiC)10
_chemical_formula_sum   'Cu4 Ni40 C40'
_cell_volume   1289.07436984
_cell_formula_units_Z   4
loop_
 _symmetry_equiv_pos_site_id
 _symmetry_equiv_pos_as_xyz
  1  'x, y, z'
loop_
 _atom_site_type_symbol
 _atom_site_label
 _atom_site_symmetry_multiplicity
 _atom_site_fract_x
 _atom_site_fract_y
 _atom_site_fract_z
 _atom_site_occupancy
  C  C0  1  0.25355000  0.77102200  0.51574000  1
  C  C1  1  0.74645000  0.27102200  0.48426000  1
  C  C2  1  0.24645000  0.27102200  0.51574000  1
  C  C3  1  0.75355000  0.77102200  0.48426000  1
  C  C4  1  0.98759800  0.65773300  0.63407200  1
  C  C5  1  0.01240200  0.15773300  0.36592800  1
  C  C6  1  0.51240200  0.15773300  0.63407200  1
  C  C7  1  0.48759800  0.65773300  0.36592800  1
  C  C8  1  0.48133200  0.38366000  0.35250000  1
  C  C9  1  0.51866800  0.88366000  0.64750000  1
  C  C10  1  0.01866800  0.88366000  0.35250000  1
  C  C11  1  0.98133200  0.38366000  0.64750000  1
  Ni  Ni12  1  0.03876600  0.42730400  0.05295400  1
  Ni  Ni13  1  0.96123400  0.92730400  0.94704700  1
  Ni  Ni14  1  0.46123400  0.92730400  0.05295400  1
  Ni  Ni15  1  0.53876600  0.42730400  0.94704700  1
  Ni  Ni16  1  0.01170600  0.34976200  0.96745400  1
  Ni  Ni17  1  0.98829400  0.84976200  0.03254600  1
  Ni  Ni18  1  0.48829400  0.84976200  0.96745400  1
  Ni  Ni19  1  0.51170600  0.34976200  0.03254600  1
  Ni  Ni20  1  0.00588900  0.38302600  0.86052200  1
  Ni  Ni21  1  0.99411100  0.88302600  0.13947800  1
  Ni  Ni22  1  0.49411100  0.88302600  0.86052200  1
  Ni  Ni23  1  0.50588900  0.38302600  0.13947800  1
  Ni  Ni24  1  0.04004300  0.49949400  0.86645700  1
  Ni  Ni25  1  0.95995700  0.99949400  0.13354300  1
  Ni  Ni26  1  0.45995700  0.99949400  0.86645700  1
  Ni  Ni27  1  0.54004300  0.49949400  0.13354300  1
  Ni  Ni28  1  0.06892200  0.60233800  0.91526900  1
  Ni  Ni29  1  0.93107800  0.10233800  0.08473100  1
  Ni  Ni30  1  0.43107800  0.10233800  0.91526900  1
  Ni  Ni31  1  0.56892200  0.60233800  0.08473100  1
  Ni  Ni32  1  0.06274600  0.53105600  0.99945900  1
  Ni  Ni33  1  0.93725400  0.03105600  0.00054100  1
  Ni  Ni34  1  0.43725400  0.03105600  0.99945900  1
  Ni  Ni35  1  0.56274600  0.53105600  0.00054100  1
  Ni  Ni36  1  0.97555400  0.93491300  0.83293900  1
  Ni  Ni37  1  0.02444600  0.43491300  0.16706100  1
  Ni  Ni38  1  0.52444600  0.43491300  0.83293900  1
  Ni  Ni39  1  0.47555400  0.93491300  0.16706100  1
  Ni  Ni40  1  0.02216200  0.92075000  0.64161400  1
  Ni  Ni41  1  0.97783800  0.42075000  0.35838600  1
  Ni  Ni42  1  0.47783800  0.42075000  0.64161400  1
  Ni  Ni43  1  0.52216200  0.92075000  0.35838600  1
  Ni  Ni44  1  0.47673100  0.51582000  0.70007500  1
  Ni  Ni45  1  0.52326900  0.01582000  0.29992500  1
  Ni  Ni46  1  0.02326900  0.01582000  0.70007500  1
  Ni  Ni47  1  0.97673100  0.51582000  0.29992500  1
  Ni  Ni48  1  0.98581800  0.85698000  0.73630000  1
  Ni  Ni49  1  0.01418200  0.35698000  0.26370000  1
  Ni  Ni50  1  0.51418200  0.35698000  0.73630000  1
  Ni  Ni51  1  0.48581800  0.85698000  0.26370000  1
  Cu  Cu52  1  0.50032500  0.55078900  0.79509900  1
  Cu  Cu53  1  0.49967500  0.05078900  0.20490100  1
  Cu  Cu54  1  0.99967500  0.05078900  0.79509900  1
  Cu  Cu55  1  0.00032500  0.55078900  0.20490100  1
  C  C56  1  0.97587500  0.52300100  0.67112000  1
  C  C57  1  0.02412500  0.02300100  0.32888000  1
  C  C58  1  0.52412500  0.02300100  0.67112000  1
  C  C59  1  0.47587500  0.52300100  0.32888000  1
  C  C60  1  0.85940200  0.67855800  0.54684600  1
  C  C61  1  0.14059800  0.17855900  0.45315400  1
  C  C62  1  0.64059800  0.17855900  0.54684600  1
  C  C63  1  0.35940200  0.67855800  0.45315400  1
  C  C64  1  0.64012000  0.34924000  0.40646200  1
  C  C65  1  0.35988000  0.84924000  0.59353800  1
  C  C66  1  0.85988000  0.84924000  0.40646200  1
  C  C67  1  0.14012000  0.34924000  0.59353800  1
  C  C68  1  0.95912800  0.74215800  0.74208900  1
  C  C69  1  0.04087200  0.24215800  0.25791100  1
  C  C70  1  0.54087200  0.24215800  0.74208900  1
  C  C71  1  0.45912800  0.74215800  0.25791100  1
  C  C72  1  0.46947500  0.32313500  0.23002700  1
  C  C73  1  0.53052500  0.82313500  0.76997300  1
  C  C74  1  0.03052500  0.82313500  0.23002700  1
  C  C75  1  0.96947500  0.32313500  0.76997300  1
  C  C76  1  0.15185600  0.68461700  0.58843700  1
  C  C77  1  0.84814400  0.18461700  0.41156300  1
  C  C78  1  0.34814400  0.18461700  0.58843700  1
  C  C79  1  0.65185600  0.68461700  0.41156300  1
  C  C80  1  0.34000300  0.34104600  0.42347600  1
  C  C81  1  0.65999700  0.84104600  0.57652400  1
  C  C82  1  0.15999700  0.84104600  0.42347600  1
  C  C83  1  0.84000300  0.34104600  0.57652400  1
