# generated using pymatgen
data_Cu4Ni2C17
_symmetry_space_group_name_H-M   'P 1'
_cell_length_a   5.51473600
_cell_length_b   11.35540400
_cell_length_c   16.89537514
_cell_angle_alpha   60.85171029
_cell_angle_beta   90.00000000
_cell_angle_gamma   90.00000000
_symmetry_Int_Tables_number   1
_chemical_formula_structural   Cu4Ni2C17
_chemical_formula_sum   'Cu8 Ni4 C34'
_cell_volume   924.03720755
_cell_formula_units_Z   2
loop_
 _symmetry_equiv_pos_site_id
 _symmetry_equiv_pos_as_xyz
  1  'x, y, z'
loop_
 _atom_site_type_symbol
 _atom_site_label
 _atom_site_symmetry_multiplicity
 _atom_site_fract_x
 _atom_site_fract_y
 _atom_site_fract_z
 _atom_site_occupancy
  C  C0  1  0.69812300  0.50000000  0.25000000  1
  C  C1  1  0.30187700  0.50000000  0.75000000  1
  C  C2  1  0.78131600  0.50399000  0.90941500  1
  C  C3  1  0.78131600  0.49601000  0.59058500  1
  C  C4  1  0.21868400  0.49601000  0.09058500  1
  C  C5  1  0.21868400  0.50399000  0.40941500  1
  Ni  Ni6  1  0.25098300  0.20380300  0.00841200  1
  Ni  Ni7  1  0.25098300  0.79619700  0.49158800  1
  Ni  Ni8  1  0.74901700  0.79619700  0.99158800  1
  Ni  Ni9  1  0.74901700  0.20380300  0.50841200  1
  Cu  Cu10  1  0.74205200  0.29620700  0.13086800  1
  Cu  Cu11  1  0.74205200  0.70379300  0.36913200  1
  Cu  Cu12  1  0.25794800  0.70379300  0.86913200  1
  Cu  Cu13  1  0.25794800  0.29620700  0.63086800  1
  Cu  Cu14  1  0.74454600  0.26474800  0.84825100  1
  Cu  Cu15  1  0.74454600  0.73525200  0.65174900  1
  Cu  Cu16  1  0.25545400  0.73525200  0.15174900  1
  Cu  Cu17  1  0.25545400  0.26474800  0.34825100  1
  C  C18  1  0.74515700  0.99117300  0.10359500  1
  C  C19  1  0.74515700  0.00882700  0.39640500  1
  C  C20  1  0.25484300  0.00882700  0.89640500  1
  C  C21  1  0.25484300  0.99117300  0.60359500  1
  C  C22  1  0.81680200  0.42766700  0.14995100  1
  C  C23  1  0.81680200  0.57233300  0.35004900  1
  C  C24  1  0.18319800  0.57233300  0.85004900  1
  C  C25  1  0.18319800  0.42766700  0.64995100  1
  C  C26  1  0.95718600  0.34164500  0.04353000  1
  C  C27  1  0.95718600  0.65835500  0.45647000  1
  C  C28  1  0.04281400  0.65835500  0.95647000  1
  C  C29  1  0.04281400  0.34164500  0.54353000  1
  C  C30  1  0.48209300  0.35275500  0.06472600  1
  C  C31  1  0.48209300  0.64724500  0.43527400  1
  C  C32  1  0.51790700  0.64724500  0.93527400  1
  C  C33  1  0.51790700  0.35275500  0.56472600  1
  C  C34  1  0.53399100  0.34570600  0.88665000  1
  C  C35  1  0.53399100  0.65429400  0.61335000  1
  C  C36  1  0.46600900  0.65429400  0.11335000  1
  C  C37  1  0.46600900  0.34570600  0.38665000  1
  C  C38  1  0.00360700  0.34215300  0.86059800  1
  C  C39  1  0.00360700  0.65784700  0.63940200  1
  C  C40  1  0.99639300  0.65784700  0.13940200  1
  C  C41  1  0.99639300  0.34215300  0.36059800  1
  C  C42  1  0.66498300  0.34992000  0.73700600  1
  C  C43  1  0.66498300  0.65008000  0.76299400  1
  C  C44  1  0.33501700  0.65008000  0.26299400  1
  C  C45  1  0.33501700  0.34992000  0.23700600  1
