# generated using pymatgen
data_Cu6Ni6C
_symmetry_space_group_name_H-M   'P 1'
_cell_length_a   6.45483837
_cell_length_b   6.45483837
_cell_length_c   6.45483837
_cell_angle_alpha   133.98613842
_cell_angle_beta   101.37056696
_cell_angle_gamma   96.22089685
_symmetry_Int_Tables_number   1
_chemical_formula_structural   Cu6Ni6C
_chemical_formula_sum   'Cu6 Ni6 C1'
_cell_volume   177.86821978
_cell_formula_units_Z   1
loop_
 _symmetry_equiv_pos_site_id
 _symmetry_equiv_pos_as_xyz
  1  'x, y, z'
loop_
 _atom_site_type_symbol
 _atom_site_label
 _atom_site_symmetry_multiplicity
 _atom_site_fract_x
 _atom_site_fract_y
 _atom_site_fract_z
 _atom_site_occupancy
  C  C0  1  0.00000000  0.00000000  0.00000000  1
  Ni  Ni1  1  0.34491600  0.34491600  0.00000000  1
  Ni  Ni2  1  0.65508400  0.65508400  0.00000000  1
  Ni  Ni3  1  0.34072500  0.00000000  0.34072500  1
  Ni  Ni4  1  0.65927500  0.00000000  0.65927500  1
  Ni  Ni5  1  0.18721900  0.68721900  0.50000000  1
  Ni  Ni6  1  0.81278100  0.31278100  0.50000000  1
  Cu  Cu7  1  0.76134400  0.50000000  0.26134400  1
  Cu  Cu8  1  0.23865600  0.50000000  0.73865600  1
  Cu  Cu9  1  0.50000000  0.50000000  0.50000000  1
  Cu  Cu10  1  0.00000000  0.00000000  0.50000000  1
  Cu  Cu11  1  0.00000000  0.50000000  0.00000000  1
  Cu  Cu12  1  0.50000000  0.00000000  0.00000000  1
