# generated using pymatgen
data_CuNiC7
_symmetry_space_group_name_H-M   'P 1'
_cell_length_a   8.08361500
_cell_length_b   6.20867300
_cell_length_c   10.26459469
_cell_angle_alpha   75.50864962
_cell_angle_beta   90.00000000
_cell_angle_gamma   90.00000000
_symmetry_Int_Tables_number   1
_chemical_formula_structural   CuNiC7
_chemical_formula_sum   'Cu4 Ni4 C28'
_cell_volume   498.77508940
_cell_formula_units_Z   4
loop_
 _symmetry_equiv_pos_site_id
 _symmetry_equiv_pos_as_xyz
  1  'x, y, z'
loop_
 _atom_site_type_symbol
 _atom_site_label
 _atom_site_symmetry_multiplicity
 _atom_site_fract_x
 _atom_site_fract_y
 _atom_site_fract_z
 _atom_site_occupancy
  C  C0  1  0.42107600  0.50580200  0.73139600  1
  C  C1  1  0.92107600  0.99419800  0.26860400  1
  C  C2  1  0.57892400  0.49419800  0.26860400  1
  C  C3  1  0.07892400  0.00580200  0.73139600  1
  Ni  Ni4  1  0.54897400  0.93296000  0.45596700  1
  Ni  Ni5  1  0.04897400  0.56704000  0.54403300  1
  Ni  Ni6  1  0.45102600  0.06704000  0.54403300  1
  Ni  Ni7  1  0.95102600  0.43296000  0.45596700  1
  Cu  Cu8  1  0.70417500  0.80108800  0.83123000  1
  Cu  Cu9  1  0.20417500  0.69891200  0.16877000  1
  Cu  Cu10  1  0.29582500  0.19891200  0.16877000  1
  Cu  Cu11  1  0.79582500  0.30108800  0.83123000  1
  C  C12  1  0.14057800  0.44671000  0.63377200  1
  C  C13  1  0.64057800  0.05329000  0.36622800  1
  C  C14  1  0.85942200  0.55329000  0.36622800  1
  C  C15  1  0.35942200  0.94671000  0.63377200  1
  C  C16  1  0.52802700  0.72668000  0.47988500  1
  C  C17  1  0.02802700  0.77332000  0.52011500  1
  C  C18  1  0.47197300  0.27332000  0.52011500  1
  C  C19  1  0.97197300  0.22668000  0.47988500  1
  C  C20  1  0.74109600  0.79347600  0.71262800  1
  C  C21  1  0.24109600  0.70652400  0.28737200  1
  C  C22  1  0.25890400  0.20652400  0.28737200  1
  C  C23  1  0.75890400  0.29347600  0.71262800  1
  C  C24  1  0.55716300  0.76497700  0.87386300  1
  C  C25  1  0.05716300  0.73502300  0.12613700  1
  C  C26  1  0.44283700  0.23502300  0.12613700  1
  C  C27  1  0.94283700  0.26497700  0.87386300  1
  C  C28  1  0.68487300  0.34305700  0.90833500  1
  C  C29  1  0.18487300  0.15694300  0.09166500  1
  C  C30  1  0.31512700  0.65694300  0.09166500  1
  C  C31  1  0.81512700  0.84305700  0.90833500  1
  C  C32  1  0.31028700  0.13537300  0.83341700  1
  C  C33  1  0.81028700  0.36462700  0.16658300  1
  C  C34  1  0.68971300  0.86462700  0.16658300  1
  C  C35  1  0.18971300  0.63537300  0.83341700  1
