# generated using pymatgen
data_CuNi2C21
_symmetry_space_group_name_H-M   'P 1'
_cell_length_a   6.70533700
_cell_length_b   7.18747008
_cell_length_c   26.50565076
_cell_angle_alpha   89.96020241
_cell_angle_beta   89.97495735
_cell_angle_gamma   65.77504181
_symmetry_Int_Tables_number   1
_chemical_formula_structural   CuNi2C21
_chemical_formula_sum   'Cu4 Ni8 C84'
_cell_volume   1164.93577768
_cell_formula_units_Z   4
loop_
 _symmetry_equiv_pos_site_id
 _symmetry_equiv_pos_as_xyz
  1  'x, y, z'
loop_
 _atom_site_type_symbol
 _atom_site_label
 _atom_site_symmetry_multiplicity
 _atom_site_fract_x
 _atom_site_fract_y
 _atom_site_fract_z
 _atom_site_occupancy
  C  C0  1  0.75424100  0.74682900  0.97479700  1
  C  C1  1  0.75390600  0.74711700  0.64105000  1
  C  C2  1  0.75401800  0.74696300  0.30814800  1
  C  C3  1  0.24581300  0.75304400  0.80763600  1
  C  C4  1  0.24593600  0.75523400  0.47362000  1
  C  C5  1  0.24599900  0.75522500  0.14057000  1
  C  C6  1  0.24408100  0.25591400  0.69222500  1
  C  C7  1  0.24439600  0.25537700  0.35998500  1
  C  C8  1  0.24433500  0.25555000  0.02690900  1
  C  C9  1  0.75586600  0.24389300  0.85927000  1
  C  C10  1  0.75461400  0.24388400  0.52511200  1
  C  C11  1  0.75455300  0.24387700  0.19194900  1
  C  C12  1  0.25293900  0.00282700  0.91903400  1
  C  C13  1  0.25324100  0.00483400  0.58418900  1
  C  C14  1  0.25301000  0.00540600  0.25119100  1
  C  C15  1  0.74614800  0.49793900  0.75195600  1
  C  C16  1  0.74978800  0.49713600  0.41913700  1
  C  C17  1  0.75044000  0.49695200  0.08600300  1
  C  C18  1  0.75158100  0.99099700  0.74915000  1
  C  C19  1  0.74815200  0.99354300  0.41657200  1
  C  C20  1  0.74771600  0.99347300  0.08342100  1
  C  C21  1  0.24888000  0.50917500  0.91615200  1
  C  C22  1  0.24803800  0.50862500  0.58131700  1
  C  C23  1  0.24806600  0.50864500  0.24824000  1
  Ni  Ni24  1  0.25140100  0.25042700  0.47695600  1
  Ni  Ni25  1  0.25143500  0.25036300  0.14381700  1
  Ni  Ni26  1  0.25179800  0.75056800  0.68956500  1
  Ni  Ni27  1  0.25184100  0.75029800  0.35650800  1
  Ni  Ni28  1  0.25176700  0.75010000  0.02384000  1
  Ni  Ni29  1  0.74819300  0.74957700  0.85695600  1
  Ni  Ni30  1  0.74853500  0.74949700  0.52368900  1
  Ni  Ni31  1  0.74849200  0.74952500  0.19054900  1
  Cu  Cu32  1  0.74927500  0.24967300  0.97792600  1
  Cu  Cu33  1  0.74940500  0.24952500  0.64336000  1
  Cu  Cu34  1  0.74926500  0.24949500  0.31050200  1
  Cu  Cu35  1  0.25061000  0.25043100  0.81076900  1
  C  C36  1  0.35311600  0.87983200  0.98805500  1
  C  C37  1  0.35250200  0.87995200  0.65360100  1
  C  C38  1  0.35220800  0.88043300  0.32062900  1
  C  C39  1  0.64641700  0.62069100  0.82102600  1
  C  C40  1  0.64699800  0.61981700  0.48777000  1
  C  C41  1  0.64711000  0.61989300  0.15459300  1
  C  C42  1  0.63933500  0.10870700  0.67995400  1
  C  C43  1  0.63773100  0.10940300  0.34720300  1
  C  C44  1  0.63657400  0.10956200  0.01424700  1
  C  C45  1  0.36171900  0.39102700  0.84711500  1
  C  C46  1  0.35180400  0.38190200  0.51209200  1
  C  C47  1  0.35191700  0.38178400  0.17896500  1
  C  C48  1  0.56066900  0.41526000  0.93439400  1
  C  C49  1  0.55979800  0.41289400  0.59950700  1
  C  C50  1  0.56002400  0.41286200  0.26656100  1
  C  C51  1  0.43974600  0.08493500  0.76731300  1
  C  C52  1  0.43640500  0.09870000  0.43736500  1
  C  C53  1  0.43609200  0.09857900  0.10418400  1
  C  C54  1  0.43650100  0.59911000  0.72940800  1
  C  C55  1  0.43764200  0.59939500  0.39630800  1
  C  C56  1  0.43756900  0.59884900  0.06339000  1
  C  C57  1  0.56343900  0.90131400  0.89658400  1
  C  C58  1  0.56438300  0.90077600  0.56318600  1
  C  C59  1  0.56420200  0.90075400  0.23005600  1
  C  C60  1  0.24144600  0.24939100  0.93967500  1
  C  C61  1  0.24154900  0.24916200  0.60591400  1
  C  C62  1  0.24149600  0.24907200  0.27306700  1
  C  C63  1  0.75849200  0.25039800  0.77250900  1
  C  C64  1  0.75797700  0.24980100  0.43885400  1
  C  C65  1  0.75795900  0.24981300  0.10563500  1
  C  C66  1  0.75932100  0.74934300  0.72733300  1
  C  C67  1  0.75919700  0.74916100  0.39488300  1
  C  C68  1  0.75922800  0.74924700  0.06156400  1
  C  C69  1  0.24057600  0.75050400  0.89418100  1
  C  C70  1  0.24161700  0.74962600  0.55928600  1
  C  C71  1  0.24161700  0.74950700  0.22625000  1
  C  C72  1  0.14967500  0.10066000  0.84687300  1
  C  C73  1  0.15903800  0.11071700  0.51157400  1
  C  C74  1  0.15885800  0.11089900  0.17847100  1
  C  C75  1  0.84928900  0.39955300  0.67962300  1
  C  C76  1  0.85074500  0.39893600  0.34672000  1
  C  C77  1  0.85179700  0.39895100  0.01383200  1
  C  C78  1  0.84060600  0.88847400  0.82171700  1
  C  C79  1  0.84142100  0.88810700  0.48844300  1
  C  C80  1  0.84130200  0.88808100  0.15526700  1
  C  C81  1  0.15938600  0.61099600  0.98871100  1
  C  C82  1  0.16009400  0.61144100  0.65433200  1
  C  C83  1  0.16011000  0.61103200  0.32131700  1
  C  C84  1  0.93638900  0.58807100  0.89428500  1
  C  C85  1  0.93548900  0.58902900  0.56123500  1
  C  C86  1  0.93559800  0.58894500  0.22807000  1
  C  C87  1  0.06346600  0.91120400  0.72710100  1
  C  C88  1  0.06242600  0.91051300  0.39395900  1
  C  C89  1  0.06250800  0.91116500  0.06102900  1
  C  C90  1  0.05779000  0.42625800  0.76964600  1
  C  C91  1  0.06307600  0.41008900  0.43940400  1
  C  C92  1  0.06342800  0.41018400  0.10622500  1
  C  C93  1  0.94147300  0.07337800  0.93680100  1
  C  C94  1  0.94216300  0.07505700  0.60177900  1
  C  C95  1  0.94172100  0.07486600  0.26885500  1
