# generated using pymatgen
data_Cu2Ni3C19
_symmetry_space_group_name_H-M   'P 1'
_cell_length_a   8.39522000
_cell_length_b   9.75730700
_cell_length_c   18.72150600
_cell_angle_alpha   90.00000000
_cell_angle_beta   90.00000000
_cell_angle_gamma   90.00000000
_symmetry_Int_Tables_number   1
_chemical_formula_structural   Cu2Ni3C19
_chemical_formula_sum   'Cu8 Ni12 C76'
_cell_volume   1533.56727529
_cell_formula_units_Z   4
loop_
 _symmetry_equiv_pos_site_id
 _symmetry_equiv_pos_as_xyz
  1  'x, y, z'
loop_
 _atom_site_type_symbol
 _atom_site_label
 _atom_site_symmetry_multiplicity
 _atom_site_fract_x
 _atom_site_fract_y
 _atom_site_fract_z
 _atom_site_occupancy
  Ni  Ni0  1  0.25000000  0.00590700  0.51398400  1
  Ni  Ni1  1  0.25000000  0.50590700  0.98601600  1
  Ni  Ni2  1  0.75000000  0.99409300  0.48601600  1
  Ni  Ni3  1  0.75000000  0.49409300  0.01398400  1
  Ni  Ni4  1  0.25000000  0.14240300  0.12980500  1
  Ni  Ni5  1  0.25000000  0.64240300  0.37019500  1
  Ni  Ni6  1  0.75000000  0.85759700  0.87019500  1
  Ni  Ni7  1  0.75000000  0.35759700  0.62980500  1
  Ni  Ni8  1  0.25000000  0.36076500  0.62444400  1
  Ni  Ni9  1  0.25000000  0.86076500  0.87555600  1
  Ni  Ni10  1  0.75000000  0.63923500  0.37555600  1
  Ni  Ni11  1  0.75000000  0.13923500  0.12444400  1
  Cu  Cu12  1  0.00010000  0.31082100  0.44638200  1
  Cu  Cu13  1  0.49990000  0.81082100  0.05361800  1
  Cu  Cu14  1  0.50010000  0.68917900  0.55361800  1
  Cu  Cu15  1  0.99990000  0.18917900  0.94638200  1
  Cu  Cu16  1  0.99990000  0.68917900  0.55361800  1
  Cu  Cu17  1  0.50010000  0.18917900  0.94638200  1
  Cu  Cu18  1  0.49990000  0.31082100  0.44638200  1
  Cu  Cu19  1  0.00010000  0.81082100  0.05361800  1
  C  C20  1  0.43686800  0.06983100  0.32105900  1
  C  C21  1  0.06313200  0.56983100  0.17894100  1
  C  C22  1  0.93686800  0.93016900  0.67894100  1
  C  C23  1  0.56313200  0.43016900  0.82105900  1
  C  C24  1  0.56313200  0.93016900  0.67894100  1
  C  C25  1  0.93686800  0.43016900  0.82105900  1
  C  C26  1  0.06313200  0.06983100  0.32105900  1
  C  C27  1  0.43686800  0.56983100  0.17894100  1
  C  C28  1  0.06281400  0.16289700  0.77505600  1
  C  C29  1  0.43718600  0.66289700  0.72494400  1
  C  C30  1  0.56281400  0.83710300  0.22494400  1
  C  C31  1  0.93718600  0.33710300  0.27505600  1
  C  C32  1  0.93718600  0.83710300  0.22494400  1
  C  C33  1  0.56281400  0.33710300  0.27505600  1
  C  C34  1  0.43718600  0.16289700  0.77505600  1
  C  C35  1  0.06281400  0.66289700  0.72494400  1
  C  C36  1  0.25000000  0.02103500  0.31792400  1
  C  C37  1  0.25000000  0.52103500  0.18207600  1
  C  C38  1  0.75000000  0.97896500  0.68207600  1
  C  C39  1  0.75000000  0.47896500  0.81792400  1
  C  C40  1  0.25000000  0.21190300  0.77243800  1
  C  C41  1  0.25000000  0.71190300  0.72756200  1
  C  C42  1  0.75000000  0.78809700  0.22756200  1
  C  C43  1  0.75000000  0.28809700  0.27243800  1
  C  C44  1  0.01093300  0.12247200  0.39911900  1
  C  C45  1  0.48906700  0.62247200  0.10088100  1
  C  C46  1  0.51093300  0.87752800  0.60088100  1
  C  C47  1  0.98906700  0.37752800  0.89911900  1
  C  C48  1  0.98906700  0.87752800  0.60088100  1
  C  C49  1  0.51093300  0.37752800  0.89911900  1
  C  C50  1  0.48906700  0.12247200  0.39911900  1
  C  C51  1  0.01093300  0.62247200  0.10088100  1
  C  C52  1  0.01550300  0.08905600  0.84910100  1
  C  C53  1  0.48449700  0.58905500  0.65089900  1
  C  C54  1  0.51550300  0.91094500  0.15089900  1
  C  C55  1  0.98449700  0.41094400  0.34910100  1
  C  C56  1  0.98449700  0.91094500  0.15089900  1
  C  C57  1  0.51550300  0.41094400  0.34910100  1
  C  C58  1  0.48449700  0.08905600  0.84910100  1
  C  C59  1  0.01550300  0.58905500  0.65089900  1
  C  C60  1  0.03816700  0.06541900  0.70444300  1
  C  C61  1  0.46183300  0.56541900  0.79555700  1
  C  C62  1  0.53816700  0.93458100  0.29555700  1
  C  C63  1  0.96183300  0.43458100  0.20444300  1
  C  C64  1  0.96183300  0.93458100  0.29555700  1
  C  C65  1  0.53816700  0.43458100  0.20444300  1
  C  C66  1  0.46183300  0.06541900  0.70444300  1
  C  C67  1  0.03816700  0.56541900  0.79555700  1
  C  C68  1  0.03831100  0.19320000  0.26051700  1
  C  C69  1  0.46168900  0.69320000  0.23948300  1
  C  C70  1  0.53831100  0.80680000  0.73948300  1
  C  C71  1  0.96168900  0.30680000  0.76051700  1
  C  C72  1  0.96168900  0.80680000  0.73948300  1
  C  C73  1  0.53831100  0.30680000  0.76051700  1
  C  C74  1  0.46168900  0.19320000  0.26051700  1
  C  C75  1  0.03831100  0.69320000  0.23948300  1
  C  C76  1  0.00000000  0.00000000  0.00000000  1
  C  C77  1  0.50000000  0.50000000  0.50000000  1
  C  C78  1  0.50000000  0.00000000  0.00000000  1
  C  C79  1  0.00000000  0.50000000  0.50000000  1
  C  C80  1  0.25000000  0.32503700  0.45095900  1
  C  C81  1  0.25000000  0.82503700  0.04904100  1
  C  C82  1  0.75000000  0.67496300  0.54904100  1
  C  C83  1  0.75000000  0.17496300  0.95095900  1
  C  C84  1  0.25000000  0.19040400  0.95761900  1
  C  C85  1  0.25000000  0.69040400  0.54238100  1
  C  C86  1  0.75000000  0.80959600  0.04238100  1
  C  C87  1  0.75000000  0.30959600  0.45761900  1
  C  C88  1  0.00534400  0.22399600  0.54451400  1
  C  C89  1  0.49465600  0.72399600  0.95548600  1
  C  C90  1  0.50534400  0.77600400  0.45548600  1
  C  C91  1  0.99465600  0.27600400  0.04451400  1
  C  C92  1  0.99465600  0.77600400  0.45548600  1
  C  C93  1  0.50534400  0.27600400  0.04451400  1
  C  C94  1  0.49465600  0.22399600  0.54451400  1
  C  C95  1  0.00534400  0.72399600  0.95548600  1
