# generated using pymatgen
data_CuNiC14
_symmetry_space_group_name_H-M   'P 1'
_cell_length_a   6.20607244
_cell_length_b   6.20607196
_cell_length_c   9.82628697
_cell_angle_alpha   90.00000000
_cell_angle_beta   90.00000000
_cell_angle_gamma   120.00000254
_symmetry_Int_Tables_number   1
_chemical_formula_structural   CuNiC14
_chemical_formula_sum   'Cu1 Ni1 C14'
_cell_volume   327.75830995
_cell_formula_units_Z   1
loop_
 _symmetry_equiv_pos_site_id
 _symmetry_equiv_pos_as_xyz
  1  'x, y, z'
loop_
 _atom_site_type_symbol
 _atom_site_label
 _atom_site_symmetry_multiplicity
 _atom_site_fract_x
 _atom_site_fract_y
 _atom_site_fract_z
 _atom_site_occupancy
  C  C0  1  0.16878384  0.83439142  0.12500000  1
  C  C1  1  0.16237788  0.83118844  0.62500000  1
  C  C2  1  0.66560858  0.33121616  0.12500000  1
  C  C3  1  0.66881156  0.33762212  0.62500000  1
  C  C4  1  0.66560858  0.83439142  0.12500000  1
  C  C5  1  0.66881156  0.83118844  0.62500000  1
  C  C6  1  0.32692195  0.17307805  0.38729889  1
  C  C7  1  0.32692195  0.17307805  0.86270111  1
  C  C8  1  0.32692195  0.65384489  0.38729889  1
  C  C9  1  0.32692195  0.65384489  0.86270111  1
  C  C10  1  0.84615511  0.17307805  0.38729889  1
  C  C11  1  0.84615511  0.17307805  0.86270111  1
  C  C12  1  0.83333300  0.66666700  0.37619594  1
  C  C13  1  0.83333300  0.66666700  0.87380406  1
  Ni  Ni14  1  0.16666700  0.33333300  0.12500000  1
  Cu  Cu15  1  0.16666700  0.33333300  0.62500000  1
