# generated using pymatgen
data_Cu4NiC
_symmetry_space_group_name_H-M   'P 1'
_cell_length_a   16.96945400
_cell_length_b   7.36682600
_cell_length_c   8.40993498
_cell_angle_alpha   58.31313475
_cell_angle_beta   90.00000000
_cell_angle_gamma   90.00000000
_symmetry_Int_Tables_number   1
_chemical_formula_structural   Cu4NiC
_chemical_formula_sum   'Cu32 Ni8 C8'
_cell_volume   894.61370093
_cell_formula_units_Z   8
loop_
 _symmetry_equiv_pos_site_id
 _symmetry_equiv_pos_as_xyz
  1  'x, y, z'
loop_
 _atom_site_type_symbol
 _atom_site_label
 _atom_site_symmetry_multiplicity
 _atom_site_fract_x
 _atom_site_fract_y
 _atom_site_fract_z
 _atom_site_occupancy
  C  C0  1  0.41577600  0.95750600  0.68698300  1
  C  C1  1  0.58422400  0.04249400  0.31301700  1
  C  C2  1  0.91577600  0.04249400  0.81301700  1
  C  C3  1  0.08422400  0.95750600  0.18698300  1
  C  C4  1  0.48286100  0.43730800  0.35139100  1
  C  C5  1  0.51713900  0.56269200  0.64860900  1
  C  C6  1  0.98286100  0.56269200  0.14860900  1
  C  C7  1  0.01713900  0.43730800  0.85139100  1
  Ni  Ni8  1  0.57259500  0.02116000  0.85486200  1
  Ni  Ni9  1  0.42740500  0.97884000  0.14513800  1
  Ni  Ni10  1  0.07259500  0.97884000  0.64513800  1
  Ni  Ni11  1  0.92740500  0.02116000  0.35486200  1
  Ni  Ni12  1  0.27099300  0.68220900  0.18772400  1
  Ni  Ni13  1  0.72900700  0.31779100  0.81227600  1
  Ni  Ni14  1  0.77099300  0.31779100  0.31227600  1
  Ni  Ni15  1  0.22900700  0.68220900  0.68772400  1
  Cu  Cu16  1  0.06665300  0.69352000  0.20728300  1
  Cu  Cu17  1  0.93334700  0.30648000  0.79271700  1
  Cu  Cu18  1  0.56665300  0.30648000  0.29271700  1
  Cu  Cu19  1  0.43334700  0.69352000  0.70728300  1
  Cu  Cu20  1  0.58296800  0.80815500  0.56699300  1
  Cu  Cu21  1  0.41703200  0.19184500  0.43300700  1
  Cu  Cu22  1  0.08296800  0.19184500  0.93300700  1
  Cu  Cu23  1  0.91703200  0.80815500  0.06699300  1
  Cu  Cu24  1  0.21714400  0.26552800  0.64904600  1
  Cu  Cu25  1  0.78285600  0.73447200  0.35095400  1
  Cu  Cu26  1  0.71714400  0.73447200  0.85095400  1
  Cu  Cu27  1  0.28285600  0.26552800  0.14904600  1
  Cu  Cu28  1  0.03107100  0.96750600  0.76372000  1
  Cu  Cu29  1  0.96892900  0.03249400  0.23628000  1
  Cu  Cu30  1  0.53107100  0.03249400  0.73628000  1
  Cu  Cu31  1  0.46892900  0.96750600  0.26372000  1
  Cu  Cu32  1  0.06744000  0.44257900  0.06714900  1
  Cu  Cu33  1  0.93256000  0.55742100  0.93285100  1
  Cu  Cu34  1  0.56744000  0.55742100  0.43285100  1
  Cu  Cu35  1  0.43256000  0.44257900  0.56714900  1
  Cu  Cu36  1  0.34726300  0.97405700  0.81222800  1
  Cu  Cu37  1  0.65273700  0.02594300  0.18777200  1
  Cu  Cu38  1  0.84726300  0.02594300  0.68777200  1
  Cu  Cu39  1  0.15273700  0.97405700  0.31222800  1
  Cu  Cu40  1  0.44455000  0.66251700  0.13468200  1
  Cu  Cu41  1  0.55545000  0.33748300  0.86531800  1
  Cu  Cu42  1  0.94455000  0.33748300  0.36531800  1
  Cu  Cu43  1  0.05545000  0.66251700  0.63468200  1
  Cu  Cu44  1  0.22571600  0.77486800  0.07265700  1
  Cu  Cu45  1  0.77428400  0.22513200  0.92734300  1
  Cu  Cu46  1  0.72571600  0.22513200  0.42734300  1
  Cu  Cu47  1  0.27428400  0.77486800  0.57265700  1
