# generated using pymatgen
data_CuNiC8
_symmetry_space_group_name_H-M   'P 1'
_cell_length_a   5.93214857
_cell_length_b   5.95746799
_cell_length_c   8.39142769
_cell_angle_alpha   90.74287598
_cell_angle_beta   90.45216021
_cell_angle_gamma   90.28727367
_symmetry_Int_Tables_number   1
_chemical_formula_structural   CuNiC8
_chemical_formula_sum   'Cu2 Ni2 C16'
_cell_volume   296.51992344
_cell_formula_units_Z   2
loop_
 _symmetry_equiv_pos_site_id
 _symmetry_equiv_pos_as_xyz
  1  'x, y, z'
loop_
 _atom_site_type_symbol
 _atom_site_label
 _atom_site_symmetry_multiplicity
 _atom_site_fract_x
 _atom_site_fract_y
 _atom_site_fract_z
 _atom_site_occupancy
  Ni  Ni0  1  0.50376012  0.52535590  0.25081398  1
  Ni  Ni1  1  0.49623988  0.47464410  0.74918602  1
  Cu  Cu2  1  -0.00000000  0.50000000  0.00000000  1
  Cu  Cu3  1  0.50000000  0.00000000  0.50000000  1
  C  C4  1  0.99402646  0.04011573  0.25251675  1
  C  C5  1  0.00597354  0.95988427  0.74748325  1
  C  C6  1  0.50000000  0.00000000  0.00000000  1
  C  C7  1  -0.00000000  0.50000000  0.50000000  1
  C  C8  1  0.23942306  0.19385156  0.95482688  1
  C  C9  1  0.26001727  0.69992737  0.52863168  1
  C  C10  1  0.76057694  0.80614844  0.04517312  1
  C  C11  1  0.73998273  0.30007263  0.47136832  1
  C  C12  1  0.30256358  0.74062222  0.96165078  1
  C  C13  1  0.18740068  0.23256044  0.54112157  1
  C  C14  1  0.69743642  0.25937778  0.03834922  1
  C  C15  1  0.81259932  0.76743956  0.45887843  1
  C  C16  1  0.41436220  0.99803711  0.22678910  1
  C  C17  1  0.05837620  0.46517738  0.27100298  1
  C  C18  1  0.58563780  0.00196289  0.77321090  1
  C  C19  1  0.94162380  0.53482262  0.72899702  1
