# generated using pymatgen
data_Cu4Ni4C3
_symmetry_space_group_name_H-M   'P 1'
_cell_length_a   6.63908276
_cell_length_b   6.63908276
_cell_length_c   6.63908276
_cell_angle_alpha   116.23124229
_cell_angle_beta   116.23124229
_cell_angle_gamma   96.66187854
_symmetry_Int_Tables_number   1
_chemical_formula_structural   Cu4Ni4C3
_chemical_formula_sum   'Cu4 Ni4 C3'
_cell_volume   217.12058435
_cell_formula_units_Z   1
loop_
 _symmetry_equiv_pos_site_id
 _symmetry_equiv_pos_as_xyz
  1  'x, y, z'
loop_
 _atom_site_type_symbol
 _atom_site_label
 _atom_site_symmetry_multiplicity
 _atom_site_fract_x
 _atom_site_fract_y
 _atom_site_fract_z
 _atom_site_occupancy
  C  C0  1  0.00000000  0.00000000  0.00000000  1
  C  C1  1  0.50000000  0.00000000  0.50000000  1
  C  C2  1  0.00000000  0.50000000  0.50000000  1
  Ni  Ni3  1  0.12297600  0.12297600  0.63466800  1
  Ni  Ni4  1  0.48830800  0.48830800  0.36533200  1
  Ni  Ni5  1  0.51169200  0.87702400  0.00000000  1
  Ni  Ni6  1  0.87702400  0.51169200  0.00000000  1
  Cu  Cu7  1  0.55558500  0.24047600  0.00000000  1
  Cu  Cu8  1  0.24047600  0.55558500  0.00000000  1
  Cu  Cu9  1  0.75952400  0.75952400  0.31510900  1
  Cu  Cu10  1  0.44441500  0.44441500  0.68489100  1
