# generated using pymatgen
data_Cu3(NiC9)2
_symmetry_space_group_name_H-M   'P 1'
_cell_length_a   20.94634594
_cell_length_b   20.94634594
_cell_length_c   20.94634594
_cell_angle_alpha   169.52490606
_cell_angle_beta   169.52490606
_cell_angle_gamma   14.83479928
_symmetry_Int_Tables_number   1
_chemical_formula_structural   Cu3(NiC9)2
_chemical_formula_sum   'Cu3 Ni2 C18'
_cell_volume   303.76372692
_cell_formula_units_Z   1
loop_
 _symmetry_equiv_pos_site_id
 _symmetry_equiv_pos_as_xyz
  1  'x, y, z'
loop_
 _atom_site_type_symbol
 _atom_site_label
 _atom_site_symmetry_multiplicity
 _atom_site_fract_x
 _atom_site_fract_y
 _atom_site_fract_z
 _atom_site_occupancy
  C  C0  1  0.15376700  0.15376700  0.00000000  1
  C  C1  1  0.84623300  0.84623300  0.00000000  1
  Ni  Ni2  1  0.72250200  0.72250200  0.00000000  1
  Ni  Ni3  1  0.27749800  0.27749800  0.00000000  1
  Cu  Cu4  1  0.07313000  0.07313000  0.00000000  1
  Cu  Cu5  1  0.92687000  0.92687000  0.00000000  1
  Cu  Cu6  1  0.00000000  0.00000000  0.00000000  1
  C  C7  1  0.53623200  0.53623200  0.00000000  1
  C  C8  1  0.39612100  0.39612100  0.00000000  1
  C  C9  1  0.60387900  0.60387900  0.00000000  1
  C  C10  1  0.46376800  0.46376800  0.00000000  1
  C  C11  1  0.89587700  0.39587700  0.50000000  1
  C  C12  1  0.03476100  0.53476100  0.50000000  1
  C  C13  1  0.22648300  0.22648300  0.00000000  1
  C  C14  1  0.46523900  0.96523900  0.50000000  1
  C  C15  1  0.77351700  0.77351700  0.00000000  1
  C  C16  1  0.60412300  0.10412300  0.50000000  1
  C  C17  1  0.10412300  0.60412300  0.50000000  1
  C  C18  1  0.32732600  0.32732600  0.00000000  1
  C  C19  1  0.39587700  0.89587700  0.50000000  1
  C  C20  1  0.53476100  0.03476100  0.50000000  1
  C  C21  1  0.96523900  0.46523900  0.50000000  1
  C  C22  1  0.67267400  0.67267400  0.00000000  1
