# generated using pymatgen
data_Cu2NiC16
_symmetry_space_group_name_H-M   'P 1'
_cell_length_a   6.64782326
_cell_length_b   12.80206393
_cell_length_c   25.79404729
_cell_angle_alpha   90.00000000
_cell_angle_beta   90.00000000
_cell_angle_gamma   90.00000000
_symmetry_Int_Tables_number   1
_chemical_formula_structural   Cu2NiC16
_chemical_formula_sum   'Cu16 Ni8 C128'
_cell_volume   2195.22453545
_cell_formula_units_Z   8
loop_
 _symmetry_equiv_pos_site_id
 _symmetry_equiv_pos_as_xyz
  1  'x, y, z'
loop_
 _atom_site_type_symbol
 _atom_site_label
 _atom_site_symmetry_multiplicity
 _atom_site_fract_x
 _atom_site_fract_y
 _atom_site_fract_z
 _atom_site_occupancy
  C  C0  1  0.47240118  0.24417447  0.62671885  1
  C  C1  1  0.02759882  0.74417447  0.37328115  1
  C  C2  1  0.97240118  0.75582553  0.87328115  1
  C  C3  1  0.52759882  0.25582553  0.12671885  1
  C  C4  1  0.52759882  0.75582553  0.37328115  1
  C  C5  1  0.97240118  0.25582553  0.62671885  1
  C  C6  1  0.02759882  0.24417447  0.12671885  1
  C  C7  1  0.47240118  0.74417447  0.87328115  1
  Ni  Ni8  1  0.53018567  0.24155899  0.37909564  1
  Ni  Ni9  1  0.96981433  0.74155899  0.62090436  1
  Ni  Ni10  1  0.03018567  0.75844101  0.12090436  1
  Ni  Ni11  1  0.46981433  0.25844101  0.87909564  1
  Ni  Ni12  1  0.46981433  0.75844101  0.62090436  1
  Ni  Ni13  1  0.03018567  0.25844101  0.37909564  1
  Ni  Ni14  1  0.96981433  0.24155899  0.87909564  1
  Ni  Ni15  1  0.53018567  0.74155899  0.12090436  1
  Cu  Cu16  1  0.71461848  0.38154202  0.70300404  1
  Cu  Cu17  1  0.78538152  0.88154202  0.29699596  1
  Cu  Cu18  1  0.21461848  0.61845798  0.79699596  1
  Cu  Cu19  1  0.28538152  0.11845798  0.20300404  1
  Cu  Cu20  1  0.28538152  0.61845798  0.29699596  1
  Cu  Cu21  1  0.21461848  0.11845798  0.70300404  1
  Cu  Cu22  1  0.78538152  0.38154202  0.20300404  1
  Cu  Cu23  1  0.71461848  0.88154202  0.79699596  1
  Cu  Cu24  1  0.21616954  0.40742798  0.55505044  1
  Cu  Cu25  1  0.28383046  0.90742798  0.44494956  1
  Cu  Cu26  1  0.71616954  0.59257202  0.94494956  1
  Cu  Cu27  1  0.78383046  0.09257202  0.05505044  1
  Cu  Cu28  1  0.78383046  0.59257202  0.44494956  1
  Cu  Cu29  1  0.71616954  0.09257202  0.55505044  1
  Cu  Cu30  1  0.28383046  0.40742798  0.05505044  1
  Cu  Cu31  1  0.21616954  0.90742798  0.94494956  1
  C  C32  1  0.29103991  0.18028164  0.49046230  1
  C  C33  1  0.20896009  0.68028164  0.50953770  1
  C  C34  1  0.79103991  0.81971836  0.00953770  1
  C  C35  1  0.70896009  0.31971836  0.99046230  1
  C  C36  1  0.70896009  0.81971836  0.50953770  1
  C  C37  1  0.79103991  0.31971836  0.49046230  1
  C  C38  1  0.20896009  0.18028164  0.99046230  1
  C  C39  1  0.29103991  0.68028164  0.00953770  1
  C  C40  1  0.30495389  0.03190323  0.33172512  1
  C  C41  1  0.19504611  0.53190323  0.66827488  1
  C  C42  1  0.80495389  0.96809677  0.16827488  1
  C  C43  1  0.69504611  0.46809677  0.83172512  1
  C  C44  1  0.69504611  0.96809677  0.66827488  1
  C  C45  1  0.80495389  0.46809677  0.33172512  1
  C  C46  1  0.19504611  0.03190323  0.83172512  1
  C  C47  1  0.30495389  0.53190323  0.16827488  1
  C  C48  1  0.69292322  0.16241107  0.77806419  1
  C  C49  1  0.80707678  0.66241107  0.22193581  1
  C  C50  1  0.19292322  0.83758893  0.72193581  1
  C  C51  1  0.30707678  0.33758893  0.27806419  1
  C  C52  1  0.30707678  0.83758893  0.22193581  1
  C  C53  1  0.19292322  0.33758893  0.77806419  1
  C  C54  1  0.80707678  0.16241107  0.27806419  1
  C  C55  1  0.69292322  0.66241107  0.72193581  1
  C  C56  1  0.69256565  0.53494278  0.58386196  1
  C  C57  1  0.80743435  0.03494278  0.41613804  1
  C  C58  1  0.19256565  0.46505722  0.91613804  1
  C  C59  1  0.30743435  0.96505722  0.08386196  1
  C  C60  1  0.30743435  0.46505722  0.41613804  1
  C  C61  1  0.19256565  0.96505722  0.58386196  1
  C  C62  1  0.80743435  0.53494278  0.08386196  1
  C  C63  1  0.69256565  0.03494278  0.91613804  1
  C  C64  1  0.29870723  0.52163205  0.56018207  1
  C  C65  1  0.20129277  0.02163205  0.43981793  1
  C  C66  1  0.79870723  0.47836795  0.93981793  1
  C  C67  1  0.70129277  0.97836795  0.06018207  1
  C  C68  1  0.70129277  0.47836795  0.43981793  1
  C  C69  1  0.79870723  0.97836795  0.56018207  1
  C  C70  1  0.20129277  0.52163205  0.06018207  1
  C  C71  1  0.29870723  0.02163205  0.93981793  1
  C  C72  1  0.60727104  0.47626220  0.67614994  1
  C  C73  1  0.89272896  0.97626220  0.32385006  1
  C  C74  1  0.10727104  0.52373780  0.82385006  1
  C  C75  1  0.39272896  0.02373780  0.17614994  1
  C  C76  1  0.39272896  0.52373780  0.32385006  1
  C  C77  1  0.10727104  0.02373780  0.67614994  1
  C  C78  1  0.89272896  0.47626220  0.17614994  1
  C  C79  1  0.60727104  0.97626220  0.82385006  1
  C  C80  1  0.59747843  0.35204473  0.75429839  1
  C  C81  1  0.90252157  0.85204473  0.24570161  1
  C  C82  1  0.09747843  0.64795527  0.74570161  1
  C  C83  1  0.40252157  0.14795527  0.25429839  1
  C  C84  1  0.40252157  0.64795527  0.24570161  1
  C  C85  1  0.09747843  0.14795527  0.75429839  1
  C  C86  1  0.90252157  0.35204473  0.25429839  1
  C  C87  1  0.59747843  0.85204473  0.74570161  1
  C  C88  1  0.92866284  0.41838626  0.71984414  1
  C  C89  1  0.57133716  0.91838626  0.28015586  1
  C  C90  1  0.42866284  0.58161374  0.78015586  1
  C  C91  1  0.07133716  0.08161374  0.21984414  1
  C  C92  1  0.07133716  0.58161374  0.28015586  1
  C  C93  1  0.42866284  0.08161374  0.71984414  1
  C  C94  1  0.57133716  0.41838626  0.21984414  1
  C  C95  1  0.92866284  0.91838626  0.78015586  1
  C  C96  1  0.13605046  0.38797682  0.49799497  1
  C  C97  1  0.36394954  0.88797682  0.50200503  1
  C  C98  1  0.63605046  0.61202318  0.00200503  1
  C  C99  1  0.86394954  0.11202318  0.99799497  1
  C  C100  1  0.86394954  0.61202318  0.50200503  1
  C  C101  1  0.63605046  0.11202318  0.49799497  1
  C  C102  1  0.36394954  0.38797682  0.99799497  1
  C  C103  1  0.13605046  0.88797682  0.00200503  1
  C  C104  1  0.03725628  0.39456172  0.59312094  1
  C  C105  1  0.46274372  0.89456172  0.40687906  1
  C  C106  1  0.53725628  0.60543828  0.90687906  1
  C  C107  1  0.96274372  0.10543828  0.09312094  1
  C  C108  1  0.96274372  0.60543828  0.40687906  1
  C  C109  1  0.53725628  0.10543828  0.59312094  1
  C  C110  1  0.46274372  0.39456172  0.09312094  1
  C  C111  1  0.03725628  0.89456172  0.90687906  1
  C  C112  1  0.44744401  0.27959395  0.42506921  1
  C  C113  1  0.05255599  0.77959395  0.57493079  1
  C  C114  1  0.94744401  0.72040605  0.07493079  1
  C  C115  1  0.55255599  0.22040605  0.92506921  1
  C  C116  1  0.55255599  0.72040605  0.57493079  1
  C  C117  1  0.94744401  0.22040605  0.42506921  1
  C  C118  1  0.05255599  0.27959395  0.92506921  1
  C  C119  1  0.44744401  0.77959395  0.07493079  1
  C  C120  1  0.71980772  0.28532116  0.66718440  1
  C  C121  1  0.78019228  0.78532116  0.33281560  1
  C  C122  1  0.21980772  0.71467884  0.83281560  1
  C  C123  1  0.28019228  0.21467884  0.16718440  1
  C  C124  1  0.28019228  0.71467884  0.33281560  1
  C  C125  1  0.21980772  0.21467884  0.66718440  1
  C  C126  1  0.78019228  0.28532116  0.16718440  1
  C  C127  1  0.71980772  0.78532116  0.83281560  1
  C  C128  1  0.56354101  0.13508768  0.37085166  1
  C  C129  1  0.93645899  0.63508768  0.62914834  1
  C  C130  1  0.06354101  0.86491232  0.12914834  1
  C  C131  1  0.43645899  0.36491232  0.87085166  1
  C  C132  1  0.43645899  0.86491232  0.62914834  1
  C  C133  1  0.06354101  0.36491232  0.37085166  1
  C  C134  1  0.93645899  0.13508768  0.87085166  1
  C  C135  1  0.56354101  0.63508768  0.12914834  1
  C  C136  1  0.07726130  0.18988080  0.33943202  1
  C  C137  1  0.42273870  0.68988080  0.66056798  1
  C  C138  1  0.57726130  0.81011920  0.16056798  1
  C  C139  1  0.92273870  0.31011920  0.83943202  1
  C  C140  1  0.92273870  0.81011920  0.66056798  1
  C  C141  1  0.57726130  0.31011920  0.33943202  1
  C  C142  1  0.42273870  0.18988080  0.83943202  1
  C  C143  1  0.07726130  0.68988080  0.16056798  1
  C  C144  1  0.38964991  0.32945933  0.56493668  1
  C  C145  1  0.11035009  0.82945933  0.43506332  1
  C  C146  1  0.88964991  0.67054067  0.93506332  1
  C  C147  1  0.61035009  0.17054067  0.06493668  1
  C  C148  1  0.61035009  0.67054067  0.43506332  1
  C  C149  1  0.88964991  0.17054067  0.56493668  1
  C  C150  1  0.11035009  0.32945933  0.06493668  1
  C  C151  1  0.38964991  0.82945933  0.93506332  1
