# generated using pymatgen
data_Cu12Ni9C52
_symmetry_space_group_name_H-M   'P 1'
_cell_length_a   5.28321400
_cell_length_b   10.96020798
_cell_length_c   17.99822580
_cell_angle_alpha   91.06485596
_cell_angle_beta   90.19595216
_cell_angle_gamma   90.20909473
_symmetry_Int_Tables_number   1
_chemical_formula_structural   Cu12Ni9C52
_chemical_formula_sum   'Cu12 Ni9 C52'
_cell_volume   1041.99623567
_cell_formula_units_Z   1
loop_
 _symmetry_equiv_pos_site_id
 _symmetry_equiv_pos_as_xyz
  1  'x, y, z'
loop_
 _atom_site_type_symbol
 _atom_site_label
 _atom_site_symmetry_multiplicity
 _atom_site_fract_x
 _atom_site_fract_y
 _atom_site_fract_z
 _atom_site_occupancy
  C  C0  1  0.23908000  0.74813300  0.19050400  1
  C  C1  1  0.74032400  0.75228700  0.30802100  1
  C  C2  1  0.76891200  0.25174500  0.80684600  1
  C  C3  1  0.26441300  0.24860600  0.69386600  1
  Ni  Ni4  1  0.60766000  0.74991200  0.75024100  1
  Ni  Ni5  1  0.89645300  0.24949200  0.25055900  1
  Ni  Ni6  1  0.39671600  0.24939700  0.24914700  1
  Ni  Ni7  1  0.75547800  0.07037200  0.97170100  1
  Ni  Ni8  1  0.25190300  0.42846700  0.52840800  1
  Ni  Ni9  1  0.76168700  0.44589900  0.97251000  1
  Ni  Ni10  1  0.25641900  0.05643200  0.52750100  1
  Ni  Ni11  1  0.24477100  0.93192200  0.02244900  1
  Ni  Ni12  1  0.74920300  0.57700100  0.47678700  1
  Cu  Cu13  1  0.72015100  0.51176500  0.15446600  1
  Cu  Cu14  1  0.22092900  0.98758500  0.34541600  1
  Cu  Cu15  1  0.28920900  0.01676200  0.84725900  1
  Cu  Cu16  1  0.78198100  0.47923500  0.65284200  1
  Cu  Cu17  1  0.29490000  0.48267200  0.85019600  1
  Cu  Cu18  1  0.78805400  0.01947200  0.64990200  1
  Cu  Cu19  1  0.71059700  0.98057300  0.15089000  1
  Cu  Cu20  1  0.21379600  0.51894500  0.34754400  1
  Cu  Cu21  1  0.77503000  0.75418600  0.94585500  1
  Cu  Cu22  1  0.28502400  0.74707900  0.55660700  1
  Cu  Cu23  1  0.22148500  0.25019900  0.05502300  1
  Cu  Cu24  1  0.72205100  0.24848300  0.44519400  1
  C  C25  1  0.89635800  0.47001300  0.06887900  1
  C  C26  1  0.39540200  0.02976400  0.43145400  1
  C  C27  1  0.07948000  0.98747300  0.92858100  1
  C  C28  1  0.57603600  0.50715300  0.57146500  1
  C  C29  1  0.06730300  0.51319900  0.92286500  1
  C  C30  1  0.56789600  0.99274700  0.57518000  1
  C  C31  1  0.91536600  0.01726800  0.07221500  1
  C  C32  1  0.41255800  0.48298700  0.42758800  1
  C  C33  1  0.56989400  0.88728100  0.96581200  1
  C  C34  1  0.07340600  0.61479500  0.53846000  1
  C  C35  1  0.43153000  0.36993500  0.03536400  1
  C  C36  1  0.93109600  0.12877300  0.46569100  1
  C  C37  1  0.40962400  0.11429800  0.03517000  1
  C  C38  1  0.91180700  0.38373500  0.46571800  1
  C  C39  1  0.61097400  0.61259200  0.96649500  1
  C  C40  1  0.11470800  0.88644300  0.53705100  1
  C  C41  1  0.45464800  0.59506300  0.13018000  1
  C  C42  1  0.95478500  0.90429200  0.36972800  1
  C  C43  1  0.56180600  0.10539500  0.87945500  1
  C  C44  1  0.06622200  0.39795000  0.62241700  1
  C  C45  1  0.57868400  0.39784400  0.88743400  1
  C  C46  1  0.08331900  0.09938600  0.61411600  1
  C  C47  1  0.42982100  0.90089700  0.11847200  1
  C  C48  1  0.93371700  0.59822000  0.37897000  1
  C  C49  1  0.91164700  0.60869200  0.21046100  1
  C  C50  1  0.41085100  0.89090100  0.28948400  1
  C  C51  1  0.11192700  0.10991600  0.78800200  1
  C  C52  1  0.61060900  0.38271300  0.71119100  1
  C  C53  1  0.13024200  0.38194800  0.78995400  1
  C  C54  1  0.62745800  0.12201900  0.70884100  1
  C  C55  1  0.89018800  0.88260000  0.20527800  1
  C  C56  1  0.39555700  0.61695000  0.29390700  1
  C  C57  1  0.05060500  0.77183800  0.00375500  1
  C  C58  1  0.54347700  0.73069600  0.49271700  1
  C  C59  1  0.94784900  0.25043100  0.99143100  1
  C  C60  1  0.44733800  0.24881600  0.50786900  1
  C  C61  1  0.83750900  0.75459900  0.84922600  1
  C  C62  1  0.39081400  0.74691800  0.64996600  1
  C  C63  1  0.14712000  0.25331000  0.15447400  1
  C  C64  1  0.64947200  0.24579000  0.34542200  1
  C  C65  1  0.64491800  0.37292400  0.20840200  1
  C  C66  1  0.14542100  0.12638100  0.29147000  1
  C  C67  1  0.38412700  0.88366900  0.79778600  1
  C  C68  1  0.83772000  0.61802200  0.70261400  1
  C  C69  1  0.38446500  0.61471900  0.80163200  1
  C  C70  1  0.83320600  0.88320000  0.69942100  1
  C  C71  1  0.64502800  0.12136300  0.20379700  1
  C  C72  1  0.14718900  0.37746600  0.29520500  1
