# generated using pymatgen
data_Cu9Ni3C25
_symmetry_space_group_name_H-M   'P 1'
_cell_length_a   16.05829200
_cell_length_b   9.79023900
_cell_length_c   18.74851819
_cell_angle_alpha   67.72278494
_cell_angle_beta   90.00000000
_cell_angle_gamma   90.00000000
_symmetry_Int_Tables_number   1
_chemical_formula_structural   Cu9Ni3C25
_chemical_formula_sum   'Cu36 Ni12 C100'
_cell_volume   2727.53650152
_cell_formula_units_Z   4
loop_
 _symmetry_equiv_pos_site_id
 _symmetry_equiv_pos_as_xyz
  1  'x, y, z'
loop_
 _atom_site_type_symbol
 _atom_site_label
 _atom_site_symmetry_multiplicity
 _atom_site_fract_x
 _atom_site_fract_y
 _atom_site_fract_z
 _atom_site_occupancy
  C  C0  1  0.84864400  0.24447300  0.25819600  1
  C  C1  1  0.65135600  0.24447300  0.75819600  1
  C  C2  1  0.15135600  0.75552700  0.74180400  1
  C  C3  1  0.34864400  0.75552700  0.24180400  1
  C  C4  1  0.97868600  0.29689700  0.39602100  1
  C  C5  1  0.52131400  0.29689700  0.89602100  1
  C  C6  1  0.02131400  0.70310300  0.60397900  1
  C  C7  1  0.47868600  0.70310300  0.10397900  1
  C  C8  1  0.01537400  0.14849600  0.16401600  1
  C  C9  1  0.48462600  0.14849600  0.66401600  1
  C  C10  1  0.98462600  0.85150400  0.83598400  1
  C  C11  1  0.51537500  0.85150400  0.33598400  1
  C  C12  1  0.85827800  0.62861700  0.14497300  1
  C  C13  1  0.64172200  0.62861700  0.64497300  1
  C  C14  1  0.14172200  0.37138300  0.85502700  1
  C  C15  1  0.35827800  0.37138300  0.35502700  1
  C  C16  1  0.82427300  0.88259500  0.38181600  1
  C  C17  1  0.67572700  0.88259500  0.88181600  1
  C  C18  1  0.17572700  0.11740500  0.61818400  1
  C  C19  1  0.32427300  0.11740500  0.11818400  1
  C  C20  1  0.70495800  0.22812000  0.11822800  1
  C  C21  1  0.79504200  0.22812000  0.61822800  1
  C  C22  1  0.29504200  0.77188000  0.88177200  1
  C  C23  1  0.20495800  0.77188000  0.38177200  1
  C  C24  1  0.67126100  0.30030100  0.35748400  1
  C  C25  1  0.82873900  0.30030100  0.85748400  1
  C  C26  1  0.32873900  0.69969900  0.64251600  1
  C  C27  1  0.17126100  0.69969900  0.14251600  1
  Ni  Ni28  1  0.77768400  0.70112100  0.37533900  1
  Ni  Ni29  1  0.72231600  0.70112100  0.87533900  1
  Ni  Ni30  1  0.22231600  0.29887900  0.62466100  1
  Ni  Ni31  1  0.27768400  0.29887900  0.12466100  1
  Ni  Ni32  1  0.70084600  0.01638100  0.13490800  1
  Ni  Ni33  1  0.79915400  0.01638100  0.63490800  1
  Ni  Ni34  1  0.29915400  0.98361900  0.86509200  1
  Ni  Ni35  1  0.20084600  0.98361900  0.36509200  1
  Ni  Ni36  1  0.61900700  0.16614800  0.45394300  1
  Ni  Ni37  1  0.88099300  0.16614800  0.95394300  1
  Ni  Ni38  1  0.38099300  0.83385200  0.54605700  1
  Ni  Ni39  1  0.11900700  0.83385200  0.04605700  1
  Cu  Cu40  1  0.92591500  0.19910700  0.34040000  1
  Cu  Cu41  1  0.57408500  0.19910700  0.84040000  1
  Cu  Cu42  1  0.07408500  0.80089300  0.65960000  1
  Cu  Cu43  1  0.42591500  0.80089300  0.15960000  1
  Cu  Cu44  1  0.91179900  0.21972400  0.17815000  1
  Cu  Cu45  1  0.58820100  0.21972400  0.67815000  1
  Cu  Cu46  1  0.08820100  0.78027600  0.82185000  1
  Cu  Cu47  1  0.41179900  0.78027600  0.32185000  1
  Cu  Cu48  1  0.83691300  0.45108500  0.22650900  1
  Cu  Cu49  1  0.66308700  0.45108500  0.72650900  1
  Cu  Cu50  1  0.16308700  0.54891500  0.77349100  1
  Cu  Cu51  1  0.33691300  0.54891500  0.27349100  1
  Cu  Cu52  1  0.81953800  0.99938900  0.30608800  1
  Cu  Cu53  1  0.68046200  0.99938900  0.80608800  1
  Cu  Cu54  1  0.18046200  0.00061100  0.69391200  1
  Cu  Cu55  1  0.31953800  0.00061100  0.19391200  1
  Cu  Cu56  1  0.79591700  0.90313400  0.44873900  1
  Cu  Cu57  1  0.70408300  0.90313400  0.94873900  1
  Cu  Cu58  1  0.20408300  0.09686600  0.55126100  1
  Cu  Cu59  1  0.29591700  0.09686600  0.05126100  1
  Cu  Cu60  1  0.73416200  0.24323200  0.18780000  1
  Cu  Cu61  1  0.76583800  0.24323200  0.68780000  1
  Cu  Cu62  1  0.26583800  0.75676800  0.81220000  1
  Cu  Cu63  1  0.23416200  0.75676800  0.31220000  1
  Cu  Cu64  1  0.73859800  0.31274700  0.04487500  1
  Cu  Cu65  1  0.76140200  0.31274700  0.54487500  1
  Cu  Cu66  1  0.26140200  0.68725300  0.95512500  1
  Cu  Cu67  1  0.23859800  0.68725300  0.45512500  1
  Cu  Cu68  1  0.74369900  0.22750000  0.34288000  1
  Cu  Cu69  1  0.75630100  0.22750000  0.84288000  1
  Cu  Cu70  1  0.25630100  0.77250000  0.65712000  1
  Cu  Cu71  1  0.24369900  0.77250000  0.15712000  1
  Cu  Cu72  1  0.67465500  0.44693000  0.35458900  1
  Cu  Cu73  1  0.82534500  0.44693000  0.85458900  1
  Cu  Cu74  1  0.32534500  0.55307000  0.64541100  1
  Cu  Cu75  1  0.17465500  0.55307000  0.14541100  1
  C  C76  1  0.91853700  0.83584100  0.39368700  1
  C  C77  1  0.58146300  0.83584100  0.89368700  1
  C  C78  1  0.08146300  0.16415900  0.60631300  1
  C  C79  1  0.41853700  0.16415900  0.10631300  1
  C  C80  1  0.60905900  0.26138800  0.11662800  1
  C  C81  1  0.89094100  0.26138800  0.61662800  1
  C  C82  1  0.39094100  0.73861200  0.88337200  1
  C  C83  1  0.10905900  0.73861200  0.38337200  1
  C  C84  1  0.60327100  0.29301700  0.29847600  1
  C  C85  1  0.89672900  0.29301700  0.79847600  1
  C  C86  1  0.39672900  0.70698300  0.70152400  1
  C  C87  1  0.10327100  0.70698300  0.20152400  1
  C  C88  1  0.07762300  0.19057700  0.40288000  1
  C  C89  1  0.42237700  0.19057700  0.90288000  1
  C  C90  1  0.92237700  0.80942300  0.59712000  1
  C  C91  1  0.57762300  0.80942300  0.09712000  1
  C  C92  1  0.01915600  0.45066600  0.30762800  1
  C  C93  1  0.48084400  0.45066600  0.80762800  1
  C  C94  1  0.98084400  0.54933400  0.69237200  1
  C  C95  1  0.51915600  0.54933400  0.19237200  1
  C  C96  1  0.88403200  0.40987000  0.39793500  1
  C  C97  1  0.61596800  0.40987000  0.89793500  1
  C  C98  1  0.11596800  0.59013000  0.60206500  1
  C  C99  1  0.38403200  0.59013000  0.10206500  1
  C  C100  1  0.94482800  0.15167400  0.49049600  1
  C  C101  1  0.55517200  0.15167400  0.99049600  1
  C  C102  1  0.05517200  0.84832600  0.50950400  1
  C  C103  1  0.44482800  0.84832600  0.00950400  1
  C  C104  1  0.03275300  0.39156200  0.45369200  1
  C  C105  1  0.46724700  0.39156200  0.95369200  1
  C  C106  1  0.96724700  0.60843800  0.54630800  1
  C  C107  1  0.53275300  0.60843800  0.04630800  1
  C  C108  1  0.00913100  0.97790900  0.25533400  1
  C  C109  1  0.49086900  0.97790900  0.75533400  1
  C  C110  1  0.99086900  0.02209100  0.74466600  1
  C  C111  1  0.50913100  0.02209100  0.24466600  1
  C  C112  1  0.96787100  0.04206800  0.10877700  1
  C  C113  1  0.53212900  0.04206800  0.60877700  1
  C  C114  1  0.03212900  0.95793200  0.89122300  1
  C  C115  1  0.46787100  0.95793200  0.39122300  1
  C  C116  1  0.03318200  0.30661400  0.07007000  1
  C  C117  1  0.46681800  0.30661400  0.57007000  1
  C  C118  1  0.96681800  0.69338600  0.92993000  1
  C  C119  1  0.53318200  0.69338600  0.42993000  1
  C  C120  1  0.07547100  0.24704200  0.21642200  1
  C  C121  1  0.42452900  0.24704200  0.71642200  1
  C  C122  1  0.92452900  0.75295800  0.78357800  1
  C  C123  1  0.57547100  0.75295800  0.28357800  1
  C  C124  1  0.11884700  0.07269400  0.14802700  1
  C  C125  1  0.38115300  0.07269400  0.64802700  1
  C  C126  1  0.88115300  0.92730600  0.85197300  1
  C  C127  1  0.61884700  0.92730600  0.35197300  1
  C  C128  1  0.81519900  0.56374300  0.06978300  1
  C  C129  1  0.68480100  0.56374300  0.56978300  1
  C  C130  1  0.18480100  0.43625700  0.93021700  1
  C  C131  1  0.31519900  0.43625700  0.43021700  1
  C  C132  1  0.75234700  0.70170100  0.15566500  1
  C  C133  1  0.74765300  0.70170100  0.65566500  1
  C  C134  1  0.24765300  0.29829900  0.84433500  1
  C  C135  1  0.25234700  0.29829900  0.34433500  1
  C  C136  1  0.90070700  0.71458300  0.21172700  1
  C  C137  1  0.59929300  0.71458300  0.71172700  1
  C  C138  1  0.09929300  0.28541700  0.78827300  1
  C  C139  1  0.40070700  0.28541700  0.28827300  1
  C  C140  1  0.96676200  0.57491400  0.12741600  1
  C  C141  1  0.53323800  0.57491400  0.62741600  1
  C  C142  1  0.03323800  0.42508600  0.87258400  1
  C  C143  1  0.46676200  0.42508600  0.37258400  1
  C  C144  1  0.87744900  0.81154300  0.06418600  1
  C  C145  1  0.62255100  0.81154300  0.56418600  1
  C  C146  1  0.12255100  0.18845700  0.93581400  1
  C  C147  1  0.37744900  0.18845700  0.43581400  1
