# generated using pymatgen
data_Cu2NiC7
_symmetry_space_group_name_H-M   'P 1'
_cell_length_a   8.45102952
_cell_length_b   8.45102952
_cell_length_c   8.45102952
_cell_angle_alpha   90.00000000
_cell_angle_beta   90.00000000
_cell_angle_gamma   90.00000000
_symmetry_Int_Tables_number   1
_chemical_formula_structural   Cu2NiC7
_chemical_formula_sum   'Cu8 Ni4 C28'
_cell_volume   603.57168278
_cell_formula_units_Z   4
loop_
 _symmetry_equiv_pos_site_id
 _symmetry_equiv_pos_as_xyz
  1  'x, y, z'
loop_
 _atom_site_type_symbol
 _atom_site_label
 _atom_site_symmetry_multiplicity
 _atom_site_fract_x
 _atom_site_fract_y
 _atom_site_fract_z
 _atom_site_occupancy
  C  C0  1  0.75000000  0.75000000  0.75000000  1
  C  C1  1  0.75000000  0.25000000  0.25000000  1
  C  C2  1  0.25000000  0.75000000  0.25000000  1
  C  C3  1  0.25000000  0.25000000  0.75000000  1
  Ni  Ni4  1  0.25000000  0.25000000  0.25000000  1
  Ni  Ni5  1  0.25000000  0.75000000  0.75000000  1
  Ni  Ni6  1  0.75000000  0.25000000  0.75000000  1
  Ni  Ni7  1  0.75000000  0.75000000  0.25000000  1
  Cu  Cu8  1  0.50000000  0.50000000  0.50000000  1
  Cu  Cu9  1  0.00000000  0.00000000  0.00000000  1
  Cu  Cu10  1  0.00000000  0.00000000  0.50000000  1
  Cu  Cu11  1  0.00000000  0.50000000  0.00000000  1
  Cu  Cu12  1  0.50000000  0.00000000  0.00000000  1
  Cu  Cu13  1  0.50000000  0.50000000  0.00000000  1
  Cu  Cu14  1  0.50000000  0.00000000  0.50000000  1
  Cu  Cu15  1  0.00000000  0.50000000  0.50000000  1
  C  C16  1  0.19905846  0.32043478  0.48499552  1
  C  C17  1  0.19905846  0.67956522  0.51500448  1
  C  C18  1  0.80094154  0.32043478  0.51500448  1
  C  C19  1  0.80094154  0.67956522  0.48499552  1
  C  C20  1  0.32043478  0.48499552  0.19905846  1
  C  C21  1  0.67956522  0.51500448  0.19905846  1
  C  C22  1  0.32043478  0.51500448  0.80094154  1
  C  C23  1  0.67956522  0.48499552  0.80094154  1
  C  C24  1  0.48499552  0.19905846  0.32043478  1
  C  C25  1  0.51500448  0.19905846  0.67956522  1
  C  C26  1  0.51500448  0.80094154  0.32043478  1
  C  C27  1  0.48499552  0.80094154  0.67956522  1
  C  C28  1  0.30094154  0.17956522  0.01500448  1
  C  C29  1  0.30094154  0.82043478  0.98499552  1
  C  C30  1  0.69905846  0.17956522  0.98499552  1
  C  C31  1  0.69905846  0.82043478  0.01500448  1
  C  C32  1  0.17956522  0.01500448  0.30094154  1
  C  C33  1  0.82043478  0.98499552  0.30094154  1
  C  C34  1  0.17956522  0.98499552  0.69905846  1
  C  C35  1  0.82043478  0.01500448  0.69905846  1
  C  C36  1  0.01500448  0.30094154  0.17956522  1
  C  C37  1  0.98499552  0.30094154  0.82043478  1
  C  C38  1  0.98499552  0.69905846  0.17956522  1
  C  C39  1  0.01500448  0.69905846  0.82043478  1
