# generated using pymatgen
data_Cu3Ni2C3
_symmetry_space_group_name_H-M   'P 1'
_cell_length_a   5.69838455
_cell_length_b   5.69838455
_cell_length_c   13.66019300
_cell_angle_alpha   90.00000000
_cell_angle_beta   90.00000000
_cell_angle_gamma   137.95920845
_symmetry_Int_Tables_number   1
_chemical_formula_structural   Cu3Ni2C3
_chemical_formula_sum   'Cu6 Ni4 C6'
_cell_volume   297.03962480
_cell_formula_units_Z   2
loop_
 _symmetry_equiv_pos_site_id
 _symmetry_equiv_pos_as_xyz
  1  'x, y, z'
loop_
 _atom_site_type_symbol
 _atom_site_label
 _atom_site_symmetry_multiplicity
 _atom_site_fract_x
 _atom_site_fract_y
 _atom_site_fract_z
 _atom_site_occupancy
  C  C0  1  0.63682600  0.36317400  0.25000000  1
  C  C1  1  0.36317400  0.63682600  0.75000000  1
  C  C2  1  0.92120300  0.07879700  0.11280800  1
  C  C3  1  0.07879700  0.92120300  0.88719200  1
  C  C4  1  0.07879700  0.92120300  0.61280800  1
  C  C5  1  0.92120300  0.07879700  0.38719200  1
  Ni  Ni6  1  0.78471200  0.21528800  0.58008400  1
  Ni  Ni7  1  0.21528800  0.78471200  0.41991600  1
  Ni  Ni8  1  0.21528800  0.78471200  0.08008400  1
  Ni  Ni9  1  0.78471200  0.21528800  0.91991600  1
  Cu  Cu10  1  0.32569700  0.67430300  0.25000000  1
  Cu  Cu11  1  0.67430300  0.32569700  0.75000000  1
  Cu  Cu12  1  0.62619400  0.37380600  0.03939600  1
  Cu  Cu13  1  0.37380600  0.62619400  0.96060400  1
  Cu  Cu14  1  0.37380600  0.62619400  0.53939600  1
  Cu  Cu15  1  0.62619400  0.37380600  0.46060400  1
