# generated using pymatgen
data_Cu22Ni4C7
_symmetry_space_group_name_H-M   'P 1'
_cell_length_a   13.17058400
_cell_length_b   9.10518100
_cell_length_c   9.46043892
_cell_angle_alpha   83.33318652
_cell_angle_beta   90.00000000
_cell_angle_gamma   90.00000000
_symmetry_Int_Tables_number   1
_chemical_formula_structural   Cu22Ni4C7
_chemical_formula_sum   'Cu44 Ni8 C14'
_cell_volume   1126.82962185
_cell_formula_units_Z   2
loop_
 _symmetry_equiv_pos_site_id
 _symmetry_equiv_pos_as_xyz
  1  'x, y, z'
loop_
 _atom_site_type_symbol
 _atom_site_label
 _atom_site_symmetry_multiplicity
 _atom_site_fract_x
 _atom_site_fract_y
 _atom_site_fract_z
 _atom_site_occupancy
  C  C0  1  0.50000000  0.50000000  0.00000000  1
  C  C1  1  0.00000000  0.00000000  0.00000000  1
  C  C2  1  0.83305400  0.19604400  0.14470700  1
  C  C3  1  0.33305400  0.30395600  0.85529300  1
  C  C4  1  0.16694600  0.80395600  0.85529300  1
  C  C5  1  0.66694600  0.69604400  0.14470700  1
  C  C6  1  0.83953900  0.23168500  0.45157500  1
  C  C7  1  0.33953900  0.26831500  0.54842500  1
  C  C8  1  0.16046100  0.76831500  0.54842500  1
  C  C9  1  0.66046100  0.73168500  0.45157500  1
  C  C10  1  0.94651800  0.44967900  0.24831700  1
  C  C11  1  0.44651800  0.05032100  0.75168300  1
  C  C12  1  0.05348200  0.55032100  0.75168300  1
  C  C13  1  0.55348200  0.94967900  0.24831700  1
  Ni  Ni14  1  0.14837600  0.18961800  0.50742600  1
  Ni  Ni15  1  0.64837600  0.31038200  0.49257400  1
  Ni  Ni16  1  0.85162400  0.81038200  0.49257400  1
  Ni  Ni17  1  0.35162400  0.68961800  0.50742600  1
  Ni  Ni18  1  0.64381500  0.03566300  0.77886200  1
  Ni  Ni19  1  0.14381500  0.46433700  0.22113800  1
  Ni  Ni20  1  0.35618500  0.96433700  0.22113800  1
  Ni  Ni21  1  0.85618500  0.53566300  0.77886200  1
  Cu  Cu22  1  0.91509300  0.08194800  0.15308900  1
  Cu  Cu23  1  0.41509300  0.41805200  0.84691100  1
  Cu  Cu24  1  0.08490700  0.91805200  0.84691100  1
  Cu  Cu25  1  0.58490700  0.58194800  0.15308900  1
  Cu  Cu26  1  0.89182400  0.36271600  0.13832300  1
  Cu  Cu27  1  0.39182400  0.13728400  0.86167700  1
  Cu  Cu28  1  0.10817600  0.63728400  0.86167700  1
  Cu  Cu29  1  0.60817600  0.86271600  0.13832300  1
  Cu  Cu30  1  0.78846500  0.18970900  0.31258000  1
  Cu  Cu31  1  0.28846500  0.31029100  0.68742000  1
  Cu  Cu32  1  0.21153500  0.81029100  0.68742000  1
  Cu  Cu33  1  0.71153500  0.68970900  0.31258000  1
  Cu  Cu34  1  0.74749600  0.21093700  0.04592700  1
  Cu  Cu35  1  0.24749600  0.28906300  0.95407300  1
  Cu  Cu36  1  0.25250400  0.78906300  0.95407300  1
  Cu  Cu37  1  0.75250400  0.71093700  0.04592700  1
  Cu  Cu38  1  0.74254400  0.32014800  0.52837900  1
  Cu  Cu39  1  0.24254400  0.17985200  0.47162100  1
  Cu  Cu40  1  0.25745600  0.67985200  0.47162100  1
  Cu  Cu41  1  0.75745600  0.82014800  0.52837900  1
  Cu  Cu42  1  0.55099300  0.11028700  0.22853700  1
  Cu  Cu43  1  0.05099300  0.38971300  0.77146300  1
  Cu  Cu44  1  0.44900700  0.88971300  0.77146300  1
  Cu  Cu45  1  0.94900700  0.61028700  0.22853700  1
  Cu  Cu46  1  0.88504500  0.12084400  0.55527400  1
  Cu  Cu47  1  0.38504500  0.37915600  0.44472600  1
  Cu  Cu48  1  0.11495500  0.87915600  0.44472600  1
  Cu  Cu49  1  0.61495500  0.62084400  0.55527400  1
  Cu  Cu50  1  0.56761300  0.12340800  0.75097400  1
  Cu  Cu51  1  0.06761300  0.37659200  0.24902600  1
  Cu  Cu52  1  0.43238700  0.87659200  0.24902600  1
  Cu  Cu53  1  0.93238700  0.62340800  0.75097400  1
  Cu  Cu54  1  0.90930100  0.37500500  0.40287800  1
  Cu  Cu55  1  0.40930100  0.12499500  0.59712200  1
  Cu  Cu56  1  0.09069900  0.62499500  0.59712200  1
  Cu  Cu57  1  0.59069900  0.87500500  0.40287800  1
  Cu  Cu58  1  0.90691600  0.08232100  0.85217100  1
  Cu  Cu59  1  0.40691600  0.41767900  0.14782900  1
  Cu  Cu60  1  0.09308400  0.91767900  0.14782900  1
  Cu  Cu61  1  0.59308400  0.58232100  0.85217100  1
  Cu  Cu62  1  0.62052100  0.44725800  0.89094900  1
  Cu  Cu63  1  0.12052100  0.05274200  0.10905100  1
  Cu  Cu64  1  0.37947900  0.55274200  0.10905100  1
  Cu  Cu65  1  0.87947900  0.94725800  0.89094900  1
