# generated using pymatgen
data_Cu(Ni2C3)4
_symmetry_space_group_name_H-M   'P 1'
_cell_length_a   9.36736468
_cell_length_b   9.36736468
_cell_length_c   9.36736428
_cell_angle_alpha   41.14291153
_cell_angle_beta   41.14291153
_cell_angle_gamma   41.14290789
_symmetry_Int_Tables_number   1
_chemical_formula_structural   Cu(Ni2C3)4
_chemical_formula_sum   'Cu1 Ni8 C12'
_cell_volume   321.31235843
_cell_formula_units_Z   1
loop_
 _symmetry_equiv_pos_site_id
 _symmetry_equiv_pos_as_xyz
  1  'x, y, z'
loop_
 _atom_site_type_symbol
 _atom_site_label
 _atom_site_symmetry_multiplicity
 _atom_site_fract_x
 _atom_site_fract_y
 _atom_site_fract_z
 _atom_site_occupancy
  Ni  Ni0  1  0.88066500  0.37795500  0.37795500  1
  Ni  Ni1  1  0.87843900  0.87843900  0.87843900  1
  Ni  Ni2  1  0.37795500  0.88066500  0.37795500  1
  Ni  Ni3  1  0.37795500  0.37795500  0.88066500  1
  Ni  Ni4  1  0.11933500  0.62204500  0.62204500  1
  Ni  Ni5  1  0.12156100  0.12156100  0.12156100  1
  Ni  Ni6  1  0.62204500  0.11933500  0.62204500  1
  Ni  Ni7  1  0.62204500  0.62204500  0.11933500  1
  Cu  Cu8  1  0.00000000  0.00000000  0.00000000  1
  C  C9  1  0.00000000  0.00000000  0.50000000  1
  C  C10  1  0.00000000  0.50000000  0.00000000  1
  C  C11  1  0.50000000  0.50000000  0.50000000  1
  C  C12  1  0.50000000  0.00000000  0.00000000  1
  C  C13  1  0.72234000  0.22425700  0.22425700  1
  C  C14  1  0.72469700  0.72469700  0.72469700  1
  C  C15  1  0.22425700  0.72234000  0.22425700  1
  C  C16  1  0.22425700  0.22425700  0.72234000  1
  C  C17  1  0.27766000  0.77574300  0.77574300  1
  C  C18  1  0.27530300  0.27530300  0.27530300  1
  C  C19  1  0.77574300  0.27766000  0.77574300  1
  C  C20  1  0.77574300  0.77574300  0.27766000  1
