# generated using pymatgen
data_Cu3Ni2C5
_symmetry_space_group_name_H-M   'P 1'
_cell_length_a   8.89607700
_cell_length_b   5.64118600
_cell_length_c   11.15351213
_cell_angle_alpha   68.97065383
_cell_angle_beta   90.00000000
_cell_angle_gamma   90.00000000
_symmetry_Int_Tables_number   1
_chemical_formula_structural   Cu3Ni2C5
_chemical_formula_sum   'Cu12 Ni8 C20'
_cell_volume   522.45258478
_cell_formula_units_Z   4
loop_
 _symmetry_equiv_pos_site_id
 _symmetry_equiv_pos_as_xyz
  1  'x, y, z'
loop_
 _atom_site_type_symbol
 _atom_site_label
 _atom_site_symmetry_multiplicity
 _atom_site_fract_x
 _atom_site_fract_y
 _atom_site_fract_z
 _atom_site_occupancy
  Ni  Ni0  1  0.99311900  0.29354800  0.86156300  1
  Ni  Ni1  1  0.49311900  0.70645200  0.63843700  1
  Ni  Ni2  1  0.00688100  0.70645200  0.13843700  1
  Ni  Ni3  1  0.50688100  0.29354800  0.36156300  1
  Ni  Ni4  1  0.77195700  0.27963100  0.11005600  1
  Ni  Ni5  1  0.27195700  0.72036900  0.38994400  1
  Ni  Ni6  1  0.22804300  0.72036900  0.88994400  1
  Ni  Ni7  1  0.72804300  0.27963100  0.61005600  1
  Cu  Cu8  1  0.00818200  0.62670000  0.57098800  1
  Cu  Cu9  1  0.50818200  0.37330000  0.92901200  1
  Cu  Cu10  1  0.99181800  0.37330000  0.42901200  1
  Cu  Cu11  1  0.49181800  0.62670000  0.07098800  1
  Cu  Cu12  1  0.46593100  0.09639400  0.79706200  1
  Cu  Cu13  1  0.96593100  0.90360600  0.70293800  1
  Cu  Cu14  1  0.53406900  0.90360600  0.20293800  1
  Cu  Cu15  1  0.03406900  0.09639400  0.29706200  1
  Cu  Cu16  1  0.23896300  0.38217200  0.70064300  1
  Cu  Cu17  1  0.73896300  0.61782800  0.79935700  1
  Cu  Cu18  1  0.76103700  0.61782800  0.29935700  1
  Cu  Cu19  1  0.26103700  0.38217200  0.20064300  1
  C  C20  1  0.28815100  0.10168500  0.06314800  1
  C  C21  1  0.78815100  0.89831500  0.43685200  1
  C  C22  1  0.71184900  0.89831500  0.93685200  1
  C  C23  1  0.21184900  0.10168500  0.56314800  1
  C  C24  1  0.32278500  0.74539300  0.14377600  1
  C  C25  1  0.82278500  0.25460700  0.35622400  1
  C  C26  1  0.67721500  0.25460700  0.85622400  1
  C  C27  1  0.17721500  0.74539300  0.64377600  1
  C  C28  1  0.19016500  0.23482300  0.38019400  1
  C  C29  1  0.69016500  0.76517700  0.11980600  1
  C  C30  1  0.80983500  0.76517700  0.61980600  1
  C  C31  1  0.30983500  0.23482300  0.88019400  1
  C  C32  1  0.10687100  0.21800200  0.11608700  1
  C  C33  1  0.60687100  0.78199800  0.38391300  1
  C  C34  1  0.89312900  0.78199800  0.88391300  1
  C  C35  1  0.39312900  0.21800200  0.61608700  1
  C  C36  1  0.04961500  0.25814400  0.62269400  1
  C  C37  1  0.54961500  0.74185600  0.87730600  1
  C  C38  1  0.95038500  0.74185600  0.37730600  1
  C  C39  1  0.45038500  0.25814400  0.12269400  1
