# generated using pymatgen
data_Cu2NiC12
_symmetry_space_group_name_H-M   'P 1'
_cell_length_a   10.32175336
_cell_length_b   8.64581286
_cell_length_c   8.19415255
_cell_angle_alpha   75.55043884
_cell_angle_beta   54.20688096
_cell_angle_gamma   50.24268020
_symmetry_Int_Tables_number   1
_chemical_formula_structural   Cu2NiC12
_chemical_formula_sum   'Cu4 Ni2 C24'
_cell_volume   446.79842720
_cell_formula_units_Z   2
loop_
 _symmetry_equiv_pos_site_id
 _symmetry_equiv_pos_as_xyz
  1  'x, y, z'
loop_
 _atom_site_type_symbol
 _atom_site_label
 _atom_site_symmetry_multiplicity
 _atom_site_fract_x
 _atom_site_fract_y
 _atom_site_fract_z
 _atom_site_occupancy
  Ni  Ni0  1  0.86561100  0.63438900  0.63438900  1
  Ni  Ni1  1  0.61561100  0.38438900  0.38438900  1
  Cu  Cu2  1  0.38459800  0.35620000  0.89810400  1
  Cu  Cu3  1  0.36109700  0.89810400  0.35620000  1
  Cu  Cu4  1  0.89380000  0.86540200  0.88890300  1
  Cu  Cu5  1  0.35189600  0.88890300  0.86540200  1
  C  C6  1  0.94572200  0.43243100  0.02286500  1
  C  C7  1  0.81756900  0.30427800  0.65101800  1
  C  C8  1  0.59898200  0.02286500  0.43243100  1
  C  C9  1  0.22713500  0.65101800  0.30427800  1
  C  C10  1  0.30176200  0.79409800  0.67914300  1
  C  C11  1  0.45590200  0.94823800  0.02500300  1
  C  C12  1  0.22499700  0.67914300  0.79409800  1
  C  C13  1  0.57085700  0.02500300  0.94823800  1
  C  C14  1  0.51576000  0.22563100  0.53299100  1
  C  C15  1  0.39278200  0.59048200  0.32876000  1
  C  C16  1  0.71700900  0.52438200  0.73424000  1
  C  C17  1  0.77863200  0.96499100  0.20654300  1
  C  C18  1  0.42255400  0.05608500  0.45308400  1
  C  C19  1  0.28500900  0.47136800  0.20016700  1
  C  C20  1  0.72561800  0.53299100  0.22563100  1
  C  C21  1  0.04345700  0.20016700  0.47136800  1
  C  C22  1  0.04983300  0.20654300  0.96499100  1
  C  C23  1  0.19391500  0.82744600  0.18172200  1
  C  C24  1  0.06827800  0.45308400  0.05608500  1
  C  C25  1  0.79691600  0.18172300  0.82744600  1
  C  C26  1  0.92124000  0.56202500  0.85721800  1
  C  C27  1  0.68797500  0.32876000  0.59048200  1
  C  C28  1  0.02436900  0.73424000  0.52438200  1
  C  C29  1  0.65951800  0.85721800  0.56202500  1
