# generated using pymatgen
data_Cu13Ni5C36
_symmetry_space_group_name_H-M   'P 1'
_cell_length_a   7.80057688
_cell_length_b   7.80057688
_cell_length_c   19.94998444
_cell_angle_alpha   77.16286867
_cell_angle_beta   77.16286867
_cell_angle_gamma   68.62997933
_symmetry_Int_Tables_number   1
_chemical_formula_structural   Cu13Ni5C36
_chemical_formula_sum   'Cu13 Ni5 C36'
_cell_volume   1088.80538907
_cell_formula_units_Z   1
loop_
 _symmetry_equiv_pos_site_id
 _symmetry_equiv_pos_as_xyz
  1  'x, y, z'
loop_
 _atom_site_type_symbol
 _atom_site_label
 _atom_site_symmetry_multiplicity
 _atom_site_fract_x
 _atom_site_fract_y
 _atom_site_fract_z
 _atom_site_occupancy
  C  C0  1  0.10347100  0.10347100  0.83986400  1
  C  C1  1  0.43740000  0.43740000  0.17344000  1
  C  C2  1  0.78846100  0.78846100  0.50816900  1
  C  C3  1  0.89652900  0.89652900  0.16013600  1
  C  C4  1  0.21153900  0.21153900  0.49183100  1
  C  C5  1  0.56260000  0.56260000  0.82656000  1
  C  C6  1  0.75290600  0.75290600  0.01565100  1
  C  C7  1  0.08015700  0.08015700  0.36379800  1
  C  C8  1  0.42151300  0.42151300  0.67992200  1
  C  C9  1  0.24709400  0.24709400  0.98434900  1
  C  C10  1  0.57848700  0.57848700  0.32007800  1
  C  C11  1  0.91984300  0.91984300  0.63620200  1
  C  C12  1  0.82654300  0.42286300  0.93790500  1
  C  C13  1  0.15890200  0.75888800  0.27248200  1
  C  C14  1  0.48802100  0.08997700  0.60349600  1
  C  C15  1  0.57713700  0.17345700  0.06209500  1
  C  C16  1  0.91002300  0.51197900  0.39650400  1
  C  C17  1  0.24111200  0.84109800  0.72751800  1
  C  C18  1  0.17345700  0.57713700  0.06209500  1
  C  C19  1  0.51197900  0.91002300  0.39650400  1
  C  C20  1  0.84109800  0.24111200  0.72751800  1
  C  C21  1  0.42286300  0.82654300  0.93790500  1
  C  C22  1  0.75888800  0.15890200  0.27248200  1
  C  C23  1  0.08997700  0.48802100  0.60349600  1
  C  C24  1  0.31839800  0.88868000  0.10332500  1
  C  C25  1  0.66639700  0.21113600  0.44096900  1
  C  C26  1  0.98431600  0.55744000  0.76824400  1
  C  C27  1  0.11132000  0.68160200  0.89667500  1
  C  C28  1  0.44256000  0.01568400  0.23175600  1
  C  C29  1  0.78886400  0.33360300  0.55903100  1
  C  C30  1  0.88868000  0.31839800  0.10332500  1
  C  C31  1  0.21113600  0.66639700  0.44096900  1
  C  C32  1  0.55744000  0.98431600  0.76824400  1
  C  C33  1  0.68160200  0.11132000  0.89667500  1
  C  C34  1  0.01568400  0.44256000  0.23175600  1
  C  C35  1  0.33360300  0.78886400  0.55903100  1
  Ni  Ni36  1  0.00000000  0.00000000  0.00000000  1
  Ni  Ni37  1  0.33347500  0.33347500  0.33345800  1
  Ni  Ni38  1  0.66652500  0.66652500  0.66654200  1
  Ni  Ni39  1  0.33314800  0.33314800  0.83263300  1
  Ni  Ni40  1  0.66685200  0.66685200  0.16736700  1
  Cu  Cu41  1  0.45519000  0.45519000  0.95616900  1
  Cu  Cu42  1  0.78896300  0.78896300  0.28965900  1
  Cu  Cu43  1  0.12239100  0.12239100  0.62225100  1
  Cu  Cu44  1  0.54481000  0.54481000  0.04383100  1
  Cu  Cu45  1  0.87760900  0.87760900  0.37774900  1
  Cu  Cu46  1  0.21103700  0.21103700  0.71034100  1
  Cu  Cu47  1  0.00000000  0.00000000  0.50000000  1
  Cu  Cu48  1  0.75283400  0.75283400  0.87187800  1
  Cu  Cu49  1  0.08536100  0.08536100  0.20482900  1
  Cu  Cu50  1  0.42287000  0.42287000  0.54000900  1
  Cu  Cu51  1  0.24716600  0.24716600  0.12812200  1
  Cu  Cu52  1  0.57713000  0.57713000  0.45999100  1
  Cu  Cu53  1  0.91463900  0.91463900  0.79517100  1
