# generated using pymatgen
data_Cu3NiC2
_symmetry_space_group_name_H-M   'P 1'
_cell_length_a   4.22833900
_cell_length_b   8.41334663
_cell_length_c   10.77486700
_cell_angle_alpha   90.00000000
_cell_angle_beta   90.00000000
_cell_angle_gamma   104.55372104
_symmetry_Int_Tables_number   1
_chemical_formula_structural   Cu3NiC2
_chemical_formula_sum   'Cu6 Ni2 C4'
_cell_volume   371.01082227
_cell_formula_units_Z   2
loop_
 _symmetry_equiv_pos_site_id
 _symmetry_equiv_pos_as_xyz
  1  'x, y, z'
loop_
 _atom_site_type_symbol
 _atom_site_label
 _atom_site_symmetry_multiplicity
 _atom_site_fract_x
 _atom_site_fract_y
 _atom_site_fract_z
 _atom_site_occupancy
  C  C0  1  0.74732900  0.49465800  0.25000000  1
  C  C1  1  0.25267100  0.50534200  0.75000000  1
  C  C2  1  0.00000000  0.00000000  0.50000000  1
  C  C3  1  0.00000000  0.00000000  0.00000000  1
  Ni  Ni4  1  0.45806100  0.91612200  0.25000000  1
  Ni  Ni5  1  0.54193900  0.08387800  0.75000000  1
  Cu  Cu6  1  0.06085100  0.12170200  0.25000000  1
  Cu  Cu7  1  0.93914900  0.87829800  0.75000000  1
  Cu  Cu8  1  0.38287900  0.76575900  0.45988900  1
  Cu  Cu9  1  0.61712100  0.23424100  0.54011100  1
  Cu  Cu10  1  0.38287900  0.76575900  0.04011100  1
  Cu  Cu11  1  0.61712100  0.23424100  0.95988900  1
