# generated using pymatgen
data_CuNiC6
_symmetry_space_group_name_H-M   'P 1'
_cell_length_a   3.98710927
_cell_length_b   3.98710927
_cell_length_c   16.03831500
_cell_angle_alpha   90.00000000
_cell_angle_beta   90.00000000
_cell_angle_gamma   90.00475549
_symmetry_Int_Tables_number   1
_chemical_formula_structural   CuNiC6
_chemical_formula_sum   'Cu2 Ni2 C12'
_cell_volume   254.96173957
_cell_formula_units_Z   2
loop_
 _symmetry_equiv_pos_site_id
 _symmetry_equiv_pos_as_xyz
  1  'x, y, z'
loop_
 _atom_site_type_symbol
 _atom_site_label
 _atom_site_symmetry_multiplicity
 _atom_site_fract_x
 _atom_site_fract_y
 _atom_site_fract_z
 _atom_site_occupancy
  C  C0  1  0.49201300  0.49201300  0.34935700  1
  C  C1  1  0.49201300  0.49201300  0.65064300  1
  C  C2  1  0.98638000  0.98638000  0.50000000  1
  Ni  Ni3  1  0.99832300  0.99832300  0.22150600  1
  Ni  Ni4  1  0.99832300  0.99832300  0.77849400  1
  Cu  Cu5  1  0.49973600  0.49973600  0.11919000  1
  Cu  Cu6  1  0.49973600  0.49973600  0.88081000  1
  C  C7  1  0.99943200  0.99943200  0.00000000  1
  C  C8  1  0.98724500  0.98724500  0.37623200  1
  C  C9  1  0.98724500  0.98724500  0.62376800  1
  C  C10  1  0.99926600  0.49875100  0.21065000  1
  C  C11  1  0.49875100  0.99926600  0.21065000  1
  C  C12  1  0.99926600  0.49875100  0.78935000  1
  C  C13  1  0.49875100  0.99926600  0.78935000  1
  C  C14  1  0.97687100  0.48365000  0.50000000  1
  C  C15  1  0.48365000  0.97687100  0.50000000  1
