# generated using pymatgen
data_Cu(NiC2)3
_symmetry_space_group_name_H-M   'P 1'
_cell_length_a   5.47693100
_cell_length_b   6.59703883
_cell_length_c   12.14651446
_cell_angle_alpha   86.63333713
_cell_angle_beta   85.99189737
_cell_angle_gamma   109.84394713
_symmetry_Int_Tables_number   1
_chemical_formula_structural   Cu(NiC2)3
_chemical_formula_sum   'Cu1 Ni3 C6'
_cell_volume   410.20953309
_cell_formula_units_Z   1
loop_
 _symmetry_equiv_pos_site_id
 _symmetry_equiv_pos_as_xyz
  1  'x, y, z'
loop_
 _atom_site_type_symbol
 _atom_site_label
 _atom_site_symmetry_multiplicity
 _atom_site_fract_x
 _atom_site_fract_y
 _atom_site_fract_z
 _atom_site_occupancy
  Ni  Ni0  1  0.00000000  0.00000000  0.50000000  1
  Ni  Ni1  1  0.50000000  0.50000000  0.00000000  1
  Ni  Ni2  1  0.00000000  0.50000000  0.00000000  1
  Cu  Cu3  1  0.00000000  0.00000000  0.00000000  1
  C  C4  1  0.95856200  0.26210400  0.91725600  1
  C  C5  1  0.04143800  0.73789600  0.08274400  1
  C  C6  1  0.93166000  0.96312800  0.64335100  1
  C  C7  1  0.06834000  0.03687200  0.35664900  1
  C  C8  1  0.66725800  0.79085800  0.94874100  1
  C  C9  1  0.33274200  0.20914200  0.05125900  1
