# generated using pymatgen
data_Cu(NiC22)2
_symmetry_space_group_name_H-M   'P 1'
_cell_length_a   7.20636500
_cell_length_b   13.76448924
_cell_length_c   8.60899298
_cell_angle_alpha   102.11349230
_cell_angle_beta   114.74226322
_cell_angle_gamma   74.82465927
_symmetry_Int_Tables_number   1
_chemical_formula_structural   Cu(NiC22)2
_chemical_formula_sum   'Cu1 Ni2 C44'
_cell_volume   743.59116751
_cell_formula_units_Z   1
loop_
 _symmetry_equiv_pos_site_id
 _symmetry_equiv_pos_as_xyz
  1  'x, y, z'
loop_
 _atom_site_type_symbol
 _atom_site_label
 _atom_site_symmetry_multiplicity
 _atom_site_fract_x
 _atom_site_fract_y
 _atom_site_fract_z
 _atom_site_occupancy
  Ni  Ni0  1  0.58507200  0.65544900  0.57925700  1
  Ni  Ni1  1  0.08873600  0.65544900  0.57925700  1
  Cu  Cu2  1  0.91154900  0.34561500  0.41871300  1
  C  C3  1  0.01395300  0.84324600  0.12115100  1
  C  C4  1  0.51415400  0.84363400  0.12194100  1
  C  C5  1  0.48493000  0.15952300  0.88114700  1
  C  C6  1  0.98669400  0.15952300  0.88114700  1
  C  C7  1  0.53213200  0.52497300  0.83923700  1
  C  C8  1  0.03348900  0.52487100  0.84184800  1
  C  C9  1  0.96428700  0.47703400  0.15476000  1
  C  C10  1  0.46343900  0.47703400  0.15476000  1
  C  C11  1  0.42278900  0.08676600  0.18234500  1
  C  C12  1  0.92204700  0.08432000  0.17841300  1
  C  C13  1  0.07779500  0.91694900  0.82245200  1
  C  C14  1  0.57770700  0.91694900  0.82245200  1
  C  C15  1  0.43285500  0.63886300  0.75457400  1
  C  C16  1  0.93488000  0.63758100  0.75734000  1
  C  C17  1  0.03130000  0.35921400  0.22259000  1
  C  C18  1  0.58207500  0.35921400  0.22259000  1
  C  C19  1  0.46852000  0.16523000  0.35227100  1
  C  C20  1  0.96941200  0.16363500  0.35245800  1
  C  C21  1  0.03028300  0.83729400  0.65147200  1
  C  C22  1  0.53389500  0.83729400  0.65147200  1
  C  C23  1  0.17984900  0.46911100  0.07880800  1
  C  C24  1  0.67154300  0.48741100  0.08049700  1
  C  C25  1  0.31640100  0.52857300  0.91904300  1
  C  C26  1  0.82406900  0.52857300  0.91904300  1
  C  C27  1  0.12120100  0.75735000  0.24975100  1
  C  C28  1  0.62116100  0.75718200  0.24950500  1
  C  C29  1  0.37202200  0.24415600  0.75062300  1
  C  C30  1  0.88444500  0.24415600  0.75062300  1
  C  C31  1  0.02546900  0.95921700  0.26015500  1
  C  C32  1  0.52556100  0.95924800  0.26036900  1
  C  C33  1  0.47495000  0.04283600  0.74335600  1
  C  C34  1  0.97557000  0.04283600  0.74335600  1
  C  C35  1  0.77750000  0.16599900  0.97100000  1
  C  C36  1  0.27848500  0.16585700  0.97282800  1
  C  C37  1  0.72198500  0.83653900  0.03004200  1
  C  C38  1  0.22151900  0.83653900  0.03004200  1
  C  C39  1  0.50075000  0.43164700  0.68314700  1
  C  C40  1  0.99777500  0.43166400  0.67721300  1
  C  C41  1  0.00510000  0.56396500  0.32433700  1
  C  C42  1  0.50527100  0.56396500  0.32433700  1
  C  C43  1  0.35934600  0.92590500  0.89459700  1
  C  C44  1  0.85944900  0.92742700  0.89632500  1
  C  C45  1  0.14018000  0.07509200  0.10768000  1
  C  C46  1  0.64240800  0.07509200  0.10768000  1
