# generated using pymatgen
data_Cu2Ni5C2
_symmetry_space_group_name_H-M   'P 1'
_cell_length_a   8.25473987
_cell_length_b   8.25473987
_cell_length_c   8.03839800
_cell_angle_alpha   90.00000000
_cell_angle_beta   90.00000000
_cell_angle_gamma   139.13529328
_symmetry_Int_Tables_number   1
_chemical_formula_structural   Cu2Ni5C2
_chemical_formula_sum   'Cu4 Ni10 C4'
_cell_volume   358.37415248
_cell_formula_units_Z   2
loop_
 _symmetry_equiv_pos_site_id
 _symmetry_equiv_pos_as_xyz
  1  'x, y, z'
loop_
 _atom_site_type_symbol
 _atom_site_label
 _atom_site_symmetry_multiplicity
 _atom_site_fract_x
 _atom_site_fract_y
 _atom_site_fract_z
 _atom_site_occupancy
  C  C0  1  0.88245400  0.11754600  0.41897200  1
  C  C1  1  0.11754600  0.88245400  0.58102800  1
  C  C2  1  0.61754600  0.38245400  0.91897200  1
  C  C3  1  0.38245400  0.61754600  0.08102800  1
  Ni  Ni4  1  0.79725900  0.70274100  0.25000000  1
  Ni  Ni5  1  0.20274100  0.29725900  0.75000000  1
  Ni  Ni6  1  0.70274100  0.79725900  0.75000000  1
  Ni  Ni7  1  0.29725900  0.20274100  0.25000000  1
  Ni  Ni8  1  0.00000000  0.00000000  0.00000000  1
  Ni  Ni9  1  0.50000000  0.50000000  0.50000000  1
  Ni  Ni10  1  0.96632900  0.53367100  0.25000000  1
  Ni  Ni11  1  0.03367100  0.46632900  0.75000000  1
  Ni  Ni12  1  0.53367100  0.96632900  0.75000000  1
  Ni  Ni13  1  0.46632900  0.03367100  0.25000000  1
  Cu  Cu14  1  0.81844900  0.18155100  0.04830100  1
  Cu  Cu15  1  0.18155100  0.81844900  0.95169900  1
  Cu  Cu16  1  0.68155100  0.31844900  0.54830100  1
  Cu  Cu17  1  0.31844900  0.68155100  0.45169900  1
