# generated using pymatgen
data_Cu(NiC)3
_symmetry_space_group_name_H-M   'P 1'
_cell_length_a   4.22909900
_cell_length_b   4.22909900
_cell_length_c   14.17652200
_cell_angle_alpha   90.00000000
_cell_angle_beta   90.00000000
_cell_angle_gamma   90.00000000
_symmetry_Int_Tables_number   1
_chemical_formula_structural   Cu(NiC)3
_chemical_formula_sum   'Cu2 Ni6 C6'
_cell_volume   253.55104203
_cell_formula_units_Z   2
loop_
 _symmetry_equiv_pos_site_id
 _symmetry_equiv_pos_as_xyz
  1  'x, y, z'
loop_
 _atom_site_type_symbol
 _atom_site_label
 _atom_site_symmetry_multiplicity
 _atom_site_fract_x
 _atom_site_fract_y
 _atom_site_fract_z
 _atom_site_occupancy
  C  C0  1  0.00000000  0.50000000  0.89799800  1
  C  C1  1  0.50000000  0.00000000  0.10200200  1
  C  C2  1  0.00000000  0.50000000  0.62053000  1
  C  C3  1  0.50000000  0.00000000  0.37947000  1
  C  C4  1  0.50000000  0.00000000  0.76801900  1
  C  C5  1  0.00000000  0.50000000  0.23198100  1
  Ni  Ni6  1  0.50000000  0.50000000  0.25837400  1
  Ni  Ni7  1  0.00000000  0.00000000  0.25837400  1
  Ni  Ni8  1  0.50000000  0.00000000  0.91857900  1
  Ni  Ni9  1  0.00000000  0.50000000  0.08142100  1
  Ni  Ni10  1  0.00000000  0.00000000  0.74162600  1
  Ni  Ni11  1  0.50000000  0.50000000  0.74162600  1
  Cu  Cu12  1  0.00000000  0.50000000  0.42783400  1
  Cu  Cu13  1  0.50000000  0.00000000  0.57216600  1
