# generated using pymatgen
data_Cu7(NiC2)4
_symmetry_space_group_name_H-M   'P 1'
_cell_length_a   13.64358900
_cell_length_b   6.38850100
_cell_length_c   6.54220932
_cell_angle_alpha   72.86863591
_cell_angle_beta   90.00000000
_cell_angle_gamma   90.00000000
_symmetry_Int_Tables_number   1
_chemical_formula_structural   Cu7(NiC2)4
_chemical_formula_sum   'Cu14 Ni8 C16'
_cell_volume   544.93245540
_cell_formula_units_Z   2
loop_
 _symmetry_equiv_pos_site_id
 _symmetry_equiv_pos_as_xyz
  1  'x, y, z'
loop_
 _atom_site_type_symbol
 _atom_site_label
 _atom_site_symmetry_multiplicity
 _atom_site_fract_x
 _atom_site_fract_y
 _atom_site_fract_z
 _atom_site_occupancy
  C  C0  1  0.25000000  0.76311000  0.73893900  1
  C  C1  1  0.75000000  0.23689000  0.26106100  1
  C  C2  1  0.95810600  0.26985000  0.86000500  1
  C  C3  1  0.45810600  0.73015000  0.13999500  1
  C  C4  1  0.04189400  0.73015000  0.13999500  1
  C  C5  1  0.54189400  0.26985000  0.86000500  1
  C  C6  1  0.08828600  0.29827000  0.82664600  1
  C  C7  1  0.58828600  0.70173000  0.17335400  1
  C  C8  1  0.91171400  0.70173000  0.17335400  1
  C  C9  1  0.41171400  0.29827000  0.82664600  1
  C  C10  1  0.00909500  0.58153100  0.71969800  1
  C  C11  1  0.50909500  0.41846900  0.28030200  1
  C  C12  1  0.99090500  0.41846900  0.28030200  1
  C  C13  1  0.49090500  0.58153100  0.71969800  1
  C  C14  1  0.25000000  0.92940500  0.16717200  1
  C  C15  1  0.75000000  0.07059500  0.83282800  1
  Ni  Ni16  1  0.91414000  0.66417200  0.68270300  1
  Ni  Ni17  1  0.41414000  0.33582800  0.31729700  1
  Ni  Ni18  1  0.08586000  0.33582800  0.31729700  1
  Ni  Ni19  1  0.58586000  0.66417200  0.68270300  1
  Ni  Ni20  1  0.01982600  0.36565800  0.80594400  1
  Ni  Ni21  1  0.51982600  0.63434200  0.19405600  1
  Ni  Ni22  1  0.98017400  0.63434200  0.19405600  1
  Ni  Ni23  1  0.48017400  0.36565800  0.80594400  1
  Cu  Cu24  1  0.25000000  0.71444000  0.40365800  1
  Cu  Cu25  1  0.75000000  0.28556000  0.59634200  1
  Cu  Cu26  1  0.25000000  0.05006300  0.59504200  1
  Cu  Cu27  1  0.75000000  0.94993700  0.40495800  1
  Cu  Cu28  1  0.15536900  0.85876300  0.02049500  1
  Cu  Cu29  1  0.65536900  0.14123700  0.97950500  1
  Cu  Cu30  1  0.84463100  0.14123700  0.97950500  1
  Cu  Cu31  1  0.34463100  0.85876300  0.02049500  1
  Cu  Cu32  1  0.07702400  0.72252700  0.66575000  1
  Cu  Cu33  1  0.57702400  0.27747300  0.33425000  1
  Cu  Cu34  1  0.92297600  0.27747300  0.33425000  1
  Cu  Cu35  1  0.42297600  0.72252700  0.66575000  1
  Cu  Cu36  1  0.25000000  0.47031200  0.87831400  1
  Cu  Cu37  1  0.75000000  0.52968800  0.12168600  1
