# generated using pymatgen
data_CuNiC4
_symmetry_space_group_name_H-M   'P 1'
_cell_length_a   3.30710753
_cell_length_b   3.30710753
_cell_length_c   38.68802000
_cell_angle_alpha   90.00000000
_cell_angle_beta   90.00000000
_cell_angle_gamma   119.99999063
_symmetry_Int_Tables_number   1
_chemical_formula_structural   CuNiC4
_chemical_formula_sum   'Cu2 Ni2 C8'
_cell_volume   366.44078859
_cell_formula_units_Z   2
loop_
 _symmetry_equiv_pos_site_id
 _symmetry_equiv_pos_as_xyz
  1  'x, y, z'
loop_
 _atom_site_type_symbol
 _atom_site_label
 _atom_site_symmetry_multiplicity
 _atom_site_fract_x
 _atom_site_fract_y
 _atom_site_fract_z
 _atom_site_occupancy
  Ni  Ni0  1  0.66666700  0.33333300  0.41953100  1
  Ni  Ni1  1  0.66666700  0.33333300  0.51843400  1
  C  C2  1  0.33333300  0.66666700  0.09390000  1
  C  C3  1  0.33333300  0.66666700  0.46900100  1
  C  C4  1  0.66666700  0.33333300  0.28135800  1
  C  C5  1  0.66666700  0.33333300  0.65867400  1
  Cu  Cu6  1  0.33333300  0.66666700  0.70207100  1
  Cu  Cu7  1  0.33333300  0.66666700  0.61524400  1
  C  C8  1  0.33333300  0.66666700  0.32089300  1
  C  C9  1  0.66666700  0.33333300  0.05439000  1
  C  C10  1  0.66666700  0.33333300  0.13341700  1
  C  C11  1  0.33333300  0.66666700  0.24183600  1
