# generated using pymatgen
data_Cu3Ni13C16
_symmetry_space_group_name_H-M   'P 1'
_cell_length_a   7.14040500
_cell_length_b   9.44517300
_cell_length_c   18.11065211
_cell_angle_alpha   89.54897895
_cell_angle_beta   90.00000000
_cell_angle_gamma   90.00000000
_symmetry_Int_Tables_number   1
_chemical_formula_structural   Cu3Ni13C16
_chemical_formula_sum   'Cu6 Ni26 C32'
_cell_volume   1221.38728618
_cell_formula_units_Z   2
loop_
 _symmetry_equiv_pos_site_id
 _symmetry_equiv_pos_as_xyz
  1  'x, y, z'
loop_
 _atom_site_type_symbol
 _atom_site_label
 _atom_site_symmetry_multiplicity
 _atom_site_fract_x
 _atom_site_fract_y
 _atom_site_fract_z
 _atom_site_occupancy
  Ni  Ni0  1  0.25000000  0.70543600  0.33394200  1
  Ni  Ni1  1  0.75000000  0.29456400  0.66605800  1
  Ni  Ni2  1  0.75000000  0.04802900  0.38051600  1
  Ni  Ni3  1  0.25000000  0.95197100  0.61948400  1
  Ni  Ni4  1  0.53890300  0.97587500  0.24430300  1
  Ni  Ni5  1  0.03890300  0.02412500  0.75569700  1
  Ni  Ni6  1  0.46109700  0.02412500  0.75569700  1
  Ni  Ni7  1  0.96109700  0.97587500  0.24430300  1
  Ni  Ni8  1  0.45937000  0.39358700  0.33367700  1
  Ni  Ni9  1  0.95937000  0.60641300  0.66632300  1
  Ni  Ni10  1  0.54063000  0.60641300  0.66632300  1
  Ni  Ni11  1  0.04063000  0.39358700  0.33367700  1
  Ni  Ni12  1  0.48552700  0.76865400  0.47648000  1
  Ni  Ni13  1  0.98552700  0.23134600  0.52352000  1
  Ni  Ni14  1  0.51447300  0.23134600  0.52352000  1
  Ni  Ni15  1  0.01447300  0.76865400  0.47648000  1
  Ni  Ni16  1  0.48758000  0.62860200  0.15360100  1
  Ni  Ni17  1  0.98758000  0.37139800  0.84639900  1
  Ni  Ni18  1  0.51242000  0.37139800  0.84639900  1
  Ni  Ni19  1  0.01242000  0.62860200  0.15360100  1
  Ni  Ni20  1  0.75000000  0.91265800  0.08998400  1
  Ni  Ni21  1  0.25000000  0.08734200  0.91001600  1
  Ni  Ni22  1  0.50378700  0.27332600  0.06854000  1
  Ni  Ni23  1  0.00378700  0.72667400  0.93146000  1
  Ni  Ni24  1  0.49621300  0.72667400  0.93146000  1
  Ni  Ni25  1  0.99621300  0.27332600  0.06854000  1
  Cu  Cu26  1  0.75000000  0.68687100  0.32171100  1
  Cu  Cu27  1  0.25000000  0.31312900  0.67828900  1
  Cu  Cu28  1  0.25000000  0.93057500  0.07279600  1
  Cu  Cu29  1  0.75000000  0.06942500  0.92720400  1
  Cu  Cu30  1  0.25000000  0.06204200  0.39439600  1
  Cu  Cu31  1  0.75000000  0.93795800  0.60560400  1
  C  C32  1  0.75000000  0.21362100  0.21875100  1
  C  C33  1  0.25000000  0.78637900  0.78124900  1
  C  C34  1  0.25000000  0.52715700  0.45743600  1
  C  C35  1  0.75000000  0.47284300  0.54256400  1
  C  C36  1  0.25000000  0.40092500  0.19357500  1
  C  C37  1  0.75000000  0.59907500  0.80642500  1
  C  C38  1  0.75000000  0.53815600  0.04682800  1
  C  C39  1  0.25000000  0.46184400  0.95317200  1
  C  C40  1  0.54995800  0.72931500  0.27107100  1
  C  C41  1  0.04995800  0.27068500  0.72892900  1
  C  C42  1  0.45004200  0.27068500  0.72892900  1
  C  C43  1  0.95004200  0.72931500  0.27107100  1
  C  C44  1  0.75000000  0.79189000  0.40037100  1
  C  C45  1  0.25000000  0.20811000  0.59962900  1
  C  C46  1  0.75000000  0.50894200  0.34293800  1
  C  C47  1  0.25000000  0.49105800  0.65706200  1
  C  C48  1  0.44441100  0.87297100  0.12230300  1
  C  C49  1  0.94441100  0.12702900  0.87769700  1
  C  C50  1  0.55558900  0.12702900  0.87769700  1
  C  C51  1  0.05558900  0.87297100  0.12230300  1
  C  C52  1  0.25000000  0.85904200  0.98486200  1
  C  C53  1  0.75000000  0.14095800  0.01513800  1
  C  C54  1  0.45038200  0.16801900  0.39663900  1
  C  C55  1  0.95038200  0.83198100  0.60336100  1
  C  C56  1  0.54961800  0.83198100  0.60336100  1
  C  C57  1  0.04961800  0.16801900  0.39663900  1
  C  C58  1  0.25000000  0.95251700  0.47130400  1
  C  C59  1  0.75000000  0.04748300  0.52869600  1
  C  C60  1  0.25000000  0.96474000  0.31308900  1
  C  C61  1  0.75000000  0.03526000  0.68691100  1
  C  C62  1  0.25000000  0.11321300  0.06237000  1
  C  C63  1  0.75000000  0.88678700  0.93763000  1
