# generated using pymatgen
data_Cu5NiC3
_symmetry_space_group_name_H-M   'P 1'
_cell_length_a   4.70466910
_cell_length_b   4.70466910
_cell_length_c   9.27011100
_cell_angle_alpha   89.99931620
_cell_angle_beta   89.99931620
_cell_angle_gamma   91.11124473
_symmetry_Int_Tables_number   1
_chemical_formula_structural   Cu5NiC3
_chemical_formula_sum   'Cu10 Ni2 C6'
_cell_volume   205.14522473
_cell_formula_units_Z   2
loop_
 _symmetry_equiv_pos_site_id
 _symmetry_equiv_pos_as_xyz
  1  'x, y, z'
loop_
 _atom_site_type_symbol
 _atom_site_label
 _atom_site_symmetry_multiplicity
 _atom_site_fract_x
 _atom_site_fract_y
 _atom_site_fract_z
 _atom_site_occupancy
  C  C0  1  0.01570900  0.01570900  0.83307200  1
  C  C1  1  0.98429100  0.98429100  0.16692800  1
  C  C2  1  0.00000000  0.00000000  0.50000000  1
  C  C3  1  0.49828100  0.49828100  0.67026900  1
  C  C4  1  0.50000000  0.50000000  0.00000000  1
  C  C5  1  0.50171900  0.50171900  0.32973100  1
  Ni  Ni6  1  0.68973000  0.68973000  0.16587800  1
  Ni  Ni7  1  0.31027000  0.31027000  0.83412200  1
  Cu  Cu8  1  0.20123300  0.80766800  0.66668600  1
  Cu  Cu9  1  0.19658000  0.80342000  0.00000000  1
  Cu  Cu10  1  0.19233200  0.79876700  0.33331400  1
  Cu  Cu11  1  0.70811100  0.70811100  0.83345500  1
  Cu  Cu12  1  0.69496300  0.69496300  0.50172100  1
  Cu  Cu13  1  0.29188900  0.29188900  0.16654500  1
  Cu  Cu14  1  0.30503700  0.30503700  0.49827900  1
  Cu  Cu15  1  0.80342000  0.19658000  0.00000000  1
  Cu  Cu16  1  0.80766800  0.20123300  0.66668600  1
  Cu  Cu17  1  0.79876700  0.19233200  0.33331400  1
