# generated using pymatgen
data_Cu2Ni4C3
_symmetry_space_group_name_H-M   'P 1'
_cell_length_a   8.33518300
_cell_length_b   10.94152138
_cell_length_c   13.90811724
_cell_angle_alpha   72.02046495
_cell_angle_beta   89.83948398
_cell_angle_gamma   89.79303554
_symmetry_Int_Tables_number   1
_chemical_formula_structural   Cu2Ni4C3
_chemical_formula_sum   'Cu8 Ni16 C12'
_cell_volume   1206.46402560
_cell_formula_units_Z   4
loop_
 _symmetry_equiv_pos_site_id
 _symmetry_equiv_pos_as_xyz
  1  'x, y, z'
loop_
 _atom_site_type_symbol
 _atom_site_label
 _atom_site_symmetry_multiplicity
 _atom_site_fract_x
 _atom_site_fract_y
 _atom_site_fract_z
 _atom_site_occupancy
  C  C0  1  0.76432000  0.99175200  0.62132100  1
  C  C1  1  0.75487200  0.65834400  0.95399200  1
  C  C2  1  0.76432800  0.32581500  0.28729200  1
  C  C3  1  0.25437100  0.16981600  0.71000500  1
  C  C4  1  0.25597700  0.84166400  0.04600500  1
  C  C5  1  0.25475600  0.50310600  0.37639500  1
  C  C6  1  0.23986500  0.67165400  0.70437600  1
  C  C7  1  0.23978600  0.33006400  0.04636700  1
  C  C8  1  0.23810900  0.00430100  0.37741500  1
  C  C9  1  0.74039300  0.50165800  0.62643900  1
  C  C10  1  0.74079300  0.16952800  0.95849500  1
  C  C11  1  0.74014700  0.83477600  0.29286000  1
  Ni  Ni12  1  0.52923900  0.80336700  0.52590000  1
  Ni  Ni13  1  0.52906000  0.46891100  0.85939000  1
  Ni  Ni14  1  0.52914300  0.13564200  0.19350000  1
  Ni  Ni15  1  0.02904900  0.69835700  0.47406000  1
  Ni  Ni16  1  0.02883600  0.36427700  0.80717800  1
  Ni  Ni17  1  0.02868300  0.03201500  0.14121900  1
  Ni  Ni18  1  0.47129400  0.86305500  0.80501400  1
  Ni  Ni19  1  0.47128700  0.52756400  0.14051300  1
  Ni  Ni20  1  0.47033800  0.19519000  0.47261900  1
  Ni  Ni21  1  0.97283400  0.97091100  0.85955600  1
  Ni  Ni22  1  0.97274100  0.63642000  0.19410100  1
  Ni  Ni23  1  0.97321100  0.30280100  0.52621000  1
  Ni  Ni24  1  0.64516200  0.87108300  0.06075800  1
  Ni  Ni25  1  0.64451700  0.53698600  0.39390800  1
  Ni  Ni26  1  0.64428100  0.20373900  0.72689000  1
  Ni  Ni27  1  0.14498300  0.62852300  0.93908900  1
  Cu  Cu28  1  0.14308100  0.29419000  0.27260900  1
  Cu  Cu29  1  0.14306300  0.96170100  0.60513600  1
  Cu  Cu30  1  0.35604900  0.12992300  0.93940400  1
  Cu  Cu31  1  0.35549200  0.79658700  0.27399400  1
  Cu  Cu32  1  0.35560400  0.46257200  0.60594000  1
  Cu  Cu33  1  0.85787400  0.37067600  0.06116700  1
  Cu  Cu34  1  0.85859600  0.03803200  0.39404200  1
  Cu  Cu35  1  0.85786300  0.70499800  0.72684300  1
