# generated using pymatgen
data_Cu5Ni2C25
_symmetry_space_group_name_H-M   'P 1'
_cell_length_a   5.89130960
_cell_length_b   5.89130960
_cell_length_c   9.74546164
_cell_angle_alpha   82.43340342
_cell_angle_beta   82.43340342
_cell_angle_gamma   59.19656706
_symmetry_Int_Tables_number   1
_chemical_formula_structural   Cu5Ni2C25
_chemical_formula_sum   'Cu5 Ni2 C25'
_cell_volume   287.17420231
_cell_formula_units_Z   1
loop_
 _symmetry_equiv_pos_site_id
 _symmetry_equiv_pos_as_xyz
  1  'x, y, z'
loop_
 _atom_site_type_symbol
 _atom_site_label
 _atom_site_symmetry_multiplicity
 _atom_site_fract_x
 _atom_site_fract_y
 _atom_site_fract_z
 _atom_site_occupancy
  C  C0  1  0.37780100  0.37780100  0.75359200  1
  C  C1  1  0.62219900  0.62219900  0.24640800  1
  C  C2  1  0.87340200  0.87340200  0.75446100  1
  C  C3  1  0.87010800  0.37693300  0.75163800  1
  C  C4  1  0.12989200  0.62306700  0.24836200  1
  C  C5  1  0.37693300  0.87010800  0.75163800  1
  C  C6  1  0.62306700  0.12989200  0.24836200  1
  C  C7  1  0.12659800  0.12659800  0.24553900  1
  C  C8  1  0.50000000  0.50000000  0.00000000  1
  Ni  Ni9  1  0.00000000  0.50000000  0.00000000  1
  Ni  Ni10  1  0.50000000  0.00000000  0.00000000  1
  Cu  Cu11  1  0.24967200  0.75032800  0.50000000  1
  Cu  Cu12  1  0.75032800  0.24967200  0.50000000  1
  Cu  Cu13  1  0.75021700  0.75021700  0.49968200  1
  Cu  Cu14  1  0.00000000  0.00000000  0.00000000  1
  Cu  Cu15  1  0.24978300  0.24978300  0.50031800  1
  C  C16  1  0.20228400  0.20228400  0.88272900  1
  C  C17  1  0.43912100  0.43912100  0.38205300  1
  C  C18  1  0.69414800  0.69414800  0.88765600  1
  C  C19  1  0.69341300  0.15991500  0.89440300  1
  C  C20  1  0.93735800  0.43735300  0.38522600  1
  C  C21  1  0.15991500  0.69341300  0.89440300  1
  C  C22  1  0.43735300  0.93735800  0.38522600  1
  C  C23  1  0.93800200  0.93800200  0.38308200  1
  C  C24  1  0.56087900  0.56087900  0.61794700  1
  C  C25  1  0.79771600  0.79771600  0.11727100  1
  C  C26  1  0.06199800  0.06199800  0.61691800  1
  C  C27  1  0.06264200  0.56264700  0.61477400  1
  C  C28  1  0.30658700  0.84008500  0.10559700  1
  C  C29  1  0.56264700  0.06264200  0.61477400  1
  C  C30  1  0.84008500  0.30658700  0.10559700  1
  C  C31  1  0.30585200  0.30585200  0.11234400  1
