# generated using pymatgen
data_CuNiC6
_symmetry_space_group_name_H-M   'P 1'
_cell_length_a   4.78497900
_cell_length_b   7.85259900
_cell_length_c   9.80383800
_cell_angle_alpha   90.00000000
_cell_angle_beta   90.00000000
_cell_angle_gamma   90.00000000
_symmetry_Int_Tables_number   1
_chemical_formula_structural   CuNiC6
_chemical_formula_sum   'Cu4 Ni4 C24'
_cell_volume   368.37451985
_cell_formula_units_Z   4
loop_
 _symmetry_equiv_pos_site_id
 _symmetry_equiv_pos_as_xyz
  1  'x, y, z'
loop_
 _atom_site_type_symbol
 _atom_site_label
 _atom_site_symmetry_multiplicity
 _atom_site_fract_x
 _atom_site_fract_y
 _atom_site_fract_z
 _atom_site_occupancy
  C  C0  1  0.76167000  0.29247000  0.31555800  1
  C  C1  1  0.26167000  0.70753000  0.68444200  1
  C  C2  1  0.26167000  0.79247000  0.18444200  1
  C  C3  1  0.76167000  0.20753000  0.81555800  1
  Ni  Ni4  1  0.25691600  0.39180400  0.85375300  1
  Ni  Ni5  1  0.75691600  0.60819600  0.14624700  1
  Ni  Ni6  1  0.75691600  0.89180400  0.64624700  1
  Ni  Ni7  1  0.25691600  0.10819600  0.35375300  1
  Cu  Cu8  1  0.25533600  0.40132700  0.15703000  1
  Cu  Cu9  1  0.75533600  0.59867300  0.84297000  1
  Cu  Cu10  1  0.75533600  0.90132700  0.34297000  1
  Cu  Cu11  1  0.25533600  0.09867300  0.65703000  1
  C  C12  1  0.21108200  0.33493100  0.01105700  1
  C  C13  1  0.71108200  0.66506900  0.98894300  1
  C  C14  1  0.71108200  0.83493100  0.48894300  1
  C  C15  1  0.21108200  0.16506900  0.51105700  1
  C  C16  1  0.15117300  0.23226400  0.75965300  1
  C  C17  1  0.65117300  0.76773600  0.24034700  1
  C  C18  1  0.65117300  0.73226400  0.74034700  1
  C  C19  1  0.15117300  0.26773600  0.25965300  1
  C  C20  1  0.56829900  0.43952800  0.18518000  1
  C  C21  1  0.06829900  0.56047200  0.81482000  1
  C  C22  1  0.06829900  0.93952800  0.31482000  1
  C  C23  1  0.56829900  0.06047200  0.68518000  1
  C  C24  1  0.58504900  0.43155900  0.82243500  1
  C  C25  1  0.08504900  0.56844100  0.17756500  1
  C  C26  1  0.08504900  0.93155900  0.67756500  1
  C  C27  1  0.58504900  0.06844100  0.32243500  1
  C  C28  1  0.74377600  0.41360600  0.49641300  1
  C  C29  1  0.24377600  0.58639400  0.50358700  1
  C  C30  1  0.24377600  0.91360600  0.00358700  1
  C  C31  1  0.74377600  0.08639400  0.99641300  1
