# generated using pymatgen
data_Cu(NiC)7
_symmetry_space_group_name_H-M   'P 1'
_cell_length_a   6.24511944
_cell_length_b   11.21187028
_cell_length_c   10.56859340
_cell_angle_alpha   122.03474841
_cell_angle_beta   107.23369580
_cell_angle_gamma   90.00000533
_symmetry_Int_Tables_number   1
_chemical_formula_structural   Cu(NiC)7
_chemical_formula_sum   'Cu1 Ni7 C7'
_cell_volume   587.76543920
_cell_formula_units_Z   1
loop_
 _symmetry_equiv_pos_site_id
 _symmetry_equiv_pos_as_xyz
  1  'x, y, z'
loop_
 _atom_site_type_symbol
 _atom_site_label
 _atom_site_symmetry_multiplicity
 _atom_site_fract_x
 _atom_site_fract_y
 _atom_site_fract_z
 _atom_site_occupancy
  Ni  Ni0  1  0.84512500  0.53330100  0.70526800  1
  Ni  Ni1  1  0.48723700  0.79811600  0.97773200  1
  Ni  Ni2  1  0.84512500  0.17196800  0.70526800  1
  Ni  Ni3  1  0.16551700  0.35598500  0.33306800  1
  Ni  Ni4  1  0.16551700  0.97708200  0.33306800  1
  Ni  Ni5  1  0.48723700  0.17961600  0.97773200  1
  Ni  Ni6  1  0.05646400  0.55389600  0.10779100  1
  Cu  Cu7  1  0.81356700  0.80182800  0.60365500  1
  C  C8  1  0.63213300  0.62900700  0.25801600  1
  C  C9  1  0.29021400  0.77864300  0.55728500  1
  C  C10  1  0.98399100  0.98393900  0.96787800  1
  C  C11  1  0.37659600  0.38133500  0.76266900  1
  C  C12  1  0.66788400  0.16878600  0.33757200  1
  C  C13  1  0.99013400  0.80715800  0.98024900  1
  C  C14  1  0.99013400  0.17309100  0.98024900  1
