# generated using pymatgen
data_Cu3NiC
_symmetry_space_group_name_H-M   'P 1'
_cell_length_a   7.67421000
_cell_length_b   6.88251600
_cell_length_c   10.41438908
_cell_angle_alpha   88.92146360
_cell_angle_beta   90.00000000
_cell_angle_gamma   90.00000000
_symmetry_Int_Tables_number   1
_chemical_formula_structural   Cu3NiC
_chemical_formula_sum   'Cu12 Ni4 C4'
_cell_volume   549.96842777
_cell_formula_units_Z   4
loop_
 _symmetry_equiv_pos_site_id
 _symmetry_equiv_pos_as_xyz
  1  'x, y, z'
loop_
 _atom_site_type_symbol
 _atom_site_label
 _atom_site_symmetry_multiplicity
 _atom_site_fract_x
 _atom_site_fract_y
 _atom_site_fract_z
 _atom_site_occupancy
  C  C0  1  0.49689500  0.28323300  0.50221400  1
  C  C1  1  0.99689500  0.71676700  0.49778600  1
  C  C2  1  0.21927000  0.81513800  0.99241800  1
  C  C3  1  0.71927000  0.18486200  0.00758200  1
  Ni  Ni4  1  0.22715700  0.30976000  0.79438500  1
  Ni  Ni5  1  0.72715700  0.69024000  0.20561500  1
  Ni  Ni6  1  0.00896700  0.18696100  0.67388300  1
  Ni  Ni7  1  0.50896700  0.81303900  0.32611700  1
  Cu  Cu8  1  0.43778700  0.10043100  0.76662200  1
  Cu  Cu9  1  0.93778700  0.89956900  0.23337800  1
  Cu  Cu10  1  0.41270300  0.09009300  0.24622600  1
  Cu  Cu11  1  0.91270300  0.90990700  0.75377400  1
  Cu  Cu12  1  0.30492000  0.56620600  0.66987000  1
  Cu  Cu13  1  0.80492000  0.43379400  0.33013000  1
  Cu  Cu14  1  0.13485300  0.34635900  0.98836200  1
  Cu  Cu15  1  0.63485300  0.65364100  0.01163800  1
  Cu  Cu16  1  0.13389600  0.12857300  0.48294700  1
  Cu  Cu17  1  0.63389600  0.87142700  0.51705300  1
  Cu  Cu18  1  0.80975300  0.42367200  0.66772500  1
  Cu  Cu19  1  0.30975300  0.57632800  0.33227500  1
