# generated using pymatgen
data_Cu3NiC16
_symmetry_space_group_name_H-M   'P 1'
_cell_length_a   5.86411024
_cell_length_b   5.86411024
_cell_length_c   8.02611734
_cell_angle_alpha   90.00000000
_cell_angle_beta   90.00000000
_cell_angle_gamma   87.27808972
_symmetry_Int_Tables_number   1
_chemical_formula_structural   Cu3NiC16
_chemical_formula_sum   'Cu3 Ni1 C16'
_cell_volume   275.68904213
_cell_formula_units_Z   1
loop_
 _symmetry_equiv_pos_site_id
 _symmetry_equiv_pos_as_xyz
  1  'x, y, z'
loop_
 _atom_site_type_symbol
 _atom_site_label
 _atom_site_symmetry_multiplicity
 _atom_site_fract_x
 _atom_site_fract_y
 _atom_site_fract_z
 _atom_site_occupancy
  C  C0  1  0.25000000  0.75000000  0.99802500  1
  C  C1  1  0.75000000  0.25000000  0.50197500  1
  C  C2  1  0.75000000  0.25000000  0.99802500  1
  C  C3  1  0.25000000  0.75000000  0.50197500  1
  Ni  Ni4  1  0.75000000  0.75000000  0.75000000  1
  Cu  Cu5  1  0.25000000  0.25000000  0.25000000  1
  Cu  Cu6  1  0.75000000  0.75000000  0.25000000  1
  Cu  Cu7  1  0.25000000  0.25000000  0.75000000  1
  C  C8  1  0.99144300  0.50855700  0.25000000  1
  C  C9  1  0.49521600  0.00478400  0.75000000  1
  C  C10  1  0.00478400  0.49521600  0.75000000  1
  C  C11  1  0.50855700  0.99144300  0.25000000  1
  C  C12  1  0.51939600  0.51939600  0.75000000  1
  C  C13  1  0.02085600  0.02085600  0.25000000  1
  C  C14  1  0.47914400  0.47914400  0.25000000  1
  C  C15  1  0.98060400  0.98060400  0.75000000  1
  C  C16  1  0.75000000  0.75000000  0.00517900  1
  C  C17  1  0.25000000  0.25000000  0.50420100  1
  C  C18  1  0.25000000  0.25000000  0.99579900  1
  C  C19  1  0.75000000  0.75000000  0.49482100  1
