# generated using pymatgen
data_Cu2NiC9
_symmetry_space_group_name_H-M   'P 1'
_cell_length_a   9.28682400
_cell_length_b   11.08085700
_cell_length_c   13.79618600
_cell_angle_alpha   90.00000000
_cell_angle_beta   90.00000000
_cell_angle_gamma   90.00000000
_symmetry_Int_Tables_number   1
_chemical_formula_structural   Cu2NiC9
_chemical_formula_sum   'Cu16 Ni8 C72'
_cell_volume   1419.70988508
_cell_formula_units_Z   8
loop_
 _symmetry_equiv_pos_site_id
 _symmetry_equiv_pos_as_xyz
  1  'x, y, z'
loop_
 _atom_site_type_symbol
 _atom_site_label
 _atom_site_symmetry_multiplicity
 _atom_site_fract_x
 _atom_site_fract_y
 _atom_site_fract_z
 _atom_site_occupancy
  Ni  Ni0  1  0.16508600  0.26199900  0.71804900  1
  Ni  Ni1  1  0.66508600  0.73800100  0.28195100  1
  Ni  Ni2  1  0.66508600  0.26199900  0.78195100  1
  Ni  Ni3  1  0.16508600  0.73800100  0.21804900  1
  Ni  Ni4  1  0.33833700  0.98388100  0.50820800  1
  Ni  Ni5  1  0.83833700  0.01611900  0.49179200  1
  Ni  Ni6  1  0.83833700  0.98388100  0.99179200  1
  Ni  Ni7  1  0.33833700  0.01611900  0.00820800  1
  Cu  Cu8  1  0.48886400  0.98977100  0.71932900  1
  Cu  Cu9  1  0.98886400  0.01022900  0.28067100  1
  Cu  Cu10  1  0.98886400  0.98977100  0.78067100  1
  Cu  Cu11  1  0.48886400  0.01022900  0.21932900  1
  Cu  Cu12  1  0.10412100  0.22546600  0.48811800  1
  Cu  Cu13  1  0.60412100  0.77453400  0.51188200  1
  Cu  Cu14  1  0.60412100  0.22546600  0.01188200  1
  Cu  Cu15  1  0.10412100  0.77453400  0.98811800  1
  Cu  Cu16  1  0.90833700  0.47060700  0.76937300  1
  Cu  Cu17  1  0.40833700  0.52939300  0.23062700  1
  Cu  Cu18  1  0.40833700  0.47060700  0.73062700  1
  Cu  Cu19  1  0.90833700  0.52939300  0.26937300  1
  Cu  Cu20  1  0.11268100  0.76062100  0.47018400  1
  Cu  Cu21  1  0.61268100  0.23937900  0.52981600  1
  Cu  Cu22  1  0.61268100  0.76062100  0.02981600  1
  Cu  Cu23  1  0.11268100  0.23937900  0.97018400  1
  C  C24  1  0.31601200  0.47724000  0.00381800  1
  C  C25  1  0.81601200  0.52276000  0.99618200  1
  C  C26  1  0.81601200  0.47724000  0.49618200  1
  C  C27  1  0.31601200  0.52276000  0.50381800  1
  C  C28  1  0.10777800  0.73295400  0.75379300  1
  C  C29  1  0.60777800  0.26704600  0.24620700  1
  C  C30  1  0.60777800  0.73295400  0.74620700  1
  C  C31  1  0.10777800  0.26704600  0.25379300  1
  C  C32  1  0.47844500  0.09771500  0.78292900  1
  C  C33  1  0.97844500  0.90228500  0.21707100  1
  C  C34  1  0.97844500  0.09771500  0.71707100  1
  C  C35  1  0.47844500  0.90228500  0.28292900  1
  C  C36  1  0.34765400  0.99228800  0.65734500  1
  C  C37  1  0.84765400  0.00771200  0.34265500  1
  C  C38  1  0.84765400  0.99228800  0.84265500  1
  C  C39  1  0.34765400  0.00771200  0.15734500  1
  C  C40  1  0.61388500  0.98984600  0.65637900  1
  C  C41  1  0.11388500  0.01015400  0.34362100  1
  C  C42  1  0.11388500  0.98984600  0.84362100  1
  C  C43  1  0.61388500  0.01015400  0.15637900  1
  C  C44  1  0.47720500  0.88067000  0.78330500  1
  C  C45  1  0.97720500  0.11933000  0.21669500  1
  C  C46  1  0.97720500  0.88067000  0.71669500  1
  C  C47  1  0.47720500  0.11933000  0.28330500  1
  C  C48  1  0.10332800  0.32053700  0.56653000  1
  C  C49  1  0.60332800  0.67946300  0.43347000  1
  C  C50  1  0.60332800  0.32053700  0.93347000  1
  C  C51  1  0.10332800  0.67946300  0.06653000  1
  C  C52  1  0.16596300  0.11316500  0.53742400  1
  C  C53  1  0.66596300  0.88683500  0.46257600  1
  C  C54  1  0.66596300  0.11316500  0.96257600  1
  C  C55  1  0.16596300  0.88683500  0.03742400  1
  C  C56  1  0.95300100  0.19702500  0.46057400  1
  C  C57  1  0.45300100  0.80297500  0.53942600  1
  C  C58  1  0.45300100  0.19702500  0.03942600  1
  C  C59  1  0.95300100  0.80297500  0.96057400  1
  C  C60  1  0.19033100  0.26611700  0.40524500  1
  C  C61  1  0.69033100  0.73388300  0.59475500  1
  C  C62  1  0.69033100  0.26611700  0.09475500  1
  C  C63  1  0.19033100  0.73388300  0.90524500  1
  C  C64  1  0.97229700  0.34069800  0.75623100  1
  C  C65  1  0.47229700  0.65930200  0.24376900  1
  C  C66  1  0.47229700  0.34069800  0.74376900  1
  C  C67  1  0.97229700  0.65930200  0.25623100  1
  C  C68  1  0.95430900  0.52004300  0.86390700  1
  C  C69  1  0.45430900  0.47995700  0.13609300  1
  C  C70  1  0.45430900  0.52004300  0.63609300  1
  C  C71  1  0.95430900  0.47995700  0.36390700  1
  C  C72  1  0.74775000  0.44145000  0.77254600  1
  C  C73  1  0.24775000  0.55855000  0.22745400  1
  C  C74  1  0.24775000  0.44145000  0.72745400  1
  C  C75  1  0.74775000  0.55855000  0.27254600  1
  C  C76  1  0.94397000  0.54700300  0.68832500  1
  C  C77  1  0.44397000  0.45299700  0.31167500  1
  C  C78  1  0.44397000  0.54700300  0.81167500  1
  C  C79  1  0.94397000  0.45299700  0.18832500  1
  C  C80  1  0.20427300  0.75681900  0.38061800  1
  C  C81  1  0.70427300  0.24318100  0.61938200  1
  C  C82  1  0.70427300  0.75681900  0.11938200  1
  C  C83  1  0.20427300  0.24318100  0.88061800  1
  C  C84  1  0.17000200  0.86634300  0.53276700  1
  C  C85  1  0.67000200  0.13365700  0.46723300  1
  C  C86  1  0.67000200  0.86634300  0.96723300  1
  C  C87  1  0.17000200  0.13365700  0.03276700  1
  C  C88  1  0.12772100  0.64695400  0.52560300  1
  C  C89  1  0.62772100  0.35304600  0.47439700  1
  C  C90  1  0.62772100  0.64695400  0.97439700  1
  C  C91  1  0.12772100  0.35304600  0.02560300  1
  C  C92  1  0.96124900  0.78804200  0.45058800  1
  C  C93  1  0.46124900  0.21195800  0.54941200  1
  C  C94  1  0.46124900  0.78804200  0.04941200  1
  C  C95  1  0.96124900  0.21195800  0.95058800  1
