# generated using pymatgen
data_CuNiC30
_symmetry_space_group_name_H-M   'P 1'
_cell_length_a   4.43347300
_cell_length_b   8.68766600
_cell_length_c   8.84461800
_cell_angle_alpha   90.00000000
_cell_angle_beta   90.00000000
_cell_angle_gamma   90.00000000
_symmetry_Int_Tables_number   1
_chemical_formula_structural   CuNiC30
_chemical_formula_sum   'Cu1 Ni1 C30'
_cell_volume   340.66401792
_cell_formula_units_Z   1
loop_
 _symmetry_equiv_pos_site_id
 _symmetry_equiv_pos_as_xyz
  1  'x, y, z'
loop_
 _atom_site_type_symbol
 _atom_site_label
 _atom_site_symmetry_multiplicity
 _atom_site_fract_x
 _atom_site_fract_y
 _atom_site_fract_z
 _atom_site_occupancy
  Ni  Ni0  1  0.00000000  0.00000000  0.50000000  1
  Cu  Cu1  1  0.00000000  0.00000000  0.00000000  1
  C  C2  1  0.00000000  0.50000000  0.00000000  1
  C  C3  1  0.00000000  0.50000000  0.50000000  1
  C  C4  1  0.50000000  0.00000000  0.24572500  1
  C  C5  1  0.50000000  0.00000000  0.75427500  1
  C  C6  1  0.50000000  0.50000000  0.24939600  1
  C  C7  1  0.50000000  0.50000000  0.75060400  1
  C  C8  1  0.50000000  0.25702600  0.00000000  1
  C  C9  1  0.50000000  0.25981000  0.50000000  1
  C  C10  1  0.50000000  0.74297400  0.00000000  1
  C  C11  1  0.50000000  0.74019000  0.50000000  1
  C  C12  1  0.00000000  0.25847200  0.24741900  1
  C  C13  1  0.00000000  0.25847200  0.75258000  1
  C  C14  1  0.00000000  0.74152800  0.24741900  1
  C  C15  1  0.00000000  0.74152800  0.75258000  1
  C  C16  1  0.00000000  0.26568900  0.00000000  1
  C  C17  1  0.00000000  0.27248800  0.50000000  1
  C  C18  1  0.00000000  0.73431100  0.00000000  1
  C  C19  1  0.00000000  0.72751200  0.50000000  1
  C  C20  1  0.50000000  0.25086900  0.24971400  1
  C  C21  1  0.50000000  0.25086900  0.75028600  1
  C  C22  1  0.50000000  0.74913100  0.24971400  1
  C  C23  1  0.50000000  0.74913100  0.75028600  1
  C  C24  1  0.50000000  0.00000000  0.00000000  1
  C  C25  1  0.50000000  0.00000000  0.50000000  1
  C  C26  1  0.50000000  0.50000000  0.00000000  1
  C  C27  1  0.50000000  0.50000000  0.50000000  1
  C  C28  1  0.00000000  0.00000000  0.24216400  1
  C  C29  1  0.00000000  0.00000000  0.75783600  1
  C  C30  1  0.00000000  0.50000000  0.24764800  1
  C  C31  1  0.00000000  0.50000000  0.75235200  1
