# generated using pymatgen
data_Cu7NiC8
_symmetry_space_group_name_H-M   'P 1'
_cell_length_a   17.80994800
_cell_length_b   7.35315300
_cell_length_c   12.87698875
_cell_angle_alpha   55.89300374
_cell_angle_beta   90.00000000
_cell_angle_gamma   90.00000000
_symmetry_Int_Tables_number   1
_chemical_formula_structural   Cu7NiC8
_chemical_formula_sum   'Cu56 Ni8 C64'
_cell_volume   1396.29326439
_cell_formula_units_Z   8
loop_
 _symmetry_equiv_pos_site_id
 _symmetry_equiv_pos_as_xyz
  1  'x, y, z'
loop_
 _atom_site_type_symbol
 _atom_site_label
 _atom_site_symmetry_multiplicity
 _atom_site_fract_x
 _atom_site_fract_y
 _atom_site_fract_z
 _atom_site_occupancy
  C  C0  1  0.22083300  0.86336500  0.65564400  1
  C  C1  1  0.77916700  0.13663500  0.34435600  1
  C  C2  1  0.72083300  0.13663500  0.84435600  1
  C  C3  1  0.27916700  0.86336500  0.15564400  1
  C  C4  1  0.25338700  0.28298100  0.73508800  1
  C  C5  1  0.74661300  0.71701900  0.26491200  1
  C  C6  1  0.75338700  0.71701900  0.76491200  1
  C  C7  1  0.24661300  0.28298100  0.23508800  1
  C  C8  1  0.39334800  0.70390100  0.58392500  1
  C  C9  1  0.60665200  0.29609900  0.41607500  1
  C  C10  1  0.89334800  0.29609900  0.91607500  1
  C  C11  1  0.10665200  0.70390100  0.08392500  1
  C  C12  1  0.08139600  0.98503800  0.80125700  1
  C  C13  1  0.91860400  0.01496200  0.19874300  1
  C  C14  1  0.58139600  0.01496200  0.69874300  1
  C  C15  1  0.41860400  0.98503800  0.30125700  1
  C  C16  1  0.78852600  0.64412300  0.55990600  1
  C  C17  1  0.21147400  0.35587700  0.44009400  1
  C  C18  1  0.28852600  0.35587700  0.94009400  1
  C  C19  1  0.71147400  0.64412300  0.05990600  1
  C  C20  1  0.33750200  0.73892900  0.93362600  1
  C  C21  1  0.66249800  0.26107100  0.06637400  1
  C  C22  1  0.83750200  0.26107100  0.56637400  1
  C  C23  1  0.16249800  0.73892900  0.43362600  1
  C  C24  1  0.39943500  0.35016400  0.54885300  1
  C  C25  1  0.60056500  0.64983600  0.45114700  1
  C  C26  1  0.89943500  0.64983600  0.95114700  1
  C  C27  1  0.10056500  0.35016400  0.04885300  1
  C  C28  1  0.93349400  0.78182300  0.60789000  1
  C  C29  1  0.06650600  0.21817700  0.39211000  1
  C  C30  1  0.43349400  0.21817700  0.89211000  1
  C  C31  1  0.56650600  0.78182300  0.10789000  1
  C  C32  1  0.44789500  0.87196800  0.83669100  1
  C  C33  1  0.55210500  0.12803200  0.16330900  1
  C  C34  1  0.94789500  0.12803200  0.66330900  1
  C  C35  1  0.05210500  0.87196800  0.33669100  1
  C  C36  1  0.48374600  0.44116700  0.78611200  1
  C  C37  1  0.51625400  0.55883300  0.21388800  1
  C  C38  1  0.98374600  0.55883300  0.71388800  1
  C  C39  1  0.01625400  0.44116700  0.28611200  1
  C  C40  1  0.48309500  0.84022800  0.67921800  1
  C  C41  1  0.51690500  0.15977200  0.32078200  1
  C  C42  1  0.98309500  0.15977200  0.82078200  1
  C  C43  1  0.01690500  0.84022800  0.17921800  1
  C  C44  1  0.01884500  0.80868200  0.66366800  1
  C  C45  1  0.98115500  0.19131800  0.33633200  1
  C  C46  1  0.51884500  0.19131800  0.83633200  1
  C  C47  1  0.48115500  0.80868200  0.16366800  1
  C  C48  1  0.87911100  0.85226400  0.97354900  1
  C  C49  1  0.12088900  0.14773600  0.02645100  1
  C  C50  1  0.37911100  0.14773600  0.52645100  1
  C  C51  1  0.62088900  0.85226400  0.47354900  1
  C  C52  1  0.95360100  0.68800500  0.04993400  1
  C  C53  1  0.04639900  0.31199500  0.95006600  1
  C  C54  1  0.45360100  0.31199500  0.45006600  1
  C  C55  1  0.54639900  0.68800500  0.54993400  1
  C  C56  1  0.01685300  0.73039400  0.56367900  1
  C  C57  1  0.98314700  0.26960600  0.43632100  1
  C  C58  1  0.51685300  0.26960600  0.93632100  1
  C  C59  1  0.48314700  0.73039400  0.06367900  1
  C  C60  1  0.13535800  0.41041600  0.91226400  1
  C  C61  1  0.86464200  0.58958400  0.08773600  1
  C  C62  1  0.63535800  0.58958400  0.58773600  1
  C  C63  1  0.36464200  0.41041600  0.41226400  1
  Ni  Ni64  1  0.98796700  0.72166800  0.63608900  1
  Ni  Ni65  1  0.01203300  0.27833200  0.36391100  1
  Ni  Ni66  1  0.48796700  0.27833200  0.86391100  1
  Ni  Ni67  1  0.51203300  0.72166800  0.13608900  1
  Ni  Ni68  1  0.90044700  0.69396400  0.01468700  1
  Ni  Ni69  1  0.09955300  0.30603600  0.98531300  1
  Ni  Ni70  1  0.40044700  0.30603600  0.48531300  1
  Ni  Ni71  1  0.59955300  0.69396400  0.51468700  1
  Cu  Cu72  1  0.49535500  0.94256600  0.71471300  1
  Cu  Cu73  1  0.50464500  0.05743400  0.28528700  1
  Cu  Cu74  1  0.99535500  0.05743400  0.78528700  1
  Cu  Cu75  1  0.00464500  0.94256600  0.21471300  1
  Cu  Cu76  1  0.63151100  0.83845700  0.71280800  1
  Cu  Cu77  1  0.36848900  0.16154300  0.28719200  1
  Cu  Cu78  1  0.13151100  0.16154300  0.78719200  1
  Cu  Cu79  1  0.86848900  0.83845700  0.21280800  1
  Cu  Cu80  1  0.42167200  0.82534100  0.91835200  1
  Cu  Cu81  1  0.57832800  0.17465900  0.08164800  1
  Cu  Cu82  1  0.92167200  0.17465900  0.58164800  1
  Cu  Cu83  1  0.07832800  0.82534100  0.41835200  1
  Cu  Cu84  1  0.82849500  0.81774100  0.57003000  1
  Cu  Cu85  1  0.17150500  0.18225900  0.42997000  1
  Cu  Cu86  1  0.32849500  0.18225900  0.92997000  1
  Cu  Cu87  1  0.67150500  0.81774100  0.07003000  1
  Cu  Cu88  1  0.09591000  0.90089400  0.71873600  1
  Cu  Cu89  1  0.90409000  0.09910600  0.28126400  1
  Cu  Cu90  1  0.59591000  0.09910600  0.78126400  1
  Cu  Cu91  1  0.40409000  0.90089400  0.21873600  1
  Cu  Cu92  1  0.34027300  0.87221900  0.57639900  1
  Cu  Cu93  1  0.65972700  0.12778100  0.42360100  1
  Cu  Cu94  1  0.84027300  0.12778100  0.92360100  1
  Cu  Cu95  1  0.15972700  0.87221900  0.07639900  1
  Cu  Cu96  1  0.08520200  0.76872400  0.94326400  1
  Cu  Cu97  1  0.91479800  0.23127600  0.05673600  1
  Cu  Cu98  1  0.58520200  0.23127600  0.55673600  1
  Cu  Cu99  1  0.41479800  0.76872400  0.44326400  1
  Cu  Cu100  1  0.24800600  0.24685900  0.56890800  1
  Cu  Cu101  1  0.75199400  0.75314100  0.43109200  1
  Cu  Cu102  1  0.74800600  0.75314100  0.93109200  1
  Cu  Cu103  1  0.25199400  0.24685900  0.06890800  1
  Cu  Cu104  1  0.18843600  0.66290700  0.56380300  1
  Cu  Cu105  1  0.81156400  0.33709300  0.43619700  1
  Cu  Cu106  1  0.68843600  0.33709300  0.93619700  1
  Cu  Cu107  1  0.31156400  0.66290700  0.06380300  1
  Cu  Cu108  1  0.47082800  0.70454500  0.64040500  1
  Cu  Cu109  1  0.52917200  0.29545500  0.35959500  1
  Cu  Cu110  1  0.97082800  0.29545500  0.85959500  1
  Cu  Cu111  1  0.02917200  0.70454500  0.14040500  1
  Cu  Cu112  1  0.35237300  0.52530600  0.92804200  1
  Cu  Cu113  1  0.64762700  0.47469400  0.07195800  1
  Cu  Cu114  1  0.85237300  0.47469400  0.57195800  1
  Cu  Cu115  1  0.14762700  0.52530600  0.42804200  1
  Cu  Cu116  1  0.28879400  0.89886900  0.82238900  1
  Cu  Cu117  1  0.71120600  0.10113100  0.17761100  1
  Cu  Cu118  1  0.78879400  0.10113100  0.67761100  1
  Cu  Cu119  1  0.21120600  0.89886900  0.32238900  1
  Cu  Cu120  1  0.36479600  0.47005000  0.64708100  1
  Cu  Cu121  1  0.63520400  0.52995000  0.35291900  1
  Cu  Cu122  1  0.86479600  0.52995000  0.85291900  1
  Cu  Cu123  1  0.13520400  0.47005000  0.14708100  1
  Cu  Cu124  1  0.23330300  0.49032400  0.83013900  1
  Cu  Cu125  1  0.76669700  0.50967600  0.16986100  1
  Cu  Cu126  1  0.73330300  0.50967600  0.66986100  1
  Cu  Cu127  1  0.26669700  0.49032400  0.33013900  1
