# generated using pymatgen
data_CuNiC5
_symmetry_space_group_name_H-M   'P 1'
_cell_length_a   8.55002200
_cell_length_b   14.68818700
_cell_length_c   19.68650100
_cell_angle_alpha   90.00000000
_cell_angle_beta   90.00000000
_cell_angle_gamma   90.00000000
_symmetry_Int_Tables_number   1
_chemical_formula_structural   CuNiC5
_chemical_formula_sum   'Cu12 Ni12 C60'
_cell_volume   2472.31588044
_cell_formula_units_Z   12
loop_
 _symmetry_equiv_pos_site_id
 _symmetry_equiv_pos_as_xyz
  1  'x, y, z'
loop_
 _atom_site_type_symbol
 _atom_site_label
 _atom_site_symmetry_multiplicity
 _atom_site_fract_x
 _atom_site_fract_y
 _atom_site_fract_z
 _atom_site_occupancy
  C  C0  1  0.75000000  0.00000000  0.59992200  1
  C  C1  1  0.25000000  0.50000000  0.90007800  1
  C  C2  1  0.25000000  0.00000000  0.40007800  1
  C  C3  1  0.75000000  0.50000000  0.09992200  1
  C  C4  1  0.52011300  0.32617900  0.52623100  1
  C  C5  1  0.02011300  0.17382100  0.97376900  1
  C  C6  1  0.47988700  0.82617900  0.97376900  1
  C  C7  1  0.97988700  0.67382100  0.52623100  1
  C  C8  1  0.47988700  0.67382100  0.47376900  1
  C  C9  1  0.97988700  0.82617900  0.02623100  1
  C  C10  1  0.52011300  0.17382100  0.02623100  1
  C  C11  1  0.02011300  0.32617900  0.47376900  1
  C  C12  1  0.75000000  0.00000000  0.83745100  1
  C  C13  1  0.25000000  0.50000000  0.66254900  1
  C  C14  1  0.25000000  0.00000000  0.16254900  1
  C  C15  1  0.75000000  0.50000000  0.33745100  1
  C  C16  1  0.73869300  0.30563300  0.83523300  1
  C  C17  1  0.23869300  0.19436700  0.66476700  1
  C  C18  1  0.26130700  0.80563300  0.66476700  1
  C  C19  1  0.76130700  0.69436700  0.83523300  1
  C  C20  1  0.26130700  0.69436700  0.16476700  1
  C  C21  1  0.76130700  0.80563300  0.33523300  1
  C  C22  1  0.73869300  0.19436700  0.33523300  1
  C  C23  1  0.23869300  0.30563300  0.16476700  1
  C  C24  1  0.75000000  0.00000000  0.96825000  1
  C  C25  1  0.25000000  0.50000000  0.53175000  1
  C  C26  1  0.25000000  0.00000000  0.03175000  1
  C  C27  1  0.75000000  0.50000000  0.46825000  1
  C  C28  1  0.76672800  0.36806300  0.96508700  1
  C  C29  1  0.26672800  0.13193700  0.53491300  1
  C  C30  1  0.23327200  0.86806300  0.53491300  1
  C  C31  1  0.73327200  0.63193700  0.96508700  1
  C  C32  1  0.23327200  0.63193700  0.03491300  1
  C  C33  1  0.73327200  0.86806300  0.46508700  1
  C  C34  1  0.76672800  0.13193700  0.46508700  1
  C  C35  1  0.26672800  0.36806300  0.03491300  1
  C  C36  1  0.46050100  0.99531100  0.84504200  1
  C  C37  1  0.96050100  0.50468900  0.65495800  1
  C  C38  1  0.53949900  0.49531100  0.65495800  1
  C  C39  1  0.03949900  0.00468900  0.84504200  1
  C  C40  1  0.53949900  0.00468900  0.15495800  1
  C  C41  1  0.03949900  0.49531100  0.34504200  1
  C  C42  1  0.46050100  0.50468900  0.34504200  1
  C  C43  1  0.96050100  0.99531100  0.15495800  1
  C  C44  1  0.44282500  0.31250500  0.84131300  1
  C  C45  1  0.94282500  0.18749500  0.65868700  1
  C  C46  1  0.55717500  0.81250500  0.65868700  1
  C  C47  1  0.05717500  0.68749500  0.84131300  1
  C  C48  1  0.55717500  0.68749500  0.15868700  1
  C  C49  1  0.05717500  0.81250500  0.34131300  1
  C  C50  1  0.44282500  0.18749500  0.34131300  1
  C  C51  1  0.94282500  0.31250500  0.15868700  1
  C  C52  1  0.03820500  0.29900600  0.83131100  1
  C  C53  1  0.53820500  0.20099400  0.66868900  1
  C  C54  1  0.96179500  0.79900600  0.66868900  1
  C  C55  1  0.46179500  0.70099400  0.83131100  1
  C  C56  1  0.96179500  0.70099400  0.16868900  1
  C  C57  1  0.46179500  0.79900600  0.33131100  1
  C  C58  1  0.03820500  0.20099400  0.33131100  1
  C  C59  1  0.53820500  0.29900600  0.16868900  1
  Ni  Ni60  1  0.75000000  0.00000000  0.74870200  1
  Ni  Ni61  1  0.25000000  0.50000000  0.75129800  1
  Ni  Ni62  1  0.25000000  0.00000000  0.25129800  1
  Ni  Ni63  1  0.75000000  0.50000000  0.24870200  1
  Ni  Ni64  1  0.74103700  0.35066200  0.75492700  1
  Ni  Ni65  1  0.24103700  0.14933800  0.74507300  1
  Ni  Ni66  1  0.25896300  0.85066200  0.74507300  1
  Ni  Ni67  1  0.75896300  0.64933800  0.75492700  1
  Ni  Ni68  1  0.25896300  0.64933800  0.24507300  1
  Ni  Ni69  1  0.75896300  0.85066200  0.25492700  1
  Ni  Ni70  1  0.74103700  0.14933800  0.25492700  1
  Ni  Ni71  1  0.24103700  0.35066200  0.24507300  1
  Cu  Cu72  1  0.50000000  0.00000000  0.50000000  1
  Cu  Cu73  1  0.00000000  0.50000000  0.00000000  1
  Cu  Cu74  1  0.50000000  0.50000000  0.00000000  1
  Cu  Cu75  1  0.00000000  0.00000000  0.50000000  1
  Cu  Cu76  1  0.73893500  0.20428300  0.89473200  1
  Cu  Cu77  1  0.23893500  0.29571700  0.60526800  1
  Cu  Cu78  1  0.26106500  0.70428300  0.60526800  1
  Cu  Cu79  1  0.76106500  0.79571700  0.89473200  1
  Cu  Cu80  1  0.26106500  0.79571700  0.10526800  1
  Cu  Cu81  1  0.76106500  0.70428300  0.39473200  1
  Cu  Cu82  1  0.73893500  0.29571700  0.39473200  1
  Cu  Cu83  1  0.23893500  0.20428300  0.10526800  1
