# generated using pymatgen
data_Cu6Ni7C8
_symmetry_space_group_name_H-M   'P 1'
_cell_length_a   7.91707300
_cell_length_b   8.26874100
_cell_length_c   10.64807885
_cell_angle_alpha   90.00000000
_cell_angle_beta   129.57363611
_cell_angle_gamma   90.00000000
_symmetry_Int_Tables_number   1
_chemical_formula_structural   Cu6Ni7C8
_chemical_formula_sum   'Cu12 Ni14 C16'
_cell_volume   537.30470598
_cell_formula_units_Z   2
loop_
 _symmetry_equiv_pos_site_id
 _symmetry_equiv_pos_as_xyz
  1  'x, y, z'
loop_
 _atom_site_type_symbol
 _atom_site_label
 _atom_site_symmetry_multiplicity
 _atom_site_fract_x
 _atom_site_fract_y
 _atom_site_fract_z
 _atom_site_occupancy
  C  C0  1  0.50000000  0.27460600  0.25000000  1
  C  C1  1  0.50000000  0.72539400  0.75000000  1
  C  C2  1  0.00000000  0.25060500  0.75000000  1
  C  C3  1  0.00000000  0.74939500  0.25000000  1
  C  C4  1  0.50000000  0.18341800  0.75000000  1
  C  C5  1  0.50000000  0.81658200  0.25000000  1
  C  C6  1  0.00000000  0.50000000  0.50000000  1
  C  C7  1  0.00000000  0.50000000  0.00000000  1
  C  C8  1  0.50000000  0.50000000  0.00000000  1
  C  C9  1  0.50000000  0.50000000  0.50000000  1
  C  C10  1  0.00000000  0.00000000  0.00000000  1
  C  C11  1  0.00000000  0.00000000  0.50000000  1
  C  C12  1  0.76842400  0.13810200  0.13355500  1
  C  C13  1  0.23157600  0.86189800  0.86644500  1
  C  C14  1  0.23157600  0.13810200  0.36644500  1
  C  C15  1  0.76842400  0.86189800  0.63355500  1
  Ni  Ni16  1  0.81347200  0.99339400  0.06355400  1
  Ni  Ni17  1  0.18652800  0.00660600  0.93644600  1
  Ni  Ni18  1  0.18652800  0.99339400  0.43644600  1
  Ni  Ni19  1  0.81347200  0.00660600  0.56355400  1
  Ni  Ni20  1  0.00000000  0.23794900  0.25000000  1
  Ni  Ni21  1  0.00000000  0.76205100  0.75000000  1
  Ni  Ni22  1  0.72145000  0.92168600  0.74462900  1
  Ni  Ni23  1  0.27855000  0.07831400  0.25537100  1
  Ni  Ni24  1  0.27855000  0.92168600  0.75537100  1
  Ni  Ni25  1  0.72145000  0.07831400  0.24462900  1
  Ni  Ni26  1  0.59950000  0.25347200  0.00052900  1
  Ni  Ni27  1  0.40050000  0.74652800  0.99947100  1
  Ni  Ni28  1  0.40050000  0.25347200  0.49947100  1
  Ni  Ni29  1  0.59950000  0.74652800  0.50052900  1
  Cu  Cu30  1  0.67728300  0.49245300  0.22842000  1
  Cu  Cu31  1  0.32271700  0.50754700  0.77158000  1
  Cu  Cu32  1  0.32271700  0.49245300  0.27158000  1
  Cu  Cu33  1  0.67728300  0.50754700  0.72842000  1
  Cu  Cu34  1  0.90908500  0.21432700  0.92035300  1
  Cu  Cu35  1  0.09091500  0.78567300  0.07964700  1
  Cu  Cu36  1  0.09091500  0.21432700  0.57964700  1
  Cu  Cu37  1  0.90908500  0.78567300  0.42035300  1
  Cu  Cu38  1  0.26060400  0.40867200  0.97948900  1
  Cu  Cu39  1  0.73939600  0.59132800  0.02051100  1
  Cu  Cu40  1  0.73939600  0.40867200  0.52051100  1
  Cu  Cu41  1  0.26060400  0.59132800  0.47948900  1
