# generated using pymatgen
data_Cu(NiC8)2
_symmetry_space_group_name_H-M   'P 1'
_cell_length_a   5.70923647
_cell_length_b   10.02388515
_cell_length_c   10.58182800
_cell_angle_alpha   90.00000000
_cell_angle_beta   90.00000000
_cell_angle_gamma   102.57189521
_symmetry_Int_Tables_number   1
_chemical_formula_structural   Cu(NiC8)2
_chemical_formula_sum   'Cu2 Ni4 C32'
_cell_volume   591.06487606
_cell_formula_units_Z   2
loop_
 _symmetry_equiv_pos_site_id
 _symmetry_equiv_pos_as_xyz
  1  'x, y, z'
loop_
 _atom_site_type_symbol
 _atom_site_label
 _atom_site_symmetry_multiplicity
 _atom_site_fract_x
 _atom_site_fract_y
 _atom_site_fract_z
 _atom_site_occupancy
  Ni  Ni0  1  0.65993500  0.58911300  0.72115200  1
  Ni  Ni1  1  0.34006500  0.41088700  0.27884800  1
  Ni  Ni2  1  0.34006500  0.91088700  0.22115200  1
  Ni  Ni3  1  0.65993500  0.08911300  0.77884800  1
  Cu  Cu4  1  0.50000000  0.00000000  0.00000000  1
  Cu  Cu5  1  0.50000000  0.50000000  0.50000000  1
  C  C6  1  0.94360200  0.66814900  0.14380500  1
  C  C7  1  0.05639800  0.33185100  0.85619500  1
  C  C8  1  0.05639800  0.83185100  0.64380500  1
  C  C9  1  0.94360200  0.16814900  0.35619500  1
  C  C10  1  0.56660700  0.54610100  0.84382000  1
  C  C11  1  0.43339300  0.45389900  0.15618000  1
  C  C12  1  0.43339300  0.95389900  0.34382000  1
  C  C13  1  0.56660700  0.04610100  0.65618000  1
  C  C14  1  0.87018500  0.88790000  0.60828500  1
  C  C15  1  0.12981500  0.11210000  0.39171500  1
  C  C16  1  0.12981500  0.61210000  0.10828500  1
  C  C17  1  0.87018500  0.38790000  0.89171500  1
  C  C18  1  0.29370000  0.88193100  0.90623800  1
  C  C19  1  0.70630000  0.11806900  0.09376200  1
  C  C20  1  0.70630000  0.61806900  0.40623800  1
  C  C21  1  0.29370000  0.38193100  0.59376200  1
  C  C22  1  0.90665400  0.74099000  0.04113300  1
  C  C23  1  0.09334600  0.25901000  0.95886700  1
  C  C24  1  0.09334600  0.75901000  0.54113300  1
  C  C25  1  0.90665400  0.24099000  0.45886700  1
  C  C26  1  0.48811700  0.64348600  0.62301900  1
  C  C27  1  0.51188300  0.35651400  0.37698100  1
  C  C28  1  0.51188300  0.85651400  0.12301900  1
  C  C29  1  0.48811700  0.14348600  0.87698100  1
  C  C30  1  0.74550400  0.98382100  0.87685200  1
  C  C31  1  0.25449600  0.01617900  0.12314800  1
  C  C32  1  0.25449600  0.51617900  0.37685200  1
  C  C33  1  0.74550400  0.48382100  0.62314800  1
  C  C34  1  0.91799900  0.71096600  0.74069400  1
  C  C35  1  0.08200100  0.28903400  0.25930600  1
  C  C36  1  0.08200100  0.78903400  0.24069400  1
  C  C37  1  0.91799900  0.21096600  0.75930600  1
