# generated using pymatgen
data_Cu2Ni15C2
_symmetry_space_group_name_H-M   'P 1'
_cell_length_a   8.33396000
_cell_length_b   8.29651872
_cell_length_c   8.29651872
_cell_angle_alpha   120.00491791
_cell_angle_beta   90.00000000
_cell_angle_gamma   90.00000000
_symmetry_Int_Tables_number   1
_chemical_formula_structural   Cu2Ni15C2
_chemical_formula_sum   'Cu4 Ni30 C4'
_cell_volume   496.76651534
_cell_formula_units_Z   2
loop_
 _symmetry_equiv_pos_site_id
 _symmetry_equiv_pos_as_xyz
  1  'x, y, z'
loop_
 _atom_site_type_symbol
 _atom_site_label
 _atom_site_symmetry_multiplicity
 _atom_site_fract_x
 _atom_site_fract_y
 _atom_site_fract_z
 _atom_site_occupancy
  C  C0  1  0.75000000  0.99997400  0.00002600  1
  C  C1  1  0.25000000  0.00002600  0.99997400  1
  C  C2  1  0.25000000  0.66664800  0.33335200  1
  C  C3  1  0.75000000  0.33335200  0.66664800  1
  Ni  Ni4  1  0.50000000  0.50000000  0.00000000  1
  Ni  Ni5  1  0.50000000  0.50000000  0.50000000  1
  Ni  Ni6  1  0.50000000  0.00000000  0.50000000  1
  Ni  Ni7  1  0.00000000  0.50000000  0.00000000  1
  Ni  Ni8  1  0.00000000  0.50000000  0.50000000  1
  Ni  Ni9  1  0.00000000  0.00000000  0.50000000  1
  Ni  Ni10  1  0.75000000  0.66935100  0.02937000  1
  Ni  Ni11  1  0.75000000  0.35988900  0.33053800  1
  Ni  Ni12  1  0.75000000  0.97080100  0.64021200  1
  Ni  Ni13  1  0.75000000  0.35978800  0.02919900  1
  Ni  Ni14  1  0.75000000  0.97063000  0.33064900  1
  Ni  Ni15  1  0.75000000  0.66946200  0.64011100  1
  Ni  Ni16  1  0.25000000  0.33064900  0.97063000  1
  Ni  Ni17  1  0.25000000  0.64011100  0.66946200  1
  Ni  Ni18  1  0.25000000  0.02919900  0.35978800  1
  Ni  Ni19  1  0.25000000  0.64021200  0.97080100  1
  Ni  Ni20  1  0.25000000  0.02937000  0.66935100  1
  Ni  Ni21  1  0.25000000  0.33053800  0.35988900  1
  Ni  Ni22  1  0.48947000  0.83340900  0.66672500  1
  Ni  Ni23  1  0.48943600  0.83333400  0.16666600  1
  Ni  Ni24  1  0.48947000  0.33327500  0.16659100  1
  Ni  Ni25  1  0.51053000  0.16659100  0.33327500  1
  Ni  Ni26  1  0.51056400  0.16666600  0.83333400  1
  Ni  Ni27  1  0.51053000  0.66672500  0.83340900  1
  Ni  Ni28  1  0.98947000  0.16659100  0.33327500  1
  Ni  Ni29  1  0.98943600  0.16666600  0.83333400  1
  Ni  Ni30  1  0.98947000  0.66672500  0.83340900  1
  Ni  Ni31  1  0.01053000  0.83340900  0.66672500  1
  Ni  Ni32  1  0.01056400  0.83333400  0.16666600  1
  Ni  Ni33  1  0.01053000  0.33327500  0.16659100  1
  Cu  Cu34  1  0.60245700  0.66668300  0.33331700  1
  Cu  Cu35  1  0.39754300  0.33331700  0.66668300  1
  Cu  Cu36  1  0.10245700  0.33331700  0.66668300  1
  Cu  Cu37  1  0.89754300  0.66668300  0.33331700  1
