# generated using pymatgen
data_Cu7Ni2C
_symmetry_space_group_name_H-M   'P 1'
_cell_length_a   5.13737000
_cell_length_b   13.06720800
_cell_length_c   9.58750380
_cell_angle_alpha   90.00000000
_cell_angle_beta   120.99335948
_cell_angle_gamma   90.00000000
_symmetry_Int_Tables_number   1
_chemical_formula_structural   Cu7Ni2C
_chemical_formula_sum   'Cu28 Ni8 C4'
_cell_volume   551.72801129
_cell_formula_units_Z   4
loop_
 _symmetry_equiv_pos_site_id
 _symmetry_equiv_pos_as_xyz
  1  'x, y, z'
loop_
 _atom_site_type_symbol
 _atom_site_label
 _atom_site_symmetry_multiplicity
 _atom_site_fract_x
 _atom_site_fract_y
 _atom_site_fract_z
 _atom_site_occupancy
  C  C0  1  0.36820800  0.34993700  0.16786300  1
  C  C1  1  0.36820800  0.15006300  0.66786300  1
  C  C2  1  0.63179200  0.65006300  0.83213700  1
  C  C3  1  0.63179200  0.84993700  0.33213700  1
  Ni  Ni4  1  0.77339100  0.31283000  0.58124200  1
  Ni  Ni5  1  0.77339100  0.18717000  0.08124200  1
  Ni  Ni6  1  0.22660900  0.68717000  0.41875800  1
  Ni  Ni7  1  0.22660900  0.81283000  0.91875800  1
  Ni  Ni8  1  0.86899100  0.52331100  0.19459400  1
  Ni  Ni9  1  0.86899100  0.97668900  0.69459400  1
  Ni  Ni10  1  0.13100900  0.47668900  0.80540600  1
  Ni  Ni11  1  0.13100900  0.02331100  0.30540600  1
  Cu  Cu12  1  0.73791600  0.25449300  0.70073100  1
  Cu  Cu13  1  0.73791600  0.24550700  0.20073100  1
  Cu  Cu14  1  0.26208400  0.74550700  0.29926900  1
  Cu  Cu15  1  0.26208400  0.75449300  0.79926900  1
  Cu  Cu16  1  0.04475100  0.28764300  0.57552400  1
  Cu  Cu17  1  0.04475100  0.21235700  0.07552400  1
  Cu  Cu18  1  0.95524900  0.71235700  0.42447600  1
  Cu  Cu19  1  0.95524900  0.78764300  0.92447600  1
  Cu  Cu20  1  0.68639700  0.48516600  0.26140900  1
  Cu  Cu21  1  0.68639700  0.01483400  0.76140900  1
  Cu  Cu22  1  0.31360300  0.51483400  0.73859100  1
  Cu  Cu23  1  0.31360300  0.98516600  0.23859100  1
  Cu  Cu24  1  0.72807100  0.61044900  0.08481000  1
  Cu  Cu25  1  0.72807100  0.88955100  0.58481000  1
  Cu  Cu26  1  0.27192900  0.38955100  0.91519000  1
  Cu  Cu27  1  0.27192900  0.11044900  0.41519000  1
  Cu  Cu28  1  0.97954600  0.44392400  0.13204200  1
  Cu  Cu29  1  0.97954600  0.05607600  0.63204200  1
  Cu  Cu30  1  0.02045400  0.55607600  0.86795800  1
  Cu  Cu31  1  0.02045400  0.94392400  0.36795800  1
  Cu  Cu32  1  0.18009500  0.56621800  0.35487200  1
  Cu  Cu33  1  0.18009500  0.93378200  0.85487200  1
  Cu  Cu34  1  0.81990500  0.43378200  0.64512800  1
  Cu  Cu35  1  0.81990500  0.06621800  0.14512800  1
  Cu  Cu36  1  0.49152900  0.32208700  0.42479700  1
  Cu  Cu37  1  0.49152900  0.17791300  0.92479700  1
  Cu  Cu38  1  0.50847100  0.67791300  0.57520300  1
  Cu  Cu39  1  0.50847100  0.82208700  0.07520300  1
