# generated using pymatgen
data_CuNi2C5
_symmetry_space_group_name_H-M   'P 1'
_cell_length_a   6.08039000
_cell_length_b   12.39209800
_cell_length_c   8.31034300
_cell_angle_alpha   90.00000000
_cell_angle_beta   90.00000000
_cell_angle_gamma   90.00000000
_symmetry_Int_Tables_number   1
_chemical_formula_structural   CuNi2C5
_chemical_formula_sum   'Cu4 Ni8 C20'
_cell_volume   626.17427922
_cell_formula_units_Z   4
loop_
 _symmetry_equiv_pos_site_id
 _symmetry_equiv_pos_as_xyz
  1  'x, y, z'
loop_
 _atom_site_type_symbol
 _atom_site_label
 _atom_site_symmetry_multiplicity
 _atom_site_fract_x
 _atom_site_fract_y
 _atom_site_fract_z
 _atom_site_occupancy
  Ni  Ni0  1  0.50000000  0.10647200  0.54509800  1
  Ni  Ni1  1  0.00000000  0.60647200  0.54509800  1
  Ni  Ni2  1  0.00000000  0.39352800  0.04509800  1
  Ni  Ni3  1  0.50000000  0.89352800  0.04509800  1
  Ni  Ni4  1  0.50000000  0.42640900  0.41063200  1
  Ni  Ni5  1  0.00000000  0.92640900  0.41063200  1
  Ni  Ni6  1  0.00000000  0.07359100  0.91063200  1
  Ni  Ni7  1  0.50000000  0.57359100  0.91063200  1
  Cu  Cu8  1  0.50000000  0.29209300  0.82696600  1
  Cu  Cu9  1  0.00000000  0.79209300  0.82696600  1
  Cu  Cu10  1  0.00000000  0.20790700  0.32696600  1
  Cu  Cu11  1  0.50000000  0.70790700  0.32696600  1
  C  C12  1  0.50000000  0.80143700  0.60785800  1
  C  C13  1  0.00000000  0.69856300  0.10785800  1
  C  C14  1  0.00000000  0.30143700  0.60785800  1
  C  C15  1  0.50000000  0.19856300  0.10785800  1
  C  C16  1  0.50000000  0.13941000  0.91912100  1
  C  C17  1  0.00000000  0.63941000  0.91912100  1
  C  C18  1  0.00000000  0.36059000  0.41912100  1
  C  C19  1  0.50000000  0.86059000  0.41912100  1
  C  C20  1  0.00000000  0.16477800  0.56098300  1
  C  C21  1  0.50000000  0.66477800  0.56098300  1
  C  C22  1  0.50000000  0.33522200  0.06098300  1
  C  C23  1  0.00000000  0.83522200  0.06098300  1
  C  C24  1  0.26589600  0.16350800  0.21072100  1
  C  C25  1  0.76589600  0.66350800  0.21072100  1
  C  C26  1  0.23410400  0.33649200  0.71072100  1
  C  C27  1  0.73410400  0.83649200  0.71072100  1
  C  C28  1  0.73410400  0.16350800  0.21072100  1
  C  C29  1  0.23410400  0.66350800  0.21072100  1
  C  C30  1  0.76589600  0.33649200  0.71072100  1
  C  C31  1  0.26589600  0.83649200  0.71072100  1
