# generated using pymatgen
data_Cu5NiC4
_symmetry_space_group_name_H-M   'P 1'
_cell_length_a   9.20529100
_cell_length_b   5.97549200
_cell_length_c   4.79517900
_cell_angle_alpha   90.00000000
_cell_angle_beta   90.00000000
_cell_angle_gamma   90.00000000
_symmetry_Int_Tables_number   1
_chemical_formula_structural   Cu5NiC4
_chemical_formula_sum   'Cu10 Ni2 C8'
_cell_volume   263.76430048
_cell_formula_units_Z   2
loop_
 _symmetry_equiv_pos_site_id
 _symmetry_equiv_pos_as_xyz
  1  'x, y, z'
loop_
 _atom_site_type_symbol
 _atom_site_label
 _atom_site_symmetry_multiplicity
 _atom_site_fract_x
 _atom_site_fract_y
 _atom_site_fract_z
 _atom_site_occupancy
  Ni  Ni0  1  0.75000000  0.25000000  0.78265600  1
  Ni  Ni1  1  0.25000000  0.75000000  0.21734400  1
  Cu  Cu2  1  0.60247000  0.52115000  0.31600800  1
  Cu  Cu3  1  0.89753000  0.52115000  0.31600800  1
  Cu  Cu4  1  0.60247000  0.97885000  0.31600800  1
  Cu  Cu5  1  0.89753000  0.97885000  0.31600800  1
  Cu  Cu6  1  0.39753000  0.47885000  0.68399200  1
  Cu  Cu7  1  0.10247000  0.47885000  0.68399200  1
  Cu  Cu8  1  0.39753000  0.02115000  0.68399200  1
  Cu  Cu9  1  0.10247000  0.02115000  0.68399200  1
  Cu  Cu10  1  0.75000000  0.75000000  0.75029400  1
  Cu  Cu11  1  0.25000000  0.25000000  0.24970600  1
  C  C12  1  0.75000000  0.00630100  0.01650200  1
  C  C13  1  0.75000000  0.49369900  0.01650200  1
  C  C14  1  0.25000000  0.99369900  0.98349800  1
  C  C15  1  0.25000000  0.50630100  0.98349800  1
  C  C16  1  0.43684800  0.75000000  0.41384300  1
  C  C17  1  0.06315200  0.75000000  0.41384300  1
  C  C18  1  0.56315200  0.25000000  0.58615700  1
  C  C19  1  0.93684800  0.25000000  0.58615700  1
