# generated using pymatgen
data_CuNiC6
_symmetry_space_group_name_H-M   'P 1'
_cell_length_a   10.54583700
_cell_length_b   5.35407500
_cell_length_c   13.18596800
_cell_angle_alpha   90.00000000
_cell_angle_beta   90.00000000
_cell_angle_gamma   90.00000000
_symmetry_Int_Tables_number   1
_chemical_formula_structural   CuNiC6
_chemical_formula_sum   'Cu8 Ni8 C48'
_cell_volume   744.52197786
_cell_formula_units_Z   8
loop_
 _symmetry_equiv_pos_site_id
 _symmetry_equiv_pos_as_xyz
  1  'x, y, z'
loop_
 _atom_site_type_symbol
 _atom_site_label
 _atom_site_symmetry_multiplicity
 _atom_site_fract_x
 _atom_site_fract_y
 _atom_site_fract_z
 _atom_site_occupancy
  C  C0  1  0.95565500  0.94478500  0.56302800  1
  C  C1  1  0.95977000  0.44713300  0.93612800  1
  C  C2  1  0.21157400  0.87350400  0.20100900  1
  C  C3  1  0.21187400  0.37445000  0.29970200  1
  C  C4  1  0.28842600  0.87350400  0.70100900  1
  C  C5  1  0.28812600  0.37445000  0.79970200  1
  C  C6  1  0.54023000  0.44713300  0.43612800  1
  C  C7  1  0.54434500  0.94478500  0.06302800  1
  C  C8  1  0.45977000  0.55286700  0.93612800  1
  C  C9  1  0.45565500  0.05521500  0.56302800  1
  C  C10  1  0.71187400  0.62555000  0.29970200  1
  C  C11  1  0.71157400  0.12649600  0.20100900  1
  C  C12  1  0.78812600  0.62555000  0.79970200  1
  C  C13  1  0.78842600  0.12649600  0.70100900  1
  C  C14  1  0.04434500  0.05521500  0.06302800  1
  C  C15  1  0.04023000  0.55286700  0.43612800  1
  Ni  Ni16  1  0.03712900  0.95629200  0.81323000  1
  Ni  Ni17  1  0.20793200  0.54187700  0.05784500  1
  Ni  Ni18  1  0.29206800  0.54187700  0.55784500  1
  Ni  Ni19  1  0.46287100  0.95629200  0.31323000  1
  Ni  Ni20  1  0.53712900  0.04370800  0.81323000  1
  Ni  Ni21  1  0.70793200  0.45812300  0.05784500  1
  Ni  Ni22  1  0.79206800  0.45812300  0.55784500  1
  Ni  Ni23  1  0.96287100  0.04370800  0.31323000  1
  Cu  Cu24  1  0.03841000  0.45367100  0.68662800  1
  Cu  Cu25  1  0.20827500  0.04050200  0.44278600  1
  Cu  Cu26  1  0.29172500  0.04050200  0.94278600  1
  Cu  Cu27  1  0.46159000  0.45367100  0.18662800  1
  Cu  Cu28  1  0.53841000  0.54632900  0.68662800  1
  Cu  Cu29  1  0.70827500  0.95949900  0.44278600  1
  Cu  Cu30  1  0.79172500  0.95949900  0.94278600  1
  Cu  Cu31  1  0.96159000  0.54632900  0.18662800  1
  C  C32  1  0.01374800  0.36174500  0.30325600  1
  C  C33  1  0.01884000  0.88259700  0.20332200  1
  C  C34  1  0.05013300  0.43001400  0.06932500  1
  C  C35  1  0.03943400  0.92596900  0.42445200  1
  C  C36  1  0.20402600  0.01269700  0.81667200  1
  C  C37  1  0.21690600  0.50907500  0.67841800  1
  C  C38  1  0.21008800  0.39745500  0.45718700  1
  C  C39  1  0.20701400  0.87508800  0.04747500  1
  C  C40  1  0.28991200  0.39745500  0.95718700  1
  C  C41  1  0.29298600  0.87508800  0.54747500  1
  C  C42  1  0.28309400  0.50907500  0.17841800  1
  C  C43  1  0.29597400  0.01269700  0.31667200  1
  C  C44  1  0.44986700  0.43001400  0.56932500  1
  C  C45  1  0.46056600  0.92596900  0.92445200  1
  C  C46  1  0.48625200  0.36174500  0.80325600  1
  C  C47  1  0.48116000  0.88259700  0.70332200  1
  C  C48  1  0.51884000  0.11740300  0.20332200  1
  C  C49  1  0.51374800  0.63825500  0.30325600  1
  C  C50  1  0.53943400  0.07403100  0.42445200  1
  C  C51  1  0.55013300  0.56998600  0.06932500  1
  C  C52  1  0.71690600  0.49092500  0.67841800  1
  C  C53  1  0.70402600  0.98730300  0.81667200  1
  C  C54  1  0.70701400  0.12491200  0.04747500  1
  C  C55  1  0.71008800  0.60254500  0.45718700  1
  C  C56  1  0.79298600  0.12491200  0.54747500  1
  C  C57  1  0.78991200  0.60254500  0.95718700  1
  C  C58  1  0.78309400  0.49092500  0.17841800  1
  C  C59  1  0.79597400  0.98730300  0.31667200  1
  C  C60  1  0.96056600  0.07403100  0.92445200  1
  C  C61  1  0.94986700  0.56998600  0.56932500  1
  C  C62  1  0.98116000  0.11740300  0.70332200  1
  C  C63  1  0.98625200  0.63825500  0.80325600  1
