# generated using pymatgen
data_CuNi5C3
_symmetry_space_group_name_H-M   'P 1'
_cell_length_a   12.90503000
_cell_length_b   5.20492300
_cell_length_c   7.88049571
_cell_angle_alpha   61.20845215
_cell_angle_beta   90.00000000
_cell_angle_gamma   90.00000000
_symmetry_Int_Tables_number   1
_chemical_formula_structural   CuNi5C3
_chemical_formula_sum   'Cu4 Ni20 C12'
_cell_volume   463.89340800
_cell_formula_units_Z   4
loop_
 _symmetry_equiv_pos_site_id
 _symmetry_equiv_pos_as_xyz
  1  'x, y, z'
loop_
 _atom_site_type_symbol
 _atom_site_label
 _atom_site_symmetry_multiplicity
 _atom_site_fract_x
 _atom_site_fract_y
 _atom_site_fract_z
 _atom_site_occupancy
  C  C0  1  0.70150700  0.36296400  0.18649600  1
  C  C1  1  0.29849300  0.63703600  0.81350400  1
  C  C2  1  0.20150700  0.63703600  0.31350400  1
  C  C3  1  0.79849300  0.36296400  0.68649600  1
  C  C4  1  0.00000000  0.50000000  0.00000000  1
  C  C5  1  0.50000000  0.50000000  0.50000000  1
  C  C6  1  0.00000000  0.00000000  0.50000000  1
  C  C7  1  0.50000000  0.00000000  0.00000000  1
  C  C8  1  0.88961100  0.87215900  0.19592200  1
  C  C9  1  0.11038900  0.12784100  0.80407800  1
  C  C10  1  0.38961100  0.12784100  0.30407800  1
  C  C11  1  0.61038900  0.87215900  0.69592200  1
  Ni  Ni12  1  0.91231500  0.71801200  0.07227600  1
  Ni  Ni13  1  0.08768500  0.28198800  0.92772400  1
  Ni  Ni14  1  0.41231500  0.28198800  0.42772400  1
  Ni  Ni15  1  0.58768500  0.71801200  0.57227600  1
  Ni  Ni16  1  0.54345000  0.68383000  0.24007300  1
  Ni  Ni17  1  0.45655000  0.31617000  0.75992700  1
  Ni  Ni18  1  0.04345000  0.31617000  0.25992700  1
  Ni  Ni19  1  0.95655000  0.68383000  0.74007300  1
  Ni  Ni20  1  0.38721700  0.78870700  0.44498600  1
  Ni  Ni21  1  0.61278300  0.21129300  0.55501400  1
  Ni  Ni22  1  0.88721700  0.21129300  0.05501400  1
  Ni  Ni23  1  0.11278300  0.78870700  0.94498600  1
  Ni  Ni24  1  0.97477400  0.79793500  0.35254100  1
  Ni  Ni25  1  0.02522600  0.20206500  0.64745900  1
  Ni  Ni26  1  0.47477400  0.20206500  0.14745900  1
  Ni  Ni27  1  0.52522600  0.79793500  0.85254100  1
  Ni  Ni28  1  0.78268600  0.77302700  0.28958200  1
  Ni  Ni29  1  0.21731400  0.22697300  0.71041800  1
  Ni  Ni30  1  0.28268600  0.22697300  0.21041800  1
  Ni  Ni31  1  0.71731400  0.77302700  0.78958200  1
  Cu  Cu32  1  0.36719700  0.85771900  0.03919100  1
  Cu  Cu33  1  0.63280300  0.14228100  0.96080900  1
  Cu  Cu34  1  0.86719700  0.14228100  0.46080900  1
  Cu  Cu35  1  0.13280300  0.85771900  0.53919100  1
