# generated using pymatgen
data_Cu7NiC31
_symmetry_space_group_name_H-M   'P 1'
_cell_length_a   10.89782388
_cell_length_b   15.40463718
_cell_length_c   10.79776950
_cell_angle_alpha   90.07747705
_cell_angle_beta   90.29285391
_cell_angle_gamma   90.07431539
_symmetry_Int_Tables_number   1
_chemical_formula_structural   Cu7NiC31
_chemical_formula_sum   'Cu28 Ni4 C124'
_cell_volume   1812.67052172
_cell_formula_units_Z   4
loop_
 _symmetry_equiv_pos_site_id
 _symmetry_equiv_pos_as_xyz
  1  'x, y, z'
loop_
 _atom_site_type_symbol
 _atom_site_label
 _atom_site_symmetry_multiplicity
 _atom_site_fract_x
 _atom_site_fract_y
 _atom_site_fract_z
 _atom_site_occupancy
  Ni  Ni0  1  0.01329772  0.11937331  0.50569249  1
  Ni  Ni1  1  0.49653104  0.38189457  0.99652431  1
  Ni  Ni2  1  0.23968441  0.38511254  0.25312176  1
  Ni  Ni3  1  0.24748565  0.11806072  0.26461191  1
  Cu  Cu4  1  0.01092283  0.11775843  0.99204236  1
  Cu  Cu5  1  0.02035010  0.62562603  0.49706549  1
  Cu  Cu6  1  0.02061879  0.62618498  0.99462147  1
  Cu  Cu7  1  0.52653356  0.12924230  0.50638763  1
  Cu  Cu8  1  0.53633681  0.12157669  0.97237590  1
  Cu  Cu9  1  0.52467959  0.62510573  0.49781847  1
  Cu  Cu10  1  0.52160502  0.62512913  0.99472610  1
  Cu  Cu11  1  0.47923067  0.38452137  0.51105094  1
  Cu  Cu12  1  0.48648106  0.86767942  0.99605750  1
  Cu  Cu13  1  0.48151892  0.86479441  0.51548601  1
  Cu  Cu14  1  0.96787451  0.38606437  0.99896789  1
  Cu  Cu15  1  0.97563709  0.38104933  0.50688324  1
  Cu  Cu16  1  0.97404956  0.87098126  0.00358850  1
  Cu  Cu17  1  0.97303869  0.87187967  0.50719438  1
  Cu  Cu18  1  0.22378800  0.38081969  0.72743966  1
  Cu  Cu19  1  0.22760032  0.86869143  0.24666073  1
  Cu  Cu20  1  0.22671446  0.86958861  0.74382505  1
  Cu  Cu21  1  0.73597252  0.38734515  0.24697491  1
  Cu  Cu22  1  0.72868392  0.38045315  0.74755337  1
  Cu  Cu23  1  0.73434460  0.86565154  0.24724254  1
  Cu  Cu24  1  0.72859466  0.87184843  0.74545153  1
  Cu  Cu25  1  0.27320881  0.11555600  0.73392119  1
  Cu  Cu26  1  0.27374917  0.62672611  0.25595743  1
  Cu  Cu27  1  0.27211596  0.62501897  0.75488846  1
  Cu  Cu28  1  0.77154876  0.11694351  0.24969481  1
  Cu  Cu29  1  0.77415646  0.12344639  0.75681483  1
  Cu  Cu30  1  0.77094889  0.62504623  0.25457575  1
  Cu  Cu31  1  0.77074185  0.62584477  0.75423711  1
  C  C32  1  0.99593321  0.99171103  0.24988489  1
  C  C33  1  0.25088815  0.99311512  0.99349970  1
  C  C34  1  0.25630228  0.24560328  0.95933967  1
  C  C35  1  0.98401424  0.25174266  0.26821455  1
  C  C36  1  0.99529542  0.99600485  0.75292067  1
  C  C37  1  0.00076473  0.50333723  0.24900159  1
  C  C38  1  0.00020023  0.50170783  0.74983441  1
  C  C39  1  0.50918725  0.98416707  0.24052541  1
  C  C40  1  0.50227471  0.99796965  0.74794378  1
  C  C41  1  0.50143451  0.50616487  0.25133985  1
  C  C42  1  0.49992625  0.50296647  0.74871415  1
  C  C43  1  0.24238209  0.99162856  0.50742707  1
  C  C44  1  0.24934490  0.50399887  0.00150325  1
  C  C45  1  0.25022076  0.50424486  0.50127492  1
  C  C46  1  0.75047477  0.99719461  0.99564049  1
  C  C47  1  0.74478546  0.99951153  0.50134975  1
  C  C48  1  0.75016759  0.50452386  0.00074356  1
  C  C49  1  0.75063249  0.50145424  0.50089262  1
  C  C50  1  0.25173068  0.25094434  0.49889524  1
  C  C51  1  0.25002005  0.74799104  0.00155986  1
  C  C52  1  0.25049797  0.74893893  0.50018666  1
  C  C53  1  0.75225331  0.24962245  0.99896551  1
  C  C54  1  0.74763298  0.25058513  0.50663594  1
  C  C55  1  0.74982450  0.74930586  0.00004971  1
  C  C56  1  0.75040998  0.74882989  0.50024607  1
  C  C57  1  0.99465653  0.25194785  0.74558404  1
  C  C58  1  0.00037999  0.74695238  0.25003240  1
  C  C59  1  0.00020748  0.74919058  0.75034622  1
  C  C60  1  0.52213831  0.25828276  0.26563867  1
  C  C61  1  0.50507958  0.25007911  0.74287587  1
  C  C62  1  0.49982106  0.74845099  0.25208083  1
  C  C63  1  0.50039642  0.74801388  0.75139953  1
  C  C64  1  0.09871630  0.26855455  0.60205451  1
  C  C65  1  0.10574953  0.77193322  0.10456971  1
  C  C66  1  0.10584499  0.77213943  0.60316304  1
  C  C67  1  0.59259152  0.25175299  0.10711296  1
  C  C68  1  0.59801300  0.26795312  0.59421624  1
  C  C69  1  0.60728009  0.77296630  0.10870424  1
  C  C70  1  0.60799391  0.76658194  0.60686294  1
  C  C71  1  0.39954830  0.22127459  0.37188594  1
  C  C72  1  0.40626945  0.23142775  0.89036083  1
  C  C73  1  0.39603736  0.72640376  0.39722231  1
  C  C74  1  0.39676944  0.73040868  0.89794562  1
  C  C75  1  0.88977885  0.23410166  0.40099200  1
  C  C76  1  0.90014333  0.23494737  0.90311871  1
  C  C77  1  0.89670023  0.72978717  0.39557360  1
  C  C78  1  0.89567425  0.73010514  0.89601348  1
  C  C79  1  0.14334725  0.24278767  0.34934613  1
  C  C80  1  0.14457443  0.23026115  0.84028634  1
  C  C81  1  0.14688714  0.73067301  0.35137104  1
  C  C82  1  0.14720154  0.73043538  0.85288179  1
  C  C83  1  0.65425766  0.21950486  0.35718366  1
  C  C84  1  0.64915093  0.22959279  0.85141253  1
  C  C85  1  0.64688968  0.72853369  0.35401321  1
  C  C86  1  0.64470176  0.72895589  0.85608920  1
  C  C87  1  0.35157572  0.26425546  0.64613554  1
  C  C88  1  0.35747788  0.77299305  0.14557779  1
  C  C89  1  0.35531371  0.76943609  0.64608634  1
  C  C90  1  0.86012680  0.27189556  0.14234250  1
  C  C91  1  0.84952560  0.27361324  0.64962099  1
  C  C92  1  0.85699066  0.76957613  0.14430806  1
  C  C93  1  0.85651356  0.77125653  0.64489669  1
  C  C94  1  0.36158334  0.49031055  0.14198120  1
  C  C95  1  0.35531802  0.48442728  0.64498410  1
  C  C96  1  0.35729595  0.99131138  0.15785349  1
  C  C97  1  0.35515989  0.97873446  0.64574946  1
  C  C98  1  0.85752488  0.48248813  0.14368684  1
  C  C99  1  0.85591166  0.47924055  0.64510576  1
  C  C100  1  0.85347856  0.98028287  0.14266782  1
  C  C101  1  0.85252298  0.97770036  0.64648533  1
  C  C102  1  0.13643321  0.00571762  0.36342127  1
  C  C103  1  0.14548920  0.02257793  0.86150883  1
  C  C104  1  0.14589203  0.52154456  0.35315337  1
  C  C105  1  0.14754823  0.51615155  0.85235744  1
  C  C106  1  0.62181954  0.03031279  0.35520267  1
  C  C107  1  0.64855742  0.01981225  0.84915575  1
  C  C108  1  0.64673507  0.52060364  0.35530230  1
  C  C109  1  0.64387565  0.52026051  0.85655148  1
  C  C110  1  0.39474850  0.02099413  0.89612140  1
  C  C111  1  0.39491137  0.52190995  0.39579738  1
  C  C112  1  0.39398315  0.51775011  0.89376348  1
  C  C113  1  0.88083666  0.01661525  0.38705235  1
  C  C114  1  0.89530447  0.01464545  0.89876843  1
  C  C115  1  0.89714906  0.51847748  0.39568131  1
  C  C116  1  0.89577457  0.51865476  0.89653534  1
  C  C117  1  0.10210573  0.48399745  0.10346199  1
  C  C118  1  0.10481002  0.48142221  0.60396857  1
  C  C119  1  0.10911753  0.98475768  0.10927495  1
  C  C120  1  0.09897118  0.97833673  0.61573414  1
  C  C121  1  0.61334414  0.48644203  0.11299537  1
  C  C122  1  0.60736036  0.48350003  0.60415332  1
  C  C123  1  0.60381741  0.98599531  0.09349926  1
  C  C124  1  0.59788045  0.98073272  0.59829497  1
  C  C125  1  0.00667317  0.37684737  0.27659220  1
  C  C126  1  0.01126159  0.37597338  0.78766761  1
  C  C127  1  0.00392522  0.87132661  0.28373835  1
  C  C128  1  0.01114129  0.87331876  0.79248080  1
  C  C129  1  0.50036340  0.37967914  0.28074974  1
  C  C130  1  0.50932187  0.37556196  0.77180831  1
  C  C131  1  0.50915663  0.87121063  0.30111264  1
  C  C132  1  0.51065067  0.87414705  0.78497652  1
  C  C133  1  0.49257343  0.12357788  0.71556518  1
  C  C134  1  0.49166272  0.62885946  0.20994818  1
  C  C135  1  0.49037689  0.62577951  0.71264588  1
  C  C136  1  0.99855379  0.13060644  0.21652824  1
  C  C137  1  0.98602140  0.12511339  0.72513807  1
  C  C138  1  0.98782805  0.62571585  0.20915461  1
  C  C139  1  0.98925873  0.62528641  0.71212359  1
  C  C140  1  0.23220171  0.15013872  0.05330997  1
  C  C141  1  0.25688487  0.11790139  0.51738433  1
  C  C142  1  0.23737799  0.62922035  0.03955407  1
  C  C143  1  0.23722541  0.62698107  0.54004310  1
  C  C144  1  0.74764461  0.12363273  0.03514415  1
  C  C145  1  0.74464183  0.12542237  0.54323946  1
  C  C146  1  0.74100417  0.62713533  0.03857536  1
  C  C147  1  0.74382954  0.62492339  0.53886470  1
  C  C148  1  0.26437283  0.37740395  0.47607301  1
  C  C149  1  0.25062357  0.35829409  0.00912901  1
  C  C150  1  0.26935166  0.87384910  0.45874487  1
  C  C151  1  0.26199702  0.87726508  0.96526977  1
  C  C152  1  0.75621566  0.37497860  0.46128509  1
  C  C153  1  0.74771068  0.37549113  0.96720005  1
  C  C154  1  0.75509003  0.87425231  0.46133670  1
  C  C155  1  0.75604824  0.87393661  0.96088559  1
