# generated using pymatgen
data_Cu3Ni3C2
_symmetry_space_group_name_H-M   'P 1'
_cell_length_a   7.71470400
_cell_length_b   7.71521786
_cell_length_c   6.50701200
_cell_angle_alpha   90.00000000
_cell_angle_beta   90.00000000
_cell_angle_gamma   119.99779678
_symmetry_Int_Tables_number   1
_chemical_formula_structural   Cu3Ni3C2
_chemical_formula_sum   'Cu6 Ni6 C4'
_cell_volume   335.42029968
_cell_formula_units_Z   2
loop_
 _symmetry_equiv_pos_site_id
 _symmetry_equiv_pos_as_xyz
  1  'x, y, z'
loop_
 _atom_site_type_symbol
 _atom_site_label
 _atom_site_symmetry_multiplicity
 _atom_site_fract_x
 _atom_site_fract_y
 _atom_site_fract_z
 _atom_site_occupancy
  C  C0  1  0.33333200  0.66666300  0.52978700  1
  C  C1  1  0.66666800  0.33333700  0.02978700  1
  C  C2  1  0.33330700  0.66661400  0.15624000  1
  C  C3  1  0.66669300  0.33338600  0.65624000  1
  Ni  Ni4  1  0.20588000  0.79411400  0.63059900  1
  Ni  Ni5  1  0.20587000  0.41173900  0.63061100  1
  Ni  Ni6  1  0.58823300  0.79411400  0.63059900  1
  Ni  Ni7  1  0.79412000  0.20588600  0.13059900  1
  Ni  Ni8  1  0.79413000  0.58826100  0.13061100  1
  Ni  Ni9  1  0.41176700  0.20588600  0.13059900  1
  Cu  Cu10  1  0.13730300  0.86270200  0.74358200  1
  Cu  Cu11  1  0.13729000  0.27458000  0.74359200  1
  Cu  Cu12  1  0.72539900  0.86270200  0.74358200  1
  Cu  Cu13  1  0.86269700  0.13729800  0.24358200  1
  Cu  Cu14  1  0.86271000  0.72542000  0.24359200  1
  Cu  Cu15  1  0.27460100  0.13729800  0.24358200  1
