# generated using pymatgen
data_Cu3NiC14
_symmetry_space_group_name_H-M   'P 1'
_cell_length_a   11.52499775
_cell_length_b   11.55960171
_cell_length_c   17.77397402
_cell_angle_alpha   109.12245121
_cell_angle_beta   108.72436873
_cell_angle_gamma   90.16703717
_symmetry_Int_Tables_number   1
_chemical_formula_structural   Cu3NiC14
_chemical_formula_sum   'Cu24 Ni8 C112'
_cell_volume   2103.34440822
_cell_formula_units_Z   8
loop_
 _symmetry_equiv_pos_site_id
 _symmetry_equiv_pos_as_xyz
  1  'x, y, z'
loop_
 _atom_site_type_symbol
 _atom_site_label
 _atom_site_symmetry_multiplicity
 _atom_site_fract_x
 _atom_site_fract_y
 _atom_site_fract_z
 _atom_site_occupancy
  C  C0  1  0.30512500  0.06197200  0.12289700  1
  C  C1  1  0.31068400  0.56343400  0.11623100  1
  C  C2  1  0.79615100  0.06207700  0.10894200  1
  C  C3  1  0.81188100  0.56197800  0.12268800  1
  C  C4  1  0.81213500  0.57025500  0.62285200  1
  C  C5  1  0.20099700  0.93494300  0.38786700  1
  C  C6  1  0.19094600  0.92861100  0.87808200  1
  C  C7  1  0.69131700  0.44358000  0.38305900  1
  C  C8  1  0.68471400  0.42483100  0.87935500  1
  C  C9  1  0.69480500  0.93803700  0.37970600  1
  C  C10  1  0.68887600  0.92097900  0.87522100  1
  C  C11  1  0.04437800  0.29625200  0.11326000  1
  C  C12  1  0.06338900  0.79726300  0.11736400  1
  C  C13  1  0.55565700  0.31279600  0.12130400  1
  C  C14  1  0.56138800  0.80852600  0.12255700  1
  C  C15  1  0.43805500  0.19326800  0.38092000  1
  C  C16  1  0.45258300  0.69975700  0.38966000  1
  C  C17  1  0.44520700  0.70462400  0.89008800  1
  C  C18  1  0.94735300  0.69200100  0.37978600  1
  C  C19  1  0.93661500  0.69236100  0.87571300  1
  C  C20  1  0.29698400  0.07614400  0.60397900  1
  C  C21  1  0.30397400  0.56909400  0.60294100  1
  C  C22  1  0.80189700  0.06619300  0.59878700  1
  C  C23  1  0.20295300  0.44122300  0.40280900  1
  C  C24  1  0.19823200  0.43251500  0.89632100  1
  C  C25  1  0.05008500  0.28106200  0.60584400  1
  C  C26  1  0.05841600  0.79385300  0.60862700  1
  C  C27  1  0.55415400  0.29264900  0.60429400  1
  C  C28  1  0.55606300  0.78949900  0.60883000  1
  C  C29  1  0.44327600  0.21041200  0.89656200  1
  C  C30  1  0.95462100  0.21411700  0.40456600  1
  C  C31  1  0.94472200  0.21196100  0.89856700  1
  Ni  Ni32  1  0.99819900  0.99767300  0.99969200  1
  Ni  Ni33  1  0.99867700  0.49587700  0.99984700  1
  Ni  Ni34  1  0.49831400  0.00072500  0.99921000  1
  Ni  Ni35  1  0.50728100  0.00429200  0.50712800  1
  Ni  Ni36  1  0.49899500  0.49869400  0.99807900  1
  Ni  Ni37  1  0.24724000  0.24812700  0.99913500  1
  Ni  Ni38  1  0.24972500  0.74754100  0.99942600  1
  Ni  Ni39  1  0.75089400  0.74763400  0.00108400  1
  Cu  Cu40  1  0.00432100  0.00049300  0.50159800  1
  Cu  Cu41  1  0.00754200  0.50336700  0.50482800  1
  Cu  Cu42  1  0.50665900  0.50213900  0.50346700  1
  Cu  Cu43  1  0.25416400  0.25498200  0.50342700  1
  Cu  Cu44  1  0.25750100  0.75210900  0.50494700  1
  Cu  Cu45  1  0.74451000  0.24643600  0.99730900  1
  Cu  Cu46  1  0.75687000  0.25125600  0.50139300  1
  Cu  Cu47  1  0.75901100  0.75177000  0.50399700  1
  Cu  Cu48  1  0.09852900  0.09056300  0.25381700  1
  Cu  Cu49  1  0.08557800  0.08831900  0.74751400  1
  Cu  Cu50  1  0.14619600  0.58211200  0.25435800  1
  Cu  Cu51  1  0.14164600  0.56614400  0.74961700  1
  Cu  Cu52  1  0.62761300  0.11196200  0.25131300  1
  Cu  Cu53  1  0.58219500  0.08203600  0.74557800  1
  Cu  Cu54  1  0.61585000  0.61229800  0.25193200  1
  Cu  Cu55  1  0.59085900  0.57527000  0.74678400  1
  Cu  Cu56  1  0.35050200  0.40535000  0.25322200  1
  Cu  Cu57  1  0.34559800  0.42462900  0.74714500  1
  Cu  Cu58  1  0.37462300  0.88971100  0.25404100  1
  Cu  Cu59  1  0.37239900  0.92813100  0.74644500  1
  Cu  Cu60  1  0.87093700  0.39050000  0.25207500  1
  Cu  Cu61  1  0.86661100  0.38992600  0.74792300  1
  Cu  Cu62  1  0.89892100  0.92816200  0.25340100  1
  Cu  Cu63  1  0.87536100  0.93744500  0.74803300  1
  C  C64  1  0.12711700  0.12850700  0.50311500  1
  C  C65  1  0.11900100  0.11879400  0.99482200  1
  C  C66  1  0.13242600  0.62591900  0.50188400  1
  C  C67  1  0.12097500  0.61533200  0.98744800  1
  C  C68  1  0.62689200  0.12510800  0.50190100  1
  C  C69  1  0.61131500  0.11768100  0.98814600  1
  C  C70  1  0.63130500  0.63093900  0.50589100  1
  C  C71  1  0.62576900  0.62379700  0.99935700  1
  C  C72  1  0.12174300  0.36758100  0.99450800  1
  C  C73  1  0.13406100  0.37957100  0.50851800  1
  C  C74  1  0.12151700  0.86907300  0.99496400  1
  C  C75  1  0.13938200  0.88145500  0.51441500  1
  C  C76  1  0.61492700  0.37248700  0.99504600  1
  C  C77  1  0.63247700  0.37930600  0.51088900  1
  C  C78  1  0.62443900  0.87392300  0.99955300  1
  C  C79  1  0.63758800  0.88990500  0.51929200  1
  C  C80  1  0.38036600  0.12569600  0.50371400  1
  C  C81  1  0.36811100  0.12185900  0.99127500  1
  C  C82  1  0.37886100  0.62312600  0.50194200  1
  C  C83  1  0.36855700  0.62105600  0.99285700  1
  C  C84  1  0.87637500  0.12250800  0.49298900  1
  C  C85  1  0.87156900  0.11290300  0.98808600  1
  C  C86  1  0.88238200  0.62849900  0.50296400  1
  C  C87  1  0.87510500  0.61956700  0.99632300  1
  C  C88  1  0.36820600  0.37028200  0.99407300  1
  C  C89  1  0.37909200  0.37799100  0.50742900  1
  C  C90  1  0.37168700  0.87497000  0.99833000  1
  C  C91  1  0.38999500  0.88443000  0.51556400  1
  C  C92  1  0.87519600  0.37291400  0.99840000  1
  C  C93  1  0.88816800  0.37873500  0.51335700  1
  C  C94  1  0.87106100  0.86742400  0.99128600  1
  C  C95  1  0.88509600  0.88087700  0.50742400  1
  C  C96  1  0.05254200  0.05643900  0.12349500  1
  C  C97  1  0.06106800  0.09100400  0.63647700  1
  C  C98  1  0.07371100  0.55698600  0.12563800  1
  C  C99  1  0.09268900  0.59151600  0.64384200  1
  C  C100  1  0.55773300  0.06935200  0.12102500  1
  C  C101  1  0.56614500  0.09940700  0.63887200  1
  C  C102  1  0.55680500  0.56362700  0.12207900  1
  C  C103  1  0.56904300  0.58159000  0.63715200  1
  C  C104  1  0.43921100  0.43404800  0.37315800  1
  C  C105  1  0.42924400  0.43622700  0.86475000  1
  C  C106  1  0.44224800  0.93217900  0.37942700  1
  C  C107  1  0.43429600  0.92000500  0.85806000  1
  C  C108  1  0.93979500  0.42612100  0.37523600  1
  C  C109  1  0.93408100  0.41078600  0.86792500  1
  C  C110  1  0.94986600  0.92815500  0.36905800  1
  C  C111  1  0.93812400  0.92065000  0.85679100  1
  C  C112  1  0.30322200  0.31062200  0.12460400  1
  C  C113  1  0.31838200  0.30596200  0.63682500  1
  C  C114  1  0.30886100  0.80579600  0.12157600  1
  C  C115  1  0.34140400  0.79706700  0.64262200  1
  C  C116  1  0.80529100  0.30350100  0.12289400  1
  C  C117  1  0.83060000  0.28280700  0.63383600  1
  C  C118  1  0.82446900  0.81678500  0.12674200  1
  C  C119  1  0.85110700  0.80905700  0.64535200  1
  C  C120  1  0.18593500  0.18914000  0.37335000  1
  C  C121  1  0.17630900  0.18506400  0.86464700  1
  C  C122  1  0.19666600  0.68903000  0.37284300  1
  C  C123  1  0.19534100  0.68843400  0.86065900  1
  C  C124  1  0.68930300  0.19924300  0.37388800  1
  C  C125  1  0.67348600  0.18217700  0.85911300  1
  C  C126  1  0.68702400  0.69489100  0.37718300  1
  C  C127  1  0.67652700  0.67484300  0.86681200  1
  C  C128  1  0.48979200  0.00621200  0.24851500  1
  C  C129  1  0.40919200  0.09858800  0.74671400  1
  C  C130  1  0.48112400  0.51382200  0.24957400  1
  C  C131  1  0.41714100  0.57673300  0.73749500  1
  C  C132  1  0.93489300  0.10748700  0.26451800  1
  C  C133  1  0.91188200  0.10859500  0.74884500  1
  C  C134  1  0.98565000  0.50857100  0.24678100  1
  C  C135  1  0.97276400  0.51781800  0.74744400  1
  C  C136  1  0.18933600  0.41653400  0.26522400  1
  C  C137  1  0.17143300  0.39350400  0.74996600  1
  C  C138  1  0.23314500  0.98066200  0.24928300  1
  C  C139  1  0.19722200  0.95463400  0.73584000  1
  C  C140  1  0.74640400  0.50507100  0.24993700  1
  C  C141  1  0.70607900  0.44530200  0.73824500  1
  C  C142  1  0.73562500  0.98672100  0.24761400  1
  C  C143  1  0.69807200  0.95307800  0.73486500  1
