# generated using pymatgen
data_Cu2NiC2
_symmetry_space_group_name_H-M   'P 1'
_cell_length_a   7.97960100
_cell_length_b   7.97960100
_cell_length_c   7.22091800
_cell_angle_alpha   90.00000000
_cell_angle_beta   90.00000000
_cell_angle_gamma   90.00000000
_symmetry_Int_Tables_number   1
_chemical_formula_structural   Cu2NiC2
_chemical_formula_sum   'Cu8 Ni4 C8'
_cell_volume   459.78496466
_cell_formula_units_Z   4
loop_
 _symmetry_equiv_pos_site_id
 _symmetry_equiv_pos_as_xyz
  1  'x, y, z'
loop_
 _atom_site_type_symbol
 _atom_site_label
 _atom_site_symmetry_multiplicity
 _atom_site_fract_x
 _atom_site_fract_y
 _atom_site_fract_z
 _atom_site_occupancy
  C  C0  1  0.84308600  0.15691400  0.50000000  1
  C  C1  1  0.15691400  0.84308600  0.50000000  1
  C  C2  1  0.34308600  0.34308600  0.00000000  1
  C  C3  1  0.65691400  0.65691400  0.00000000  1
  C  C4  1  0.68265500  0.68265500  0.50000000  1
  C  C5  1  0.31734500  0.31734500  0.50000000  1
  C  C6  1  0.18265500  0.81734500  0.00000000  1
  C  C7  1  0.81734500  0.18265500  0.00000000  1
  Ni  Ni8  1  0.50000000  0.00000000  0.25000000  1
  Ni  Ni9  1  0.00000000  0.50000000  0.75000000  1
  Ni  Ni10  1  0.50000000  0.00000000  0.75000000  1
  Ni  Ni11  1  0.00000000  0.50000000  0.25000000  1
  Cu  Cu12  1  0.62887400  0.37112600  0.27550400  1
  Cu  Cu13  1  0.37112600  0.62887400  0.27550400  1
  Cu  Cu14  1  0.12887400  0.12887400  0.77550400  1
  Cu  Cu15  1  0.87112600  0.87112600  0.77550400  1
  Cu  Cu16  1  0.37112600  0.62887400  0.72449600  1
  Cu  Cu17  1  0.62887400  0.37112600  0.72449600  1
  Cu  Cu18  1  0.87112600  0.87112600  0.22449600  1
  Cu  Cu19  1  0.12887400  0.12887400  0.22449600  1
