# generated using pymatgen
data_Cu27(Ni6C)2
_symmetry_space_group_name_H-M   'P 1'
_cell_length_a   13.41544533
_cell_length_b   13.41544533
_cell_length_c   13.41544533
_cell_angle_alpha   90.00000000
_cell_angle_beta   90.00000000
_cell_angle_gamma   90.00000000
_symmetry_Int_Tables_number   1
_chemical_formula_structural   Cu27(Ni6C)2
_chemical_formula_sum   'Cu108 Ni48 C8'
_cell_volume   2414.43368409
_cell_formula_units_Z   4
loop_
 _symmetry_equiv_pos_site_id
 _symmetry_equiv_pos_as_xyz
  1  'x, y, z'
loop_
 _atom_site_type_symbol
 _atom_site_label
 _atom_site_symmetry_multiplicity
 _atom_site_fract_x
 _atom_site_fract_y
 _atom_site_fract_z
 _atom_site_occupancy
  C  C0  1  0.04786520  0.04786520  0.04786520  1
  C  C1  1  0.45213480  0.95213480  0.54786520  1
  C  C2  1  0.95213480  0.54786520  0.45213480  1
  C  C3  1  0.79786520  0.29786520  0.20213480  1
  C  C4  1  0.54786520  0.45213480  0.95213480  1
  C  C5  1  0.70213480  0.70213480  0.70213480  1
  C  C6  1  0.29786520  0.20213480  0.79786520  1
  C  C7  1  0.20213480  0.79786520  0.29786520  1
  Ni  Ni8  1  0.09313700  0.38303755  0.38656641  1
  Ni  Ni9  1  0.40686300  0.61696245  0.88656641  1
  Ni  Ni10  1  0.90686300  0.88303755  0.11343359  1
  Ni  Ni11  1  0.38656641  0.09313700  0.38303755  1
  Ni  Ni12  1  0.13303755  0.34313700  0.86343359  1
  Ni  Ni13  1  0.59313700  0.11696245  0.61343359  1
  Ni  Ni14  1  0.88656641  0.40686300  0.61696245  1
  Ni  Ni15  1  0.36696245  0.65686300  0.36343359  1
  Ni  Ni16  1  0.11343359  0.90686300  0.88303755  1
  Ni  Ni17  1  0.63303755  0.15686300  0.13656641  1
  Ni  Ni18  1  0.61343359  0.59313700  0.11696245  1
  Ni  Ni19  1  0.86696245  0.84313700  0.63656641  1
  Ni  Ni20  1  0.38303755  0.38656641  0.09313700  1
  Ni  Ni21  1  0.84313700  0.63656641  0.86696245  1
  Ni  Ni22  1  0.88303755  0.11343359  0.90686300  1
  Ni  Ni23  1  0.65686300  0.36343359  0.36696245  1
  Ni  Ni24  1  0.11696245  0.61343359  0.59313700  1
  Ni  Ni25  1  0.34313700  0.86343359  0.13303755  1
  Ni  Ni26  1  0.61696245  0.88656641  0.40686300  1
  Ni  Ni27  1  0.15686300  0.13656641  0.63303755  1
  Ni  Ni28  1  0.86343359  0.13303755  0.34313700  1
  Ni  Ni29  1  0.36343359  0.36696245  0.65686300  1
  Ni  Ni30  1  0.63656641  0.86696245  0.84313700  1
  Ni  Ni31  1  0.13656641  0.63303755  0.15686300  1
  Ni  Ni32  1  0.12500000  0.20537417  0.45537417  1
  Ni  Ni33  1  0.37500000  0.79462583  0.95537417  1
  Ni  Ni34  1  0.87500000  0.70537417  0.04462583  1
  Ni  Ni35  1  0.45537417  0.12500000  0.20537417  1
  Ni  Ni36  1  0.95537417  0.37500000  0.79462583  1
  Ni  Ni37  1  0.62500000  0.29462583  0.54462583  1
  Ni  Ni38  1  0.54462583  0.62500000  0.29462583  1
  Ni  Ni39  1  0.04462583  0.87500000  0.70537417  1
  Ni  Ni40  1  0.20537417  0.45537417  0.12500000  1
  Ni  Ni41  1  0.70537417  0.04462583  0.87500000  1
  Ni  Ni42  1  0.29462583  0.54462583  0.62500000  1
  Ni  Ni43  1  0.79462583  0.95537417  0.37500000  1
  Ni  Ni44  1  0.12500000  0.00940812  0.25940812  1
  Ni  Ni45  1  0.37500000  0.99059188  0.75940812  1
  Ni  Ni46  1  0.87500000  0.50940812  0.24059188  1
  Ni  Ni47  1  0.25940812  0.12500000  0.00940812  1
  Ni  Ni48  1  0.75940812  0.37500000  0.99059188  1
  Ni  Ni49  1  0.62500000  0.49059188  0.74059188  1
  Ni  Ni50  1  0.74059188  0.62500000  0.49059188  1
  Ni  Ni51  1  0.24059188  0.87500000  0.50940812  1
  Ni  Ni52  1  0.00940812  0.25940812  0.12500000  1
  Ni  Ni53  1  0.50940812  0.24059188  0.87500000  1
  Ni  Ni54  1  0.49059188  0.74059188  0.62500000  1
  Ni  Ni55  1  0.99059188  0.75940812  0.37500000  1
  Cu  Cu56  1  0.12500000  0.94035849  0.19035849  1
  Cu  Cu57  1  0.37500000  0.05964151  0.69035849  1
  Cu  Cu58  1  0.87500000  0.44035849  0.30964151  1
  Cu  Cu59  1  0.19035849  0.12500000  0.94035849  1
  Cu  Cu60  1  0.69035849  0.37500000  0.05964151  1
  Cu  Cu61  1  0.62500000  0.55964151  0.80964151  1
  Cu  Cu62  1  0.80964151  0.62500000  0.55964151  1
  Cu  Cu63  1  0.30964151  0.87500000  0.44035849  1
  Cu  Cu64  1  0.94035849  0.19035849  0.12500000  1
  Cu  Cu65  1  0.44035849  0.30964151  0.87500000  1
  Cu  Cu66  1  0.55964151  0.80964151  0.62500000  1
  Cu  Cu67  1  0.05964151  0.69035849  0.37500000  1
  Cu  Cu68  1  0.02961268  0.37350199  0.45562258  1
  Cu  Cu69  1  0.47038732  0.62649801  0.95562258  1
  Cu  Cu70  1  0.97038732  0.87350199  0.04437742  1
  Cu  Cu71  1  0.45562258  0.02961268  0.37350199  1
  Cu  Cu72  1  0.12350199  0.27961268  0.79437742  1
  Cu  Cu73  1  0.52961268  0.12649801  0.54437742  1
  Cu  Cu74  1  0.95562258  0.47038732  0.62649801  1
  Cu  Cu75  1  0.37649801  0.72038732  0.29437742  1
  Cu  Cu76  1  0.04437742  0.97038732  0.87350199  1
  Cu  Cu77  1  0.62350199  0.22038732  0.20562258  1
  Cu  Cu78  1  0.54437742  0.52961268  0.12649801  1
  Cu  Cu79  1  0.87649801  0.77961268  0.70562258  1
  Cu  Cu80  1  0.37350199  0.45562258  0.02961268  1
  Cu  Cu81  1  0.77961268  0.70562258  0.87649801  1
  Cu  Cu82  1  0.87350199  0.04437742  0.97038732  1
  Cu  Cu83  1  0.72038732  0.29437742  0.37649801  1
  Cu  Cu84  1  0.12649801  0.54437742  0.52961268  1
  Cu  Cu85  1  0.27961268  0.79437742  0.12350199  1
  Cu  Cu86  1  0.62649801  0.95562258  0.47038732  1
  Cu  Cu87  1  0.22038732  0.20562258  0.62350199  1
  Cu  Cu88  1  0.79437742  0.12350199  0.27961268  1
  Cu  Cu89  1  0.29437742  0.37649801  0.72038732  1
  Cu  Cu90  1  0.70562258  0.87649801  0.77961268  1
  Cu  Cu91  1  0.20562258  0.62350199  0.22038732  1
  Cu  Cu92  1  0.09729282  0.46264077  0.33758181  1
  Cu  Cu93  1  0.40270718  0.53735923  0.83758181  1
  Cu  Cu94  1  0.90270718  0.96264077  0.16241819  1
  Cu  Cu95  1  0.33758181  0.09729282  0.46264077  1
  Cu  Cu96  1  0.21264077  0.34729282  0.91241819  1
  Cu  Cu97  1  0.59729282  0.03735923  0.66241819  1
  Cu  Cu98  1  0.83758181  0.40270718  0.53735923  1
  Cu  Cu99  1  0.28735923  0.65270718  0.41241819  1
  Cu  Cu100  1  0.16241819  0.90270718  0.96264077  1
  Cu  Cu101  1  0.71264077  0.15270718  0.08758181  1
  Cu  Cu102  1  0.66241819  0.59729282  0.03735923  1
  Cu  Cu103  1  0.78735923  0.84729282  0.58758181  1
  Cu  Cu104  1  0.46264077  0.33758181  0.09729282  1
  Cu  Cu105  1  0.84729282  0.58758181  0.78735923  1
  Cu  Cu106  1  0.96264077  0.16241819  0.90270718  1
  Cu  Cu107  1  0.65270718  0.41241819  0.28735923  1
  Cu  Cu108  1  0.03735923  0.66241819  0.59729282  1
  Cu  Cu109  1  0.34729282  0.91241819  0.21264077  1
  Cu  Cu110  1  0.53735923  0.83758181  0.40270718  1
  Cu  Cu111  1  0.15270718  0.08758181  0.71264077  1
  Cu  Cu112  1  0.91241819  0.21264077  0.34729282  1
  Cu  Cu113  1  0.41241819  0.28735923  0.65270718  1
  Cu  Cu114  1  0.58758181  0.78735923  0.84729282  1
  Cu  Cu115  1  0.08758181  0.71264077  0.15270718  1
  Cu  Cu116  1  0.15311766  0.31119055  0.36570063  1
  Cu  Cu117  1  0.34688234  0.68880945  0.86570063  1
  Cu  Cu118  1  0.84688234  0.81119055  0.13429937  1
  Cu  Cu119  1  0.36570063  0.15311766  0.31119055  1
  Cu  Cu120  1  0.06119055  0.40311766  0.88429937  1
  Cu  Cu121  1  0.65311766  0.18880945  0.63429937  1
  Cu  Cu122  1  0.86570063  0.34688234  0.68880945  1
  Cu  Cu123  1  0.43880945  0.59688234  0.38429937  1
  Cu  Cu124  1  0.13429937  0.84688234  0.81119055  1
  Cu  Cu125  1  0.56119055  0.09688234  0.11570063  1
  Cu  Cu126  1  0.63429937  0.65311766  0.18880945  1
  Cu  Cu127  1  0.93880945  0.90311766  0.61570063  1
  Cu  Cu128  1  0.31119055  0.36570063  0.15311766  1
  Cu  Cu129  1  0.90311766  0.61570063  0.93880945  1
  Cu  Cu130  1  0.81119055  0.13429937  0.84688234  1
  Cu  Cu131  1  0.59688234  0.38429937  0.43880945  1
  Cu  Cu132  1  0.18880945  0.63429937  0.65311766  1
  Cu  Cu133  1  0.40311766  0.88429937  0.06119055  1
  Cu  Cu134  1  0.68880945  0.86570063  0.34688234  1
  Cu  Cu135  1  0.09688234  0.11570063  0.56119055  1
  Cu  Cu136  1  0.88429937  0.06119055  0.40311766  1
  Cu  Cu137  1  0.38429937  0.43880945  0.59688234  1
  Cu  Cu138  1  0.61570063  0.93880945  0.90311766  1
  Cu  Cu139  1  0.11570063  0.56119055  0.09688234  1
  Cu  Cu140  1  0.08500532  0.09083945  0.23945057  1
  Cu  Cu141  1  0.41499468  0.90916055  0.73945057  1
  Cu  Cu142  1  0.91499468  0.59083945  0.26054943  1
  Cu  Cu143  1  0.23945057  0.08500532  0.09083945  1
  Cu  Cu144  1  0.84083945  0.33500532  0.01054943  1
  Cu  Cu145  1  0.58500532  0.40916055  0.76054943  1
  Cu  Cu146  1  0.73945057  0.41499468  0.90916055  1
  Cu  Cu147  1  0.65916055  0.66499468  0.51054943  1
  Cu  Cu148  1  0.26054943  0.91499468  0.59083945  1
  Cu  Cu149  1  0.34083945  0.16499468  0.98945057  1
  Cu  Cu150  1  0.76054943  0.58500532  0.40916055  1
  Cu  Cu151  1  0.15916055  0.83500532  0.48945057  1
  Cu  Cu152  1  0.09083945  0.23945057  0.08500532  1
  Cu  Cu153  1  0.83500532  0.48945057  0.15916055  1
  Cu  Cu154  1  0.59083945  0.26054943  0.91499468  1
  Cu  Cu155  1  0.66499468  0.51054943  0.65916055  1
  Cu  Cu156  1  0.40916055  0.76054943  0.58500532  1
  Cu  Cu157  1  0.33500532  0.01054943  0.84083945  1
  Cu  Cu158  1  0.90916055  0.73945057  0.41499468  1
  Cu  Cu159  1  0.16499468  0.98945057  0.34083945  1
  Cu  Cu160  1  0.01054943  0.84083945  0.33500532  1
  Cu  Cu161  1  0.51054943  0.65916055  0.66499468  1
  Cu  Cu162  1  0.48945057  0.15916055  0.83500532  1
  Cu  Cu163  1  0.98945057  0.34083945  0.16499468  1
