# generated using pymatgen
data_Cu4Ni2C7
_symmetry_space_group_name_H-M   'P 1'
_cell_length_a   10.99512482
_cell_length_b   14.11948071
_cell_length_c   19.05775934
_cell_angle_alpha   90.00000000
_cell_angle_beta   90.00000000
_cell_angle_gamma   90.00000000
_symmetry_Int_Tables_number   1
_chemical_formula_structural   Cu4Ni2C7
_chemical_formula_sum   'Cu64 Ni32 C112'
_cell_volume   2958.63047809
_cell_formula_units_Z   16
loop_
 _symmetry_equiv_pos_site_id
 _symmetry_equiv_pos_as_xyz
  1  'x, y, z'
loop_
 _atom_site_type_symbol
 _atom_site_label
 _atom_site_symmetry_multiplicity
 _atom_site_fract_x
 _atom_site_fract_y
 _atom_site_fract_z
 _atom_site_occupancy
  Ni  Ni0  1  0.98632797  0.74982495  0.75727226  1
  Ni  Ni1  1  0.51367203  0.25017505  0.25727226  1
  Ni  Ni2  1  0.48632797  0.75017505  0.24272774  1
  Ni  Ni3  1  0.01367203  0.24982495  0.74272774  1
  Ni  Ni4  1  0.01367203  0.25017505  0.24272774  1
  Ni  Ni5  1  0.48632797  0.74982495  0.74272774  1
  Ni  Ni6  1  0.51367203  0.24982495  0.75727226  1
  Ni  Ni7  1  0.98632797  0.75017505  0.25727226  1
  Ni  Ni8  1  0.98300575  0.48370025  0.75763043  1
  Ni  Ni9  1  0.51699425  0.51629975  0.25763043  1
  Ni  Ni10  1  0.48300575  0.01629975  0.24236957  1
  Ni  Ni11  1  0.01699425  0.98370025  0.74236957  1
  Ni  Ni12  1  0.01699425  0.51629975  0.24236957  1
  Ni  Ni13  1  0.48300575  0.48370025  0.74236957  1
  Ni  Ni14  1  0.51699425  0.98370025  0.75763043  1
  Ni  Ni15  1  0.98300575  0.01629975  0.25763043  1
  Ni  Ni16  1  0.75648471  0.77076949  0.49881766  1
  Ni  Ni17  1  0.74351529  0.22923051  0.99881766  1
  Ni  Ni18  1  0.25648471  0.72923051  0.50118234  1
  Ni  Ni19  1  0.24351529  0.27076949  0.00118234  1
  Ni  Ni20  1  0.24351529  0.22923051  0.50118234  1
  Ni  Ni21  1  0.25648471  0.77076949  0.00118234  1
  Ni  Ni22  1  0.74351529  0.27076949  0.49881766  1
  Ni  Ni23  1  0.75648471  0.72923051  0.99881766  1
  Ni  Ni24  1  0.25490075  0.00359168  0.99795878  1
  Ni  Ni25  1  0.24509925  0.99640832  0.49795878  1
  Ni  Ni26  1  0.75490075  0.49640832  0.00204122  1
  Ni  Ni27  1  0.74509925  0.50359168  0.50204122  1
  Ni  Ni28  1  0.74509925  0.99640832  0.00204122  1
  Ni  Ni29  1  0.75490075  0.00359168  0.50204122  1
  Ni  Ni30  1  0.24509925  0.50359168  0.99795878  1
  Ni  Ni31  1  0.25490075  0.49640832  0.49795878  1
  Cu  Cu32  1  0.00874870  0.61483889  0.41841787  1
  Cu  Cu33  1  0.49125130  0.38516111  0.91841787  1
  Cu  Cu34  1  0.50874870  0.88516111  0.58158213  1
  Cu  Cu35  1  0.99125130  0.11483889  0.08158213  1
  Cu  Cu36  1  0.99125130  0.38516111  0.58158213  1
  Cu  Cu37  1  0.50874870  0.61483889  0.08158213  1
  Cu  Cu38  1  0.49125130  0.11483889  0.41841787  1
  Cu  Cu39  1  0.00874870  0.88516111  0.91841787  1
  Cu  Cu40  1  0.00177477  0.37631961  0.41602376  1
  Cu  Cu41  1  0.49822523  0.62368039  0.91602376  1
  Cu  Cu42  1  0.50177477  0.12368039  0.58397624  1
  Cu  Cu43  1  0.99822523  0.87631961  0.08397624  1
  Cu  Cu44  1  0.99822523  0.62368039  0.58397624  1
  Cu  Cu45  1  0.50177477  0.37631961  0.08397624  1
  Cu  Cu46  1  0.49822523  0.87631961  0.41602376  1
  Cu  Cu47  1  0.00177477  0.12368039  0.91602376  1
  Cu  Cu48  1  0.22260317  0.60144012  0.67433805  1
  Cu  Cu49  1  0.27739683  0.39855988  0.17433805  1
  Cu  Cu50  1  0.72260317  0.89855988  0.32566195  1
  Cu  Cu51  1  0.77739683  0.10144012  0.82566195  1
  Cu  Cu52  1  0.77739683  0.39855988  0.32566195  1
  Cu  Cu53  1  0.72260317  0.60144012  0.82566195  1
  Cu  Cu54  1  0.27739683  0.10144012  0.67433805  1
  Cu  Cu55  1  0.22260317  0.89855988  0.17433805  1
  Cu  Cu56  1  0.75127822  0.37777775  0.67042909  1
  Cu  Cu57  1  0.74872178  0.62222225  0.17042909  1
  Cu  Cu58  1  0.25127822  0.12222225  0.32957091  1
  Cu  Cu59  1  0.24872178  0.87777775  0.82957091  1
  Cu  Cu60  1  0.24872178  0.62222225  0.32957091  1
  Cu  Cu61  1  0.25127822  0.37777775  0.82957091  1
  Cu  Cu62  1  0.74872178  0.87777775  0.67042909  1
  Cu  Cu63  1  0.75127822  0.12222225  0.17042909  1
  Cu  Cu64  1  0.24857597  0.87002566  0.33565611  1
  Cu  Cu65  1  0.25142403  0.12997434  0.83565611  1
  Cu  Cu66  1  0.74857597  0.62997434  0.66434389  1
  Cu  Cu67  1  0.75142403  0.37002566  0.16434389  1
  Cu  Cu68  1  0.75142403  0.12997434  0.66434389  1
  Cu  Cu69  1  0.74857597  0.87002566  0.16434389  1
  Cu  Cu70  1  0.25142403  0.37002566  0.33565611  1
  Cu  Cu71  1  0.24857597  0.62997434  0.83565611  1
  Cu  Cu72  1  0.74541645  0.84201554  0.83822156  1
  Cu  Cu73  1  0.75458355  0.15798446  0.33822156  1
  Cu  Cu74  1  0.24541645  0.65798446  0.16177844  1
  Cu  Cu75  1  0.25458355  0.34201554  0.66177844  1
  Cu  Cu76  1  0.25458355  0.15798446  0.16177844  1
  Cu  Cu77  1  0.24541645  0.84201554  0.66177844  1
  Cu  Cu78  1  0.75458355  0.34201554  0.83822156  1
  Cu  Cu79  1  0.74541645  0.65798446  0.33822156  1
  Cu  Cu80  1  0.49752871  0.35911979  0.59088225  1
  Cu  Cu81  1  0.00247129  0.64088021  0.09088225  1
  Cu  Cu82  1  0.99752871  0.14088021  0.40911775  1
  Cu  Cu83  1  0.50247129  0.85911979  0.90911775  1
  Cu  Cu84  1  0.50247129  0.64088021  0.40911775  1
  Cu  Cu85  1  0.99752871  0.35911979  0.90911775  1
  Cu  Cu86  1  0.00247129  0.85911979  0.59088225  1
  Cu  Cu87  1  0.49752871  0.14088021  0.09088225  1
  Cu  Cu88  1  0.51120720  0.63075875  0.58695542  1
  Cu  Cu89  1  0.98879280  0.36924125  0.08695542  1
  Cu  Cu90  1  0.01120720  0.86924125  0.41304458  1
  Cu  Cu91  1  0.48879280  0.13075875  0.91304458  1
  Cu  Cu92  1  0.48879280  0.36924125  0.41304458  1
  Cu  Cu93  1  0.01120720  0.63075875  0.91304458  1
  Cu  Cu94  1  0.98879280  0.13075875  0.58695542  1
  Cu  Cu95  1  0.51120720  0.86924125  0.08695542  1
  C  C96  1  0.46846574  0.87628130  0.71101578  1
  C  C97  1  0.03153426  0.12371870  0.21101578  1
  C  C98  1  0.96846574  0.62371870  0.28898422  1
  C  C99  1  0.53153426  0.37628130  0.78898422  1
  C  C100  1  0.53153426  0.12371870  0.28898422  1
  C  C101  1  0.96846574  0.87628130  0.78898422  1
  C  C102  1  0.03153426  0.37628130  0.71101578  1
  C  C103  1  0.46846574  0.62371870  0.21101578  1
  C  C104  1  0.41561885  0.76056842  0.82463620  1
  C  C105  1  0.08438115  0.23943158  0.32463620  1
  C  C106  1  0.91561885  0.73943158  0.17536380  1
  C  C107  1  0.58438115  0.26056842  0.67536380  1
  C  C108  1  0.58438115  0.23943158  0.17536380  1
  C  C109  1  0.91561885  0.76056842  0.67536380  1
  C  C110  1  0.08438115  0.26056842  0.82463620  1
  C  C111  1  0.41561885  0.73943158  0.32463620  1
  C  C112  1  0.09536033  0.19244257  0.67722594  1
  C  C113  1  0.40463967  0.80755743  0.17722594  1
  C  C114  1  0.59536033  0.30755743  0.32277406  1
  C  C115  1  0.90463967  0.69244257  0.82277406  1
  C  C116  1  0.90463967  0.80755743  0.32277406  1
  C  C117  1  0.59536033  0.19244257  0.82277406  1
  C  C118  1  0.40463967  0.69244257  0.67722594  1
  C  C119  1  0.09536033  0.30755743  0.17722594  1
  C  C120  1  0.35617738  0.23781114  0.75862462  1
  C  C121  1  0.14382262  0.76218886  0.25862462  1
  C  C122  1  0.85617738  0.26218886  0.24137538  1
  C  C123  1  0.64382262  0.73781114  0.74137538  1
  C  C124  1  0.64382262  0.76218886  0.24137538  1
  C  C125  1  0.85617738  0.23781114  0.74137538  1
  C  C126  1  0.14382262  0.73781114  0.75862462  1
  C  C127  1  0.35617738  0.26218886  0.25862462  1
  C  C128  1  0.56400152  0.49165443  0.66461031  1
  C  C129  1  0.93599848  0.50834557  0.16461031  1
  C  C130  1  0.06400152  0.00834557  0.33538969  1
  C  C131  1  0.43599848  0.99165443  0.83538969  1
  C  C132  1  0.43599848  0.50834557  0.33538969  1
  C  C133  1  0.06400152  0.49165443  0.83538969  1
  C  C134  1  0.93599848  0.99165443  0.66461031  1
  C  C135  1  0.56400152  0.00834557  0.16461031  1
  C  C136  1  0.82661415  0.47034900  0.77366344  1
  C  C137  1  0.67338585  0.52965100  0.27366344  1
  C  C138  1  0.32661415  0.02965100  0.22633656  1
  C  C139  1  0.17338585  0.97034900  0.72633656  1
  C  C140  1  0.17338585  0.52965100  0.22633656  1
  C  C141  1  0.32661415  0.47034900  0.72633656  1
  C  C142  1  0.67338585  0.97034900  0.77366344  1
  C  C143  1  0.82661415  0.02965100  0.27366344  1
  C  C144  1  0.32134163  0.50859346  0.91702598  1
  C  C145  1  0.17865837  0.49140654  0.41702598  1
  C  C146  1  0.82134163  0.99140654  0.08297402  1
  C  C147  1  0.67865837  0.00859346  0.58297402  1
  C  C148  1  0.67865837  0.49140654  0.08297402  1
  C  C149  1  0.82134163  0.50859346  0.58297402  1
  C  C150  1  0.17865837  0.00859346  0.91702598  1
  C  C151  1  0.32134163  0.99140654  0.41702598  1
  C  C152  1  0.16836698  0.11216898  0.50034760  1
  C  C153  1  0.33163302  0.88783102  0.00034760  1
  C  C154  1  0.66836698  0.38783102  0.49965240  1
  C  C155  1  0.83163302  0.61216898  0.99965240  1
  C  C156  1  0.83163302  0.88783102  0.49965240  1
  C  C157  1  0.66836698  0.11216898  0.99965240  1
  C  C158  1  0.33163302  0.61216898  0.50034760  1
  C  C159  1  0.16836698  0.38783102  0.00034760  1
  C  C160  1  0.83278197  0.26960546  0.57450301  1
  C  C161  1  0.66721803  0.73039454  0.07450301  1
  C  C162  1  0.33278197  0.23039454  0.42549699  1
  C  C163  1  0.16721803  0.76960546  0.92549699  1
  C  C164  1  0.16721803  0.73039454  0.42549699  1
  C  C165  1  0.33278197  0.26960546  0.92549699  1
  C  C166  1  0.66721803  0.76960546  0.57450301  1
  C  C167  1  0.83278197  0.23039454  0.07450301  1
  C  C168  1  0.87413263  0.69112074  0.49984894  1
  C  C169  1  0.62586737  0.30887926  0.99984894  1
  C  C170  1  0.37413263  0.80887926  0.50015106  1
  C  C171  1  0.12586737  0.19112074  0.00015106  1
  C  C172  1  0.12586737  0.30887926  0.50015106  1
  C  C173  1  0.37413263  0.69112074  0.00015106  1
  C  C174  1  0.62586737  0.19112074  0.49984894  1
  C  C175  1  0.87413263  0.80887926  0.99984894  1
  C  C176  1  0.67212482  0.73288456  0.92129802  1
  C  C177  1  0.82787518  0.26711544  0.42129802  1
  C  C178  1  0.17212482  0.76711544  0.07870198  1
  C  C179  1  0.32787518  0.23288456  0.57870198  1
  C  C180  1  0.32787518  0.26711544  0.07870198  1
  C  C181  1  0.17212482  0.73288456  0.57870198  1
  C  C182  1  0.82787518  0.23288456  0.92129802  1
  C  C183  1  0.67212482  0.76711544  0.42129802  1
  C  C184  1  0.84264362  0.99634124  0.93050539  1
  C  C185  1  0.65735638  0.00365876  0.43050539  1
  C  C186  1  0.34264362  0.50365876  0.06949461  1
  C  C187  1  0.15735638  0.49634124  0.56949461  1
  C  C188  1  0.15735638  0.00365876  0.06949461  1
  C  C189  1  0.34264362  0.99634124  0.56949461  1
  C  C190  1  0.65735638  0.49634124  0.93050539  1
  C  C191  1  0.84264362  0.50365876  0.43050539  1
  C  C192  1  0.37070986  0.41416453  0.50515402  1
  C  C193  1  0.12929014  0.58583547  0.00515402  1
  C  C194  1  0.87070986  0.08583547  0.49484598  1
  C  C195  1  0.62929014  0.91416453  0.99484598  1
  C  C196  1  0.62929014  0.58583547  0.49484598  1
  C  C197  1  0.87070986  0.41416453  0.99484598  1
  C  C198  1  0.12929014  0.91416453  0.50515402  1
  C  C199  1  0.37070986  0.08583547  0.00515402  1
  C  C200  1  0.98939187  0.08345169  0.79230727  1
  C  C201  1  0.51060813  0.91654831  0.29230727  1
  C  C202  1  0.48939187  0.41654831  0.20769273  1
  C  C203  1  0.01060813  0.58345169  0.70769273  1
  C  C204  1  0.01060813  0.91654831  0.20769273  1
  C  C205  1  0.48939187  0.08345169  0.70769273  1
  C  C206  1  0.51060813  0.58345169  0.79230727  1
  C  C207  1  0.98939187  0.41654831  0.29230727  1
