# generated using pymatgen
data_CuNi6C
_symmetry_space_group_name_H-M   'P 1'
_cell_length_a   5.26180100
_cell_length_b   6.52249200
_cell_length_c   11.00013000
_cell_angle_alpha   90.00000000
_cell_angle_beta   90.00000000
_cell_angle_gamma   90.00000000
_symmetry_Int_Tables_number   1
_chemical_formula_structural   CuNi6C
_chemical_formula_sum   'Cu2 Ni12 C2'
_cell_volume   377.52506582
_cell_formula_units_Z   2
loop_
 _symmetry_equiv_pos_site_id
 _symmetry_equiv_pos_as_xyz
  1  'x, y, z'
loop_
 _atom_site_type_symbol
 _atom_site_label
 _atom_site_symmetry_multiplicity
 _atom_site_fract_x
 _atom_site_fract_y
 _atom_site_fract_z
 _atom_site_occupancy
  Ni  Ni0  1  0.00000000  0.74969700  0.08371900  1
  Ni  Ni1  1  0.00000000  0.25030300  0.08371900  1
  Ni  Ni2  1  0.50000000  0.74958300  0.91726900  1
  Ni  Ni3  1  0.50000000  0.25041700  0.91726900  1
  Ni  Ni4  1  0.50000000  0.50000000  0.16610000  1
  Ni  Ni5  1  0.50000000  0.50000000  0.66636500  1
  Ni  Ni6  1  0.00000000  0.24969700  0.58371900  1
  Ni  Ni7  1  0.00000000  0.75030300  0.58371900  1
  Ni  Ni8  1  0.50000000  0.24958300  0.41726900  1
  Ni  Ni9  1  0.50000000  0.75041700  0.41726900  1
  Ni  Ni10  1  0.50000000  0.00000000  0.66610000  1
  Ni  Ni11  1  0.50000000  0.00000000  0.16636500  1
  Cu  Cu12  1  0.00000000  0.50000000  0.33277400  1
  Cu  Cu13  1  0.00000000  0.00000000  0.83277400  1
  C  C14  1  0.00000000  0.50000000  0.83278900  1
  C  C15  1  0.00000000  0.00000000  0.33278900  1
