# generated using pymatgen
data_CuNiC8
_symmetry_space_group_name_H-M   'P 1'
_cell_length_a   10.70726100
_cell_length_b   6.05096400
_cell_length_c   10.13950335
_cell_angle_alpha   86.42661451
_cell_angle_beta   90.00000000
_cell_angle_gamma   90.00000000
_symmetry_Int_Tables_number   1
_chemical_formula_structural   CuNiC8
_chemical_formula_sum   'Cu4 Ni4 C32'
_cell_volume   655.65361286
_cell_formula_units_Z   4
loop_
 _symmetry_equiv_pos_site_id
 _symmetry_equiv_pos_as_xyz
  1  'x, y, z'
loop_
 _atom_site_type_symbol
 _atom_site_label
 _atom_site_symmetry_multiplicity
 _atom_site_fract_x
 _atom_site_fract_y
 _atom_site_fract_z
 _atom_site_occupancy
  Ni  Ni0  1  0.32463500  0.73174600  0.49680600  1
  Ni  Ni1  1  0.82463500  0.26825400  0.00319400  1
  Ni  Ni2  1  0.67536500  0.26825400  0.50319400  1
  Ni  Ni3  1  0.17536500  0.73174600  0.99680600  1
  Cu  Cu4  1  0.40559800  0.31334800  0.82125800  1
  Cu  Cu5  1  0.90559800  0.68665200  0.67874200  1
  Cu  Cu6  1  0.09440200  0.31334800  0.32125800  1
  Cu  Cu7  1  0.59440200  0.68665200  0.17874200  1
  C  C8  1  0.60099600  0.78584800  0.80185500  1
  C  C9  1  0.39900400  0.21415200  0.19814500  1
  C  C10  1  0.89900400  0.78584800  0.30185500  1
  C  C11  1  0.10099600  0.21415200  0.69814500  1
  C  C12  1  0.43117200  0.91582500  0.11886300  1
  C  C13  1  0.07772600  0.64490400  0.41931300  1
  C  C14  1  0.74043900  0.48047600  0.76108800  1
  C  C15  1  0.25956100  0.51952400  0.23891200  1
  C  C16  1  0.48579700  0.02635900  0.36235500  1
  C  C17  1  0.78815800  0.75352200  0.48570500  1
  C  C18  1  0.76300600  0.95658200  0.73319500  1
  C  C19  1  0.98579700  0.97364100  0.13764500  1
  C  C20  1  0.42227400  0.64490400  0.91931300  1
  C  C21  1  0.24043900  0.51952400  0.73891200  1
  C  C22  1  0.06882800  0.91582500  0.61886300  1
  C  C23  1  0.56882800  0.08417500  0.88113700  1
  C  C24  1  0.26300600  0.04341800  0.76680500  1
  C  C25  1  0.99284100  0.52239500  0.85985100  1
  C  C26  1  0.51420300  0.97364100  0.63764500  1
  C  C27  1  0.01420300  0.02635900  0.86235500  1
  C  C28  1  0.23699400  0.04341800  0.26680500  1
  C  C29  1  0.93117200  0.08417500  0.38113700  1
  C  C30  1  0.49284100  0.47760500  0.64014900  1
  C  C31  1  0.92227400  0.35509600  0.58068700  1
  C  C32  1  0.00715900  0.47760500  0.14014900  1
  C  C33  1  0.73699400  0.95658200  0.23319500  1
  C  C34  1  0.50715900  0.52239500  0.35985100  1
  C  C35  1  0.28815800  0.24647800  0.01429500  1
  C  C36  1  0.21184200  0.24647800  0.51429500  1
  C  C37  1  0.71184200  0.75352200  0.98570500  1
  C  C38  1  0.57772600  0.35509600  0.08068700  1
  C  C39  1  0.75956100  0.48047600  0.26108800  1
