# generated using pymatgen
data_Cu10NiC
_symmetry_space_group_name_H-M   'P 1'
_cell_length_a   11.08323000
_cell_length_b   8.21366900
_cell_length_c   10.60019653
_cell_angle_alpha   56.21996562
_cell_angle_beta   90.00000000
_cell_angle_gamma   90.00000000
_symmetry_Int_Tables_number   1
_chemical_formula_structural   Cu10NiC
_chemical_formula_sum   'Cu40 Ni4 C4'
_cell_volume   802.06883252
_cell_formula_units_Z   4
loop_
 _symmetry_equiv_pos_site_id
 _symmetry_equiv_pos_as_xyz
  1  'x, y, z'
loop_
 _atom_site_type_symbol
 _atom_site_label
 _atom_site_symmetry_multiplicity
 _atom_site_fract_x
 _atom_site_fract_y
 _atom_site_fract_z
 _atom_site_occupancy
  C  C0  1  0.02415200  0.12940800  0.31535500  1
  C  C1  1  0.47584800  0.12940800  0.81535500  1
  C  C2  1  0.97584800  0.87059200  0.68464500  1
  C  C3  1  0.52415200  0.87059200  0.18464500  1
  Ni  Ni4  1  0.69602500  0.09709900  0.25606000  1
  Ni  Ni5  1  0.80397500  0.09709900  0.75606000  1
  Ni  Ni6  1  0.30397500  0.90290100  0.74394000  1
  Ni  Ni7  1  0.19602500  0.90290100  0.24394000  1
  Cu  Cu8  1  0.01010200  0.09732900  0.49961300  1
  Cu  Cu9  1  0.48989800  0.09732900  0.99961300  1
  Cu  Cu10  1  0.98989800  0.90267100  0.50038700  1
  Cu  Cu11  1  0.51010200  0.90267100  0.00038700  1
  Cu  Cu12  1  0.90068900  0.66240400  0.17468600  1
  Cu  Cu13  1  0.59931100  0.66240400  0.67468600  1
  Cu  Cu14  1  0.09931100  0.33759600  0.82531400  1
  Cu  Cu15  1  0.40068900  0.33759600  0.32531400  1
  Cu  Cu16  1  0.14537100  0.54551500  0.13596100  1
  Cu  Cu17  1  0.35462900  0.54551500  0.63596100  1
  Cu  Cu18  1  0.85462900  0.45448500  0.86403900  1
  Cu  Cu19  1  0.64537100  0.45448500  0.36403900  1
  Cu  Cu20  1  0.90307500  0.24683300  0.18690700  1
  Cu  Cu21  1  0.59692500  0.24683300  0.68690700  1
  Cu  Cu22  1  0.09692500  0.75316700  0.81309300  1
  Cu  Cu23  1  0.40307500  0.75316700  0.31309300  1
  Cu  Cu24  1  0.60592600  0.59667700  0.24389000  1
  Cu  Cu25  1  0.89407400  0.59667700  0.74389000  1
  Cu  Cu26  1  0.39407400  0.40332300  0.75611000  1
  Cu  Cu27  1  0.10592600  0.40332300  0.25611000  1
  Cu  Cu28  1  0.16427600  0.92387800  0.79144600  1
  Cu  Cu29  1  0.33572400  0.92387800  0.29144600  1
  Cu  Cu30  1  0.83572400  0.07612200  0.20855400  1
  Cu  Cu31  1  0.66427600  0.07612200  0.70855400  1
  Cu  Cu32  1  0.35719300  0.72667900  0.86840100  1
  Cu  Cu33  1  0.14280700  0.72667900  0.36840100  1
  Cu  Cu34  1  0.64280700  0.27332100  0.13159900  1
  Cu  Cu35  1  0.85719300  0.27332100  0.63159900  1
  Cu  Cu36  1  0.35067600  0.08653900  0.73487600  1
  Cu  Cu37  1  0.14932400  0.08653900  0.23487600  1
  Cu  Cu38  1  0.64932400  0.91346100  0.26512400  1
  Cu  Cu39  1  0.85067600  0.91346100  0.76512400  1
  Cu  Cu40  1  0.30102600  0.93695300  0.59571300  1
  Cu  Cu41  1  0.19897400  0.93695300  0.09571300  1
  Cu  Cu42  1  0.69897400  0.06304700  0.40428700  1
  Cu  Cu43  1  0.80102600  0.06304700  0.90428700  1
  Cu  Cu44  1  0.37837800  0.32958800  0.21514700  1
  Cu  Cu45  1  0.12162200  0.32958800  0.71514700  1
  Cu  Cu46  1  0.62162200  0.67041200  0.78485300  1
  Cu  Cu47  1  0.87837800  0.67041200  0.28485300  1
