# generated using pymatgen
data_Cu16Ni2C7
_symmetry_space_group_name_H-M   'P 1'
_cell_length_a   5.67717301
_cell_length_b   17.78872629
_cell_length_c   17.09792994
_cell_angle_alpha   116.97933524
_cell_angle_beta   89.99253398
_cell_angle_gamma   99.18232575
_symmetry_Int_Tables_number   1
_chemical_formula_structural   Cu16Ni2C7
_chemical_formula_sum   'Cu64 Ni8 C28'
_cell_volume   1513.94404368
_cell_formula_units_Z   4
loop_
 _symmetry_equiv_pos_site_id
 _symmetry_equiv_pos_as_xyz
  1  'x, y, z'
loop_
 _atom_site_type_symbol
 _atom_site_label
 _atom_site_symmetry_multiplicity
 _atom_site_fract_x
 _atom_site_fract_y
 _atom_site_fract_z
 _atom_site_occupancy
  C  C0  1  0.40088900  0.50000700  0.74995600  1
  C  C1  1  0.60402900  0.00004800  0.49984600  1
  C  C2  1  0.10393100  0.99991800  0.00011700  1
  C  C3  1  0.85356700  0.50002200  0.25000200  1
  C  C4  1  0.54127900  0.82986800  0.23845200  1
  C  C5  1  0.29151800  0.33029000  0.48954400  1
  C  C6  1  0.79069400  0.33004700  0.98871700  1
  C  C7  1  0.04132900  0.83139600  0.73837900  1
  C  C8  1  0.46117900  0.66965300  0.01041900  1
  C  C9  1  0.21133800  0.17013700  0.26154400  1
  C  C10  1  0.70978800  0.16860100  0.76164900  1
  C  C11  1  0.96068600  0.66994900  0.51130200  1
  C  C12  1  0.96718500  0.67506600  0.18346900  1
  C  C13  1  0.71712500  0.17526900  0.43362200  1
  C  C14  1  0.21685500  0.17531800  0.93406800  1
  C  C15  1  0.46646000  0.67625900  0.68448800  1
  C  C16  1  0.04184600  0.82469700  0.06637100  1
  C  C17  1  0.79211400  0.32492200  0.31653900  1
  C  C18  1  0.29018700  0.32373300  0.81551000  1
  C  C19  1  0.54166200  0.82468500  0.56593100  1
  C  C20  1  0.46528300  0.83578600  0.92189600  1
  C  C21  1  0.21490900  0.33565000  0.17196200  1
  C  C22  1  0.71738900  0.33304200  0.67179400  1
  C  C23  1  0.96512800  0.83544900  0.42156700  1
  C  C24  1  0.37936900  0.66440900  0.32805600  1
  C  C25  1  0.12939600  0.16418400  0.57806800  1
  C  C26  1  0.62950900  0.16452200  0.07839300  1
  C  C27  1  0.88435200  0.66696800  0.82819500  1
  Ni  Ni28  1  0.17097300  0.99162000  0.35302000  1
  Ni  Ni29  1  0.92076300  0.49272900  0.60680700  1
  Ni  Ni30  1  0.42087300  0.49155700  0.10298800  1
  Ni  Ni31  1  0.67121200  0.99167500  0.85317900  1
  Ni  Ni32  1  0.92800000  0.50729600  0.89321900  1
  Ni  Ni33  1  0.67965600  0.00837700  0.14694200  1
  Ni  Ni34  1  0.17984400  0.00831500  0.64679800  1
  Ni  Ni35  1  0.42921700  0.50845400  0.39701500  1
  Cu  Cu36  1  0.25578400  0.74953000  0.12463400  1
  Cu  Cu37  1  0.00615600  0.25048100  0.37541800  1
  Cu  Cu38  1  0.50512100  0.24937200  0.87520800  1
  Cu  Cu39  1  0.75584300  0.75066700  0.62484400  1
  Cu  Cu40  1  0.73550100  0.74948700  0.12450900  1
  Cu  Cu41  1  0.48589700  0.25045300  0.37545900  1
  Cu  Cu42  1  0.98545100  0.24971400  0.87511800  1
  Cu  Cu43  1  0.23581000  0.75025900  0.62488000  1
  Cu  Cu44  1  0.38880200  0.97554000  0.39009800  1
  Cu  Cu45  1  0.13793000  0.47888500  0.64517400  1
  Cu  Cu46  1  0.63915800  0.47560900  0.14000400  1
  Cu  Cu47  1  0.88926400  0.97569300  0.89020000  1
  Cu  Cu48  1  0.15894300  0.52115000  0.85480600  1
  Cu  Cu49  1  0.91373200  0.02450600  0.10997300  1
  Cu  Cu50  1  0.41406100  0.02424500  0.60982600  1
  Cu  Cu51  1  0.66342000  0.52440000  0.35997100  1
  Cu  Cu52  1  0.95256700  0.95936100  0.38648600  1
  Cu  Cu53  1  0.70080500  0.46103400  0.64135400  1
  Cu  Cu54  1  0.20289400  0.45941200  0.13675200  1
  Cu  Cu55  1  0.45295900  0.95946400  0.88669500  1
  Cu  Cu56  1  0.73973800  0.53906400  0.85878000  1
  Cu  Cu57  1  0.49357800  0.04053600  0.11336100  1
  Cu  Cu58  1  0.99389200  0.04046600  0.61317900  1
  Cu  Cu59  1  0.24338600  0.54064000  0.36332000  1
  Cu  Cu60  1  0.16053000  0.94445100  0.25639100  1
  Cu  Cu61  1  0.90589900  0.44347600  0.51011700  1
  Cu  Cu62  1  0.40976800  0.44424900  0.00638500  1
  Cu  Cu63  1  0.66066600  0.94447500  0.75650700  1
  Cu  Cu64  1  0.96247800  0.55649500  0.98991700  1
  Cu  Cu65  1  0.71602400  0.05560500  0.24358400  1
  Cu  Cu66  1  0.21626300  0.05558400  0.74346300  1
  Cu  Cu67  1  0.46543400  0.55571500  0.49362300  1
  Cu  Cu68  1  0.43927500  0.58620500  0.13586800  1
  Cu  Cu69  1  0.18953700  0.08630200  0.38606600  1
  Cu  Cu70  1  0.68961900  0.08632800  0.88612800  1
  Cu  Cu71  1  0.93430700  0.58702000  0.63742800  1
  Cu  Cu72  1  0.60377800  0.91369400  0.11392500  1
  Cu  Cu73  1  0.35295200  0.41380100  0.36410700  1
  Cu  Cu74  1  0.84719800  0.41300500  0.86257600  1
  Cu  Cu75  1  0.10357900  0.91366800  0.61389400  1
  Cu  Cu76  1  0.00817900  0.61544700  0.27769500  1
  Cu  Cu77  1  0.75794400  0.11550800  0.52769100  1
  Cu  Cu78  1  0.25851000  0.11541200  0.02802100  1
  Cu  Cu79  1  0.50901000  0.61916300  0.77968900  1
  Cu  Cu80  1  0.14251200  0.88445600  0.97230600  1
  Cu  Cu81  1  0.89264000  0.38459400  0.22235700  1
  Cu  Cu82  1  0.38990800  0.38091500  0.72041500  1
  Cu  Cu83  1  0.64320100  0.88455700  0.47193200  1
  Cu  Cu84  1  0.27014600  0.75840900  0.28614600  1
  Cu  Cu85  1  0.02035100  0.25834800  0.53639800  1
  Cu  Cu86  1  0.52022600  0.25862500  0.03669000  1
  Cu  Cu87  1  0.77073300  0.76055100  0.78663000  1
  Cu  Cu88  1  0.26208500  0.74160500  0.96359300  1
  Cu  Cu89  1  0.01171300  0.24158800  0.21385000  1
  Cu  Cu90  1  0.51025100  0.23946200  0.71339700  1
  Cu  Cu91  1  0.76169400  0.74134000  0.46328700  1
  Cu  Cu92  1  0.76793800  0.76241700  0.29015500  1
  Cu  Cu93  1  0.51787400  0.26214300  0.54042000  1
  Cu  Cu94  1  0.01743600  0.26270500  0.04071600  1
  Cu  Cu95  1  0.26626800  0.76356000  0.79069800  1
  Cu  Cu96  1  0.75568800  0.73787700  0.95958300  1
  Cu  Cu97  1  0.50552500  0.23756500  0.20984900  1
  Cu  Cu98  1  0.00270100  0.23642800  0.70932100  1
  Cu  Cu99  1  0.25478900  0.73736400  0.45931100  1
