# generated using pymatgen
data_CuNiC8
_symmetry_space_group_name_H-M   'P 1'
_cell_length_a   8.43264924
_cell_length_b   8.55523410
_cell_length_c   8.51000332
_cell_angle_alpha   90.00000000
_cell_angle_beta   90.00000000
_cell_angle_gamma   90.00000000
_symmetry_Int_Tables_number   1
_chemical_formula_structural   CuNiC8
_chemical_formula_sum   'Cu4 Ni4 C32'
_cell_volume   613.93962322
_cell_formula_units_Z   4
loop_
 _symmetry_equiv_pos_site_id
 _symmetry_equiv_pos_as_xyz
  1  'x, y, z'
loop_
 _atom_site_type_symbol
 _atom_site_label
 _atom_site_symmetry_multiplicity
 _atom_site_fract_x
 _atom_site_fract_y
 _atom_site_fract_z
 _atom_site_occupancy
  C  C0  1  0.50000000  0.00000000  0.50000000  1
  C  C1  1  0.50000000  0.50000000  -0.00000000  1
  C  C2  1  -0.00000000  0.50000000  0.00000000  1
  C  C3  1  -0.00000000  0.00000000  0.50000000  1
  Ni  Ni4  1  -0.00000000  0.50000000  0.50000000  1
  Ni  Ni5  1  0.50000000  0.00000000  0.00000000  1
  Ni  Ni6  1  -0.00000000  0.00000000  0.00000000  1
  Ni  Ni7  1  0.50000000  0.50000000  0.50000000  1
  Cu  Cu8  1  0.75000000  0.75000000  0.75000000  1
  Cu  Cu9  1  0.25000000  0.25000000  0.75000000  1
  Cu  Cu10  1  0.25000000  0.75000000  0.25000000  1
  Cu  Cu11  1  0.75000000  0.25000000  0.25000000  1
  C  C12  1  0.25000000  0.25000000  0.25000000  1
  C  C13  1  0.75000000  0.75000000  0.25000000  1
  C  C14  1  0.75000000  0.25000000  0.75000000  1
  C  C15  1  0.25000000  0.75000000  0.75000000  1
  C  C16  1  0.00850874  0.21450531  0.27500614  1
  C  C17  1  0.99149126  0.78549469  0.27500614  1
  C  C18  1  0.99149126  0.21450531  0.72499386  1
  C  C19  1  0.00850874  0.78549469  0.72499386  1
  C  C20  1  0.28185650  0.01113790  0.19242034  1
  C  C21  1  0.28185650  0.98886210  0.80757966  1
  C  C22  1  0.71814350  0.98886210  0.19242034  1
  C  C23  1  0.71814350  0.01113790  0.80757966  1
  C  C24  1  0.21097100  0.26251091  0.00767860  1
  C  C25  1  0.78902900  0.26251091  0.99232140  1
  C  C26  1  0.21097100  0.73748909  0.99232140  1
  C  C27  1  0.78902900  0.73748909  0.00767860  1
  C  C28  1  0.49149126  0.28549469  0.22499386  1
  C  C29  1  0.50850874  0.71450531  0.22499386  1
  C  C30  1  0.50850874  0.28549469  0.77500614  1
  C  C31  1  0.49149126  0.71450531  0.77500614  1
  C  C32  1  0.21814350  0.48886210  0.30757966  1
  C  C33  1  0.21814350  0.51113790  0.69242034  1
  C  C34  1  0.78185650  0.51113790  0.30757966  1
  C  C35  1  0.78185650  0.48886210  0.69242034  1
  C  C36  1  0.28902900  0.23748909  0.49232140  1
  C  C37  1  0.71097100  0.23748909  0.50767860  1
  C  C38  1  0.28902900  0.76251091  0.50767860  1
  C  C39  1  0.71097100  0.76251091  0.49232140  1
