# generated using pymatgen
data_Cu2NiC6
_symmetry_space_group_name_H-M   'P 1'
_cell_length_a   2.89998600
_cell_length_b   5.39379600
_cell_length_c   18.30942815
_cell_angle_alpha   89.95305729
_cell_angle_beta   90.00000000
_cell_angle_gamma   90.00000000
_symmetry_Int_Tables_number   1
_chemical_formula_structural   Cu2NiC6
_chemical_formula_sum   'Cu4 Ni2 C12'
_cell_volume   286.39475012
_cell_formula_units_Z   2
loop_
 _symmetry_equiv_pos_site_id
 _symmetry_equiv_pos_as_xyz
  1  'x, y, z'
loop_
 _atom_site_type_symbol
 _atom_site_label
 _atom_site_symmetry_multiplicity
 _atom_site_fract_x
 _atom_site_fract_y
 _atom_site_fract_z
 _atom_site_occupancy
  Ni  Ni0  1  0.50000000  0.49991700  0.66695500  1
  Ni  Ni1  1  0.50000000  0.50008300  0.33304500  1
  Cu  Cu2  1  0.50000000  0.50000000  0.00000000  1
  Cu  Cu3  1  0.00000000  0.00162000  0.83605300  1
  Cu  Cu4  1  0.00000000  0.00000000  0.50000000  1
  Cu  Cu5  1  0.00000000  0.99838000  0.16394700  1
  C  C6  1  0.50000000  0.31611600  0.79153500  1
  C  C7  1  0.50000000  0.31653800  0.45695800  1
  C  C8  1  0.50000000  0.32063900  0.11929600  1
  C  C9  1  0.50000000  0.68346200  0.54304200  1
  C  C10  1  0.50000000  0.68388400  0.20846500  1
  C  C11  1  0.50000000  0.67936100  0.88070400  1
  C  C12  1  0.00000000  0.83210200  0.71581600  1
  C  C13  1  0.00000000  0.83251800  0.38133600  1
  C  C14  1  0.00000000  0.81978600  0.04548400  1
  C  C15  1  0.00000000  0.16748200  0.61866400  1
  C  C16  1  0.00000000  0.16789800  0.28418400  1
  C  C17  1  0.00000000  0.18021400  0.95451600  1
