# generated using pymatgen
data_Cu2Ni7C12
_symmetry_space_group_name_H-M   'P 1'
_cell_length_a   6.02540594
_cell_length_b   6.02540594
_cell_length_c   13.47146446
_cell_angle_alpha   77.56546009
_cell_angle_beta   77.56546009
_cell_angle_gamma   89.95040450
_symmetry_Int_Tables_number   1
_chemical_formula_structural   Cu2Ni7C12
_chemical_formula_sum   'Cu4 Ni14 C24'
_cell_volume   465.88100211
_cell_formula_units_Z   2
loop_
 _symmetry_equiv_pos_site_id
 _symmetry_equiv_pos_as_xyz
  1  'x, y, z'
loop_
 _atom_site_type_symbol
 _atom_site_label
 _atom_site_symmetry_multiplicity
 _atom_site_fract_x
 _atom_site_fract_y
 _atom_site_fract_z
 _atom_site_occupancy
  Ni  Ni0  1  0.28858000  0.04030400  0.41681700  1
  Ni  Ni1  1  0.95969600  0.71142000  0.08318300  1
  Ni  Ni2  1  0.62630100  0.37369900  0.75000000  1
  Ni  Ni3  1  0.04030400  0.28858000  0.91681700  1
  Ni  Ni4  1  0.71142000  0.95969600  0.58318300  1
  Ni  Ni5  1  0.37369900  0.62630100  0.25000000  1
  Ni  Ni6  1  0.50000000  0.50000000  0.00000000  1
  Ni  Ni7  1  0.50000000  0.50000000  0.50000000  1
  Ni  Ni8  1  0.00000000  0.50000000  0.50000000  1
  Ni  Ni9  1  0.67040900  0.16554700  0.17165100  1
  Ni  Ni10  1  0.32959100  0.83445300  0.82834900  1
  Ni  Ni11  1  0.16554700  0.67040900  0.67165100  1
  Ni  Ni12  1  0.83445300  0.32959100  0.32834900  1
  Ni  Ni13  1  0.50000000  0.00000000  0.00000000  1
  Cu  Cu14  1  0.16510000  0.16954800  0.66641600  1
  Cu  Cu15  1  0.83490000  0.83045200  0.33358400  1
  Cu  Cu16  1  0.16954800  0.16510000  0.16641600  1
  Cu  Cu17  1  0.83045200  0.83490000  0.83358400  1
  C  C18  1  0.08422700  0.59024800  0.83183700  1
  C  C19  1  0.75183700  0.26939100  0.49657500  1
  C  C20  1  0.42400600  0.92852800  0.16014100  1
  C  C21  1  0.40975200  0.91577300  0.66816300  1
  C  C22  1  0.07147200  0.57599400  0.33985900  1
  C  C23  1  0.73060900  0.24816300  0.00342500  1
  C  C24  1  0.92839300  0.91384700  0.66842000  1
  C  C25  1  0.58940500  0.57462500  0.34011500  1
  C  C26  1  0.26979400  0.25055800  0.00107200  1
  C  C27  1  0.08615300  0.07160700  0.83158000  1
  C  C28  1  0.74944200  0.73020600  0.49892800  1
  C  C29  1  0.42537500  0.41059500  0.15988500  1
  C  C30  1  0.24816300  0.73060900  0.50342500  1
  C  C31  1  0.91577300  0.40975200  0.16816300  1
  C  C32  1  0.57599400  0.07147200  0.83985900  1
  C  C33  1  0.92852800  0.42400600  0.66014100  1
  C  C34  1  0.59024800  0.08422700  0.33183700  1
  C  C35  1  0.26939100  0.75183700  0.99657500  1
  C  C36  1  0.41059500  0.42537500  0.65988500  1
  C  C37  1  0.07160700  0.08615300  0.33158000  1
  C  C38  1  0.73020600  0.74944200  0.99892800  1
  C  C39  1  0.25055800  0.26979400  0.50107200  1
  C  C40  1  0.91384700  0.92839300  0.16842000  1
  C  C41  1  0.57462500  0.58940500  0.84011500  1
