# generated using pymatgen
data_CuNiC3
_symmetry_space_group_name_H-M   'P 1'
_cell_length_a   5.33113100
_cell_length_b   8.92094000
_cell_length_c   18.70779200
_cell_angle_alpha   90.00000000
_cell_angle_beta   90.00000000
_cell_angle_gamma   90.00000000
_symmetry_Int_Tables_number   1
_chemical_formula_structural   CuNiC3
_chemical_formula_sum   'Cu16 Ni16 C48'
_cell_volume   889.71826333
_cell_formula_units_Z   16
loop_
 _symmetry_equiv_pos_site_id
 _symmetry_equiv_pos_as_xyz
  1  'x, y, z'
loop_
 _atom_site_type_symbol
 _atom_site_label
 _atom_site_symmetry_multiplicity
 _atom_site_fract_x
 _atom_site_fract_y
 _atom_site_fract_z
 _atom_site_occupancy
  Ni  Ni0  1  0.09720500  0.10135000  0.68657200  1
  Ni  Ni1  1  0.90279500  0.89865000  0.18657200  1
  Ni  Ni2  1  0.40279500  0.10135000  0.18657200  1
  Ni  Ni3  1  0.59720500  0.89865000  0.68657200  1
  Ni  Ni4  1  0.09509200  0.74341300  0.68869700  1
  Ni  Ni5  1  0.90490800  0.25658700  0.18869700  1
  Ni  Ni6  1  0.40490800  0.74341300  0.18869700  1
  Ni  Ni7  1  0.59509200  0.25658700  0.68869700  1
  Ni  Ni8  1  0.96483700  0.40013400  0.93814500  1
  Ni  Ni9  1  0.03516300  0.59986600  0.43814500  1
  Ni  Ni10  1  0.53516300  0.40013400  0.43814500  1
  Ni  Ni11  1  0.46483700  0.59986600  0.93814500  1
  Ni  Ni12  1  0.46558000  0.24104100  0.93676400  1
  Ni  Ni13  1  0.53442000  0.75895900  0.43676400  1
  Ni  Ni14  1  0.03442000  0.24104100  0.43676400  1
  Ni  Ni15  1  0.96558000  0.75895900  0.93676400  1
  Cu  Cu16  1  0.56953300  0.91142400  0.03937900  1
  Cu  Cu17  1  0.43046700  0.08857600  0.53937900  1
  Cu  Cu18  1  0.93046700  0.91142400  0.53937900  1
  Cu  Cu19  1  0.06953300  0.08857600  0.03937900  1
  Cu  Cu20  1  0.62353900  0.41197300  0.08386800  1
  Cu  Cu21  1  0.37646100  0.58802700  0.58386800  1
  Cu  Cu22  1  0.87646100  0.41197300  0.58386800  1
  Cu  Cu23  1  0.12353900  0.58802700  0.08386800  1
  Cu  Cu24  1  0.76839400  0.08918200  0.83502200  1
  Cu  Cu25  1  0.23160600  0.91081800  0.33502200  1
  Cu  Cu26  1  0.73160600  0.08918200  0.33502200  1
  Cu  Cu27  1  0.26839400  0.91081800  0.83502200  1
  Cu  Cu28  1  0.29976200  0.41093500  0.79149200  1
  Cu  Cu29  1  0.70023800  0.58906500  0.29149200  1
  Cu  Cu30  1  0.20023800  0.41093500  0.29149200  1
  Cu  Cu31  1  0.79976200  0.58906500  0.79149200  1
  C  C32  1  0.57347400  0.90781900  0.12711700  1
  C  C33  1  0.42652600  0.09218100  0.62711700  1
  C  C34  1  0.92652600  0.90781900  0.62711700  1
  C  C35  1  0.07347400  0.09218100  0.12711700  1
  C  C36  1  0.65187700  0.76152200  0.99698900  1
  C  C37  1  0.34812300  0.23847800  0.49698900  1
  C  C38  1  0.84812300  0.76152200  0.49698900  1
  C  C39  1  0.15187700  0.23847800  0.99698900  1
  C  C40  1  0.78020900  0.04028600  0.01311400  1
  C  C41  1  0.21979100  0.95971400  0.51311400  1
  C  C42  1  0.71979100  0.04028600  0.51311400  1
  C  C43  1  0.28020900  0.95971400  0.01311400  1
  C  C44  1  0.62724800  0.40881800  0.99656800  1
  C  C45  1  0.37275200  0.59118200  0.49656800  1
  C  C46  1  0.87275200  0.40881800  0.49656800  1
  C  C47  1  0.12724800  0.59118200  0.99656800  1
  C  C48  1  0.41365500  0.53866100  0.11050100  1
  C  C49  1  0.58634500  0.46133900  0.61050100  1
  C  C50  1  0.08634500  0.53866100  0.61050100  1
  C  C51  1  0.91365500  0.46133900  0.11050100  1
  C  C52  1  0.08911000  0.74013000  0.12845700  1
  C  C53  1  0.91089000  0.25987000  0.62845700  1
  C  C54  1  0.41089000  0.74013000  0.62845700  1
  C  C55  1  0.58911000  0.25987000  0.12845700  1
  C  C56  1  0.77173000  0.08927900  0.74778100  1
  C  C57  1  0.22827000  0.91072100  0.24778100  1
  C  C58  1  0.72827000  0.08927900  0.24778100  1
  C  C59  1  0.27173000  0.91072100  0.74778100  1
  C  C60  1  0.28529200  0.75296800  0.87592300  1
  C  C61  1  0.71470800  0.24703200  0.37592300  1
  C  C62  1  0.21470800  0.75296800  0.37592300  1
  C  C63  1  0.78529200  0.24703200  0.87592300  1
  C  C64  1  0.48664800  0.03008800  0.86488700  1
  C  C65  1  0.51335200  0.96991200  0.36488700  1
  C  C66  1  0.01335200  0.03008800  0.36488700  1
  C  C67  1  0.98664800  0.96991200  0.86488700  1
  C  C68  1  0.29324700  0.40827700  0.87860200  1
  C  C69  1  0.70675300  0.59172300  0.37860200  1
  C  C70  1  0.20675300  0.40827700  0.37860200  1
  C  C71  1  0.79324700  0.59172300  0.87860200  1
  C  C72  1  0.27872400  0.25511100  0.74881000  1
  C  C73  1  0.72127600  0.74488900  0.24881000  1
  C  C74  1  0.22127600  0.25511100  0.24881000  1
  C  C75  1  0.77872400  0.74488900  0.74881000  1
  C  C76  1  0.58319100  0.46820000  0.76331200  1
  C  C77  1  0.41680900  0.53180000  0.26331200  1
  C  C78  1  0.91680900  0.46820000  0.26331200  1
  C  C79  1  0.08319100  0.53180000  0.76331200  1
