# generated using pymatgen
data_Cu3(NiC2)2
_symmetry_space_group_name_H-M   'P 1'
_cell_length_a   7.16037600
_cell_length_b   7.46246900
_cell_length_c   14.14110400
_cell_angle_alpha   90.00000000
_cell_angle_beta   90.00000000
_cell_angle_gamma   90.00000000
_symmetry_Int_Tables_number   1
_chemical_formula_structural   Cu3(NiC2)2
_chemical_formula_sum   'Cu12 Ni8 C16'
_cell_volume   755.61693798
_cell_formula_units_Z   4
loop_
 _symmetry_equiv_pos_site_id
 _symmetry_equiv_pos_as_xyz
  1  'x, y, z'
loop_
 _atom_site_type_symbol
 _atom_site_label
 _atom_site_symmetry_multiplicity
 _atom_site_fract_x
 _atom_site_fract_y
 _atom_site_fract_z
 _atom_site_occupancy
  Ni  Ni0  1  0.01118900  0.17309000  0.09744900  1
  Ni  Ni1  1  0.98881100  0.82691000  0.90255100  1
  Ni  Ni2  1  0.48881100  0.67309000  0.90255100  1
  Ni  Ni3  1  0.98881100  0.82691000  0.59744900  1
  Ni  Ni4  1  0.51118900  0.32691000  0.09744900  1
  Ni  Ni5  1  0.01118900  0.17309000  0.40255100  1
  Ni  Ni6  1  0.51118900  0.32691000  0.40255100  1
  Ni  Ni7  1  0.48881100  0.67309000  0.59744900  1
  Cu  Cu8  1  0.16061500  0.50124300  0.75000000  1
  Cu  Cu9  1  0.83938500  0.49875700  0.25000000  1
  Cu  Cu10  1  0.33938500  0.00124300  0.25000000  1
  Cu  Cu11  1  0.66061500  0.99875700  0.75000000  1
  Cu  Cu12  1  0.32919600  0.17609800  0.62518100  1
  Cu  Cu13  1  0.67080400  0.82390200  0.37481900  1
  Cu  Cu14  1  0.17080400  0.67609800  0.37481900  1
  Cu  Cu15  1  0.67080400  0.82390200  0.12518100  1
  Cu  Cu16  1  0.82919600  0.32390200  0.62518100  1
  Cu  Cu17  1  0.32919600  0.17609800  0.87481900  1
  Cu  Cu18  1  0.82919600  0.32390200  0.87481900  1
  Cu  Cu19  1  0.17080400  0.67609800  0.12518100  1
  C  C20  1  0.03287600  0.12299300  0.75000000  1
  C  C21  1  0.96712400  0.87700700  0.25000000  1
  C  C22  1  0.46712400  0.62299300  0.25000000  1
  C  C23  1  0.53287600  0.37700700  0.75000000  1
  C  C24  1  0.28726700  0.87964900  0.75000000  1
  C  C25  1  0.71273300  0.12035100  0.25000000  1
  C  C26  1  0.21273300  0.37964900  0.25000000  1
  C  C27  1  0.78726700  0.62035100  0.75000000  1
  C  C28  1  0.15388800  0.46343200  0.53933500  1
  C  C29  1  0.84611200  0.53656800  0.46066500  1
  C  C30  1  0.34611200  0.96343200  0.46066500  1
  C  C31  1  0.84611200  0.53656800  0.03933500  1
  C  C32  1  0.65388800  0.03656800  0.53933500  1
  C  C33  1  0.15388800  0.46343200  0.96066500  1
  C  C34  1  0.65388800  0.03656800  0.96066500  1
  C  C35  1  0.34611200  0.96343200  0.03933500  1
