# generated using pymatgen
data_Cu(NiC3)2
_symmetry_space_group_name_H-M   'P 1'
_cell_length_a   6.65086200
_cell_length_b   7.50436500
_cell_length_c   9.55731500
_cell_angle_alpha   90.00000000
_cell_angle_beta   90.00000000
_cell_angle_gamma   90.00000000
_symmetry_Int_Tables_number   1
_chemical_formula_structural   Cu(NiC3)2
_chemical_formula_sum   'Cu4 Ni8 C24'
_cell_volume   477.01033220
_cell_formula_units_Z   4
loop_
 _symmetry_equiv_pos_site_id
 _symmetry_equiv_pos_as_xyz
  1  'x, y, z'
loop_
 _atom_site_type_symbol
 _atom_site_label
 _atom_site_symmetry_multiplicity
 _atom_site_fract_x
 _atom_site_fract_y
 _atom_site_fract_z
 _atom_site_occupancy
  Ni  Ni0  1  0.87543400  0.03720200  0.82514700  1
  Ni  Ni1  1  0.12456600  0.96279800  0.17485300  1
  Ni  Ni2  1  0.37543400  0.96279800  0.67485300  1
  Ni  Ni3  1  0.12456600  0.53720200  0.17485300  1
  Ni  Ni4  1  0.62456600  0.03720200  0.32514700  1
  Ni  Ni5  1  0.87543400  0.46279800  0.82514700  1
  Ni  Ni6  1  0.62456600  0.46279800  0.32514700  1
  Ni  Ni7  1  0.37543400  0.53720200  0.67485300  1
  Cu  Cu8  1  0.87700400  0.75000000  0.54322100  1
  Cu  Cu9  1  0.12299600  0.25000000  0.45677900  1
  Cu  Cu10  1  0.37700400  0.25000000  0.95677900  1
  Cu  Cu11  1  0.62299600  0.75000000  0.04322100  1
  C  C12  1  0.17958300  0.75000000  0.90805200  1
  C  C13  1  0.82041700  0.25000000  0.09194800  1
  C  C14  1  0.67958300  0.25000000  0.59194800  1
  C  C15  1  0.32041700  0.75000000  0.40805200  1
  C  C16  1  0.10751300  0.75000000  0.74320600  1
  C  C17  1  0.89248700  0.25000000  0.25679400  1
  C  C18  1  0.60751300  0.25000000  0.75679400  1
  C  C19  1  0.39248700  0.75000000  0.24320600  1
  C  C20  1  0.82425700  0.07486100  0.56197200  1
  C  C21  1  0.17574300  0.92513900  0.43802800  1
  C  C22  1  0.32425700  0.92513900  0.93802800  1
  C  C23  1  0.17574300  0.57486100  0.43802800  1
  C  C24  1  0.67574300  0.07486100  0.06197200  1
  C  C25  1  0.82425700  0.42513900  0.56197200  1
  C  C26  1  0.67574300  0.42513900  0.06197200  1
  C  C27  1  0.32425700  0.57486100  0.93802800  1
  C  C28  1  0.71509100  0.75000000  0.78500300  1
  C  C29  1  0.28490900  0.25000000  0.21499700  1
  C  C30  1  0.21509100  0.25000000  0.71499700  1
  C  C31  1  0.78490900  0.75000000  0.28500300  1
  C  C32  1  0.51346600  0.75000000  0.51419300  1
  C  C33  1  0.48653400  0.25000000  0.48580700  1
  C  C34  1  0.01346600  0.25000000  0.98580700  1
  C  C35  1  0.98653400  0.75000000  0.01419300  1
