# generated using pymatgen
data_CuNi13C6
_symmetry_space_group_name_H-M   'P 1'
_cell_length_a   8.02182900
_cell_length_b   8.02182900
_cell_length_c   12.86465358
_cell_angle_alpha   108.16640922
_cell_angle_beta   108.16640922
_cell_angle_gamma   90.00000000
_symmetry_Int_Tables_number   1
_chemical_formula_structural   CuNi13C6
_chemical_formula_sum   'Cu2 Ni26 C12'
_cell_volume   743.02200071
_cell_formula_units_Z   2
loop_
 _symmetry_equiv_pos_site_id
 _symmetry_equiv_pos_as_xyz
  1  'x, y, z'
loop_
 _atom_site_type_symbol
 _atom_site_label
 _atom_site_symmetry_multiplicity
 _atom_site_fract_x
 _atom_site_fract_y
 _atom_site_fract_z
 _atom_site_occupancy
  C  C0  1  0.39163000  0.39163000  0.78326000  1
  C  C1  1  0.89163000  0.89163000  0.78326000  1
  C  C2  1  0.60837000  0.60837000  0.21674000  1
  C  C3  1  0.10837000  0.10837000  0.21674000  1
  C  C4  1  0.97725200  0.47725200  0.62257100  1
  C  C5  1  0.64531900  0.14531900  0.62257100  1
  C  C6  1  0.14531900  0.97725200  0.62257100  1
  C  C7  1  0.47725200  0.64531900  0.62257100  1
  C  C8  1  0.02274800  0.52274800  0.37742900  1
  C  C9  1  0.35468100  0.85468100  0.37742900  1
  C  C10  1  0.85468100  0.02274800  0.37742900  1
  C  C11  1  0.52274800  0.35468100  0.37742900  1
  Ni  Ni12  1  0.70898400  0.56509900  0.00000000  1
  Ni  Ni13  1  0.29101600  0.43490100  0.00000000  1
  Ni  Ni14  1  0.79101600  0.06509900  0.00000000  1
  Ni  Ni15  1  0.20898400  0.93490100  0.00000000  1
  Ni  Ni16  1  0.56509900  0.29101600  0.00000000  1
  Ni  Ni17  1  0.43490100  0.70898400  0.00000000  1
  Ni  Ni18  1  0.06509900  0.20898400  0.00000000  1
  Ni  Ni19  1  0.93490100  0.79101600  0.00000000  1
  Ni  Ni20  1  0.11897000  0.61897000  0.87930200  1
  Ni  Ni21  1  0.76033300  0.26033300  0.87930200  1
  Ni  Ni22  1  0.26033300  0.11897000  0.87930200  1
  Ni  Ni23  1  0.61897000  0.76033300  0.87930200  1
  Ni  Ni24  1  0.88103000  0.38103000  0.12069800  1
  Ni  Ni25  1  0.23966700  0.73966700  0.12069800  1
  Ni  Ni26  1  0.73966700  0.88103000  0.12069800  1
  Ni  Ni27  1  0.38103000  0.23966700  0.12069800  1
  Ni  Ni28  1  0.29128800  0.79128800  0.80934600  1
  Ni  Ni29  1  0.51805800  0.01805800  0.80934600  1
  Ni  Ni30  1  0.01805800  0.29128800  0.80934600  1
  Ni  Ni31  1  0.79128800  0.51805800  0.80934600  1
  Ni  Ni32  1  0.70871200  0.20871200  0.19065400  1
  Ni  Ni33  1  0.48194200  0.98194200  0.19065400  1
  Ni  Ni34  1  0.98194200  0.70871200  0.19065400  1
  Ni  Ni35  1  0.20871200  0.48194200  0.19065400  1
  Ni  Ni36  1  0.00000000  0.50000000  0.00000000  1
  Ni  Ni37  1  0.50000000  0.00000000  0.00000000  1
  Cu  Cu38  1  0.25000000  0.25000000  0.50000000  1
  Cu  Cu39  1  0.75000000  0.75000000  0.50000000  1
