# generated using pymatgen
data_Cu(NiC8)3
_symmetry_space_group_name_H-M   'P 1'
_cell_length_a   10.41161867
_cell_length_b   14.10127936
_cell_length_c   17.23973636
_cell_angle_alpha   90.00000000
_cell_angle_beta   90.00000000
_cell_angle_gamma   90.00000000
_symmetry_Int_Tables_number   1
_chemical_formula_structural   Cu(NiC8)3
_chemical_formula_sum   'Cu8 Ni24 C192'
_cell_volume   2531.08884630
_cell_formula_units_Z   8
loop_
 _symmetry_equiv_pos_site_id
 _symmetry_equiv_pos_as_xyz
  1  'x, y, z'
loop_
 _atom_site_type_symbol
 _atom_site_label
 _atom_site_symmetry_multiplicity
 _atom_site_fract_x
 _atom_site_fract_y
 _atom_site_fract_z
 _atom_site_occupancy
  C  C0  1  0.83054901  0.02236992  0.19776906  1
  C  C1  1  0.33054901  0.97763008  0.30223094  1
  C  C2  1  0.16945099  0.47763008  0.69776906  1
  C  C3  1  0.66945099  0.52236992  0.80223094  1
  C  C4  1  0.16945099  0.97763008  0.80223094  1
  C  C5  1  0.66945099  0.02236992  0.69776906  1
  C  C6  1  0.83054901  0.52236992  0.30223094  1
  C  C7  1  0.33054901  0.47763008  0.19776906  1
  C  C8  1  0.87416005  0.93704252  0.39314369  1
  C  C9  1  0.37416005  0.06295748  0.10685631  1
  C  C10  1  0.12583995  0.56295748  0.89314369  1
  C  C11  1  0.62583995  0.43704252  0.60685631  1
  C  C12  1  0.12583995  0.06295748  0.60685631  1
  C  C13  1  0.62583995  0.93704252  0.89314369  1
  C  C14  1  0.87416005  0.43704252  0.10685631  1
  C  C15  1  0.37416005  0.56295748  0.39314369  1
  C  C16  1  0.62151200  0.25778039  0.30736501  1
  C  C17  1  0.12151200  0.74221961  0.19263499  1
  C  C18  1  0.37848800  0.24221961  0.80736501  1
  C  C19  1  0.87848800  0.75778039  0.69263499  1
  C  C20  1  0.37848800  0.74221961  0.69263499  1
  C  C21  1  0.87848800  0.25778039  0.80736501  1
  C  C22  1  0.62151200  0.75778039  0.19263499  1
  C  C23  1  0.12151200  0.24221961  0.30736501  1
  Ni  Ni24  1  0.86723347  0.24667741  0.20339081  1
  Ni  Ni25  1  0.36723347  0.75332259  0.29660919  1
  Ni  Ni26  1  0.13276653  0.25332259  0.70339081  1
  Ni  Ni27  1  0.63276653  0.74667741  0.79660919  1
  Ni  Ni28  1  0.13276653  0.75332259  0.79660919  1
  Ni  Ni29  1  0.63276653  0.24667741  0.70339081  1
  Ni  Ni30  1  0.86723347  0.74667741  0.29660919  1
  Ni  Ni31  1  0.36723347  0.25332259  0.20339081  1
  Ni  Ni32  1  0.62690540  0.04025973  0.33727589  1
  Ni  Ni33  1  0.12690540  0.95974027  0.16272411  1
  Ni  Ni34  1  0.37309460  0.45974027  0.83727589  1
  Ni  Ni35  1  0.87309460  0.54025973  0.66272411  1
  Ni  Ni36  1  0.37309460  0.95974027  0.66272411  1
  Ni  Ni37  1  0.87309460  0.04025973  0.83727589  1
  Ni  Ni38  1  0.62690540  0.54025973  0.16272411  1
  Ni  Ni39  1  0.12690540  0.45974027  0.33727589  1
  Ni  Ni40  1  0.87079491  0.93403819  0.58026472  1
  Ni  Ni41  1  0.37079491  0.06596181  0.91973528  1
  Ni  Ni42  1  0.12920509  0.56596181  0.08026472  1
  Ni  Ni43  1  0.62920509  0.43403819  0.41973528  1
  Ni  Ni44  1  0.12920509  0.06596181  0.41973528  1
  Ni  Ni45  1  0.62920509  0.93403819  0.08026472  1
  Ni  Ni46  1  0.87079491  0.43403819  0.91973528  1
  Ni  Ni47  1  0.37079491  0.56596181  0.58026472  1
  C  C48  1  0.96469435  0.89552407  0.94270108  1
  C  C49  1  0.46469435  0.10447593  0.55729892  1
  C  C50  1  0.03530565  0.60447593  0.44270108  1
  C  C51  1  0.53530565  0.39552407  0.05729892  1
  C  C52  1  0.03530565  0.10447593  0.05729892  1
  C  C53  1  0.53530565  0.89552407  0.44270108  1
  C  C54  1  0.96469435  0.39552407  0.55729892  1
  C  C55  1  0.46469435  0.60447593  0.94270108  1
  C  C56  1  0.02792335  0.86158773  0.02840276  1
  C  C57  1  0.52792335  0.13841227  0.47159724  1
  C  C58  1  0.97207665  0.63841227  0.52840276  1
  C  C59  1  0.47207665  0.36158773  0.97159724  1
  C  C60  1  0.97207665  0.13841227  0.97159724  1
  C  C61  1  0.47207665  0.86158773  0.52840276  1
  C  C62  1  0.02792335  0.36158773  0.47159724  1
  C  C63  1  0.52792335  0.63841227  0.02840276  1
  C  C64  1  0.87891458  0.90315253  0.02442772  1
  C  C65  1  0.37891458  0.09684747  0.47557228  1
  C  C66  1  0.12108542  0.59684747  0.52442772  1
  C  C67  1  0.62108542  0.40315253  0.97557228  1
  C  C68  1  0.12108542  0.09684747  0.97557228  1
  C  C69  1  0.62108542  0.90315253  0.52442772  1
  C  C70  1  0.87891458  0.40315253  0.47557228  1
  C  C71  1  0.37891458  0.59684747  0.02442772  1
  C  C72  1  0.99757895  0.97710326  0.28316130  1
  C  C73  1  0.49757895  0.02289674  0.21683870  1
  C  C74  1  0.00242105  0.52289674  0.78316130  1
  C  C75  1  0.50242105  0.47710326  0.71683870  1
  C  C76  1  0.00242105  0.02289674  0.71683870  1
  C  C77  1  0.50242105  0.97710326  0.78316130  1
  C  C78  1  0.99757895  0.47710326  0.21683870  1
  C  C79  1  0.49757895  0.52289674  0.28316130  1
  C  C80  1  0.87980193  0.74891774  0.92271135  1
  C  C81  1  0.37980193  0.25108226  0.57728865  1
  C  C82  1  0.12019807  0.75108226  0.42271135  1
  C  C83  1  0.62019807  0.24891774  0.07728865  1
  C  C84  1  0.12019807  0.25108226  0.07728865  1
  C  C85  1  0.62019807  0.74891774  0.42271135  1
  C  C86  1  0.87980193  0.24891774  0.57728865  1
  C  C87  1  0.37980193  0.75108226  0.92271135  1
  C  C88  1  0.96671363  0.71252618  0.00708594  1
  C  C89  1  0.46671363  0.28747382  0.49291406  1
  C  C90  1  0.03328637  0.78747382  0.50708594  1
  C  C91  1  0.53328637  0.21252618  0.99291406  1
  C  C92  1  0.03328637  0.28747382  0.99291406  1
  C  C93  1  0.53328637  0.71252618  0.50708594  1
  C  C94  1  0.96671363  0.21252618  0.49291406  1
  C  C95  1  0.46671363  0.78747382  0.00708594  1
  C  C96  1  0.80501667  0.75563936  0.01524030  1
  C  C97  1  0.30501667  0.24436064  0.48475970  1
  C  C98  1  0.19498333  0.74436064  0.51524030  1
  C  C99  1  0.69498333  0.25563936  0.98475970  1
  C  C100  1  0.19498333  0.24436064  0.98475970  1
  C  C101  1  0.69498333  0.75563936  0.51524030  1
  C  C102  1  0.80501667  0.25563936  0.48475970  1
  C  C103  1  0.30501667  0.74436064  0.01524030  1
  Cu  Cu104  1  0.89599441  0.76235698  0.98425768  1
  Cu  Cu105  1  0.39599441  0.23764302  0.51574232  1
  Cu  Cu106  1  0.10400559  0.73764302  0.48425768  1
  Cu  Cu107  1  0.60400559  0.26235698  0.01574232  1
  Cu  Cu108  1  0.10400559  0.23764302  0.01574232  1
  Cu  Cu109  1  0.60400559  0.76235698  0.48425768  1
  Cu  Cu110  1  0.89599441  0.26235698  0.51574232  1
  Cu  Cu111  1  0.39599441  0.73764302  0.98425768  1
  C  C112  1  0.94564609  0.86196198  0.99503336  1
  C  C113  1  0.44564609  0.13803802  0.50496664  1
  C  C114  1  0.05435391  0.63803802  0.49503336  1
  C  C115  1  0.55435391  0.36196198  0.00496664  1
  C  C116  1  0.05435391  0.13803802  0.00496664  1
  C  C117  1  0.55435391  0.86196198  0.49503336  1
  C  C118  1  0.94564609  0.36196198  0.50496664  1
  C  C119  1  0.44564609  0.63803802  0.99503336  1
  C  C120  1  0.82982251  0.14702241  0.17630161  1
  C  C121  1  0.32982251  0.85297759  0.32369839  1
  C  C122  1  0.17017749  0.35297759  0.67630161  1
  C  C123  1  0.67017749  0.64702241  0.82369839  1
  C  C124  1  0.17017749  0.85297759  0.82369839  1
  C  C125  1  0.67017749  0.14702241  0.67630161  1
  C  C126  1  0.82982251  0.64702241  0.32369839  1
  C  C127  1  0.32982251  0.35297759  0.17630161  1
  C  C128  1  0.61770226  0.14850805  0.35798046  1
  C  C129  1  0.11770226  0.85149195  0.14201954  1
  C  C130  1  0.38229774  0.35149195  0.85798046  1
  C  C131  1  0.88229774  0.64850805  0.64201954  1
  C  C132  1  0.38229774  0.85149195  0.64201954  1
  C  C133  1  0.88229774  0.14850805  0.85798046  1
  C  C134  1  0.61770226  0.64850805  0.14201954  1
  C  C135  1  0.11770226  0.35149195  0.35798046  1
  C  C136  1  0.90331658  0.97853670  0.28759972  1
  C  C137  1  0.40331658  0.02146330  0.21240028  1
  C  C138  1  0.09668342  0.52146330  0.78759972  1
  C  C139  1  0.59668342  0.47853670  0.71240028  1
  C  C140  1  0.09668342  0.02146330  0.71240028  1
  C  C141  1  0.59668342  0.97853670  0.78759972  1
  C  C142  1  0.90331658  0.47853670  0.21240028  1
  C  C143  1  0.40331658  0.52146330  0.28759972  1
  C  C144  1  0.85936025  0.31376345  0.13377710  1
  C  C145  1  0.35936025  0.68623655  0.36622290  1
  C  C146  1  0.14063975  0.18623655  0.63377710  1
  C  C147  1  0.64063975  0.81376345  0.86622290  1
  C  C148  1  0.14063975  0.68623655  0.86622290  1
  C  C149  1  0.64063975  0.31376345  0.63377710  1
  C  C150  1  0.85936025  0.81376345  0.36622290  1
  C  C151  1  0.35936025  0.18623655  0.13377710  1
  C  C152  1  0.72156620  0.99697465  0.39576921  1
  C  C153  1  0.22156620  0.00302535  0.10423079  1
  C  C154  1  0.27843380  0.50302535  0.89576921  1
  C  C155  1  0.77843380  0.49697465  0.60423079  1
  C  C156  1  0.27843380  0.00302535  0.60423079  1
  C  C157  1  0.77843380  0.99697465  0.89576921  1
  C  C158  1  0.72156620  0.49697465  0.10423079  1
  C  C159  1  0.22156620  0.50302535  0.39576921  1
  C  C160  1  0.66899046  0.02652820  0.25200607  1
  C  C161  1  0.16899046  0.97347180  0.24799393  1
  C  C162  1  0.33100954  0.47347180  0.75200607  1
  C  C163  1  0.83100954  0.52652820  0.74799393  1
  C  C164  1  0.33100954  0.97347180  0.74799393  1
  C  C165  1  0.83100954  0.02652820  0.75200607  1
  C  C166  1  0.66899046  0.52652820  0.24799393  1
  C  C167  1  0.16899046  0.47347180  0.25200607  1
  C  C168  1  0.96829188  0.01515505  0.58602366  1
  C  C169  1  0.46829188  0.98484495  0.91397634  1
  C  C170  1  0.03170812  0.48484495  0.08602366  1
  C  C171  1  0.53170812  0.51515505  0.41397634  1
  C  C172  1  0.03170812  0.98484495  0.41397634  1
  C  C173  1  0.53170812  0.01515505  0.08602366  1
  C  C174  1  0.96829188  0.51515505  0.91397634  1
  C  C175  1  0.46829188  0.48484495  0.58602366  1
  C  C176  1  0.92009549  0.84594902  0.62606208  1
  C  C177  1  0.42009549  0.15405098  0.87393792  1
  C  C178  1  0.07990451  0.65405098  0.12606208  1
  C  C179  1  0.57990451  0.34594902  0.37393792  1
  C  C180  1  0.07990451  0.15405098  0.37393792  1
  C  C181  1  0.57990451  0.84594902  0.12606208  1
  C  C182  1  0.92009549  0.34594902  0.87393792  1
  C  C183  1  0.42009549  0.65405098  0.62606208  1
  C  C184  1  0.84921748  0.90309329  0.49653829  1
  C  C185  1  0.34921748  0.09690671  0.00346171  1
  C  C186  1  0.15078252  0.59690671  0.99653829  1
  C  C187  1  0.65078252  0.40309329  0.50346171  1
  C  C188  1  0.15078252  0.09690671  0.50346171  1
  C  C189  1  0.65078252  0.90309329  0.99653829  1
  C  C190  1  0.84921748  0.40309329  0.00346171  1
  C  C191  1  0.34921748  0.59690671  0.49653829  1
  C  C192  1  0.73888130  0.96421982  0.61413342  1
  C  C193  1  0.23888130  0.03578018  0.88586658  1
  C  C194  1  0.26111870  0.53578018  0.11413342  1
  C  C195  1  0.76111870  0.46421982  0.38586658  1
  C  C196  1  0.26111870  0.03578018  0.38586658  1
  C  C197  1  0.76111870  0.96421982  0.11413342  1
  C  C198  1  0.73888130  0.46421982  0.88586658  1
  C  C199  1  0.23888130  0.53578018  0.61413342  1
  C  C200  1  0.77539534  0.27962948  0.26931187  1
  C  C201  1  0.27539534  0.72037052  0.23068813  1
  C  C202  1  0.22460466  0.22037052  0.76931187  1
  C  C203  1  0.72460466  0.77962948  0.73068813  1
  C  C204  1  0.22460466  0.72037052  0.73068813  1
  C  C205  1  0.72460466  0.27962948  0.76931187  1
  C  C206  1  0.77539534  0.77962948  0.23068813  1
  C  C207  1  0.27539534  0.22037052  0.26931187  1
  C  C208  1  0.49531508  0.99373905  0.35194026  1
  C  C209  1  0.99531508  0.00626095  0.14805974  1
  C  C210  1  0.50468492  0.50626095  0.85194026  1
  C  C211  1  0.00468492  0.49373905  0.64805974  1
  C  C212  1  0.50468492  0.00626095  0.64805974  1
  C  C213  1  0.00468492  0.99373905  0.85194026  1
  C  C214  1  0.49531508  0.49373905  0.14805974  1
  C  C215  1  0.99531508  0.50626095  0.35194026  1
  C  C216  1  0.00660790  0.24619979  0.23399416  1
  C  C217  1  0.50660790  0.75380021  0.26600584  1
  C  C218  1  0.99339210  0.25380021  0.73399416  1
  C  C219  1  0.49339210  0.74619979  0.76600584  1
  C  C220  1  0.99339210  0.75380021  0.76600584  1
  C  C221  1  0.49339210  0.24619979  0.73399416  1
  C  C222  1  0.00660790  0.74619979  0.26600584  1
  C  C223  1  0.50660790  0.25380021  0.23399416  1
