# generated using pymatgen
data_Cu2NiC8
_symmetry_space_group_name_H-M   'P 1'
_cell_length_a   5.55762949
_cell_length_b   5.55762949
_cell_length_c   17.73898144
_cell_angle_alpha   80.47425720
_cell_angle_beta   80.47425720
_cell_angle_gamma   60.29433128
_symmetry_Int_Tables_number   1
_chemical_formula_structural   Cu2NiC8
_chemical_formula_sum   'Cu8 Ni4 C32'
_cell_volume   467.10725278
_cell_formula_units_Z   4
loop_
 _symmetry_equiv_pos_site_id
 _symmetry_equiv_pos_as_xyz
  1  'x, y, z'
loop_
 _atom_site_type_symbol
 _atom_site_label
 _atom_site_symmetry_multiplicity
 _atom_site_fract_x
 _atom_site_fract_y
 _atom_site_fract_z
 _atom_site_occupancy
  Ni  Ni0  1  0.66304800  0.17478800  0.00061100  1
  Ni  Ni1  1  0.33695200  0.82521200  0.99938900  1
  Ni  Ni2  1  0.82521200  0.33695200  0.49938900  1
  Ni  Ni3  1  0.17478800  0.66304800  0.50061100  1
  Cu  Cu4  1  0.40215200  0.09830600  0.75056500  1
  Cu  Cu5  1  0.59784800  0.90169400  0.24943500  1
  Cu  Cu6  1  0.90169400  0.59784800  0.74943500  1
  Cu  Cu7  1  0.09830600  0.40215200  0.25056500  1
  Cu  Cu8  1  0.50000000  0.00000000  0.50000000  1
  Cu  Cu9  1  0.00000000  0.50000000  0.00000000  1
  Cu  Cu10  1  0.90065600  0.09934400  0.75000000  1
  Cu  Cu11  1  0.09934400  0.90065600  0.25000000  1
  C  C12  1  0.43739000  0.63106000  0.65605200  1
  C  C13  1  0.56261000  0.36894000  0.34394800  1
  C  C14  1  0.36894000  0.56261000  0.84394800  1
  C  C15  1  0.63106000  0.43739000  0.15605200  1
  C  C16  1  0.54261200  0.24986400  0.81314700  1
  C  C17  1  0.45738800  0.75013600  0.18685300  1
  C  C18  1  0.75013600  0.45738800  0.68685300  1
  C  C19  1  0.24986400  0.54261200  0.31314700  1
  C  C20  1  0.54047900  0.73838400  0.81330800  1
  C  C21  1  0.45952100  0.26161600  0.18669200  1
  C  C22  1  0.26161600  0.45952100  0.68669200  1
  C  C23  1  0.73838400  0.54047900  0.31330800  1
  C  C24  1  0.75170300  0.94848200  0.70135800  1
  C  C25  1  0.24829700  0.05151800  0.29864200  1
  C  C26  1  0.05151800  0.24829700  0.79864200  1
  C  C27  1  0.94848200  0.75170300  0.20135800  1
  C  C28  1  0.47340600  0.66083400  0.56112500  1
  C  C29  1  0.52659400  0.33916600  0.43887500  1
  C  C30  1  0.33916600  0.52659400  0.93887500  1
  C  C31  1  0.66083400  0.47340600  0.06112500  1
  C  C32  1  0.79150600  0.97014700  0.54847700  1
  C  C33  1  0.20849400  0.02985300  0.45152300  1
  C  C34  1  0.02985300  0.20849400  0.95152300  1
  C  C35  1  0.97014700  0.79150600  0.04847700  1
  C  C36  1  0.72151300  0.82699600  0.95516500  1
  C  C37  1  0.27848700  0.17300400  0.04483500  1
  C  C38  1  0.17300400  0.27848700  0.54483500  1
  C  C39  1  0.82699600  0.72151300  0.45516500  1
  C  C40  1  0.26252800  0.94594000  0.68668000  1
  C  C41  1  0.73747200  0.05406000  0.31332000  1
  C  C42  1  0.05406000  0.73747200  0.81332000  1
  C  C43  1  0.94594000  0.26252800  0.18668000  1
