# generated using pymatgen
data_Cu3(NiC4)2
_symmetry_space_group_name_H-M   'P 1'
_cell_length_a   5.85820804
_cell_length_b   5.85820804
_cell_length_c   9.49630900
_cell_angle_alpha   90.00000000
_cell_angle_beta   90.00000000
_cell_angle_gamma   120.00000050
_symmetry_Int_Tables_number   1
_chemical_formula_structural   Cu3(NiC4)2
_chemical_formula_sum   'Cu6 Ni4 C16'
_cell_volume   282.23771596
_cell_formula_units_Z   2
loop_
 _symmetry_equiv_pos_site_id
 _symmetry_equiv_pos_as_xyz
  1  'x, y, z'
loop_
 _atom_site_type_symbol
 _atom_site_label
 _atom_site_symmetry_multiplicity
 _atom_site_fract_x
 _atom_site_fract_y
 _atom_site_fract_z
 _atom_site_occupancy
  Ni  Ni0  1  0.66666700  0.33333300  0.02024700  1
  Ni  Ni1  1  0.33333300  0.66666700  0.52024700  1
  Ni  Ni2  1  0.66666700  0.33333300  0.42248900  1
  Ni  Ni3  1  0.33333300  0.66666700  0.92248900  1
  Cu  Cu4  1  0.67280500  0.83640300  0.24379000  1
  Cu  Cu5  1  0.83640300  0.16359700  0.74379000  1
  Cu  Cu6  1  0.16359700  0.32719500  0.24379000  1
  Cu  Cu7  1  0.83640300  0.67280500  0.74379000  1
  Cu  Cu8  1  0.32719500  0.16359700  0.74379000  1
  Cu  Cu9  1  0.16359700  0.83640300  0.24379000  1
  C  C10  1  0.83654800  0.16345200  0.14875300  1
  C  C11  1  0.67309600  0.83654800  0.64875300  1
  C  C12  1  0.16345200  0.32690400  0.64875300  1
  C  C13  1  0.83654800  0.67309600  0.14875300  1
  C  C14  1  0.32690400  0.16345200  0.14875300  1
  C  C15  1  0.16345200  0.83654800  0.64875300  1
  C  C16  1  0.51913700  0.48086300  0.86303700  1
  C  C17  1  0.03827400  0.51913700  0.36303700  1
  C  C18  1  0.48086300  0.96172600  0.36303700  1
  C  C19  1  0.51913700  0.03827400  0.86303700  1
  C  C20  1  0.00000000  0.00000000  0.35252800  1
  C  C21  1  0.00000000  0.00000000  0.85252800  1
  C  C22  1  0.33333300  0.66666700  0.13150100  1
  C  C23  1  0.96172600  0.48086300  0.86303700  1
  C  C24  1  0.48086300  0.51913700  0.36303700  1
  C  C25  1  0.66666700  0.33333300  0.63150100  1
