# generated using pymatgen
data_Cu4Ni2C9
_symmetry_space_group_name_H-M   'P 1'
_cell_length_a   10.16539500
_cell_length_b   7.09456700
_cell_length_c   11.63952772
_cell_angle_alpha   66.56837150
_cell_angle_beta   90.00000000
_cell_angle_gamma   90.00000000
_symmetry_Int_Tables_number   1
_chemical_formula_structural   Cu4Ni2C9
_chemical_formula_sum   'Cu16 Ni8 C36'
_cell_volume   770.20843625
_cell_formula_units_Z   4
loop_
 _symmetry_equiv_pos_site_id
 _symmetry_equiv_pos_as_xyz
  1  'x, y, z'
loop_
 _atom_site_type_symbol
 _atom_site_label
 _atom_site_symmetry_multiplicity
 _atom_site_fract_x
 _atom_site_fract_y
 _atom_site_fract_z
 _atom_site_occupancy
  C  C0  1  0.26864700  0.22237700  0.24717200  1
  C  C1  1  0.23135300  0.22237700  0.74717200  1
  C  C2  1  0.73135300  0.77762300  0.75282800  1
  C  C3  1  0.76864700  0.77762300  0.25282800  1
  C  C4  1  0.35741800  0.98239500  0.11788300  1
  C  C5  1  0.14258200  0.98239500  0.61788300  1
  C  C6  1  0.64258200  0.01760500  0.88211700  1
  C  C7  1  0.85741800  0.01760500  0.38211700  1
  C  C8  1  0.45082100  0.90887500  0.23810500  1
  C  C9  1  0.04917900  0.90887500  0.73810500  1
  C  C10  1  0.54917900  0.09112500  0.76189500  1
  C  C11  1  0.95082100  0.09112500  0.26189500  1
  C  C12  1  0.30425300  0.39702400  0.43516400  1
  C  C13  1  0.19574700  0.39702400  0.93516400  1
  C  C14  1  0.69574700  0.60297600  0.56483600  1
  C  C15  1  0.80425300  0.60297600  0.06483600  1
  C  C16  1  0.25487100  0.75168300  0.29173900  1
  C  C17  1  0.24512900  0.75168300  0.79173900  1
  C  C18  1  0.74512900  0.24831700  0.70826100  1
  C  C19  1  0.75487100  0.24831700  0.20826100  1
  C  C20  1  0.63656600  0.39436300  0.41146200  1
  C  C21  1  0.86343400  0.39436300  0.91146200  1
  C  C22  1  0.36343400  0.60563700  0.58853800  1
  C  C23  1  0.13656600  0.60563700  0.08853800  1
  C  C24  1  0.32041900  0.69882700  0.57160200  1
  C  C25  1  0.17958100  0.69882700  0.07160200  1
  C  C26  1  0.67958100  0.30117300  0.42839800  1
  C  C27  1  0.82041900  0.30117300  0.92839800  1
  C  C28  1  0.42190700  0.55569600  0.09201800  1
  C  C29  1  0.07809300  0.55569600  0.59201800  1
  C  C30  1  0.57809300  0.44430400  0.90798200  1
  C  C31  1  0.92190700  0.44430400  0.40798200  1
  C  C32  1  0.52852800  0.38699500  0.16418600  1
  C  C33  1  0.97147200  0.38699500  0.66418600  1
  C  C34  1  0.47147200  0.61300500  0.83581400  1
  C  C35  1  0.02852800  0.61300500  0.33581400  1
  Ni  Ni36  1  0.16223600  0.99681400  0.43520500  1
  Ni  Ni37  1  0.33776400  0.99681400  0.93520500  1
  Ni  Ni38  1  0.83776400  0.00318600  0.56479500  1
  Ni  Ni39  1  0.66223600  0.00318600  0.06479500  1
  Ni  Ni40  1  0.09857100  0.22963600  0.10318000  1
  Ni  Ni41  1  0.40142900  0.22963600  0.60318000  1
  Ni  Ni42  1  0.90142900  0.77036400  0.89682000  1
  Ni  Ni43  1  0.59857100  0.77036400  0.39682000  1
  Cu  Cu44  1  0.36056300  0.95561800  0.20912400  1
  Cu  Cu45  1  0.13943700  0.95561800  0.70912400  1
  Cu  Cu46  1  0.63943700  0.04438200  0.79087600  1
  Cu  Cu47  1  0.86056300  0.04438200  0.29087600  1
  Cu  Cu48  1  0.27271700  0.45715400  0.34600600  1
  Cu  Cu49  1  0.22728300  0.45715400  0.84600600  1
  Cu  Cu50  1  0.72728300  0.54284600  0.65399400  1
  Cu  Cu51  1  0.77271700  0.54284600  0.15399400  1
  Cu  Cu52  1  0.69569700  0.36607100  0.15862100  1
  Cu  Cu53  1  0.80430300  0.36607100  0.65862100  1
  Cu  Cu54  1  0.30430300  0.63392900  0.84137900  1
  Cu  Cu55  1  0.19569700  0.63392900  0.34137900  1
  Cu  Cu56  1  0.43240100  0.41162300  0.14812800  1
  Cu  Cu57  1  0.06759900  0.41162300  0.64812800  1
  Cu  Cu58  1  0.56759900  0.58837700  0.85187200  1
  Cu  Cu59  1  0.93240100  0.58837700  0.35187200  1
