# generated using pymatgen
data_Cu5Ni2C25
_symmetry_space_group_name_H-M   'P 1'
_cell_length_a   5.72883200
_cell_length_b   5.82922047
_cell_length_c   9.77306951
_cell_angle_alpha   80.59589402
_cell_angle_beta   81.46338651
_cell_angle_gamma   60.77610934
_symmetry_Int_Tables_number   1
_chemical_formula_structural   Cu5Ni2C25
_chemical_formula_sum   'Cu5 Ni2 C25'
_cell_volume   280.10435641
_cell_formula_units_Z   1
loop_
 _symmetry_equiv_pos_site_id
 _symmetry_equiv_pos_as_xyz
  1  'x, y, z'
loop_
 _atom_site_type_symbol
 _atom_site_label
 _atom_site_symmetry_multiplicity
 _atom_site_fract_x
 _atom_site_fract_y
 _atom_site_fract_z
 _atom_site_occupancy
  C  C0  1  0.87211200  0.87515900  0.25783000  1
  C  C1  1  0.63184200  0.13108500  0.73516400  1
  C  C2  1  0.37750500  0.37406200  0.26014600  1
  C  C3  1  0.86533100  0.37712400  0.26119200  1
  C  C4  1  0.62249500  0.62593800  0.73985400  1
  C  C5  1  0.36815800  0.86891500  0.26483600  1
  C  C6  1  0.13466900  0.62287600  0.73880800  1
  C  C7  1  0.12788800  0.12484100  0.74217000  1
  C  C8  1  0.50000000  0.50000000  0.50000000  1
  Ni  Ni9  1  0.75003300  0.74999500  0.99968100  1
  Ni  Ni10  1  0.24996700  0.25000500  0.00031900  1
  Cu  Cu11  1  0.50000000  0.00000000  0.50000000  1
  Cu  Cu12  1  0.00000000  0.50000000  0.50000000  1
  Cu  Cu13  1  0.75084200  0.25037500  0.99916500  1
  Cu  Cu14  1  0.24915800  0.74962500  0.00083500  1
  Cu  Cu15  1  0.00000000  0.00000000  0.50000000  1
  C  C16  1  0.05342800  0.58160700  0.11241400  1
  C  C17  1  0.80245100  0.81886800  0.61850100  1
  C  C18  1  0.55722700  0.08258100  0.11031700  1
  C  C19  1  0.06587600  0.05638700  0.10789700  1
  C  C20  1  0.82997200  0.31503300  0.61385900  1
  C  C21  1  0.56716900  0.55513500  0.10867200  1
  C  C22  1  0.32653900  0.28753100  0.61161800  1
  C  C23  1  0.30636800  0.83598700  0.61163700  1
  C  C24  1  0.69363200  0.16401300  0.38836300  1
  C  C25  1  0.43283100  0.44486500  0.89132800  1
  C  C26  1  0.17002800  0.68496700  0.38614100  1
  C  C27  1  0.67346100  0.71246900  0.38838200  1
  C  C28  1  0.44277300  0.91741900  0.88968300  1
  C  C29  1  0.19754900  0.18113200  0.38149900  1
  C  C30  1  0.93412400  0.94361300  0.89210300  1
  C  C31  1  0.94657200  0.41839300  0.88758600  1
