# generated using pymatgen
data_Cu4Ni3C16
_symmetry_space_group_name_H-M   'P 1'
_cell_length_a   7.60089000
_cell_length_b   8.78579995
_cell_length_c   9.29117743
_cell_angle_alpha   79.96170477
_cell_angle_beta   66.23675357
_cell_angle_gamma   64.36943634
_symmetry_Int_Tables_number   1
_chemical_formula_structural   Cu4Ni3C16
_chemical_formula_sum   'Cu8 Ni6 C32'
_cell_volume   511.98359889
_cell_formula_units_Z   2
loop_
 _symmetry_equiv_pos_site_id
 _symmetry_equiv_pos_as_xyz
  1  'x, y, z'
loop_
 _atom_site_type_symbol
 _atom_site_label
 _atom_site_symmetry_multiplicity
 _atom_site_fract_x
 _atom_site_fract_y
 _atom_site_fract_z
 _atom_site_occupancy
  C  C0  1  0.22225700  0.01653600  0.56201400  1
  C  C1  1  0.76120700  0.01653600  0.93798600  1
  C  C2  1  0.77774300  0.98346400  0.43798600  1
  C  C3  1  0.23879300  0.98346400  0.06201400  1
  C  C4  1  0.50000000  0.50000000  0.00000000  1
  C  C5  1  0.00000000  0.50000000  0.50000000  1
  Ni  Ni6  1  0.60259300  0.79481400  0.75000000  1
  Ni  Ni7  1  0.39740700  0.20518600  0.25000000  1
  Ni  Ni8  1  0.68289800  0.30111200  0.65232500  1
  Ni  Ni9  1  0.01599000  0.30111200  0.84767500  1
  Ni  Ni10  1  0.31710200  0.69888700  0.34767500  1
  Ni  Ni11  1  0.98401000  0.69888800  0.15232500  1
  Cu  Cu12  1  0.41034900  0.38128300  0.57188700  1
  Cu  Cu13  1  0.20836800  0.38128300  0.92811300  1
  Cu  Cu14  1  0.58965100  0.61871700  0.42811300  1
  Cu  Cu15  1  0.79163200  0.61871700  0.07188700  1
  Cu  Cu16  1  0.05277200  0.73358000  0.71390700  1
  Cu  Cu17  1  0.21364800  0.73358000  0.78609300  1
  Cu  Cu18  1  0.94722800  0.26642000  0.28609300  1
  Cu  Cu19  1  0.78635200  0.26642000  0.21390700  1
  C  C20  1  0.46804100  0.69078900  0.84309500  1
  C  C21  1  0.84117000  0.69078900  0.65690500  1
  C  C22  1  0.53195900  0.30921100  0.15690500  1
  C  C23  1  0.15883000  0.30921100  0.34309500  1
  C  C24  1  0.51041800  0.90553500  0.62950500  1
  C  C25  1  0.58404600  0.90553500  0.87049500  1
  C  C26  1  0.48958200  0.09446500  0.37049500  1
  C  C27  1  0.41595400  0.09446500  0.12950500  1
  C  C28  1  0.85727200  0.12209300  0.62150600  1
  C  C29  1  0.02063500  0.12209300  0.87849400  1
  C  C30  1  0.14272800  0.87790700  0.37849400  1
  C  C31  1  0.97936500  0.87790700  0.12150600  1
  C  C32  1  0.74307200  0.44390000  0.55439500  1
  C  C33  1  0.81302800  0.44390000  0.94560500  1
  C  C34  1  0.25692800  0.55610000  0.44560500  1
  C  C35  1  0.18697200  0.55610000  0.05439500  1
  C  C36  1  0.58091100  0.33362500  0.83153400  1
  C  C37  1  0.08546400  0.33362500  0.66846600  1
  C  C38  1  0.41908900  0.66637500  0.16846600  1
  C  C39  1  0.91453600  0.66637500  0.33153400  1
  C  C40  1  0.52506000  0.28096600  0.59117300  1
  C  C41  1  0.19397300  0.28096600  0.90882700  1
  C  C42  1  0.47494000  0.71903400  0.40882700  1
  C  C43  1  0.80602700  0.71903400  0.09117300  1
  C  C44  1  0.09740100  0.80519700  0.75000000  1
  C  C45  1  0.90259900  0.19480300  0.25000000  1
