# generated using pymatgen
data_CuNiC3
_symmetry_space_group_name_H-M   'P 1'
_cell_length_a   4.98235037
_cell_length_b   5.00152093
_cell_length_c   7.94345649
_cell_angle_alpha   91.03709341
_cell_angle_beta   89.68984125
_cell_angle_gamma   90.23283036
_symmetry_Int_Tables_number   1
_chemical_formula_structural   CuNiC3
_chemical_formula_sum   'Cu4 Ni4 C12'
_cell_volume   197.90872811
_cell_formula_units_Z   4
loop_
 _symmetry_equiv_pos_site_id
 _symmetry_equiv_pos_as_xyz
  1  'x, y, z'
loop_
 _atom_site_type_symbol
 _atom_site_label
 _atom_site_symmetry_multiplicity
 _atom_site_fract_x
 _atom_site_fract_y
 _atom_site_fract_z
 _atom_site_occupancy
  Ni  Ni0  1  0.98168600  0.99390700  0.75323200  1
  Ni  Ni1  1  0.48536700  0.50781900  0.25627100  1
  Ni  Ni2  1  0.51474500  0.49210100  0.74309300  1
  Ni  Ni3  1  0.01793900  0.00636300  0.24643700  1
  Cu  Cu4  1  0.00037400  0.50039200  0.49996800  1
  Cu  Cu5  1  0.49988300  0.00016200  0.49990100  1
  Cu  Cu6  1  0.50004500  0.99967100  0.99982000  1
  Cu  Cu7  1  0.00008200  0.49947600  0.99995300  1
  C  C8  1  0.65590600  0.33409600  0.42131500  1
  C  C9  1  0.15758500  0.16763100  0.58995000  1
  C  C10  1  0.84568700  0.83206400  0.07457900  1
  C  C11  1  0.33717900  0.66187000  0.91416700  1
  C  C12  1  0.34365700  0.66758300  0.57918000  1
  C  C13  1  0.84270500  0.83361800  0.41043200  1
  C  C14  1  0.15381000  0.16674600  0.92578700  1
  C  C15  1  0.66354200  0.33621100  0.08582700  1
  C  C16  1  0.14941100  0.35276800  0.25981700  1
  C  C17  1  0.64201000  0.14285200  0.75370500  1
  C  C18  1  0.35779200  0.85725700  0.24627400  1
  C  C19  1  0.85059900  0.64741300  0.74029300  1
