# generated using pymatgen
data_Cu2NiC6
_symmetry_space_group_name_H-M   'P 1'
_cell_length_a   3.78935861
_cell_length_b   5.78512231
_cell_length_c   6.65924078
_cell_angle_alpha   115.74508494
_cell_angle_beta   106.53007885
_cell_angle_gamma   89.99999954
_symmetry_Int_Tables_number   1
_chemical_formula_structural   Cu2NiC6
_chemical_formula_sum   'Cu2 Ni1 C6'
_cell_volume   124.76003791
_cell_formula_units_Z   1
loop_
 _symmetry_equiv_pos_site_id
 _symmetry_equiv_pos_as_xyz
  1  'x, y, z'
loop_
 _atom_site_type_symbol
 _atom_site_label
 _atom_site_symmetry_multiplicity
 _atom_site_fract_x
 _atom_site_fract_y
 _atom_site_fract_z
 _atom_site_occupancy
  Ni  Ni0  1  0.49999900  0.50000000  0.00000000  1
  Cu  Cu1  1  0.29660300  0.79660300  0.59320500  1
  Cu  Cu2  1  0.70339800  0.20339800  0.40679500  1
  C  C3  1  0.00000000  0.00000000  0.00000000  1
  C  C4  1  0.50000100  0.00000000  0.00000000  1
  C  C5  1  0.15053700  0.91058700  0.30107500  1
  C  C6  1  0.84946300  0.08941200  0.69892500  1
  C  C7  1  0.84946200  0.60951100  0.69892500  1
  C  C8  1  0.15053800  0.39048700  0.30107500  1
