# generated using pymatgen
data_Cu4NiC8
_symmetry_space_group_name_H-M   'P 1'
_cell_length_a   6.38156926
_cell_length_b   6.38156926
_cell_length_c   6.38156914
_cell_angle_alpha   67.82217552
_cell_angle_beta   67.82217552
_cell_angle_gamma   67.82217554
_symmetry_Int_Tables_number   1
_chemical_formula_structural   Cu4NiC8
_chemical_formula_sum   'Cu4 Ni1 C8'
_cell_volume   214.32275663
_cell_formula_units_Z   1
loop_
 _symmetry_equiv_pos_site_id
 _symmetry_equiv_pos_as_xyz
  1  'x, y, z'
loop_
 _atom_site_type_symbol
 _atom_site_label
 _atom_site_symmetry_multiplicity
 _atom_site_fract_x
 _atom_site_fract_y
 _atom_site_fract_z
 _atom_site_occupancy
  Ni  Ni0  1  0.50000000  0.50000000  0.50000000  1
  Cu  Cu1  1  0.00000000  0.50000000  0.50000000  1
  Cu  Cu2  1  0.50000000  0.00000000  0.50000000  1
  Cu  Cu3  1  0.50000000  0.50000000  0.00000000  1
  Cu  Cu4  1  0.00000000  0.00000000  0.00000000  1
  C  C5  1  0.27925600  0.73772400  0.73772400  1
  C  C6  1  0.26227600  0.26227600  0.72074400  1
  C  C7  1  0.72074400  0.26227600  0.26227600  1
  C  C8  1  0.26227600  0.72074400  0.26227600  1
  C  C9  1  0.26220400  0.26220400  0.26220400  1
  C  C10  1  0.73779600  0.73779600  0.73779600  1
  C  C11  1  0.73772400  0.27925600  0.73772400  1
  C  C12  1  0.73772400  0.73772400  0.27925600  1
