# generated using pymatgen
data_Cu8Ni6C31
_symmetry_space_group_name_H-M   'P 1'
_cell_length_a   6.66580000
_cell_length_b   9.05672000
_cell_length_c   20.13239196
_cell_angle_alpha   66.21980617
_cell_angle_beta   90.00000000
_cell_angle_gamma   90.00000000
_symmetry_Int_Tables_number   1
_chemical_formula_structural   Cu8Ni6C31
_chemical_formula_sum   'Cu16 Ni12 C62'
_cell_volume   1112.20983499
_cell_formula_units_Z   2
loop_
 _symmetry_equiv_pos_site_id
 _symmetry_equiv_pos_as_xyz
  1  'x, y, z'
loop_
 _atom_site_type_symbol
 _atom_site_label
 _atom_site_symmetry_multiplicity
 _atom_site_fract_x
 _atom_site_fract_y
 _atom_site_fract_z
 _atom_site_occupancy
  C  C0  1  0.00741300  0.58089800  0.88831700  1
  C  C1  1  0.49258700  0.58089800  0.38831700  1
  C  C2  1  0.99258700  0.41910200  0.11168300  1
  C  C3  1  0.50741300  0.41910200  0.61168300  1
  C  C4  1  0.98779900  0.79646200  0.18317300  1
  C  C5  1  0.51220100  0.79646200  0.68317300  1
  C  C6  1  0.01220100  0.20353800  0.81682700  1
  C  C7  1  0.48779900  0.20353800  0.31682700  1
  C  C8  1  0.50000000  0.50000000  0.00000000  1
  C  C9  1  0.00000000  0.50000000  0.50000000  1
  C  C10  1  0.67511700  0.13537200  0.00543100  1
  C  C11  1  0.82488300  0.13537200  0.50543100  1
  C  C12  1  0.32488300  0.86462800  0.99456900  1
  C  C13  1  0.17511700  0.86462800  0.49456900  1
  Ni  Ni14  1  0.57968100  0.40939800  0.84760700  1
  Ni  Ni15  1  0.92031900  0.40939800  0.34760700  1
  Ni  Ni16  1  0.42031900  0.59060200  0.15239300  1
  Ni  Ni17  1  0.07968100  0.59060200  0.65239300  1
  Ni  Ni18  1  0.60448000  0.12317500  0.15191500  1
  Ni  Ni19  1  0.89552000  0.12317500  0.65191500  1
  Ni  Ni20  1  0.39552000  0.87682500  0.84808500  1
  Ni  Ni21  1  0.10448000  0.87682500  0.34808500  1
  Ni  Ni22  1  0.16701300  0.19784700  0.01428900  1
  Ni  Ni23  1  0.33298700  0.19784700  0.51428900  1
  Ni  Ni24  1  0.83298700  0.80215300  0.98571100  1
  Ni  Ni25  1  0.66701300  0.80215300  0.48571100  1
  Cu  Cu26  1  0.22219100  0.11360900  0.13187700  1
  Cu  Cu27  1  0.27780900  0.11360900  0.63187700  1
  Cu  Cu28  1  0.77780900  0.88639100  0.86812300  1
  Cu  Cu29  1  0.72219100  0.88639100  0.36812300  1
  Cu  Cu30  1  0.82188300  0.04141200  0.24628100  1
  Cu  Cu31  1  0.67811700  0.04141200  0.74628100  1
  Cu  Cu32  1  0.17811700  0.95858800  0.75371900  1
  Cu  Cu33  1  0.32188300  0.95858800  0.25371900  1
  Cu  Cu34  1  0.30533600  0.47259500  0.77627600  1
  Cu  Cu35  1  0.19466400  0.47259500  0.27627600  1
  Cu  Cu36  1  0.69466400  0.52740500  0.22372400  1
  Cu  Cu37  1  0.80533600  0.52740500  0.72372400  1
  Cu  Cu38  1  0.49604500  0.15272000  0.85526100  1
  Cu  Cu39  1  0.00395500  0.15272000  0.35526100  1
  Cu  Cu40  1  0.50395500  0.84728000  0.14473900  1
  Cu  Cu41  1  0.99604500  0.84728000  0.64473900  1
  C  C42  1  0.22519100  0.37141900  0.00110500  1
  C  C43  1  0.27480900  0.37141900  0.50110500  1
  C  C44  1  0.77480900  0.62858100  0.99889500  1
  C  C45  1  0.72519100  0.62858100  0.49889500  1
  C  C46  1  0.65211000  0.97251000  0.13607500  1
  C  C47  1  0.84789000  0.97251000  0.63607500  1
  C  C48  1  0.34789000  0.02749000  0.86392500  1
  C  C49  1  0.15211000  0.02749000  0.36392500  1
  C  C50  1  0.10802200  0.10858100  0.09928500  1
  C  C51  1  0.39197800  0.10858100  0.59928500  1
  C  C52  1  0.89197800  0.89141900  0.90071500  1
  C  C53  1  0.60802200  0.89141900  0.40071500  1
  C  C54  1  0.61813300  0.39832300  0.92448500  1
  C  C55  1  0.88186700  0.39832300  0.42448500  1
  C  C56  1  0.38186700  0.60167700  0.07551500  1
  C  C57  1  0.11813300  0.60167700  0.57551500  1
  C  C58  1  0.97801300  0.19035800  0.97250300  1
  C  C59  1  0.52198700  0.19035800  0.47250300  1
  C  C60  1  0.02198700  0.80964200  0.02749700  1
  C  C61  1  0.47801300  0.80964200  0.52749700  1
  C  C62  1  0.72519900  0.52440900  0.79197000  1
  C  C63  1  0.77480100  0.52440900  0.29197000  1
  C  C64  1  0.27480100  0.47559100  0.20803000  1
  C  C65  1  0.22519900  0.47559100  0.70803000  1
  C  C66  1  0.39688600  0.11224000  0.18750700  1
  C  C67  1  0.10311400  0.11224000  0.68750700  1
  C  C68  1  0.60311400  0.88776000  0.81249300  1
  C  C69  1  0.89688600  0.88776000  0.31249300  1
  C  C70  1  0.76861900  0.14375500  0.20548000  1
  C  C71  1  0.73138100  0.14375500  0.70548000  1
  C  C72  1  0.23138100  0.85624500  0.79452000  1
  C  C73  1  0.26861900  0.85624500  0.29452000  1
  C  C74  1  0.63027500  0.27208800  0.07976800  1
  C  C75  1  0.86972500  0.27208800  0.57976800  1
  C  C76  1  0.36972500  0.72791200  0.92023200  1
  C  C77  1  0.13027500  0.72791200  0.42023200  1
  C  C78  1  0.35310000  0.46132000  0.82752700  1
  C  C79  1  0.14690000  0.46132000  0.32752700  1
  C  C80  1  0.64690000  0.53868000  0.17247300  1
  C  C81  1  0.85310000  0.53868000  0.67247300  1
  C  C82  1  0.65614900  0.89828700  0.99966000  1
  C  C83  1  0.84385100  0.89828700  0.49966000  1
  C  C84  1  0.34385100  0.10171300  0.00034000  1
  C  C85  1  0.15614900  0.10171300  0.50034000  1
  C  C86  1  0.61269200  0.23644700  0.84752000  1
  C  C87  1  0.88730800  0.23644700  0.34752000  1
  C  C88  1  0.38730800  0.76355300  0.15248000  1
  C  C89  1  0.11269200  0.76355300  0.65248000  1
