# generated using pymatgen
data_Cu5NiC3
_symmetry_space_group_name_H-M   'P 1'
_cell_length_a   9.94997300
_cell_length_b   7.01158200
_cell_length_c   7.32060680
_cell_angle_alpha   62.78925670
_cell_angle_beta   90.00000000
_cell_angle_gamma   90.00000000
_symmetry_Int_Tables_number   1
_chemical_formula_structural   Cu5NiC3
_chemical_formula_sum   'Cu20 Ni4 C12'
_cell_volume   454.20118246
_cell_formula_units_Z   4
loop_
 _symmetry_equiv_pos_site_id
 _symmetry_equiv_pos_as_xyz
  1  'x, y, z'
loop_
 _atom_site_type_symbol
 _atom_site_label
 _atom_site_symmetry_multiplicity
 _atom_site_fract_x
 _atom_site_fract_y
 _atom_site_fract_z
 _atom_site_occupancy
  C  C0  1  0.62146400  0.21335300  0.77625900  1
  C  C1  1  0.37853600  0.78664700  0.22374100  1
  C  C2  1  0.12146400  0.28664700  0.22374100  1
  C  C3  1  0.87853600  0.71335300  0.77625900  1
  C  C4  1  0.29289900  0.23412800  0.64166400  1
  C  C5  1  0.70710100  0.76587200  0.35833600  1
  C  C6  1  0.79289900  0.26587200  0.35833600  1
  C  C7  1  0.20710100  0.73412800  0.64166400  1
  C  C8  1  0.21818300  0.83099300  0.81219000  1
  C  C9  1  0.78181700  0.16900700  0.18781000  1
  C  C10  1  0.71818300  0.66900700  0.18781000  1
  C  C11  1  0.28181700  0.33099300  0.81219000  1
  Ni  Ni12  1  0.10515900  0.23137900  0.74968200  1
  Ni  Ni13  1  0.89484100  0.76862100  0.25031800  1
  Ni  Ni14  1  0.60515900  0.26862100  0.25031800  1
  Ni  Ni15  1  0.39484100  0.73137900  0.74968200  1
  Cu  Cu16  1  0.47831300  0.80451100  0.84889400  1
  Cu  Cu17  1  0.52168700  0.19548900  0.15110600  1
  Cu  Cu18  1  0.97831300  0.69548900  0.15110600  1
  Cu  Cu19  1  0.02168700  0.30451100  0.84889400  1
  Cu  Cu20  1  0.40616400  0.30724000  0.33770600  1
  Cu  Cu21  1  0.59383600  0.69276000  0.66229400  1
  Cu  Cu22  1  0.90616400  0.19276000  0.66229400  1
  Cu  Cu23  1  0.09383600  0.80724000  0.33770600  1
  Cu  Cu24  1  0.03719900  0.15888300  0.63459300  1
  Cu  Cu25  1  0.96280100  0.84111700  0.36540700  1
  Cu  Cu26  1  0.53719900  0.34111700  0.36540700  1
  Cu  Cu27  1  0.46280100  0.65888300  0.63459300  1
  Cu  Cu28  1  0.24384400  0.22204000  0.76958400  1
  Cu  Cu29  1  0.75615600  0.77796000  0.23041600  1
  Cu  Cu30  1  0.74384400  0.27796000  0.23041600  1
  Cu  Cu31  1  0.25615600  0.72204000  0.76958400  1
  Cu  Cu32  1  0.60269600  0.77770400  0.78926100  1
  Cu  Cu33  1  0.39730400  0.22229600  0.21073900  1
  Cu  Cu34  1  0.10269600  0.72229600  0.21073900  1
  Cu  Cu35  1  0.89730400  0.27770400  0.78926100  1
