# generated using pymatgen
data_Cu2Ni4C5
_symmetry_space_group_name_H-M   'P 1'
_cell_length_a   3.52048600
_cell_length_b   7.97747200
_cell_length_c   17.82575400
_cell_angle_alpha   90.00000000
_cell_angle_beta   90.00000000
_cell_angle_gamma   90.00000000
_symmetry_Int_Tables_number   1
_chemical_formula_structural   Cu2Ni4C5
_chemical_formula_sum   'Cu4 Ni8 C10'
_cell_volume   500.62878738
_cell_formula_units_Z   2
loop_
 _symmetry_equiv_pos_site_id
 _symmetry_equiv_pos_as_xyz
  1  'x, y, z'
loop_
 _atom_site_type_symbol
 _atom_site_label
 _atom_site_symmetry_multiplicity
 _atom_site_fract_x
 _atom_site_fract_y
 _atom_site_fract_z
 _atom_site_occupancy
  C  C0  1  0.00000000  0.50000000  0.50000000  1
  C  C1  1  0.00000000  0.00000000  0.00000000  1
  C  C2  1  0.00000000  0.74571700  0.27861300  1
  C  C3  1  0.00000000  0.25428300  0.72138700  1
  C  C4  1  0.00000000  0.75428300  0.77861300  1
  C  C5  1  0.00000000  0.24571700  0.22138700  1
  C  C6  1  0.00000000  0.61780800  0.08737100  1
  C  C7  1  0.00000000  0.38219200  0.91262900  1
  C  C8  1  0.00000000  0.88219200  0.58737100  1
  C  C9  1  0.00000000  0.11780800  0.41262900  1
  Ni  Ni10  1  0.50000000  0.70582100  0.93041500  1
  Ni  Ni11  1  0.50000000  0.29417900  0.06958500  1
  Ni  Ni12  1  0.50000000  0.79417900  0.43041500  1
  Ni  Ni13  1  0.50000000  0.20582100  0.56958500  1
  Ni  Ni14  1  0.50000000  0.57322900  0.65191000  1
  Ni  Ni15  1  0.50000000  0.42677100  0.34809000  1
  Ni  Ni16  1  0.50000000  0.92677100  0.15191000  1
  Ni  Ni17  1  0.50000000  0.07322900  0.84809000  1
  Cu  Cu18  1  0.50000000  0.52464800  0.19536100  1
  Cu  Cu19  1  0.50000000  0.47535200  0.80463900  1
  Cu  Cu20  1  0.50000000  0.97535200  0.69536100  1
  Cu  Cu21  1  0.50000000  0.02464800  0.30463900  1
