# generated using pymatgen
data_Cu2Ni13C5
_symmetry_space_group_name_H-M   'P 1'
_cell_length_a   8.64683000
_cell_length_b   8.64683000
_cell_length_c   5.36978300
_cell_angle_alpha   90.00000000
_cell_angle_beta   90.00000000
_cell_angle_gamma   90.00000000
_symmetry_Int_Tables_number   1
_chemical_formula_structural   Cu2Ni13C5
_chemical_formula_sum   'Cu4 Ni26 C10'
_cell_volume   401.48615821
_cell_formula_units_Z   2
loop_
 _symmetry_equiv_pos_site_id
 _symmetry_equiv_pos_as_xyz
  1  'x, y, z'
loop_
 _atom_site_type_symbol
 _atom_site_label
 _atom_site_symmetry_multiplicity
 _atom_site_fract_x
 _atom_site_fract_y
 _atom_site_fract_z
 _atom_site_occupancy
  C  C0  1  0.00000000  0.00000000  0.50000000  1
  C  C1  1  0.50000000  0.50000000  0.50000000  1
  Ni  Ni2  1  0.50000000  0.00000000  0.01829000  1
  Ni  Ni3  1  0.00000000  0.50000000  0.98171000  1
  Ni  Ni4  1  0.72718000  0.08996900  0.36778700  1
  Ni  Ni5  1  0.27282000  0.91003100  0.36778700  1
  Ni  Ni6  1  0.41003100  0.22718000  0.36778700  1
  Ni  Ni7  1  0.58996900  0.77282000  0.36778700  1
  Ni  Ni8  1  0.77282000  0.41003100  0.63221300  1
  Ni  Ni9  1  0.22718000  0.58996900  0.63221300  1
  Ni  Ni10  1  0.08996900  0.27282000  0.63221300  1
  Ni  Ni11  1  0.91003100  0.72718000  0.63221300  1
  Ni  Ni12  1  0.85589800  0.22573800  0.29166300  1
  Ni  Ni13  1  0.14410200  0.77426200  0.29166300  1
  Ni  Ni14  1  0.27426200  0.35589800  0.29166300  1
  Ni  Ni15  1  0.72573800  0.64410200  0.29166300  1
  Ni  Ni16  1  0.64410200  0.27426200  0.70833700  1
  Ni  Ni17  1  0.35589800  0.72573800  0.70833700  1
  Ni  Ni18  1  0.22573800  0.14410200  0.70833700  1
  Ni  Ni19  1  0.77426200  0.85589800  0.70833700  1
  Ni  Ni20  1  0.82039200  0.08053600  0.10221200  1
  Ni  Ni21  1  0.17960800  0.91946400  0.10221200  1
  Ni  Ni22  1  0.41946400  0.32039200  0.10221200  1
  Ni  Ni23  1  0.58053600  0.67960800  0.10221200  1
  Ni  Ni24  1  0.67960800  0.41946400  0.89778800  1
  Ni  Ni25  1  0.32039200  0.58053600  0.89778800  1
  Ni  Ni26  1  0.08053600  0.17960800  0.89778800  1
  Ni  Ni27  1  0.91946400  0.82039200  0.89778800  1
  Cu  Cu28  1  0.50000000  0.00000000  0.58443200  1
  Cu  Cu29  1  0.00000000  0.50000000  0.41556800  1
  Cu  Cu30  1  0.50000000  0.00000000  0.81696300  1
  Cu  Cu31  1  0.00000000  0.50000000  0.18303700  1
  C  C32  1  0.83317000  0.10925300  0.28558800  1
  C  C33  1  0.16683000  0.89074700  0.28558800  1
  C  C34  1  0.39074700  0.33317000  0.28558800  1
  C  C35  1  0.60925300  0.66683000  0.28558800  1
  C  C36  1  0.66683000  0.39074700  0.71441200  1
  C  C37  1  0.33317000  0.60925300  0.71441200  1
  C  C38  1  0.10925300  0.16683000  0.71441200  1
  C  C39  1  0.89074700  0.83317000  0.71441200  1
