# generated using pymatgen
data_Cu3(NiC)5
_symmetry_space_group_name_H-M   'P 1'
_cell_length_a   3.87076300
_cell_length_b   14.02180800
_cell_length_c   18.62557800
_cell_angle_alpha   90.00000000
_cell_angle_beta   90.00000000
_cell_angle_gamma   90.00000000
_symmetry_Int_Tables_number   1
_chemical_formula_structural   Cu3(NiC)5
_chemical_formula_sum   'Cu12 Ni20 C20'
_cell_volume   1010.90502655
_cell_formula_units_Z   4
loop_
 _symmetry_equiv_pos_site_id
 _symmetry_equiv_pos_as_xyz
  1  'x, y, z'
loop_
 _atom_site_type_symbol
 _atom_site_label
 _atom_site_symmetry_multiplicity
 _atom_site_fract_x
 _atom_site_fract_y
 _atom_site_fract_z
 _atom_site_occupancy
  C  C0  1  0.50000000  0.86396500  0.33481500  1
  C  C1  1  0.50000000  0.36309200  0.16473200  1
  C  C2  1  0.00000000  0.63690800  0.66473200  1
  C  C3  1  0.00000000  0.13603500  0.83481500  1
  C  C4  1  0.50000000  0.86267500  0.95372800  1
  C  C5  1  0.50000000  0.36333900  0.54662800  1
  C  C6  1  0.00000000  0.63666100  0.04662800  1
  C  C7  1  0.00000000  0.13732500  0.45372800  1
  C  C8  1  0.50000000  0.10768300  0.65791900  1
  C  C9  1  0.50000000  0.60527100  0.84095100  1
  C  C10  1  0.00000000  0.39472900  0.34095100  1
  C  C11  1  0.00000000  0.89231700  0.15791900  1
  C  C12  1  0.50000000  0.59132100  0.27221200  1
  C  C13  1  0.00000000  0.40867900  0.77221200  1
  C  C14  1  0.50000000  0.85022200  0.56505600  1
  C  C15  1  0.00000000  0.14977800  0.06505600  1
  C  C16  1  0.50000000  0.09558900  0.22337800  1
  C  C17  1  0.00000000  0.90441100  0.72337800  1
  C  C18  1  0.50000000  0.34959600  0.93182800  1
  C  C19  1  0.00000000  0.65040400  0.43182800  1
  Ni  Ni20  1  0.50000000  0.97510000  0.83328600  1
  Ni  Ni21  1  0.50000000  0.47435100  0.66669100  1
  Ni  Ni22  1  0.00000000  0.52564900  0.16669100  1
  Ni  Ni23  1  0.00000000  0.02490000  0.33328600  1
  Ni  Ni24  1  0.50000000  0.76430300  0.08868400  1
  Ni  Ni25  1  0.50000000  0.26329800  0.41187100  1
  Ni  Ni26  1  0.00000000  0.73670200  0.91187100  1
  Ni  Ni27  1  0.00000000  0.23569700  0.58868400  1
  Ni  Ni28  1  0.50000000  0.03798200  0.51796400  1
  Ni  Ni29  1  0.50000000  0.53930900  0.98285400  1
  Ni  Ni30  1  0.00000000  0.46069100  0.48285400  1
  Ni  Ni31  1  0.00000000  0.96201800  0.01796400  1
  Ni  Ni32  1  0.50000000  0.15697700  0.94813400  1
  Ni  Ni33  1  0.50000000  0.65656700  0.54994600  1
  Ni  Ni34  1  0.00000000  0.34343300  0.04994600  1
  Ni  Ni35  1  0.00000000  0.84302300  0.44813400  1
  Ni  Ni36  1  0.50000000  0.24278700  0.76350900  1
  Ni  Ni37  1  0.50000000  0.74395400  0.73819200  1
  Ni  Ni38  1  0.00000000  0.25604600  0.23819200  1
  Ni  Ni39  1  0.00000000  0.75721300  0.26350900  1
  Cu  Cu40  1  0.50000000  0.93205400  0.21620100  1
  Cu  Cu41  1  0.50000000  0.42902100  0.28298900  1
  Cu  Cu42  1  0.00000000  0.57097900  0.78298900  1
  Cu  Cu43  1  0.00000000  0.06794600  0.71620100  1
  Cu  Cu44  1  0.50000000  0.94541400  0.66657400  1
  Cu  Cu45  1  0.50000000  0.44334900  0.83728200  1
  Cu  Cu46  1  0.00000000  0.55665100  0.33728200  1
  Cu  Cu47  1  0.00000000  0.05458600  0.16657400  1
  Cu  Cu48  1  0.50000000  0.17877900  0.12289500  1
  Cu  Cu49  1  0.50000000  0.68064100  0.38168100  1
  Cu  Cu50  1  0.00000000  0.31935900  0.88168100  1
  Cu  Cu51  1  0.00000000  0.82122100  0.62289500  1
