# generated using pymatgen
data_Cu8Ni4C19
_symmetry_space_group_name_H-M   'P 1'
_cell_length_a   8.03519700
_cell_length_b   8.86892300
_cell_length_c   9.61205846
_cell_angle_alpha   86.38595318
_cell_angle_beta   90.00000000
_cell_angle_gamma   90.00000000
_symmetry_Int_Tables_number   1
_chemical_formula_structural   Cu8Ni4C19
_chemical_formula_sum   'Cu16 Ni8 C38'
_cell_volume   683.62711061
_cell_formula_units_Z   2
loop_
 _symmetry_equiv_pos_site_id
 _symmetry_equiv_pos_as_xyz
  1  'x, y, z'
loop_
 _atom_site_type_symbol
 _atom_site_label
 _atom_site_symmetry_multiplicity
 _atom_site_fract_x
 _atom_site_fract_y
 _atom_site_fract_z
 _atom_site_occupancy
  C  C0  1  0.00000000  0.00000000  0.00000000  1
  C  C1  1  0.50000000  0.50000000  0.00000000  1
  C  C2  1  0.84502600  0.43309700  0.75008400  1
  C  C3  1  0.34502600  0.06690300  0.24991600  1
  C  C4  1  0.15497400  0.56690300  0.24991600  1
  C  C5  1  0.65497400  0.93309700  0.75008400  1
  C  C6  1  0.55933700  0.90533300  0.48363800  1
  C  C7  1  0.05933700  0.59466700  0.51636200  1
  C  C8  1  0.44066300  0.09466700  0.51636200  1
  C  C9  1  0.94066300  0.40533300  0.48363800  1
  C  C10  1  0.00531400  0.44823400  0.84021900  1
  C  C11  1  0.50531400  0.05176600  0.15978100  1
  C  C12  1  0.99468600  0.55176600  0.15978100  1
  C  C13  1  0.49468600  0.94823400  0.84021900  1
  C  C14  1  0.29718700  0.53826500  0.71366500  1
  C  C15  1  0.79718700  0.96173500  0.28633500  1
  C  C16  1  0.70281300  0.46173500  0.28633500  1
  C  C17  1  0.20281300  0.03826500  0.71366500  1
  C  C18  1  0.95564300  0.88099600  0.34676200  1
  C  C19  1  0.45564300  0.61900400  0.65323800  1
  C  C20  1  0.04435700  0.11900400  0.65323800  1
  C  C21  1  0.54435700  0.38099600  0.34676200  1
  C  C22  1  0.97660900  0.11241800  0.37574500  1
  C  C23  1  0.47660900  0.38758200  0.62425500  1
  C  C24  1  0.02339100  0.88758200  0.62425500  1
  C  C25  1  0.52339100  0.61241800  0.37574500  1
  C  C26  1  0.83854700  0.68517400  0.06304700  1
  C  C27  1  0.33854700  0.81482600  0.93695300  1
  C  C28  1  0.16145300  0.31482600  0.93695300  1
  C  C29  1  0.66145300  0.18517400  0.06304700  1
  C  C30  1  0.75264000  0.75350800  0.99553300  1
  C  C31  1  0.25264000  0.74649200  0.00446700  1
  C  C32  1  0.24736000  0.24649200  0.00446700  1
  C  C33  1  0.74736000  0.25350800  0.99553300  1
  C  C34  1  0.01691100  0.67108900  0.59424700  1
  C  C35  1  0.51691100  0.82891100  0.40575300  1
  C  C36  1  0.98308900  0.32891100  0.40575300  1
  C  C37  1  0.48308900  0.17108900  0.59424700  1
  Ni  Ni38  1  0.96722300  0.46624400  0.73886900  1
  Ni  Ni39  1  0.46722300  0.03375600  0.26113100  1
  Ni  Ni40  1  0.03277700  0.53375600  0.26113100  1
  Ni  Ni41  1  0.53277700  0.96624400  0.73886900  1
  Ni  Ni42  1  0.96283700  0.62994900  0.71566300  1
  Ni  Ni43  1  0.46283700  0.87005100  0.28433700  1
  Ni  Ni44  1  0.03716300  0.37005100  0.28433700  1
  Ni  Ni45  1  0.53716300  0.12994900  0.71566300  1
  Cu  Cu46  1  0.79414600  0.88906400  0.95858400  1
  Cu  Cu47  1  0.29414600  0.61093600  0.04141600  1
  Cu  Cu48  1  0.20585400  0.11093600  0.04141600  1
  Cu  Cu49  1  0.70585400  0.38906400  0.95858400  1
  Cu  Cu50  1  0.61558800  0.69799300  0.95811000  1
  Cu  Cu51  1  0.11558800  0.80200700  0.04189000  1
  Cu  Cu52  1  0.38441200  0.30200700  0.04189000  1
  Cu  Cu53  1  0.88441200  0.19799300  0.95811000  1
  Cu  Cu54  1  0.02673400  0.81654100  0.54637800  1
  Cu  Cu55  1  0.52673400  0.68345900  0.45362200  1
  Cu  Cu56  1  0.97326600  0.18345900  0.45362200  1
  Cu  Cu57  1  0.47326600  0.31654100  0.54637800  1
  Cu  Cu58  1  0.91855600  0.96447800  0.28192200  1
  Cu  Cu59  1  0.41855600  0.53552200  0.71807800  1
  Cu  Cu60  1  0.08144400  0.03552200  0.71807800  1
  Cu  Cu61  1  0.58144400  0.46447800  0.28192200  1
