# generated using pymatgen
data_Cu(NiC2)6
_symmetry_space_group_name_H-M   'P 1'
_cell_length_a   6.53755079
_cell_length_b   6.53755079
_cell_length_c   6.53755023
_cell_angle_alpha   97.74349344
_cell_angle_beta   97.74349344
_cell_angle_gamma   97.74348966
_symmetry_Int_Tables_number   1
_chemical_formula_structural   Cu(NiC2)6
_chemical_formula_sum   'Cu1 Ni6 C12'
_cell_volume   270.99292496
_cell_formula_units_Z   1
loop_
 _symmetry_equiv_pos_site_id
 _symmetry_equiv_pos_as_xyz
  1  'x, y, z'
loop_
 _atom_site_type_symbol
 _atom_site_label
 _atom_site_symmetry_multiplicity
 _atom_site_fract_x
 _atom_site_fract_y
 _atom_site_fract_z
 _atom_site_occupancy
  Ni  Ni0  1  0.39246700  0.69577900  0.86431200  1
  Ni  Ni1  1  0.86431200  0.39246700  0.69577900  1
  Ni  Ni2  1  0.69577900  0.86431200  0.39246700  1
  Ni  Ni3  1  0.60753300  0.30422100  0.13568800  1
  Ni  Ni4  1  0.13568800  0.60753300  0.30422100  1
  Ni  Ni5  1  0.30422100  0.13568800  0.60753300  1
  Cu  Cu6  1  0.00000000  0.00000000  0.00000000  1
  C  C7  1  0.17491900  0.42300300  0.60102700  1
  C  C8  1  0.60102700  0.17491900  0.42300300  1
  C  C9  1  0.42300300  0.60102700  0.17491900  1
  C  C10  1  0.82508100  0.57699700  0.39897300  1
  C  C11  1  0.39897300  0.82508100  0.57699700  1
  C  C12  1  0.57699700  0.39897300  0.82508100  1
  C  C13  1  0.92807200  0.03388100  0.70511200  1
  C  C14  1  0.96611900  0.29488800  0.07192800  1
  C  C15  1  0.29488800  0.07192800  0.96611900  1
  C  C16  1  0.07192800  0.96611900  0.29488800  1
  C  C17  1  0.03388100  0.70511200  0.92807200  1
  C  C18  1  0.70511200  0.92807200  0.03388100  1
