# generated using pymatgen
data_CuNiC18
_symmetry_space_group_name_H-M   'P 1'
_cell_length_a   5.82179000
_cell_length_b   5.82179000
_cell_length_c   8.11837100
_cell_angle_alpha   90.00000000
_cell_angle_beta   90.00000000
_cell_angle_gamma   90.00000000
_symmetry_Int_Tables_number   1
_chemical_formula_structural   CuNiC18
_chemical_formula_sum   'Cu1 Ni1 C18'
_cell_volume   275.15788700
_cell_formula_units_Z   1
loop_
 _symmetry_equiv_pos_site_id
 _symmetry_equiv_pos_as_xyz
  1  'x, y, z'
loop_
 _atom_site_type_symbol
 _atom_site_label
 _atom_site_symmetry_multiplicity
 _atom_site_fract_x
 _atom_site_fract_y
 _atom_site_fract_z
 _atom_site_occupancy
  C  C0  1  0.50000000  0.00000000  0.74856100  1
  C  C1  1  0.00000000  0.50000000  0.25143900  1
  C  C2  1  0.50000000  0.00000000  0.25143900  1
  C  C3  1  0.00000000  0.50000000  0.74856100  1
  Ni  Ni4  1  0.00000000  0.00000000  0.50000000  1
  C  C5  1  0.00000000  0.00000000  0.00000000  1
  C  C6  1  0.50000000  0.50000000  0.50000000  1
  Cu  Cu7  1  0.50000000  0.50000000  0.00000000  1
  C  C8  1  0.00000000  0.00000000  0.75887500  1
  C  C9  1  0.50000000  0.50000000  0.23644400  1
  C  C10  1  0.75660400  0.75660400  0.50000000  1
  C  C11  1  0.25987600  0.25987600  0.00000000  1
  C  C12  1  0.75660400  0.24339600  0.50000000  1
  C  C13  1  0.25987600  0.74012400  0.00000000  1
  C  C14  1  0.00000000  0.00000000  0.24112500  1
  C  C15  1  0.50000000  0.50000000  0.76355600  1
  C  C16  1  0.24339600  0.24339600  0.50000000  1
  C  C17  1  0.74012400  0.74012400  0.00000000  1
  C  C18  1  0.24339600  0.75660400  0.50000000  1
  C  C19  1  0.74012400  0.25987600  0.00000000  1
