# generated using pymatgen
data_Cu2Ni2C3
_symmetry_space_group_name_H-M   'P 1'
_cell_length_a   18.47595446
_cell_length_b   18.47595446
_cell_length_c   18.47595446
_cell_angle_alpha   90.00000000
_cell_angle_beta   90.00000000
_cell_angle_gamma   90.00000000
_symmetry_Int_Tables_number   1
_chemical_formula_structural   Cu2Ni2C3
_chemical_formula_sum   'Cu64 Ni64 C96'
_cell_volume   6306.96831734
_cell_formula_units_Z   32
loop_
 _symmetry_equiv_pos_site_id
 _symmetry_equiv_pos_as_xyz
  1  'x, y, z'
loop_
 _atom_site_type_symbol
 _atom_site_label
 _atom_site_symmetry_multiplicity
 _atom_site_fract_x
 _atom_site_fract_y
 _atom_site_fract_z
 _atom_site_occupancy
  C  C0  1  0.85695047  0.35695047  0.75000000  1
  C  C1  1  0.64304953  0.25000000  0.85695047  1
  C  C2  1  0.75000000  0.14304953  0.64304953  1
  C  C3  1  0.14304953  0.64304953  0.25000000  1
  C  C4  1  0.35695047  0.75000000  0.14304953  1
  C  C5  1  0.25000000  0.85695047  0.35695047  1
  C  C6  1  0.85695047  0.64304953  0.25000000  1
  C  C7  1  0.64304953  0.75000000  0.14304953  1
  C  C8  1  0.75000000  0.85695047  0.35695047  1
  C  C9  1  0.14304953  0.35695047  0.75000000  1
  C  C10  1  0.35695047  0.25000000  0.85695047  1
  C  C11  1  0.25000000  0.14304953  0.64304953  1
  C  C12  1  0.14304953  0.64304953  0.75000000  1
  C  C13  1  0.35695047  0.75000000  0.85695047  1
  C  C14  1  0.25000000  0.85695047  0.64304953  1
  C  C15  1  0.85695047  0.35695047  0.25000000  1
  C  C16  1  0.64304953  0.25000000  0.14304953  1
  C  C17  1  0.75000000  0.14304953  0.35695047  1
  C  C18  1  0.14304953  0.35695047  0.25000000  1
  C  C19  1  0.35695047  0.25000000  0.14304953  1
  C  C20  1  0.25000000  0.14304953  0.35695047  1
  C  C21  1  0.85695047  0.64304953  0.75000000  1
  C  C22  1  0.64304953  0.75000000  0.85695047  1
  C  C23  1  0.75000000  0.85695047  0.64304953  1
  C  C24  1  0.64123714  0.38401761  0.00000000  1
  C  C25  1  0.61598239  0.00000000  0.64123714  1
  C  C26  1  -0.00000000  0.35876286  0.61598239  1
  C  C27  1  0.35876286  0.61598239  0.00000000  1
  C  C28  1  0.38401761  -0.00000000  0.35876286  1
  C  C29  1  -0.00000000  0.64123714  0.38401761  1
  C  C30  1  0.64123714  0.61598239  0.00000000  1
  C  C31  1  0.61598239  -0.00000000  0.35876286  1
  C  C32  1  0.35876286  0.38401761  0.00000000  1
  C  C33  1  0.38401761  0.00000000  0.64123714  1
  C  C34  1  -0.00000000  0.64123714  0.61598239  1
  C  C35  1  -0.00000000  0.35876286  0.38401761  1
  C  C36  1  0.14123714  0.50000000  0.88401761  1
  C  C37  1  0.11598239  0.14123714  0.50000000  1
  C  C38  1  0.50000000  0.11598239  0.85876286  1
  C  C39  1  0.85876286  0.50000000  0.11598239  1
  C  C40  1  0.88401761  0.85876286  0.50000000  1
  C  C41  1  0.50000000  0.88401761  0.14123714  1
  C  C42  1  0.14123714  0.50000000  0.11598239  1
  C  C43  1  0.11598239  0.85876286  0.50000000  1
  C  C44  1  0.85876286  0.50000000  0.88401761  1
  C  C45  1  0.88401761  0.14123714  0.50000000  1
  C  C46  1  0.50000000  0.11598239  0.14123714  1
  C  C47  1  0.50000000  0.88401761  0.85876286  1
  C  C48  1  0.63516796  0.50000000  0.64475643  1
  C  C49  1  0.50000000  0.35524357  0.63516796  1
  C  C50  1  0.64475643  0.36483204  0.50000000  1
  C  C51  1  0.36483204  0.50000000  0.35524357  1
  C  C52  1  0.50000000  0.64475643  0.36483204  1
  C  C53  1  0.35524357  0.63516796  0.50000000  1
  C  C54  1  0.63516796  0.50000000  0.35524357  1
  C  C55  1  0.64475643  0.63516796  0.50000000  1
  C  C56  1  0.36483204  0.50000000  0.64475643  1
  C  C57  1  0.35524357  0.36483204  0.50000000  1
  C  C58  1  0.50000000  0.64475643  0.63516796  1
  C  C59  1  0.50000000  0.35524357  0.36483204  1
  C  C60  1  0.13516796  0.14475643  0.00000000  1
  C  C61  1  -0.00000000  0.13516796  0.85524357  1
  C  C62  1  0.14475643  0.00000000  0.86483204  1
  C  C63  1  0.86483204  0.85524357  0.00000000  1
  C  C64  1  -0.00000000  0.86483204  0.14475643  1
  C  C65  1  0.85524357  0.00000000  0.13516796  1
  C  C66  1  0.13516796  0.85524357  0.00000000  1
  C  C67  1  0.14475643  -0.00000000  0.13516796  1
  C  C68  1  0.86483204  0.14475643  0.00000000  1
  C  C69  1  0.85524357  -0.00000000  0.86483204  1
  C  C70  1  -0.00000000  0.13516796  0.14475643  1
  C  C71  1  -0.00000000  0.86483204  0.85524357  1
  C  C72  1  0.86329867  0.50000000  0.61592079  1
  C  C73  1  0.50000000  0.38407921  0.86329867  1
  C  C74  1  0.61592079  0.13670133  0.50000000  1
  C  C75  1  0.13670133  0.50000000  0.38407921  1
  C  C76  1  0.50000000  0.61592079  0.13670133  1
  C  C77  1  0.38407921  0.86329867  0.50000000  1
  C  C78  1  0.86329867  0.50000000  0.38407921  1
  C  C79  1  0.61592079  0.86329867  0.50000000  1
  C  C80  1  0.13670133  0.50000000  0.61592079  1
  C  C81  1  0.38407921  0.13670133  0.50000000  1
  C  C82  1  0.50000000  0.61592079  0.86329867  1
  C  C83  1  0.50000000  0.38407921  0.13670133  1
  C  C84  1  0.36329867  0.11592079  0.00000000  1
  C  C85  1  -0.00000000  0.36329867  0.88407921  1
  C  C86  1  0.11592079  -0.00000000  0.63670133  1
  C  C87  1  0.63670133  0.88407921  0.00000000  1
  C  C88  1  -0.00000000  0.63670133  0.11592079  1
  C  C89  1  0.88407921  0.00000000  0.36329867  1
  C  C90  1  0.36329867  0.88407921  0.00000000  1
  C  C91  1  0.11592079  -0.00000000  0.36329867  1
  C  C92  1  0.63670133  0.11592079  0.00000000  1
  C  C93  1  0.88407921  0.00000000  0.63670133  1
  C  C94  1  -0.00000000  0.36329867  0.11592079  1
  C  C95  1  -0.00000000  0.63670133  0.88407921  1
  Ni  Ni96  1  0.63165350  0.36834650  0.63165350  1
  Ni  Ni97  1  0.36834650  0.63165350  0.36834650  1
  Ni  Ni98  1  0.63165350  0.63165350  0.36834650  1
  Ni  Ni99  1  0.36834650  0.36834650  0.63165350  1
  Ni  Ni100  1  0.36834650  0.63165350  0.63165350  1
  Ni  Ni101  1  0.63165350  0.36834650  0.36834650  1
  Ni  Ni102  1  0.36834650  0.36834650  0.36834650  1
  Ni  Ni103  1  0.63165350  0.63165350  0.63165350  1
  Ni  Ni104  1  0.13165350  0.13165350  0.86834650  1
  Ni  Ni105  1  0.86834650  0.86834650  0.13165350  1
  Ni  Ni106  1  0.13165350  0.86834650  0.13165350  1
  Ni  Ni107  1  0.86834650  0.13165350  0.86834650  1
  Ni  Ni108  1  0.86834650  0.13165350  0.13165350  1
  Ni  Ni109  1  0.13165350  0.86834650  0.86834650  1
  Ni  Ni110  1  0.86834650  0.86834650  0.86834650  1
  Ni  Ni111  1  0.13165350  0.13165350  0.13165350  1
  Ni  Ni112  1  0.86813886  0.36872807  0.88182361  1
  Ni  Ni113  1  0.63127193  0.11817639  0.86813886  1
  Ni  Ni114  1  0.88182361  0.13186114  0.63127193  1
  Ni  Ni115  1  0.13186114  0.63127193  0.11817639  1
  Ni  Ni116  1  0.36872807  0.88182361  0.13186114  1
  Ni  Ni117  1  0.11817639  0.86813886  0.36872807  1
  Ni  Ni118  1  0.86813886  0.63127193  0.11817639  1
  Ni  Ni119  1  0.63127193  0.88182361  0.13186114  1
  Ni  Ni120  1  0.88182361  0.86813886  0.36872807  1
  Ni  Ni121  1  0.13186114  0.36872807  0.88182361  1
  Ni  Ni122  1  0.36872807  0.11817639  0.86813886  1
  Ni  Ni123  1  0.11817639  0.13186114  0.63127193  1
  Ni  Ni124  1  0.13186114  0.63127193  0.88182361  1
  Ni  Ni125  1  0.36872807  0.88182361  0.86813886  1
  Ni  Ni126  1  0.11817639  0.86813886  0.63127193  1
  Ni  Ni127  1  0.86813886  0.36872807  0.11817639  1
  Ni  Ni128  1  0.63127193  0.11817639  0.13186114  1
  Ni  Ni129  1  0.88182361  0.13186114  0.36872807  1
  Ni  Ni130  1  0.13186114  0.36872807  0.11817639  1
  Ni  Ni131  1  0.36872807  0.11817639  0.13186114  1
  Ni  Ni132  1  0.11817639  0.13186114  0.36872807  1
  Ni  Ni133  1  0.86813886  0.63127193  0.88182361  1
  Ni  Ni134  1  0.63127193  0.88182361  0.86813886  1
  Ni  Ni135  1  0.88182361  0.86813886  0.63127193  1
  Ni  Ni136  1  0.36813886  0.38182361  0.86872807  1
  Ni  Ni137  1  0.13127193  0.36813886  0.61817639  1
  Ni  Ni138  1  0.38182361  0.13127193  0.63186114  1
  Ni  Ni139  1  0.63186114  0.61817639  0.13127193  1
  Ni  Ni140  1  0.86872807  0.63186114  0.38182361  1
  Ni  Ni141  1  0.61817639  0.86872807  0.36813886  1
  Ni  Ni142  1  0.36813886  0.61817639  0.13127193  1
  Ni  Ni143  1  0.13127193  0.63186114  0.38182361  1
  Ni  Ni144  1  0.38182361  0.86872807  0.36813886  1
  Ni  Ni145  1  0.63186114  0.38182361  0.86872807  1
  Ni  Ni146  1  0.86872807  0.36813886  0.61817639  1
  Ni  Ni147  1  0.61817639  0.13127193  0.63186114  1
  Ni  Ni148  1  0.63186114  0.38182361  0.13127193  1
  Ni  Ni149  1  0.86872807  0.36813886  0.38182361  1
  Ni  Ni150  1  0.61817639  0.13127193  0.36813886  1
  Ni  Ni151  1  0.36813886  0.61817639  0.86872807  1
  Ni  Ni152  1  0.13127193  0.63186114  0.61817639  1
  Ni  Ni153  1  0.38182361  0.86872807  0.63186114  1
  Ni  Ni154  1  0.63186114  0.61817639  0.86872807  1
  Ni  Ni155  1  0.86872807  0.63186114  0.61817639  1
  Ni  Ni156  1  0.61817639  0.86872807  0.63186114  1
  Ni  Ni157  1  0.36813886  0.38182361  0.13127193  1
  Ni  Ni158  1  0.13127193  0.36813886  0.38182361  1
  Ni  Ni159  1  0.38182361  0.13127193  0.36813886  1
  Cu  Cu160  1  0.50000000  0.50000000  0.50000000  1
  Cu  Cu161  1  -0.00000000  -0.00000000  0.00000000  1
  Cu  Cu162  1  0.75000000  0.50000000  0.00000000  1
  Cu  Cu163  1  0.50000000  -0.00000000  0.75000000  1
  Cu  Cu164  1  -0.00000000  0.25000000  0.50000000  1
  Cu  Cu165  1  0.25000000  0.50000000  0.00000000  1
  Cu  Cu166  1  0.50000000  0.00000000  0.25000000  1
  Cu  Cu167  1  -0.00000000  0.75000000  0.50000000  1
  Cu  Cu168  1  -0.00000000  0.50000000  0.00000000  1
  Cu  Cu169  1  0.50000000  0.00000000  0.00000000  1
  Cu  Cu170  1  -0.00000000  -0.00000000  0.50000000  1
  Cu  Cu171  1  0.50000000  0.50000000  0.00000000  1
  Cu  Cu172  1  -0.00000000  0.50000000  0.50000000  1
  Cu  Cu173  1  0.50000000  -0.00000000  0.50000000  1
  Cu  Cu174  1  -0.00000000  0.50000000  0.75000000  1
  Cu  Cu175  1  0.50000000  0.25000000  0.00000000  1
  Cu  Cu176  1  0.75000000  0.00000000  0.50000000  1
  Cu  Cu177  1  -0.00000000  0.50000000  0.25000000  1
  Cu  Cu178  1  0.50000000  0.75000000  0.00000000  1
  Cu  Cu179  1  0.25000000  0.00000000  0.50000000  1
  Cu  Cu180  1  0.75000000  0.25000000  0.75000000  1
  Cu  Cu181  1  0.25000000  0.75000000  0.25000000  1
  Cu  Cu182  1  0.75000000  0.75000000  0.25000000  1
  Cu  Cu183  1  0.25000000  0.25000000  0.75000000  1
  Cu  Cu184  1  0.25000000  0.75000000  0.75000000  1
  Cu  Cu185  1  0.75000000  0.25000000  0.25000000  1
  Cu  Cu186  1  0.25000000  0.25000000  0.25000000  1
  Cu  Cu187  1  0.75000000  0.75000000  0.75000000  1
  Cu  Cu188  1  0.74406114  0.50000000  0.50000000  1
  Cu  Cu189  1  0.50000000  0.50000000  0.74406114  1
  Cu  Cu190  1  0.50000000  0.25593886  0.50000000  1
  Cu  Cu191  1  0.25593886  0.50000000  0.50000000  1
  Cu  Cu192  1  0.50000000  0.50000000  0.25593886  1
  Cu  Cu193  1  0.50000000  0.74406114  0.50000000  1
  Cu  Cu194  1  0.24406114  0.00000000  0.00000000  1
  Cu  Cu195  1  -0.00000000  0.24406114  0.00000000  1
  Cu  Cu196  1  -0.00000000  -0.00000000  0.75593886  1
  Cu  Cu197  1  0.75593886  -0.00000000  0.00000000  1
  Cu  Cu198  1  -0.00000000  0.75593886  0.00000000  1
  Cu  Cu199  1  -0.00000000  0.00000000  0.24406114  1
  Cu  Cu200  1  -0.00000000  0.25895069  0.75504409  1
  Cu  Cu201  1  0.74104931  0.24495591  0.00000000  1
  Cu  Cu202  1  0.75504409  -0.00000000  0.74104931  1
  Cu  Cu203  1  -0.00000000  0.74104931  0.24495591  1
  Cu  Cu204  1  0.25895069  0.75504409  0.00000000  1
  Cu  Cu205  1  0.24495591  0.00000000  0.25895069  1
  Cu  Cu206  1  0.74104931  0.75504409  0.00000000  1
  Cu  Cu207  1  0.75504409  0.00000000  0.25895069  1
  Cu  Cu208  1  0.25895069  0.24495591  0.00000000  1
  Cu  Cu209  1  0.24495591  -0.00000000  0.74104931  1
  Cu  Cu210  1  -0.00000000  0.74104931  0.75504409  1
  Cu  Cu211  1  -0.00000000  0.25895069  0.24495591  1
  Cu  Cu212  1  0.50000000  0.25504409  0.75895069  1
  Cu  Cu213  1  0.24104931  0.50000000  0.74495591  1
  Cu  Cu214  1  0.25504409  0.24104931  0.50000000  1
  Cu  Cu215  1  0.50000000  0.74495591  0.24104931  1
  Cu  Cu216  1  0.75895069  0.50000000  0.25504409  1
  Cu  Cu217  1  0.74495591  0.75895069  0.50000000  1
  Cu  Cu218  1  0.24104931  0.50000000  0.25504409  1
  Cu  Cu219  1  0.25504409  0.75895069  0.50000000  1
  Cu  Cu220  1  0.75895069  0.50000000  0.74495591  1
  Cu  Cu221  1  0.74495591  0.24104931  0.50000000  1
  Cu  Cu222  1  0.50000000  0.25504409  0.24104931  1
  Cu  Cu223  1  0.50000000  0.74495591  0.75895069  1
