# generated using pymatgen
data_Cu2Ni4C13
_symmetry_space_group_name_H-M   'P 1'
_cell_length_a   5.79068920
_cell_length_b   6.02711618
_cell_length_c   13.70450500
_cell_angle_alpha   90.00000000
_cell_angle_beta   90.00000000
_cell_angle_gamma   105.82983314
_symmetry_Int_Tables_number   1
_chemical_formula_structural   Cu2Ni4C13
_chemical_formula_sum   'Cu4 Ni8 C26'
_cell_volume   460.16395256
_cell_formula_units_Z   2
loop_
 _symmetry_equiv_pos_site_id
 _symmetry_equiv_pos_as_xyz
  1  'x, y, z'
loop_
 _atom_site_type_symbol
 _atom_site_label
 _atom_site_symmetry_multiplicity
 _atom_site_fract_x
 _atom_site_fract_y
 _atom_site_fract_z
 _atom_site_occupancy
  C  C0  1  0.73783100  0.57343300  0.37694600  1
  C  C1  1  0.76216900  0.42656700  0.87694600  1
  C  C2  1  0.26216900  0.42656700  0.62305400  1
  C  C3  1  0.23783100  0.57343300  0.12305400  1
  C  C4  1  0.50000000  0.00000000  0.50000000  1
  C  C5  1  0.00000000  0.00000000  0.00000000  1
  Ni  Ni6  1  0.49603100  0.90576200  0.30126600  1
  Ni  Ni7  1  0.00396900  0.09423800  0.80126600  1
  Ni  Ni8  1  0.50396900  0.09423800  0.69873400  1
  Ni  Ni9  1  0.99603100  0.90576200  0.19873400  1
  Ni  Ni10  1  0.31010000  0.69499800  0.35088800  1
  Ni  Ni11  1  0.18990000  0.30500200  0.85088800  1
  Ni  Ni12  1  0.68990000  0.30500200  0.64911200  1
  Ni  Ni13  1  0.81010000  0.69499800  0.14911200  1
  Cu  Cu14  1  0.06656400  0.22420500  0.38153000  1
  Cu  Cu15  1  0.43343600  0.77579500  0.88153000  1
  Cu  Cu16  1  0.93343600  0.77579500  0.61847000  1
  Cu  Cu17  1  0.56656400  0.22420500  0.11847000  1
  C  C18  1  0.00433800  0.97291400  0.32321700  1
  C  C19  1  0.49566200  0.02708600  0.82321700  1
  C  C20  1  0.99566200  0.02708600  0.67678300  1
  C  C21  1  0.50433800  0.97291400  0.17678300  1
  C  C22  1  0.32291700  0.26718400  0.44689500  1
  C  C23  1  0.17708300  0.73281600  0.94689500  1
  C  C24  1  0.67708300  0.73281600  0.55310500  1
  C  C25  1  0.82291700  0.26718400  0.05310500  1
  C  C26  1  0.84207400  0.23432200  0.45889200  1
  C  C27  1  0.65792600  0.76567800  0.95889200  1
  C  C28  1  0.15792600  0.76567800  0.54110800  1
  C  C29  1  0.34207400  0.23432200  0.04110800  1
  C  C30  1  0.09130600  0.44907000  0.30659100  1
  C  C31  1  0.40869400  0.55093000  0.80659100  1
  C  C32  1  0.90869400  0.55093000  0.69340900  1
  C  C33  1  0.59130600  0.44907000  0.19340900  1
  C  C34  1  0.46633400  0.81272600  0.36217900  1
  C  C35  1  0.03366600  0.18727400  0.86217900  1
  C  C36  1  0.53366600  0.18727400  0.63782100  1
  C  C37  1  0.96633400  0.81272600  0.13782100  1
