# generated using pymatgen
data_Cu2Ni5C4
_symmetry_space_group_name_H-M   'P 1'
_cell_length_a   8.70046670
_cell_length_b   8.70046670
_cell_length_c   8.70046670
_cell_angle_alpha   90.00000000
_cell_angle_beta   60.00000000
_cell_angle_gamma   120.00000000
_symmetry_Int_Tables_number   1
_chemical_formula_structural   Cu2Ni5C4
_chemical_formula_sum   'Cu4 Ni10 C8'
_cell_volume   465.70687469
_cell_formula_units_Z   2
loop_
 _symmetry_equiv_pos_site_id
 _symmetry_equiv_pos_as_xyz
  1  'x, y, z'
loop_
 _atom_site_type_symbol
 _atom_site_label
 _atom_site_symmetry_multiplicity
 _atom_site_fract_x
 _atom_site_fract_y
 _atom_site_fract_z
 _atom_site_occupancy
  Ni  Ni0  1  0.00138600  0.00069300  0.49930700  1
  Ni  Ni1  1  0.50000000  0.49930700  0.49930700  1
  Ni  Ni2  1  0.50000000  0.00069300  0.49930700  1
  Ni  Ni3  1  0.99861400  0.49930700  0.00069300  1
  Ni  Ni4  1  0.50000000  0.00069300  0.00069300  1
  Ni  Ni5  1  0.50000000  0.49930700  0.00069300  1
  Ni  Ni6  1  0.17920000  0.08960000  0.73120000  1
  Ni  Ni7  1  0.82080000  0.08960000  0.08960000  1
  Ni  Ni8  1  0.82080000  0.73120000  0.08960000  1
  Ni  Ni9  1  0.17920000  0.08960000  0.08960000  1
  C  C10  1  0.50000000  0.25000000  0.25000000  1
  C  C11  1  0.50000000  0.75000000  0.75000000  1
  C  C12  1  0.57776200  0.28888100  0.71111900  1
  C  C13  1  0.00000000  0.71111900  0.71111900  1
  C  C14  1  0.00000000  0.28888100  0.71111900  1
  C  C15  1  0.42223800  0.71111900  0.28888100  1
  C  C16  1  0.00000000  0.28888100  0.28888100  1
  C  C17  1  0.00000000  0.71111900  0.28888100  1
  Cu  Cu18  1  0.75782300  0.87891100  0.36326600  1
  Cu  Cu19  1  0.24217700  0.87891100  0.87891100  1
  Cu  Cu20  1  0.24217700  0.36326600  0.87891100  1
  Cu  Cu21  1  0.75782300  0.87891100  0.87891100  1
