# generated using pymatgen
data_Cu3NiC3
_symmetry_space_group_name_H-M   'P 1'
_cell_length_a   4.93331300
_cell_length_b   9.87816700
_cell_length_c   21.98662300
_cell_angle_alpha   90.00000000
_cell_angle_beta   90.00000000
_cell_angle_gamma   90.00000000
_symmetry_Int_Tables_number   1
_chemical_formula_structural   Cu3NiC3
_chemical_formula_sum   'Cu12 Ni4 C12'
_cell_volume   1071.45408374
_cell_formula_units_Z   4
loop_
 _symmetry_equiv_pos_site_id
 _symmetry_equiv_pos_as_xyz
  1  'x, y, z'
loop_
 _atom_site_type_symbol
 _atom_site_label
 _atom_site_symmetry_multiplicity
 _atom_site_fract_x
 _atom_site_fract_y
 _atom_site_fract_z
 _atom_site_occupancy
  C  C0  1  0.25000000  0.87848900  0.19682300  1
  C  C1  1  0.75000000  0.12151100  0.80317700  1
  C  C2  1  0.75000000  0.62151100  0.69682300  1
  C  C3  1  0.25000000  0.37848900  0.30317700  1
  Ni  Ni4  1  0.25000000  0.54659500  0.90584700  1
  Ni  Ni5  1  0.75000000  0.45340500  0.09415300  1
  Ni  Ni6  1  0.75000000  0.95340500  0.40584700  1
  Ni  Ni7  1  0.25000000  0.04659500  0.59415300  1
  Cu  Cu8  1  0.25000000  0.90739700  0.72332500  1
  Cu  Cu9  1  0.75000000  0.09260300  0.27667500  1
  Cu  Cu10  1  0.75000000  0.59260300  0.22332500  1
  Cu  Cu11  1  0.25000000  0.40739700  0.77667500  1
  Cu  Cu12  1  0.25000000  0.66186800  0.05161900  1
  Cu  Cu13  1  0.75000000  0.33813200  0.94838100  1
  Cu  Cu14  1  0.75000000  0.83813200  0.55161900  1
  Cu  Cu15  1  0.25000000  0.16186800  0.44838100  1
  Cu  Cu16  1  0.25000000  0.75430500  0.37337200  1
  Cu  Cu17  1  0.75000000  0.24569500  0.62662800  1
  Cu  Cu18  1  0.75000000  0.74569500  0.87337200  1
  Cu  Cu19  1  0.25000000  0.25430500  0.12662800  1
  C  C20  1  0.25000000  0.55529500  0.59853300  1
  C  C21  1  0.75000000  0.44470500  0.40146700  1
  C  C22  1  0.75000000  0.94470500  0.09853300  1
  C  C23  1  0.25000000  0.05529500  0.90146700  1
  C  C24  1  0.25000000  0.51682400  0.54529000  1
  C  C25  1  0.75000000  0.48317600  0.45471000  1
  C  C26  1  0.75000000  0.98317600  0.04529000  1
  C  C27  1  0.25000000  0.01682400  0.95471000  1
