# generated using pymatgen
data_CuNiC16
_symmetry_space_group_name_H-M   'P 1'
_cell_length_a   5.83960168
_cell_length_b   5.83960168
_cell_length_c   8.20673078
_cell_angle_alpha   90.00000000
_cell_angle_beta   90.00000000
_cell_angle_gamma   89.95896141
_symmetry_Int_Tables_number   1
_chemical_formula_structural   CuNiC16
_chemical_formula_sum   'Cu1 Ni1 C16'
_cell_volume   279.85722633
_cell_formula_units_Z   1
loop_
 _symmetry_equiv_pos_site_id
 _symmetry_equiv_pos_as_xyz
  1  'x, y, z'
loop_
 _atom_site_type_symbol
 _atom_site_label
 _atom_site_symmetry_multiplicity
 _atom_site_fract_x
 _atom_site_fract_y
 _atom_site_fract_z
 _atom_site_occupancy
  Ni  Ni0  1  0.51627922  0.48372078  0.50000000  1
  Cu  Cu1  1  0.97671679  0.02328321  0.00000000  1
  C  C2  1  0.49097825  0.99286540  0.24460496  1
  C  C3  1  0.49097825  0.99286540  0.75539504  1
  C  C4  1  0.00713460  0.50902175  0.75539504  1
  C  C5  1  0.00713460  0.50902175  0.24460496  1
  C  C6  1  0.27225772  0.27223426  0.24890947  1
  C  C7  1  0.72776574  0.72774228  0.24890947  1
  C  C8  1  0.72776574  0.72774228  0.75109053  1
  C  C9  1  0.27225772  0.27223426  0.75109053  1
  C  C10  1  0.21231091  0.78768909  0.20049842  1
  C  C11  1  0.76587341  0.23412659  0.25923253  1
  C  C12  1  0.76587341  0.23412659  0.74076747  1
  C  C13  1  0.21231091  0.78768909  0.79950158  1
  C  C14  1  0.56861468  0.01722872  0.00000000  1
  C  C15  1  0.48738117  0.98160439  0.50000000  1
  C  C16  1  0.98277128  0.43138532  0.00000000  1
  C  C17  1  0.01839561  0.51261883  0.50000000  1
