# generated using pymatgen
data_Cu2NiC18
_symmetry_space_group_name_H-M   'P 1'
_cell_length_a   14.31036400
_cell_length_b   14.31036334
_cell_length_c   8.74485100
_cell_angle_alpha   90.00000000
_cell_angle_beta   90.00000000
_cell_angle_gamma   120.00000152
_symmetry_Int_Tables_number   1
_chemical_formula_structural   Cu2NiC18
_chemical_formula_sum   'Cu12 Ni6 C108'
_cell_volume   1550.90208719
_cell_formula_units_Z   6
loop_
 _symmetry_equiv_pos_site_id
 _symmetry_equiv_pos_as_xyz
  1  'x, y, z'
loop_
 _atom_site_type_symbol
 _atom_site_label
 _atom_site_symmetry_multiplicity
 _atom_site_fract_x
 _atom_site_fract_y
 _atom_site_fract_z
 _atom_site_occupancy
  Ni  Ni0  1  0.33913600  0.00556400  0.03806600  1
  Ni  Ni1  1  0.99443600  0.33357200  0.03806600  1
  Ni  Ni2  1  0.66642800  0.66086400  0.03806600  1
  Ni  Ni3  1  0.66934700  0.99562800  0.05709100  1
  Ni  Ni4  1  0.00437200  0.67371900  0.05709100  1
  Ni  Ni5  1  0.32628100  0.33065300  0.05709100  1
  Cu  Cu6  1  0.00000000  0.00000000  0.00673700  1
  Cu  Cu7  1  0.33333300  0.66666700  0.01473100  1
  Cu  Cu8  1  0.66666700  0.33333300  0.08516800  1
  Cu  Cu9  1  0.00000000  0.00000000  0.51359500  1
  Cu  Cu10  1  0.33333300  0.66666700  0.52250800  1
  Cu  Cu11  1  0.66666700  0.33333300  0.57974500  1
  Cu  Cu12  1  0.32235600  0.99026800  0.54073700  1
  Cu  Cu13  1  0.00973200  0.33208800  0.54073700  1
  Cu  Cu14  1  0.66791200  0.67764400  0.54073700  1
  Cu  Cu15  1  0.66498100  0.00882800  0.54911500  1
  Cu  Cu16  1  0.99117200  0.65615300  0.54911500  1
  Cu  Cu17  1  0.34384700  0.33501900  0.54911500  1
  C  C18  1  0.90233000  0.86571600  0.12649000  1
  C  C19  1  0.13428400  0.03661400  0.12649000  1
  C  C20  1  0.96338600  0.09767000  0.12649000  1
  C  C21  1  0.02573200  0.90200000  0.86543200  1
  C  C22  1  0.09800000  0.12373200  0.86543200  1
  C  C23  1  0.87626800  0.97426800  0.86543200  1
  C  C24  1  0.46815900  0.69995200  0.13081600  1
  C  C25  1  0.30004800  0.76820700  0.13081600  1
  C  C26  1  0.23179300  0.53184100  0.13081600  1
  C  C27  1  0.35939700  0.56784100  0.87624800  1
  C  C28  1  0.43215900  0.79155600  0.87624800  1
  C  C29  1  0.20844400  0.64060300  0.87624800  1
  C  C30  1  0.80035700  0.43500200  0.96735500  1
  C  C31  1  0.56499800  0.36535500  0.96735500  1
  C  C32  1  0.63464500  0.19964300  0.96735500  1
  C  C33  1  0.54441600  0.23411900  0.22745800  1
  C  C34  1  0.76588100  0.31029700  0.22745800  1
  C  C35  1  0.68970300  0.45558400  0.22745800  1
  C  C36  1  0.22684900  0.92519600  0.16564400  1
  C  C37  1  0.07480400  0.30165300  0.16564400  1
  C  C38  1  0.69834700  0.77315100  0.16564400  1
  C  C39  1  0.31089600  0.88922000  0.92091400  1
  C  C40  1  0.11078000  0.42167600  0.92091400  1
  C  C41  1  0.57832400  0.68910400  0.92091400  1
  C  C42  1  0.42161000  0.97211300  0.15141800  1
  C  C43  1  0.02788700  0.44949700  0.15141800  1
  C  C44  1  0.55050300  0.57839000  0.15141800  1
  C  C45  1  0.44556600  0.08864900  0.91130700  1
  C  C46  1  0.91135100  0.35691800  0.91130700  1
  C  C47  1  0.64308200  0.55443400  0.91130700  1
  C  C48  1  0.36306800  0.11514200  0.16202800  1
  C  C49  1  0.88485800  0.24792700  0.16202800  1
  C  C50  1  0.75207300  0.63693200  0.16202800  1
  C  C51  1  0.25054300  0.02956400  0.92013300  1
  C  C52  1  0.97043600  0.22097900  0.92013300  1
  C  C53  1  0.77902100  0.74945700  0.92013300  1
  C  C54  1  0.55776400  0.96868300  0.93315500  1
  C  C55  1  0.03131700  0.58908100  0.93315500  1
  C  C56  1  0.41091900  0.44223600  0.93315500  1
  C  C57  1  0.58385700  0.89004100  0.18713400  1
  C  C58  1  0.10995900  0.69381600  0.18713400  1
  C  C59  1  0.30618400  0.41614300  0.18713400  1
  C  C60  1  0.69429900  0.90632700  0.94719600  1
  C  C61  1  0.09367300  0.78797200  0.94719600  1
  C  C62  1  0.21202800  0.30570100  0.94719600  1
  C  C63  1  0.78085700  0.02218100  0.18144100  1
  C  C64  1  0.97781900  0.75867600  0.18144100  1
  C  C65  1  0.24132400  0.21914300  0.18144100  1
  C  C66  1  0.74970200  0.10964000  0.93836900  1
  C  C67  1  0.89036000  0.64006200  0.93836900  1
  C  C68  1  0.35993800  0.25029800  0.93836900  1
  C  C69  1  0.64333600  0.08571000  0.17414300  1
  C  C70  1  0.91429000  0.55762600  0.17414300  1
  C  C71  1  0.44237400  0.35666400  0.17414300  1
  C  C72  1  0.92437100  0.86734300  0.65140100  1
  C  C73  1  0.13265700  0.05702800  0.65140100  1
  C  C74  1  0.94297200  0.07562900  0.65140100  1
  C  C75  1  0.08831000  0.95861200  0.37476000  1
  C  C76  1  0.04138800  0.12969900  0.37476000  1
  C  C77  1  0.87030100  0.91169000  0.37476000  1
  C  C78  1  0.42370400  0.63176000  0.37935300  1
  C  C79  1  0.36824000  0.79194400  0.37935300  1
  C  C80  1  0.20805600  0.57629600  0.37935300  1
  C  C81  1  0.46746800  0.73248300  0.66030300  1
  C  C82  1  0.26751700  0.73498500  0.66030300  1
  C  C83  1  0.26501500  0.53253200  0.66030300  1
  C  C84  1  0.59523100  0.39576600  0.44125400  1
  C  C85  1  0.60423400  0.19946400  0.44125400  1
  C  C86  1  0.80053600  0.40476900  0.44125400  1
  C  C87  1  0.70698100  0.24491400  0.71897700  1
  C  C88  1  0.75508600  0.46206700  0.71897700  1
  C  C89  1  0.53793300  0.29301900  0.71897700  1
  C  C90  1  0.19380500  0.93746600  0.68328700  1
  C  C91  1  0.06253400  0.25633900  0.68328700  1
  C  C92  1  0.74366100  0.80619500  0.68328700  1
  C  C93  1  0.25036400  0.85997800  0.40110400  1
  C  C94  1  0.14002200  0.39038600  0.40110400  1
  C  C95  1  0.60961400  0.74963600  0.40110400  1
  C  C96  1  0.38116700  0.91770400  0.68048500  1
  C  C97  1  0.08229600  0.46346300  0.68048500  1
  C  C98  1  0.53653700  0.61883300  0.68048500  1
  C  C99  1  0.45733000  0.04139700  0.40849300  1
  C  C100  1  0.95860300  0.41593300  0.40849300  1
  C  C101  1  0.58406700  0.54267000  0.40849300  1
  C  C102  1  0.39579900  0.12884300  0.66859800  1
  C  C103  1  0.87115700  0.26695600  0.66859800  1
  C  C104  1  0.73304400  0.60420100  0.66859800  1
  C  C105  1  0.27275700  0.06881900  0.39765200  1
  C  C106  1  0.93118100  0.20393900  0.39765200  1
  C  C107  1  0.79606100  0.72724300  0.39765200  1
  C  C108  1  0.52855400  0.93664700  0.41858300  1
  C  C109  1  0.06335300  0.59190700  0.41858300  1
  C  C110  1  0.40809300  0.47144600  0.41858300  1
  C  C111  1  0.62473800  0.87835000  0.68531400  1
  C  C112  1  0.12165000  0.74638800  0.68531400  1
  C  C113  1  0.25361200  0.37526200  0.68531400  1
  C  C114  1  0.72735800  0.93498000  0.41671100  1
  C  C115  1  0.06502000  0.79237700  0.41671100  1
  C  C116  1  0.20762300  0.27264200  0.41671100  1
  C  C117  1  0.79995800  0.09204300  0.68006500  1
  C  C118  1  0.90795700  0.70791500  0.68006500  1
  C  C119  1  0.29208500  0.20004200  0.68006500  1
  C  C120  1  0.72069800  0.13784000  0.40694200  1
  C  C121  1  0.86216000  0.58285800  0.40694200  1
  C  C122  1  0.41714200  0.27930200  0.40694200  1
  C  C123  1  0.59215500  0.06155500  0.69512000  1
  C  C124  1  0.93844500  0.53060000  0.69512000  1
  C  C125  1  0.46940000  0.40784500  0.69512000  1
