# generated using pymatgen
data_CuNiC8
_symmetry_space_group_name_H-M   'P 1'
_cell_length_a   5.92163206
_cell_length_b   5.92163206
_cell_length_c   8.51960703
_cell_angle_alpha   90.00000000
_cell_angle_beta   90.00000000
_cell_angle_gamma   90.00000000
_symmetry_Int_Tables_number   1
_chemical_formula_structural   CuNiC8
_chemical_formula_sum   'Cu2 Ni2 C16'
_cell_volume   298.74620791
_cell_formula_units_Z   2
loop_
 _symmetry_equiv_pos_site_id
 _symmetry_equiv_pos_as_xyz
  1  'x, y, z'
loop_
 _atom_site_type_symbol
 _atom_site_label
 _atom_site_symmetry_multiplicity
 _atom_site_fract_x
 _atom_site_fract_y
 _atom_site_fract_z
 _atom_site_occupancy
  Ni  Ni0  1  0.00000000  0.50000000  0.25000000  1
  Ni  Ni1  1  0.50000000  -0.00000000  0.75000000  1
  Cu  Cu2  1  -0.00000000  -0.00000000  0.50000000  1
  Cu  Cu3  1  0.50000000  0.50000000  -0.00000000  1
  C  C4  1  0.50000000  -0.00000000  0.25000000  1
  C  C5  1  -0.00000000  0.50000000  0.75000000  1
  C  C6  1  0.00000000  0.00000000  -0.00000000  1
  C  C7  1  0.50000000  0.50000000  0.50000000  1
  C  C8  1  0.00000000  0.00000000  0.23705108  1
  C  C9  1  0.50000000  0.50000000  0.26294892  1
  C  C10  1  -0.00000000  -0.00000000  0.76294892  1
  C  C11  1  0.50000000  0.50000000  0.73705108  1
  C  C12  1  0.28284883  0.18811011  0.01193515  1
  C  C13  1  0.71715117  0.81188989  0.01193515  1
  C  C14  1  0.81188989  0.28284883  0.98806485  1
  C  C15  1  0.18811011  0.71715117  0.98806485  1
  C  C16  1  0.78284883  0.31188989  0.51193515  1
  C  C17  1  0.21715117  0.68811011  0.51193515  1
  C  C18  1  0.31188989  0.21715117  0.48806485  1
  C  C19  1  0.68811011  0.78284883  0.48806485  1
