# generated using pymatgen
data_CuNiC19
_symmetry_space_group_name_H-M   'P 1'
_cell_length_a   6.09162700
_cell_length_b   10.45943300
_cell_length_c   14.29242468
_cell_angle_alpha   89.96488673
_cell_angle_beta   90.00000000
_cell_angle_gamma   90.00000000
_symmetry_Int_Tables_number   1
_chemical_formula_structural   CuNiC19
_chemical_formula_sum   'Cu4 Ni4 C76'
_cell_volume   910.64115988
_cell_formula_units_Z   4
loop_
 _symmetry_equiv_pos_site_id
 _symmetry_equiv_pos_as_xyz
  1  'x, y, z'
loop_
 _atom_site_type_symbol
 _atom_site_label
 _atom_site_symmetry_multiplicity
 _atom_site_fract_x
 _atom_site_fract_y
 _atom_site_fract_z
 _atom_site_occupancy
  C  C0  1  0.75026100  0.99836600  0.66708500  1
  C  C1  1  0.24987100  0.99917000  0.99994000  1
  C  C2  1  0.75012900  0.99917000  0.99994000  1
  C  C3  1  0.25028900  0.99924400  0.33327400  1
  C  C4  1  0.74971100  0.99924400  0.33327400  1
  C  C5  1  0.24973900  0.99836600  0.66708500  1
  C  C6  1  0.24994400  0.50120300  0.50059000  1
  C  C7  1  0.75005600  0.50120300  0.50059000  1
  C  C8  1  0.25023100  0.50122700  0.16685200  1
  C  C9  1  0.74976900  0.50122700  0.16685200  1
  C  C10  1  0.24921200  0.50090600  0.83308000  1
  C  C11  1  0.75078800  0.50090600  0.83308000  1
  Ni  Ni12  1  0.00000000  0.21869700  0.15978200  1
  Ni  Ni13  1  0.00000000  0.21890800  0.49323200  1
  Ni  Ni14  1  0.50000000  0.28126700  0.65990800  1
  Ni  Ni15  1  0.50000000  0.28055800  0.99256000  1
  Cu  Cu16  1  0.00000000  0.21852600  0.82539800  1
  Cu  Cu17  1  0.50000000  0.28110000  0.32579000  1
  Cu  Cu18  1  0.00000000  0.71981700  0.00797500  1
  Cu  Cu19  1  0.00000000  0.71956100  0.34181800  1
  C  C20  1  0.00000000  0.72265000  0.67434100  1
  C  C21  1  0.50000000  0.77815300  0.84011200  1
  C  C22  1  0.50000000  0.78068700  0.50654000  1
  C  C23  1  0.50000000  0.78170300  0.17318500  1
  C  C24  1  0.50000000  0.09122000  0.80649000  1
  C  C25  1  0.50000000  0.09174000  0.13937200  1
  C  C26  1  0.50000000  0.09194600  0.47147900  1
  C  C27  1  0.00000000  0.40794900  0.30639000  1
  C  C28  1  0.00000000  0.40867000  0.63943500  1
  C  C29  1  0.00000000  0.40717500  0.97100300  1
  C  C30  1  0.50000000  0.59519500  0.36067900  1
  C  C31  1  0.50000000  0.59630000  0.02756200  1
  C  C32  1  0.50000000  0.59674300  0.69418100  1
  C  C33  1  0.00000000  0.90486700  0.86025600  1
  C  C34  1  0.00000000  0.90362700  0.19429600  1
  C  C35  1  0.00000000  0.90316900  0.52796100  1
  C  C36  1  0.00000000  0.04056300  0.23698600  1
  C  C37  1  0.00000000  0.04012200  0.57025500  1
  C  C38  1  0.00000000  0.04262100  0.90186900  1
  C  C39  1  0.50000000  0.09525900  0.57892900  1
  C  C40  1  0.50000000  0.09411900  0.91381600  1
  C  C41  1  0.50000000  0.09615100  0.24688000  1
  C  C42  1  0.29829700  0.16202300  0.09436200  1
  C  C43  1  0.70170300  0.16202300  0.09436200  1
  C  C44  1  0.29870000  0.16262000  0.42637300  1
  C  C45  1  0.70130000  0.16262000  0.42637300  1
  C  C46  1  0.29719100  0.16311000  0.76267800  1
  C  C47  1  0.70280900  0.16311000  0.76267800  1
  C  C48  1  0.79842900  0.33811000  0.59441100  1
  C  C49  1  0.20157100  0.33811000  0.59441100  1
  C  C50  1  0.79682200  0.33656800  0.26268600  1
  C  C51  1  0.20317800  0.33656800  0.26268600  1
  C  C52  1  0.79836200  0.33648000  0.92626300  1
  C  C53  1  0.20163800  0.33648000  0.92626300  1
  C  C54  1  0.00000000  0.40595400  0.41355600  1
  C  C55  1  0.00000000  0.40431300  0.07862400  1
  C  C56  1  0.00000000  0.40368000  0.74707500  1
  C  C57  1  0.50000000  0.45765100  0.40215800  1
  C  C58  1  0.50000000  0.45903300  0.06936700  1
  C  C59  1  0.50000000  0.45954600  0.73655800  1
  C  C60  1  0.00000000  0.54459100  0.26375600  1
  C  C61  1  0.00000000  0.54499000  0.93055900  1
  C  C62  1  0.00000000  0.54674300  0.59931300  1
  C  C63  1  0.50000000  0.59818300  0.25320400  1
  C  C64  1  0.50000000  0.59844300  0.91990500  1
  C  C65  1  0.50000000  0.59817100  0.58659000  1
  C  C66  1  0.29787200  0.66719600  0.07213200  1
  C  C67  1  0.29796900  0.66624600  0.40569200  1
  C  C68  1  0.29667700  0.66762100  0.73835800  1
  C  C69  1  0.70332300  0.66762100  0.73835800  1
  C  C70  1  0.70212800  0.66719600  0.07213200  1
  C  C71  1  0.70203100  0.66624600  0.40569200  1
  C  C72  1  0.79590200  0.83472800  0.90425600  1
  C  C73  1  0.20409800  0.83472800  0.90425600  1
  C  C74  1  0.79593400  0.83294200  0.23817400  1
  C  C75  1  0.79653200  0.83170100  0.57192900  1
  C  C76  1  0.20406600  0.83294200  0.23817400  1
  C  C77  1  0.20346800  0.83170100  0.57192900  1
  C  C78  1  0.00000000  0.90216000  0.75257900  1
  C  C79  1  0.00000000  0.90331500  0.42037200  1
  C  C80  1  0.00000000  0.90382900  0.08667100  1
  C  C81  1  0.50000000  0.95433200  0.76456200  1
  C  C82  1  0.50000000  0.95371400  0.09889800  1
  C  C83  1  0.50000000  0.95337000  0.43150900  1
