# generated using pymatgen
data_Cu2Ni2C15
_symmetry_space_group_name_H-M   'P 1'
_cell_length_a   6.52623200
_cell_length_b   11.13048700
_cell_length_c   13.52118400
_cell_angle_alpha   90.00000000
_cell_angle_beta   90.00000000
_cell_angle_gamma   90.00000000
_symmetry_Int_Tables_number   1
_chemical_formula_structural   Cu2Ni2C15
_chemical_formula_sum   'Cu8 Ni8 C60'
_cell_volume   982.18070461
_cell_formula_units_Z   4
loop_
 _symmetry_equiv_pos_site_id
 _symmetry_equiv_pos_as_xyz
  1  'x, y, z'
loop_
 _atom_site_type_symbol
 _atom_site_label
 _atom_site_symmetry_multiplicity
 _atom_site_fract_x
 _atom_site_fract_y
 _atom_site_fract_z
 _atom_site_occupancy
  Ni  Ni0  1  0.49557400  0.15913200  0.13276700  1
  Ni  Ni1  1  0.50442600  0.84086800  0.86723300  1
  Ni  Ni2  1  0.50442600  0.84086800  0.63276700  1
  Ni  Ni3  1  0.50442600  0.65913200  0.36723300  1
  Ni  Ni4  1  0.49557400  0.15913200  0.36723300  1
  Ni  Ni5  1  0.49557400  0.34086800  0.63276700  1
  Ni  Ni6  1  0.49557400  0.34086800  0.86723300  1
  Ni  Ni7  1  0.50442600  0.65913200  0.13276700  1
  Cu  Cu8  1  0.71029600  0.41161600  0.25000000  1
  Cu  Cu9  1  0.28970400  0.58838400  0.75000000  1
  Cu  Cu10  1  0.28970400  0.91161600  0.25000000  1
  Cu  Cu11  1  0.71029600  0.08838400  0.75000000  1
  Cu  Cu12  1  0.00522300  0.16261100  0.25000000  1
  Cu  Cu13  1  0.99477700  0.83738900  0.75000000  1
  Cu  Cu14  1  0.99477700  0.66261100  0.25000000  1
  Cu  Cu15  1  0.00522300  0.33738900  0.75000000  1
  C  C16  1  0.24824300  0.80751600  0.05025300  1
  C  C17  1  0.75175700  0.19248400  0.94974700  1
  C  C18  1  0.75175700  0.19248400  0.55025300  1
  C  C19  1  0.75175700  0.30751600  0.44974700  1
  C  C20  1  0.24824300  0.80751600  0.44974700  1
  C  C21  1  0.24824300  0.69248400  0.55025300  1
  C  C22  1  0.24824300  0.69248400  0.94974700  1
  C  C23  1  0.75175700  0.30751600  0.05025300  1
  C  C24  1  0.74752900  0.25000000  0.00000000  1
  C  C25  1  0.25247100  0.75000000  0.00000000  1
  C  C26  1  0.25247100  0.75000000  0.50000000  1
  C  C27  1  0.74752900  0.25000000  0.50000000  1
  C  C28  1  0.25186200  0.40957900  0.07775900  1
  C  C29  1  0.74813800  0.59042100  0.92224100  1
  C  C30  1  0.74813800  0.59042100  0.57775900  1
  C  C31  1  0.74813800  0.90957900  0.42224100  1
  C  C32  1  0.25186200  0.40957900  0.42224100  1
  C  C33  1  0.25186200  0.09042100  0.57775900  1
  C  C34  1  0.25186200  0.09042100  0.92224100  1
  C  C35  1  0.74813800  0.90957900  0.07775900  1
  C  C36  1  0.70465300  0.22286500  0.25000000  1
  C  C37  1  0.29534700  0.77713500  0.75000000  1
  C  C38  1  0.29534700  0.72286500  0.25000000  1
  C  C39  1  0.70465300  0.27713500  0.75000000  1
  C  C40  1  0.28244300  0.09893900  0.03149400  1
  C  C41  1  0.71755700  0.90106100  0.96850600  1
  C  C42  1  0.71755700  0.90106100  0.53149400  1
  C  C43  1  0.71755700  0.59893900  0.46850600  1
  C  C44  1  0.28244300  0.09893900  0.46850600  1
  C  C45  1  0.28244300  0.40106100  0.53149400  1
  C  C46  1  0.28244300  0.40106100  0.96850600  1
  C  C47  1  0.71755700  0.59893900  0.03149400  1
  C  C48  1  0.28054000  0.53748000  0.11074400  1
  C  C49  1  0.71946000  0.46252000  0.88925600  1
  C  C50  1  0.71946000  0.46252000  0.61074400  1
  C  C51  1  0.71946000  0.03748000  0.38925600  1
  C  C52  1  0.28054000  0.53748000  0.38925600  1
  C  C53  1  0.28054000  0.96252000  0.61074400  1
  C  C54  1  0.28054000  0.96252000  0.88925600  1
  C  C55  1  0.71946000  0.03748000  0.11074400  1
  C  C56  1  0.04818700  0.36890600  0.10767100  1
  C  C57  1  0.95181300  0.63109400  0.89232900  1
  C  C58  1  0.95181300  0.63109400  0.60767100  1
  C  C59  1  0.95181300  0.86890600  0.39232900  1
  C  C60  1  0.04818700  0.36890600  0.39232900  1
  C  C61  1  0.04818700  0.13109400  0.60767100  1
  C  C62  1  0.04818700  0.13109400  0.89232900  1
  C  C63  1  0.95181300  0.86890600  0.10767100  1
  C  C64  1  0.41554400  0.33561000  0.12914700  1
  C  C65  1  0.58445600  0.66439000  0.87085300  1
  C  C66  1  0.58445600  0.66439000  0.62914700  1
  C  C67  1  0.58445600  0.83561000  0.37085300  1
  C  C68  1  0.41554400  0.33561000  0.37085300  1
  C  C69  1  0.41554400  0.16439000  0.62914700  1
  C  C70  1  0.41554400  0.16439000  0.87085300  1
  C  C71  1  0.58445600  0.83561000  0.12914700  1
  C  C72  1  0.30928500  0.10056100  0.25000000  1
  C  C73  1  0.69071500  0.89943900  0.75000000  1
  C  C74  1  0.69071500  0.60056100  0.25000000  1
  C  C75  1  0.30928500  0.39943900  0.75000000  1
