# generated using pymatgen
data_Cu6NiC
_symmetry_space_group_name_H-M   'P 1'
_cell_length_a   6.65721136
_cell_length_b   6.65721136
_cell_length_c   5.33813700
_cell_angle_alpha   90.00000000
_cell_angle_beta   90.00000000
_cell_angle_gamma   120.05482403
_symmetry_Int_Tables_number   1
_chemical_formula_structural   Cu6NiC
_chemical_formula_sum   'Cu6 Ni1 C1'
_cell_volume   204.76930206
_cell_formula_units_Z   1
loop_
 _symmetry_equiv_pos_site_id
 _symmetry_equiv_pos_as_xyz
  1  'x, y, z'
loop_
 _atom_site_type_symbol
 _atom_site_label
 _atom_site_symmetry_multiplicity
 _atom_site_fract_x
 _atom_site_fract_y
 _atom_site_fract_z
 _atom_site_occupancy
  C  C0  1  0.66534500  0.33465500  0.50000000  1
  Ni  Ni1  1  0.84403800  0.15596200  0.00000000  1
  Cu  Cu2  1  0.15177000  0.32378800  0.50000000  1
  Cu  Cu3  1  0.67621200  0.84823000  0.50000000  1
  Cu  Cu4  1  0.16620600  0.83379400  0.50000000  1
  Cu  Cu5  1  0.32400300  0.16271400  0.00000000  1
  Cu  Cu6  1  0.83728600  0.67599700  0.00000000  1
  Cu  Cu7  1  0.33514100  0.66485900  0.00000000  1
