# generated using pymatgen
data_CuNiC7
_symmetry_space_group_name_H-M   'P 1'
_cell_length_a   7.48925602
_cell_length_b   7.48925602
_cell_length_c   7.48925602
_cell_angle_alpha   120.25487197
_cell_angle_beta   119.66494681
_cell_angle_gamma   90.07021132
_symmetry_Int_Tables_number   1
_chemical_formula_structural   CuNiC7
_chemical_formula_sum   'Cu2 Ni2 C14'
_cell_volume   297.20041035
_cell_formula_units_Z   2
loop_
 _symmetry_equiv_pos_site_id
 _symmetry_equiv_pos_as_xyz
  1  'x, y, z'
loop_
 _atom_site_type_symbol
 _atom_site_label
 _atom_site_symmetry_multiplicity
 _atom_site_fract_x
 _atom_site_fract_y
 _atom_site_fract_z
 _atom_site_occupancy
  C  C0  1  0.01833500  0.05164200  0.53330700  1
  C  C1  1  0.98166500  0.51497200  0.03330700  1
  Ni  Ni2  1  0.50000000  0.99766000  0.49766000  1
  Ni  Ni3  1  0.00000000  0.99766000  0.99766000  1
  Cu  Cu4  1  0.49966100  0.49772000  0.49805800  1
  Cu  Cu5  1  0.50033900  0.99839700  0.99805800  1
  C  C6  1  0.18541300  0.93756100  0.25214800  1
  C  C7  1  0.55583400  0.30563300  0.24979800  1
  C  C8  1  0.19538200  0.94055500  0.87958300  1
  C  C9  1  0.55861300  0.31483200  0.61905300  1
  C  C10  1  0.19577900  0.31483200  0.25621900  1
  C  C11  1  0.56097200  0.94055500  0.24517300  1
  C  C12  1  0.81458700  0.06673500  0.75214800  1
  C  C13  1  0.44416600  0.69396400  0.74979800  1
  C  C14  1  0.80422100  0.06044000  0.11905300  1
  C  C15  1  0.43902800  0.68420100  0.37958300  1
  C  C16  1  0.80461800  0.68420100  0.74517300  1
  C  C17  1  0.44138700  0.06044000  0.75621900  1
