# generated using pymatgen
data_CuNi
_symmetry_space_group_name_H-M   'P 1'
_cell_length_a   4.17280115
_cell_length_b   7.53533165
_cell_length_c   10.65475676
_cell_angle_alpha   107.33156946
_cell_angle_beta   89.21256045
_cell_angle_gamma   100.87147565
_symmetry_Int_Tables_number   1
_chemical_formula_structural   CuNi
_chemical_formula_sum   'Cu16 Ni16'
_cell_volume   313.74934394
_cell_formula_units_Z   16
loop_
 _symmetry_equiv_pos_site_id
 _symmetry_equiv_pos_as_xyz
  1  'x, y, z'
loop_
 _atom_site_type_symbol
 _atom_site_label
 _atom_site_symmetry_multiplicity
 _atom_site_fract_x
 _atom_site_fract_y
 _atom_site_fract_z
 _atom_site_occupancy
  Ni  Ni0  1  0.63765000  0.14521300  0.08905100  1
  Ni  Ni1  1  0.36235000  0.85478700  0.91094900  1
  Ni  Ni2  1  0.10731700  0.02421000  0.38741500  1
  Ni  Ni3  1  0.89268300  0.97579000  0.61258500  1
  Ni  Ni4  1  0.42252000  0.05495200  0.28574800  1
  Ni  Ni5  1  0.57748000  0.94504800  0.71425200  1
  Ni  Ni6  1  0.96740900  0.27486200  0.19488600  1
  Ni  Ni7  1  0.03259100  0.72513800  0.80511400  1
  Ni  Ni8  1  0.17591900  0.62339700  0.31454900  1
  Ni  Ni9  1  0.82408100  0.37660300  0.68545100  1
  Ni  Ni10  1  0.94685200  0.64415500  0.10059900  1
  Ni  Ni11  1  0.05314800  0.35584500  0.89940100  1
  Ni  Ni12  1  0.42782200  0.53566400  0.39522800  1
  Ni  Ni13  1  0.57217800  0.46433600  0.60477200  1
  Ni  Ni14  1  0.69060300  0.78004100  0.19209800  1
  Ni  Ni15  1  0.30939700  0.21995900  0.80790200  1
  Cu  Cu16  1  0.46363500  0.56243000  0.04928700  1
  Cu  Cu17  1  0.53636500  0.43757000  0.95071300  1
  Cu  Cu18  1  0.72057800  0.64773000  0.13933100  1
  Cu  Cu19  1  0.27942200  0.35227000  0.86066900  1
  Cu  Cu20  1  0.19315600  0.52381700  0.36013200  1
  Cu  Cu21  1  0.80684400  0.47618300  0.63986800  1
  Cu  Cu22  1  0.06734300  0.05724200  0.05320200  1
  Cu  Cu23  1  0.93265700  0.94275800  0.94679800  1
  Cu  Cu24  1  0.85092900  0.14457500  0.13605200  1
  Cu  Cu25  1  0.14907100  0.85542500  0.86394800  1
  Cu  Cu26  1  0.55891700  0.00687500  0.44650900  1
  Cu  Cu27  1  0.44108200  0.99312500  0.55349100  1
  Cu  Cu28  1  0.32407600  0.98788200  0.35158700  1
  Cu  Cu29  1  0.67592400  0.01211800  0.64841300  1
  Cu  Cu30  1  0.95974800  0.52708400  0.45307000  1
  Cu  Cu31  1  0.04025200  0.47291600  0.54693000  1
