# generated using pymatgen
data_CuNi2C7
_symmetry_space_group_name_H-M   'P 1'
_cell_length_a   5.89117525
_cell_length_b   5.89117525
_cell_length_c   5.89117525
_cell_angle_alpha   121.01998979
_cell_angle_beta   121.01998979
_cell_angle_gamma   88.24222223
_symmetry_Int_Tables_number   1
_chemical_formula_structural   CuNi2C7
_chemical_formula_sum   'Cu1 Ni2 C7'
_cell_volume   142.27261193
_cell_formula_units_Z   1
loop_
 _symmetry_equiv_pos_site_id
 _symmetry_equiv_pos_as_xyz
  1  'x, y, z'
loop_
 _atom_site_type_symbol
 _atom_site_label
 _atom_site_symmetry_multiplicity
 _atom_site_fract_x
 _atom_site_fract_y
 _atom_site_fract_z
 _atom_site_occupancy
  Ni  Ni0  1  0.75000000  0.25000000  0.50000000  1
  Ni  Ni1  1  0.25000000  0.75000000  0.50000000  1
  Cu  Cu2  1  0.50000000  0.50000000  0.00000000  1
  C  C3  1  0.00000000  0.00000000  0.00000000  1
  C  C4  1  0.24356800  0.24356800  0.48713600  1
  C  C5  1  0.75643200  0.75643200  0.51286400  1
  C  C6  1  0.24356800  0.75643200  0.00000000  1
  C  C7  1  0.75643200  0.24356800  0.00000000  1
  C  C8  1  0.26092100  0.26092100  0.00000000  1
  C  C9  1  0.73907900  0.73907900  0.00000000  1
