# generated using pymatgen
data_CuNi2
_symmetry_space_group_name_H-M   'P 1'
_cell_length_a   7.98906536
_cell_length_b   7.98906536
_cell_length_c   5.32292100
_cell_angle_alpha   90.00000000
_cell_angle_beta   90.00000000
_cell_angle_gamma   158.18473326
_symmetry_Int_Tables_number   1
_chemical_formula_structural   CuNi2
_chemical_formula_sum   'Cu2 Ni4'
_cell_volume   126.25118527
_cell_formula_units_Z   2
loop_
 _symmetry_equiv_pos_site_id
 _symmetry_equiv_pos_as_xyz
  1  'x, y, z'
loop_
 _atom_site_type_symbol
 _atom_site_label
 _atom_site_symmetry_multiplicity
 _atom_site_fract_x
 _atom_site_fract_y
 _atom_site_fract_z
 _atom_site_occupancy
  Ni  Ni0  1  0.61987500  0.38012500  0.25000000  1
  Ni  Ni1  1  0.94014400  0.05985600  0.25000000  1
  Ni  Ni2  1  0.05985600  0.94014400  0.75000000  1
  Ni  Ni3  1  0.38012500  0.61987500  0.75000000  1
  Cu  Cu4  1  0.27654900  0.72345100  0.25000000  1
  Cu  Cu5  1  0.72345100  0.27654900  0.75000000  1
