# generated using pymatgen
data_CuNiC7
_symmetry_space_group_name_H-M   'P 1'
_cell_length_a   4.70940601
_cell_length_b   10.23788081
_cell_length_c   9.41876202
_cell_angle_alpha   62.61917633
_cell_angle_beta   89.99493270
_cell_angle_gamma   89.99938169
_symmetry_Int_Tables_number   1
_chemical_formula_structural   CuNiC7
_chemical_formula_sum   'Cu4 Ni4 C28'
_cell_volume   403.24408399
_cell_formula_units_Z   4
loop_
 _symmetry_equiv_pos_site_id
 _symmetry_equiv_pos_as_xyz
  1  'x, y, z'
loop_
 _atom_site_type_symbol
 _atom_site_label
 _atom_site_symmetry_multiplicity
 _atom_site_fract_x
 _atom_site_fract_y
 _atom_site_fract_z
 _atom_site_occupancy
  Ni  Ni0  1  0.49984700  0.83393100  0.83298800  1
  Ni  Ni1  1  0.49995400  0.83410000  0.33295000  1
  Ni  Ni2  1  0.00006000  0.33407900  0.33302100  1
  Ni  Ni3  1  0.00015500  0.33386800  0.83308000  1
  Cu  Cu4  1  0.50010400  0.49931100  0.00032400  1
  Cu  Cu5  1  0.50021400  0.49937200  0.50036500  1
  Cu  Cu6  1  0.99991100  0.99924100  0.00027900  1
  Cu  Cu7  1  0.99978100  0.99937400  0.50034300  1
  C  C8  1  0.50011300  0.16816300  0.16611000  1
  C  C9  1  0.00012800  0.66773100  0.16604000  1
  C  C10  1  0.49993900  0.16758800  0.66608500  1
  C  C11  1  0.99985300  0.66762400  0.66597600  1
  C  C12  1  0.19256700  0.16547000  0.01355700  1
  C  C13  1  0.19256600  0.16538600  0.51355700  1
  C  C14  1  0.80742100  0.16534800  0.32109400  1
  C  C15  1  0.80743400  0.16533600  0.82103500  1
  C  C16  1  0.30742600  0.66541200  0.01359600  1
  C  C17  1  0.30743600  0.66536400  0.51359900  1
  C  C18  1  0.69257500  0.66531100  0.82106200  1
  C  C19  1  0.69257500  0.66532300  0.32112800  1
  C  C20  1  0.19999900  0.49621000  0.85193400  1
  C  C21  1  0.20002300  0.49620700  0.35197500  1
  C  C22  1  0.79973100  0.49613900  0.15189600  1
  C  C23  1  0.79970200  0.49620700  0.65183600  1
  C  C24  1  0.30000400  0.99626000  0.35196600  1
  C  C25  1  0.29998400  0.99622000  0.85192400  1
  C  C26  1  0.70024100  0.99616700  0.15192400  1
  C  C27  1  0.70027600  0.99620100  0.65184300  1
  C  C28  1  0.19698100  0.83789500  0.67945400  1
  C  C29  1  0.19700900  0.83784800  0.17952400  1
  C  C30  1  0.80323400  0.83787500  0.98263800  1
  C  C31  1  0.80321100  0.83783200  0.48266300  1
  C  C32  1  0.30298100  0.33790800  0.17950800  1
  C  C33  1  0.30299900  0.33791800  0.67945400  1
  C  C34  1  0.69679700  0.33793700  0.98261800  1
  C  C35  1  0.69676900  0.33785100  0.48264600  1
