# generated using pymatgen
data_Cu7NiC28
_symmetry_space_group_name_H-M   'P 1'
_cell_length_a   10.66062048
_cell_length_b   11.16152564
_cell_length_c   17.04766560
_cell_angle_alpha   108.91137168
_cell_angle_beta   108.01730203
_cell_angle_gamma   90.38863197
_symmetry_Int_Tables_number   1
_chemical_formula_structural   Cu7NiC28
_chemical_formula_sum   'Cu28 Ni4 C112'
_cell_volume   1811.92399305
_cell_formula_units_Z   4
loop_
 _symmetry_equiv_pos_site_id
 _symmetry_equiv_pos_as_xyz
  1  'x, y, z'
loop_
 _atom_site_type_symbol
 _atom_site_label
 _atom_site_symmetry_multiplicity
 _atom_site_fract_x
 _atom_site_fract_y
 _atom_site_fract_z
 _atom_site_occupancy
  Ni  Ni0  1  0.30281200  0.56122700  0.60730800  1
  Ni  Ni1  1  0.05471400  0.29724100  0.60953700  1
  Ni  Ni2  1  0.55571100  0.29358900  0.61040100  1
  Ni  Ni3  1  0.45052400  0.20082800  0.89080900  1
  Cu  Cu4  1  0.30441700  0.06940400  0.10858800  1
  Cu  Cu5  1  0.30196100  0.06578100  0.60507100  1
  Cu  Cu6  1  0.30637500  0.56790300  0.11160900  1
  Cu  Cu7  1  0.80566500  0.06445100  0.10854600  1
  Cu  Cu8  1  0.80179400  0.06555700  0.60641200  1
  Cu  Cu9  1  0.80868300  0.56589000  0.11057700  1
  Cu  Cu10  1  0.80910900  0.56708600  0.60600400  1
  Cu  Cu11  1  0.18917400  0.43319000  0.38769600  1
  Cu  Cu12  1  0.19703800  0.43455800  0.89691800  1
  Cu  Cu13  1  0.19301900  0.93062800  0.38932200  1
  Cu  Cu14  1  0.19589400  0.93689800  0.89471500  1
  Cu  Cu15  1  0.70165600  0.43454400  0.38998700  1
  Cu  Cu16  1  0.70165800  0.43144300  0.89776200  1
  Cu  Cu17  1  0.69642200  0.93003300  0.38876200  1
  Cu  Cu18  1  0.69692100  0.93711400  0.89491400  1
  Cu  Cu19  1  0.05619500  0.29353700  0.10871700  1
  Cu  Cu20  1  0.05207500  0.79354500  0.10882100  1
  Cu  Cu21  1  0.05445400  0.78714500  0.60461600  1
  Cu  Cu22  1  0.55826600  0.29193900  0.11013000  1
  Cu  Cu23  1  0.55614900  0.79241800  0.11130000  1
  Cu  Cu24  1  0.55556600  0.79383500  0.60809200  1
  Cu  Cu25  1  0.44303300  0.20764000  0.38815100  1
  Cu  Cu26  1  0.44814000  0.70564700  0.38870600  1
  Cu  Cu27  1  0.44648100  0.71446800  0.89607900  1
  Cu  Cu28  1  0.94170900  0.20846200  0.38929700  1
  Cu  Cu29  1  0.95002900  0.20952200  0.89472000  1
  Cu  Cu30  1  0.94713700  0.70362800  0.38951500  1
  Cu  Cu31  1  0.94511300  0.71499700  0.89536600  1
  C  C32  1  0.10383600  0.08852000  0.74985000  1
  C  C33  1  0.10527800  0.59763300  0.75297400  1
  C  C34  1  0.61173300  0.59705000  0.75410800  1
  C  C35  1  0.35932900  0.41255900  0.75534600  1
  C  C36  1  0.35466300  0.90922400  0.24877900  1
  C  C37  1  0.35613100  0.90701100  0.74815800  1
  C  C38  1  0.85746500  0.41067600  0.75334400  1
  C  C39  1  0.85477700  0.90807400  0.75075700  1
  C  C40  1  0.00573200  0.00129200  0.00099700  1
  C  C41  1  0.00381800  0.99788600  0.49806300  1
  C  C42  1  0.00686900  0.50080500  0.00128800  1
  C  C43  1  0.00156000  0.49816300  0.49414500  1
  C  C44  1  0.50716200  0.00002400  0.00335000  1
  C  C45  1  0.50238400  0.99365900  0.49288000  1
  C  C46  1  0.50799500  0.50057200  0.00177800  1
  C  C47  1  0.50477200  0.49910900  0.49592600  1
  C  C48  1  0.25702100  0.25193300  0.00227000  1
  C  C49  1  0.24792700  0.24546200  0.49166700  1
  C  C50  1  0.25651600  0.75210800  0.00303100  1
  C  C51  1  0.25474200  0.74844700  0.49776300  1
  C  C52  1  0.75949100  0.25013400  0.00412900  1
  C  C53  1  0.75276500  0.24759800  0.49583700  1
  C  C54  1  0.75586800  0.75054500  0.00117700  1
  C  C55  1  0.75800600  0.74948900  0.49990700  1
  C  C56  1  0.10431600  0.09260600  0.24786000  1
  C  C57  1  0.10957000  0.59452800  0.24954700  1
  C  C58  1  0.60894200  0.09423600  0.24989600  1
  C  C59  1  0.61079500  0.09193100  0.74961300  1
  C  C60  1  0.60890700  0.59378800  0.24966900  1
  C  C61  1  0.35776300  0.40666400  0.24951000  1
  C  C62  1  0.85796400  0.40616000  0.24955600  1
  C  C63  1  0.85723500  0.90501900  0.24984900  1
  C  C64  1  0.12467000  0.12113600  0.48367000  1
  C  C65  1  0.12361700  0.12179900  0.98851100  1
  C  C66  1  0.11775500  0.61523700  0.48008600  1
  C  C67  1  0.12699400  0.62811200  0.98948400  1
  C  C68  1  0.61653300  0.11334600  0.48528800  1
  C  C69  1  0.63012900  0.11920300  0.99356300  1
  C  C70  1  0.62825200  0.62615500  0.48682900  1
  C  C71  1  0.62347900  0.61743200  0.99203100  1
  C  C72  1  0.13947000  0.38515300  0.01586200  1
  C  C73  1  0.12616800  0.37622600  0.50400600  1
  C  C74  1  0.13727100  0.88466200  0.01771500  1
  C  C75  1  0.13419000  0.88009000  0.50872400  1
  C  C76  1  0.64246400  0.38173400  0.01917400  1
  C  C77  1  0.62831500  0.38280400  0.50525200  1
  C  C78  1  0.63335000  0.87772800  0.01473800  1
  C  C79  1  0.63719000  0.88163100  0.51437000  1
  C  C80  1  0.36799000  0.10967700  0.48046600  1
  C  C81  1  0.37496900  0.11645300  0.99388700  1
  C  C82  1  0.37931800  0.61242500  0.48551900  1
  C  C83  1  0.37197100  0.61673600  0.98500900  1
  C  C84  1  0.87025600  0.11202000  0.48447000  1
  C  C85  1  0.87443100  0.11691500  0.98677300  1
  C  C86  1  0.87437100  0.61505400  0.48222200  1
  C  C87  1  0.87463000  0.61703000  0.98907300  1
  C  C88  1  0.39053500  0.38980900  0.01454500  1
  C  C89  1  0.37670400  0.37090700  0.50339400  1
  C  C90  1  0.38322800  0.87916300  0.01477400  1
  C  C91  1  0.38981800  0.88385700  0.50781700  1
  C  C92  1  0.88729700  0.38149200  0.01386300  1
  C  C93  1  0.88083300  0.38787500  0.51016700  1
  C  C94  1  0.88746100  0.88553300  0.01661800  1
  C  C95  1  0.88180700  0.87600700  0.50992100  1
  C  C96  1  0.08594300  0.10354700  0.14157800  1
  C  C97  1  0.08760500  0.09371900  0.63865500  1
  C  C98  1  0.08665600  0.60408000  0.14183800  1
  C  C99  1  0.07935700  0.59862800  0.63807700  1
  C  C100  1  0.58792300  0.10264500  0.14301400  1
  C  C101  1  0.59196100  0.09497100  0.64223200  1
  C  C102  1  0.58692000  0.60385900  0.14221800  1
  C  C103  1  0.58876000  0.60016000  0.64036000  1
  C  C104  1  0.44599300  0.39778400  0.35696200  1
  C  C105  1  0.45670900  0.40190900  0.86381400  1
  C  C106  1  0.45033100  0.89089300  0.35653400  1
  C  C107  1  0.44822300  0.90112400  0.86000400  1
  C  C108  1  0.94023700  0.40120600  0.35998900  1
  C  C109  1  0.95210900  0.39665900  0.86153000  1
  C  C110  1  0.94341100  0.89570000  0.35718700  1
  C  C111  1  0.95064500  0.89855400  0.86079700  1
  C  C112  1  0.33708500  0.29128500  0.14217200  1
  C  C113  1  0.33112700  0.29136900  0.64286500  1
  C  C114  1  0.33893600  0.78498100  0.14009000  1
  C  C115  1  0.33677300  0.79082100  0.63664900  1
  C  C116  1  0.84136900  0.28791900  0.14411400  1
  C  C117  1  0.82813800  0.28804600  0.64174900  1
  C  C118  1  0.83603800  0.78858500  0.14266900  1
  C  C119  1  0.84067600  0.78687700  0.64029700  1
  C  C120  1  0.19203900  0.21052500  0.35449700  1
  C  C121  1  0.19299400  0.21250000  0.85961700  1
  C  C122  1  0.19753300  0.70964800  0.35708300  1
  C  C123  1  0.19785900  0.72003400  0.86106200  1
  C  C124  1  0.69467000  0.21048600  0.35699400  1
  C  C125  1  0.69373900  0.20738500  0.85767600  1
  C  C126  1  0.69552900  0.71005500  0.35725600  1
  C  C127  1  0.70338900  0.71909000  0.86287900  1
  C  C128  1  0.42385400  0.06903100  0.24917700  1
  C  C129  1  0.42297200  0.06299700  0.74202300  1
  C  C130  1  0.42609800  0.56801800  0.24983000  1
  C  C131  1  0.43205300  0.57363600  0.75786900  1
  C  C132  1  0.92364200  0.06754900  0.24975100  1
  C  C133  1  0.92111800  0.06983100  0.74987400  1
  C  C134  1  0.92726300  0.56687500  0.24970500  1
  C  C135  1  0.92287900  0.57220300  0.75167500  1
  C  C136  1  0.17518800  0.43254600  0.24912100  1
  C  C137  1  0.18043900  0.44205400  0.75954700  1
  C  C138  1  0.17317100  0.93100200  0.24930000  1
  C  C139  1  0.17355900  0.92849500  0.75029000  1
  C  C140  1  0.67591500  0.43212400  0.24886000  1
  C  C141  1  0.68022100  0.43886600  0.75991000  1
  C  C142  1  0.67475400  0.93246400  0.25014100  1
  C  C143  1  0.67350600  0.92680800  0.75117600  1
