# generated using pymatgen
data_Cu20(NiC6)3
_symmetry_space_group_name_H-M   'P 1'
_cell_length_a   6.88802900
_cell_length_b   7.78974237
_cell_length_c   18.63795179
_cell_angle_alpha   101.19854948
_cell_angle_beta   90.00000000
_cell_angle_gamma   116.23933136
_symmetry_Int_Tables_number   1
_chemical_formula_structural   Cu20(NiC6)3
_chemical_formula_sum   'Cu40 Ni6 C36'
_cell_volume   875.71025509
_cell_formula_units_Z   2
loop_
 _symmetry_equiv_pos_site_id
 _symmetry_equiv_pos_as_xyz
  1  'x, y, z'
loop_
 _atom_site_type_symbol
 _atom_site_label
 _atom_site_symmetry_multiplicity
 _atom_site_fract_x
 _atom_site_fract_y
 _atom_site_fract_z
 _atom_site_occupancy
  C  C0  1  0.85765600  0.66009200  0.60689100  1
  C  C1  1  0.19756400  0.33990800  0.89310900  1
  C  C2  1  0.14234400  0.33990800  0.39310900  1
  C  C3  1  0.80243600  0.66009200  0.10689100  1
  C  C4  1  0.69125700  0.98584600  0.66008200  1
  C  C5  1  0.70541000  0.01415400  0.83991800  1
  C  C6  1  0.30874300  0.01415400  0.33991800  1
  C  C7  1  0.29459000  0.98584700  0.16008200  1
  C  C8  1  0.94148500  0.10334900  0.64812500  1
  C  C9  1  0.83813700  0.89665100  0.85187500  1
  C  C10  1  0.05851500  0.89665100  0.35187500  1
  C  C11  1  0.16186300  0.10334900  0.14812500  1
  C  C12  1  0.79581800  0.54305400  0.75855400  1
  C  C13  1  0.25276500  0.45694600  0.74144600  1
  C  C14  1  0.20418200  0.45694600  0.24144600  1
  C  C15  1  0.74723500  0.54305400  0.25855400  1
  C  C16  1  0.63744000  0.34298000  0.70229700  1
  C  C17  1  0.29446000  0.65702000  0.79770300  1
  C  C18  1  0.36256000  0.65702000  0.29770300  1
  C  C19  1  0.70554000  0.34298000  0.20229700  1
  C  C20  1  0.49710300  0.27811300  0.51739800  1
  C  C21  1  0.21899000  0.72188700  0.98260200  1
  C  C22  1  0.50289700  0.72188700  0.48260200  1
  C  C23  1  0.78101000  0.27811300  0.01739800  1
  C  C24  1  0.70163900  0.23544100  0.50730500  1
  C  C25  1  0.46619800  0.76455900  0.99269500  1
  C  C26  1  0.29836100  0.76455900  0.49269500  1
  C  C27  1  0.53380200  0.23544100  0.00730500  1
  C  C28  1  0.32084300  0.98848500  0.60757800  1
  C  C29  1  0.33235800  0.01151500  0.89242200  1
  C  C30  1  0.67915700  0.01151500  0.39242200  1
  C  C31  1  0.66764200  0.98848500  0.10757800  1
  C  C32  1  0.18652100  0.01960700  0.54672200  1
  C  C33  1  0.16691300  0.98039300  0.95327800  1
  C  C34  1  0.81347900  0.98039300  0.45327800  1
  C  C35  1  0.83308700  0.01960700  0.04672200  1
  Ni  Ni36  1  0.32446200  0.00000000  0.75000000  1
  Ni  Ni37  1  0.67553800  0.00000000  0.25000000  1
  Ni  Ni38  1  0.75163700  0.57169400  0.41050600  1
  Ni  Ni39  1  0.17994300  0.42830600  0.08949400  1
  Ni  Ni40  1  0.24836300  0.42830600  0.58949400  1
  Ni  Ni41  1  0.82005700  0.57169400  0.91050600  1
  Cu  Cu42  1  0.81657200  0.97061100  0.63980300  1
  Cu  Cu43  1  0.84596000  0.02938900  0.86019700  1
  Cu  Cu44  1  0.18342800  0.02938900  0.36019700  1
  Cu  Cu45  1  0.15404000  0.97061100  0.13980300  1
  Cu  Cu46  1  0.74435800  0.48054200  0.70600700  1
  Cu  Cu47  1  0.26381500  0.51945800  0.79399300  1
  Cu  Cu48  1  0.25564200  0.51945800  0.29399300  1
  Cu  Cu49  1  0.73618500  0.48054200  0.20600700  1
  Cu  Cu50  1  0.63605000  0.30226600  0.54226500  1
  Cu  Cu51  1  0.33378400  0.69773400  0.95773500  1
  Cu  Cu52  1  0.36395000  0.69773400  0.45773500  1
  Cu  Cu53  1  0.66621600  0.30226600  0.04226500  1
  Cu  Cu54  1  0.20730100  0.91792300  0.56467300  1
  Cu  Cu55  1  0.28937800  0.08207700  0.93532700  1
  Cu  Cu56  1  0.79269900  0.08207700  0.43532700  1
  Cu  Cu57  1  0.71062200  0.91792300  0.06467300  1
  Cu  Cu58  1  0.11693300  0.83364200  0.71387000  1
  Cu  Cu59  1  0.28329100  0.16635800  0.78613000  1
  Cu  Cu60  1  0.88306700  0.16635800  0.28613000  1
  Cu  Cu61  1  0.71670900  0.83364200  0.21387000  1
  Cu  Cu62  1  0.48023200  0.06400500  0.69325600  1
  Cu  Cu63  1  0.41622700  0.93599500  0.80674400  1
  Cu  Cu64  1  0.51976800  0.93599500  0.30674400  1
  Cu  Cu65  1  0.58377300  0.06400500  0.19325600  1
  Cu  Cu66  1  0.76475300  0.71099300  0.48184500  1
  Cu  Cu67  1  0.05376000  0.28900700  0.01815500  1
  Cu  Cu68  1  0.23524700  0.28900700  0.51815500  1
  Cu  Cu69  1  0.94624000  0.71099300  0.98184500  1
  Cu  Cu70  1  0.90023700  0.48694200  0.42333100  1
  Cu  Cu71  1  0.41329500  0.51305800  0.07666900  1
  Cu  Cu72  1  0.09976300  0.51305800  0.57666900  1
  Cu  Cu73  1  0.58670500  0.48694200  0.92333100  1
  Cu  Cu74  1  0.52532500  0.41319300  0.39309300  1
  Cu  Cu75  1  0.11213300  0.58680700  0.10690700  1
  Cu  Cu76  1  0.47467500  0.58680700  0.60690700  1
  Cu  Cu77  1  0.88786700  0.41319300  0.89309300  1
  Cu  Cu78  1  0.81573000  0.68072200  0.35118700  1
  Cu  Cu79  1  0.13500800  0.31927800  0.14881300  1
  Cu  Cu80  1  0.18427000  0.31927800  0.64881300  1
  Cu  Cu81  1  0.86499200  0.68072200  0.85118700  1
