# generated using pymatgen
data_CuNiC4
_symmetry_space_group_name_H-M   'P 1'
_cell_length_a   3.43276500
_cell_length_b   5.84913600
_cell_length_c   11.35608800
_cell_angle_alpha   90.00000000
_cell_angle_beta   90.00000000
_cell_angle_gamma   90.00000000
_symmetry_Int_Tables_number   1
_chemical_formula_structural   CuNiC4
_chemical_formula_sum   'Cu4 Ni4 C16'
_cell_volume   228.01559020
_cell_formula_units_Z   4
loop_
 _symmetry_equiv_pos_site_id
 _symmetry_equiv_pos_as_xyz
  1  'x, y, z'
loop_
 _atom_site_type_symbol
 _atom_site_label
 _atom_site_symmetry_multiplicity
 _atom_site_fract_x
 _atom_site_fract_y
 _atom_site_fract_z
 _atom_site_occupancy
  Ni  Ni0  1  0.00000000  0.62623500  0.34966200  1
  Ni  Ni1  1  0.00000000  0.37376500  0.65033800  1
  Ni  Ni2  1  0.00000000  0.12623500  0.15033800  1
  Ni  Ni3  1  0.00000000  0.87376500  0.84966200  1
  Cu  Cu4  1  0.00000000  0.63503800  0.09089400  1
  Cu  Cu5  1  0.00000000  0.36496200  0.90910600  1
  Cu  Cu6  1  0.00000000  0.13503800  0.40910600  1
  Cu  Cu7  1  0.00000000  0.86496200  0.59089400  1
  C  C8  1  0.50000000  0.78312100  0.18717000  1
  C  C9  1  0.50000000  0.21687900  0.81283000  1
  C  C10  1  0.50000000  0.28312100  0.31283000  1
  C  C11  1  0.50000000  0.71687900  0.68717000  1
  C  C12  1  0.50000000  0.86411900  0.03352800  1
  C  C13  1  0.50000000  0.13588100  0.96647200  1
  C  C14  1  0.50000000  0.36411900  0.46647200  1
  C  C15  1  0.50000000  0.63588100  0.53352800  1
  C  C16  1  0.50000000  0.88585000  0.45421800  1
  C  C17  1  0.50000000  0.11415000  0.54578200  1
  C  C18  1  0.50000000  0.38585000  0.04578200  1
  C  C19  1  0.50000000  0.61415000  0.95421800  1
  C  C20  1  0.50000000  0.97326000  0.30866000  1
  C  C21  1  0.50000000  0.02674000  0.69134000  1
  C  C22  1  0.50000000  0.47326000  0.19134000  1
  C  C23  1  0.50000000  0.52674000  0.80866000  1
