# generated using pymatgen
data_Cu3Ni5C2
_symmetry_space_group_name_H-M   'P 1'
_cell_length_a   8.56296898
_cell_length_b   8.56296898
_cell_length_c   8.56296898
_cell_angle_alpha   138.18794441
_cell_angle_beta   106.33866111
_cell_angle_gamma   88.47288525
_symmetry_Int_Tables_number   1
_chemical_formula_structural   Cu3Ni5C2
_chemical_formula_sum   'Cu6 Ni10 C4'
_cell_volume   384.90435849
_cell_formula_units_Z   2
loop_
 _symmetry_equiv_pos_site_id
 _symmetry_equiv_pos_as_xyz
  1  'x, y, z'
loop_
 _atom_site_type_symbol
 _atom_site_label
 _atom_site_symmetry_multiplicity
 _atom_site_fract_x
 _atom_site_fract_y
 _atom_site_fract_z
 _atom_site_occupancy
  C  C0  1  0.36463100  0.13261400  0.23201700  1
  C  C1  1  0.63536900  0.86738600  0.76798300  1
  C  C2  1  0.09940300  0.36738600  0.73201700  1
  C  C3  1  0.90059700  0.63261400  0.26798300  1
  Ni  Ni4  1  0.00000000  0.25000000  0.25000000  1
  Ni  Ni5  1  0.00000000  0.75000000  0.75000000  1
  Ni  Ni6  1  0.72491100  0.97491100  0.25000000  1
  Ni  Ni7  1  0.27508900  0.52508900  0.25000000  1
  Ni  Ni8  1  0.27508900  0.02508900  0.75000000  1
  Ni  Ni9  1  0.72491100  0.47491100  0.75000000  1
  Ni  Ni10  1  0.55688000  0.39960000  0.15728000  1
  Ni  Ni11  1  0.24232000  0.89960000  0.34272000  1
  Ni  Ni12  1  0.75768000  0.10040000  0.65728000  1
  Ni  Ni13  1  0.44312000  0.60040000  0.84272000  1
  Cu  Cu14  1  0.96833200  0.86012700  0.10820500  1
  Cu  Cu15  1  0.50000000  0.75000000  0.25000000  1
  Cu  Cu16  1  0.75192100  0.36012700  0.39179500  1
  Cu  Cu17  1  0.24807900  0.63987300  0.60820500  1
  Cu  Cu18  1  0.03166800  0.13987300  0.89179500  1
  Cu  Cu19  1  0.50000000  0.25000000  0.75000000  1
