# generated using pymatgen
data_Cu4Ni20C3
_symmetry_space_group_name_H-M   'P 1'
_cell_length_a   4.80018400
_cell_length_b   6.56120312
_cell_length_c   12.23416013
_cell_angle_alpha   90.01564273
_cell_angle_beta   90.00000000
_cell_angle_gamma   111.45686094
_symmetry_Int_Tables_number   1
_chemical_formula_structural   Cu4Ni20C3
_chemical_formula_sum   'Cu4 Ni20 C3'
_cell_volume   358.60973410
_cell_formula_units_Z   1
loop_
 _symmetry_equiv_pos_site_id
 _symmetry_equiv_pos_as_xyz
  1  'x, y, z'
loop_
 _atom_site_type_symbol
 _atom_site_label
 _atom_site_symmetry_multiplicity
 _atom_site_fract_x
 _atom_site_fract_y
 _atom_site_fract_z
 _atom_site_occupancy
  C  C0  1  0.00000000  0.00000000  0.00000000  1
  C  C1  1  0.50000000  0.00000000  0.50000000  1
  Ni  Ni2  1  0.38973800  0.77947600  0.11092400  1
  Ni  Ni3  1  0.88764800  0.77529500  0.61124500  1
  Ni  Ni4  1  0.11235200  0.22470500  0.38875500  1
  Ni  Ni5  1  0.61026200  0.22052400  0.88907600  1
  Ni  Ni6  1  0.88472800  0.76945600  0.38519500  1
  Ni  Ni7  1  0.38917700  0.77835400  0.88794800  1
  Ni  Ni8  1  0.61082300  0.22164600  0.11205200  1
  Ni  Ni9  1  0.11527200  0.23054400  0.61480500  1
  Ni  Ni10  1  0.24946900  0.99999300  0.25284900  1
  Ni  Ni11  1  0.75053100  0.00000700  0.74715100  1
  Ni  Ni12  1  0.75052500  0.99999300  0.25284900  1
  Ni  Ni13  1  0.24947500  0.00000700  0.74715100  1
  Ni  Ni14  1  0.00000000  0.50000000  0.00000000  1
  Ni  Ni15  1  0.50000000  0.50000000  0.50000000  1
  Ni  Ni16  1  0.50000000  0.50000000  0.00000000  1
  Ni  Ni17  1  0.00000000  0.50000000  0.50000000  1
  Ni  Ni18  1  0.68025200  0.36050400  0.31989200  1
  Ni  Ni19  1  0.18048500  0.36097000  0.81960500  1
  Ni  Ni20  1  0.81951500  0.63903000  0.18039500  1
  Ni  Ni21  1  0.31974800  0.63949600  0.68010800  1
  Cu  Cu22  1  0.17947900  0.35895900  0.17972600  1
  Cu  Cu23  1  0.67989500  0.35979000  0.67965800  1
  Cu  Cu24  1  0.32010500  0.64021000  0.32034200  1
  Cu  Cu25  1  0.82052000  0.64104100  0.82027400  1
  C  C26  1  0.50000000  0.00000000  0.00000000  1
