# generated using pymatgen
data_Cu7Ni2
_symmetry_space_group_name_H-M   'P 1'
_cell_length_a   5.12238565
_cell_length_b   5.12238600
_cell_length_c   12.67915608
_cell_angle_alpha   78.34604597
_cell_angle_beta   78.34604757
_cell_angle_gamma   59.99999774
_symmetry_Int_Tables_number   1
_chemical_formula_structural   Cu7Ni2
_chemical_formula_sum   'Cu14 Ni4'
_cell_volume   280.16767040
_cell_formula_units_Z   2
loop_
 _symmetry_equiv_pos_site_id
 _symmetry_equiv_pos_as_xyz
  1  'x, y, z'
loop_
 _atom_site_type_symbol
 _atom_site_label
 _atom_site_symmetry_multiplicity
 _atom_site_fract_x
 _atom_site_fract_y
 _atom_site_fract_z
 _atom_site_occupancy
  Ni  Ni0  1  0.94906100  0.94906100  0.15281800  1
  Ni  Ni1  1  0.05093900  0.05093900  0.84718200  1
  Ni  Ni2  1  0.85157500  0.85157500  0.44527400  1
  Ni  Ni3  1  0.14842500  0.14842500  0.55472600  1
  Cu  Cu4  1  0.50000000  0.50000000  0.50000000  1
  Cu  Cu5  1  0.72240700  0.72240700  0.83277800  1
  Cu  Cu6  1  0.27759300  0.27759300  0.16722200  1
  Cu  Cu7  1  0.61127900  0.61127900  0.16616200  1
  Cu  Cu8  1  0.38872100  0.38872100  0.83383800  1
  Cu  Cu9  1  0.00000000  0.50000000  0.00000000  1
  Cu  Cu10  1  0.50000000  0.00000000  0.00000000  1
  Cu  Cu11  1  0.50000000  0.50000000  0.00000000  1
  Cu  Cu12  1  0.38970000  0.38970000  0.32920500  1
  Cu  Cu13  1  0.89139500  0.38970000  0.32920500  1
  Cu  Cu14  1  0.38970000  0.89139500  0.32920500  1
  Cu  Cu15  1  0.61030000  0.61030000  0.67079500  1
  Cu  Cu16  1  0.10860500  0.61030000  0.67079500  1
  Cu  Cu17  1  0.61030000  0.10860500  0.67079500  1
