# generated using pymatgen
data_CuNiC
_symmetry_space_group_name_H-M   'P 1'
_cell_length_a   5.11728475
_cell_length_b   5.11728475
_cell_length_c   8.14449800
_cell_angle_alpha   90.00000000
_cell_angle_beta   90.00000000
_cell_angle_gamma   118.97292579
_symmetry_Int_Tables_number   1
_chemical_formula_structural   CuNiC
_chemical_formula_sum   'Cu4 Ni4 C4'
_cell_volume   186.58487601
_cell_formula_units_Z   4
loop_
 _symmetry_equiv_pos_site_id
 _symmetry_equiv_pos_as_xyz
  1  'x, y, z'
loop_
 _atom_site_type_symbol
 _atom_site_label
 _atom_site_symmetry_multiplicity
 _atom_site_fract_x
 _atom_site_fract_y
 _atom_site_fract_z
 _atom_site_occupancy
  C  C0  1  0.66662200  0.33337800  0.29502100  1
  C  C1  1  0.32925100  0.67074900  0.17337100  1
  C  C2  1  0.32925100  0.67074900  0.82662900  1
  C  C3  1  0.66662200  0.33337800  0.70497900  1
  Ni  Ni4  1  0.00620900  0.99379100  0.23053600  1
  Ni  Ni5  1  0.00620900  0.99379100  0.76946400  1
  Ni  Ni6  1  0.65675000  0.83399600  0.50000000  1
  Ni  Ni7  1  0.16600400  0.34325000  0.50000000  1
  Cu  Cu8  1  0.16570100  0.83429900  0.50000000  1
  Cu  Cu9  1  0.35813000  0.17664100  0.00000000  1
  Cu  Cu10  1  0.82335900  0.64187000  0.00000000  1
  Cu  Cu11  1  0.82602100  0.17397900  0.00000000  1
