# generated using pymatgen
data_Cu3NiC10
_symmetry_space_group_name_H-M   'P 1'
_cell_length_a   11.45253800
_cell_length_b   3.41429800
_cell_length_c   11.97126100
_cell_angle_alpha   90.00000000
_cell_angle_beta   90.00000000
_cell_angle_gamma   90.00000000
_symmetry_Int_Tables_number   1
_chemical_formula_structural   Cu3NiC10
_chemical_formula_sum   'Cu6 Ni2 C20'
_cell_volume   468.10476783
_cell_formula_units_Z   2
loop_
 _symmetry_equiv_pos_site_id
 _symmetry_equiv_pos_as_xyz
  1  'x, y, z'
loop_
 _atom_site_type_symbol
 _atom_site_label
 _atom_site_symmetry_multiplicity
 _atom_site_fract_x
 _atom_site_fract_y
 _atom_site_fract_z
 _atom_site_occupancy
  Ni  Ni0  1  0.85141900  0.75000000  0.29194400  1
  Ni  Ni1  1  0.64858100  0.25000000  0.79194400  1
  Cu  Cu2  1  0.11503900  0.25000000  0.07361000  1
  Cu  Cu3  1  0.89165700  0.75000000  0.92606300  1
  Cu  Cu4  1  0.38496100  0.75000000  0.57361000  1
  Cu  Cu5  1  0.60834300  0.25000000  0.42606300  1
  Cu  Cu6  1  0.14786900  0.25000000  0.70356200  1
  Cu  Cu7  1  0.35213100  0.75000000  0.20356200  1
  C  C8  1  0.13326500  0.75000000  0.43140300  1
  C  C9  1  0.88382800  0.25000000  0.57395900  1
  C  C10  1  0.36673500  0.25000000  0.93140300  1
  C  C11  1  0.61617200  0.75000000  0.07395900  1
  C  C12  1  0.03443700  0.75000000  0.60893600  1
  C  C13  1  0.97096300  0.25000000  0.38316800  1
  C  C14  1  0.46556300  0.25000000  0.10893600  1
  C  C15  1  0.52903700  0.75000000  0.88316800  1
  C  C16  1  0.03116900  0.25000000  0.88277900  1
  C  C17  1  0.96887500  0.75000000  0.11980300  1
  C  C18  1  0.46883100  0.75000000  0.38277900  1
  C  C19  1  0.53112500  0.25000000  0.61980300  1
  C  C20  1  0.21496900  0.25000000  0.25198800  1
  C  C21  1  0.79643700  0.75000000  0.74485900  1
  C  C22  1  0.28503100  0.75000000  0.75198800  1
  C  C23  1  0.70356300  0.25000000  0.24485900  1
  C  C24  1  0.24734500  0.75000000  0.03064900  1
  C  C25  1  0.75270500  0.25000000  0.97727600  1
  C  C26  1  0.25265500  0.25000000  0.53064900  1
  C  C27  1  0.74729500  0.75000000  0.47727600  1
