# generated using pymatgen
data_Cu5Ni9C10
_symmetry_space_group_name_H-M   'P 1'
_cell_length_a   11.68829354
_cell_length_b   11.68829354
_cell_length_c   7.72599000
_cell_angle_alpha   90.00000000
_cell_angle_beta   90.00000000
_cell_angle_gamma   119.99999740
_symmetry_Int_Tables_number   1
_chemical_formula_structural   Cu5Ni9C10
_chemical_formula_sum   'Cu10 Ni18 C20'
_cell_volume   914.08588901
_cell_formula_units_Z   2
loop_
 _symmetry_equiv_pos_site_id
 _symmetry_equiv_pos_as_xyz
  1  'x, y, z'
loop_
 _atom_site_type_symbol
 _atom_site_label
 _atom_site_symmetry_multiplicity
 _atom_site_fract_x
 _atom_site_fract_y
 _atom_site_fract_z
 _atom_site_occupancy
  C  C0  1  0.12185700  0.24371300  0.06860700  1
  C  C1  1  0.75628700  0.87814300  0.06860700  1
  C  C2  1  0.12185700  0.87814300  0.06860700  1
  C  C3  1  0.87814300  0.75628700  0.56860700  1
  C  C4  1  0.24371300  0.12185700  0.56860700  1
  C  C5  1  0.87814300  0.12185700  0.56860700  1
  C  C6  1  0.66666700  0.33333300  0.36041000  1
  C  C7  1  0.33333300  0.66666700  0.86041000  1
  C  C8  1  0.46278900  0.53721100  0.40413900  1
  C  C9  1  0.46278900  0.92557800  0.40413900  1
  C  C10  1  0.07442200  0.53721100  0.40413900  1
  C  C11  1  0.53721100  0.46278900  0.90413900  1
  C  C12  1  0.53721100  0.07442200  0.90413900  1
  C  C13  1  0.92557800  0.46278900  0.90413900  1
  C  C14  1  0.60386700  0.80193400  0.63627500  1
  C  C15  1  0.19806600  0.80193400  0.63627500  1
  C  C16  1  0.19806600  0.39613300  0.63627500  1
  C  C17  1  0.39613300  0.19806600  0.13627500  1
  C  C18  1  0.80193400  0.19806600  0.13627500  1
  C  C19  1  0.80193400  0.60386700  0.13627500  1
  Ni  Ni20  1  0.63762200  0.81881100  0.47386400  1
  Ni  Ni21  1  0.18118900  0.81881100  0.47386400  1
  Ni  Ni22  1  0.18118900  0.36237800  0.47386400  1
  Ni  Ni23  1  0.36237800  0.18118900  0.97386400  1
  Ni  Ni24  1  0.81881100  0.18118900  0.97386400  1
  Ni  Ni25  1  0.81881100  0.63762200  0.97386400  1
  Ni  Ni26  1  0.58448000  0.88894600  0.71723400  1
  Ni  Ni27  1  0.11105400  0.69553400  0.71723400  1
  Ni  Ni28  1  0.30446600  0.41552000  0.71723400  1
  Ni  Ni29  1  0.11105400  0.41552000  0.71723400  1
  Ni  Ni30  1  0.30446600  0.88894600  0.71723400  1
  Ni  Ni31  1  0.58448000  0.69553400  0.71723400  1
  Ni  Ni32  1  0.41552000  0.11105400  0.21723400  1
  Ni  Ni33  1  0.88894600  0.30446600  0.21723400  1
  Ni  Ni34  1  0.69553400  0.58448000  0.21723400  1
  Ni  Ni35  1  0.88894600  0.58448000  0.21723400  1
  Ni  Ni36  1  0.69553400  0.11105400  0.21723400  1
  Ni  Ni37  1  0.41552000  0.30446600  0.21723400  1
  Cu  Cu38  1  0.42809700  0.57190300  0.08497900  1
  Cu  Cu39  1  0.42809700  0.85619400  0.08497900  1
  Cu  Cu40  1  0.14380600  0.57190300  0.08497900  1
  Cu  Cu41  1  0.57190300  0.42809700  0.58497900  1
  Cu  Cu42  1  0.57190300  0.14380600  0.58497900  1
  Cu  Cu43  1  0.85619400  0.42809700  0.58497900  1
  Cu  Cu44  1  0.33333300  0.66666700  0.49783400  1
  Cu  Cu45  1  0.66666700  0.33333300  0.99783400  1
  Cu  Cu46  1  0.00000000  0.00000000  0.81152500  1
  Cu  Cu47  1  0.00000000  0.00000000  0.31152500  1
