# generated using pymatgen
data_Cu(NiC6)2
_symmetry_space_group_name_H-M   'P 1'
_cell_length_a   8.40541880
_cell_length_b   8.21979100
_cell_length_c   9.98152399
_cell_angle_alpha   90.00000000
_cell_angle_beta   96.97636942
_cell_angle_gamma   90.00000000
_symmetry_Int_Tables_number   1
_chemical_formula_structural   Cu(NiC6)2
_chemical_formula_sum   'Cu4 Ni8 C48'
_cell_volume   684.52553323
_cell_formula_units_Z   4
loop_
 _symmetry_equiv_pos_site_id
 _symmetry_equiv_pos_as_xyz
  1  'x, y, z'
loop_
 _atom_site_type_symbol
 _atom_site_label
 _atom_site_symmetry_multiplicity
 _atom_site_fract_x
 _atom_site_fract_y
 _atom_site_fract_z
 _atom_site_occupancy
  C  C0  1  0.00000000  0.50000000  0.00000000  1
  C  C1  1  0.50000000  0.00000000  0.50000000  1
  C  C2  1  0.00000000  0.50000000  0.50000000  1
  C  C3  1  0.50000000  0.00000000  0.00000000  1
  Ni  Ni4  1  0.30498300  0.63303600  0.32675900  1
  Ni  Ni5  1  0.80498300  0.86696400  0.82675900  1
  Ni  Ni6  1  0.69501700  0.36696400  0.67324100  1
  Ni  Ni7  1  0.19501700  0.13303600  0.17324100  1
  Ni  Ni8  1  0.65036300  0.73803300  0.25253800  1
  Ni  Ni9  1  0.15036300  0.76196700  0.75253800  1
  Ni  Ni10  1  0.34963700  0.26196700  0.74746200  1
  Ni  Ni11  1  0.84963700  0.23803300  0.24746200  1
  C  C12  1  0.24005300  0.80983300  0.16242200  1
  C  C13  1  0.74005300  0.69016700  0.66242200  1
  C  C14  1  0.75994700  0.19016700  0.83757800  1
  C  C15  1  0.25994700  0.30983300  0.33757800  1
  C  C16  1  0.22924300  0.76385600  0.50813000  1
  C  C17  1  0.72924300  0.73614400  0.00813000  1
  C  C18  1  0.77075700  0.23614400  0.49187000  1
  C  C19  1  0.27075700  0.26385600  0.99187000  1
  C  C20  1  0.83271300  0.54623300  0.24012100  1
  C  C21  1  0.33271300  0.95376700  0.74012100  1
  C  C22  1  0.16728700  0.45376700  0.75987900  1
  C  C23  1  0.66728700  0.04623300  0.25987900  1
  C  C24  1  0.50629900  0.48827900  0.22633600  1
  C  C25  1  0.00629900  0.01172100  0.72633600  1
  C  C26  1  0.49370100  0.51172100  0.77366400  1
  C  C27  1  0.99370100  0.98827900  0.27366400  1
  C  C28  1  0.56636400  0.53875000  0.39857300  1
  C  C29  1  0.06636400  0.96125000  0.89857300  1
  C  C30  1  0.43363600  0.46125000  0.60142700  1
  C  C31  1  0.93363600  0.03875000  0.10142700  1
  Cu  Cu32  1  0.50926700  0.58656900  0.30154600  1
  Cu  Cu33  1  0.00926700  0.91343100  0.80154600  1
  Cu  Cu34  1  0.49073300  0.41343100  0.69845400  1
  Cu  Cu35  1  0.99073300  0.08656900  0.19845400  1
  C  C36  1  0.21226900  0.69207500  0.18872000  1
  C  C37  1  0.71226900  0.80792500  0.68872000  1
  C  C38  1  0.78773100  0.30792500  0.81128000  1
  C  C39  1  0.28773100  0.19207500  0.31128000  1
  C  C40  1  0.31239300  0.77555200  0.43214700  1
  C  C41  1  0.81239300  0.72444800  0.93214700  1
  C  C42  1  0.68760700  0.22444800  0.56785300  1
  C  C43  1  0.18760700  0.27555200  0.06785300  1
  C  C44  1  0.22465200  0.48321300  0.37528700  1
  C  C45  1  0.72465200  0.01678700  0.87528700  1
  C  C46  1  0.77534800  0.51678700  0.62471300  1
  C  C47  1  0.27534800  0.98321300  0.12471300  1
  C  C48  1  0.64057400  0.89252400  0.33463500  1
  C  C49  1  0.14057400  0.60747600  0.83463500  1
  C  C50  1  0.35942600  0.10747600  0.66536500  1
  C  C51  1  0.85942600  0.39252400  0.16536500  1
  C  C52  1  0.62385600  0.76385000  0.09971200  1
  C  C53  1  0.12385600  0.73615000  0.59971200  1
  C  C54  1  0.37614400  0.23615000  0.90028800  1
  C  C55  1  0.87614400  0.26385000  0.40028800  1
  C  C56  1  0.81877000  0.65264600  0.29447800  1
  C  C57  1  0.31877000  0.84735400  0.79447800  1
  C  C58  1  0.18123000  0.34735400  0.70552200  1
  C  C59  1  0.68123000  0.15264600  0.20552200  1
