# generated using pymatgen
data_Cu8Ni8C9
_symmetry_space_group_name_H-M   'P 1'
_cell_length_a   4.92153042
_cell_length_b   10.65023461
_cell_length_c   5.70251367
_cell_angle_alpha   83.95688205
_cell_angle_beta   94.33099947
_cell_angle_gamma   87.99938719
_symmetry_Int_Tables_number   1
_chemical_formula_structural   Cu8Ni8C9
_chemical_formula_sum   'Cu8 Ni8 C9'
_cell_volume   296.11305341
_cell_formula_units_Z   1
loop_
 _symmetry_equiv_pos_site_id
 _symmetry_equiv_pos_as_xyz
  1  'x, y, z'
loop_
 _atom_site_type_symbol
 _atom_site_label
 _atom_site_symmetry_multiplicity
 _atom_site_fract_x
 _atom_site_fract_y
 _atom_site_fract_z
 _atom_site_occupancy
  C  C0  1  0.01639233  0.36870755  0.90281095  1
  C  C1  1  0.48153110  0.25153002  0.74437532  1
  C  C2  1  0.47586123  0.99040242  0.49975454  1
  C  C3  1  0.52909505  0.74318417  0.23646924  1
  C  C4  1  0.51185950  0.50704184  0.99189476  1
  C  C5  1  0.91848259  0.20341923  0.31603829  1
  C  C6  1  0.03339096  0.76772247  0.72921332  1
  C  C7  1  0.02831340  0.51159965  0.46106471  1
  C  C8  1  0.99077250  0.99793613  0.99637091  1
  Ni  Ni9  1  0.76424213  0.05295367  0.27967566  1
  Ni  Ni10  1  0.69389070  0.81295082  0.51534136  1
  Ni  Ni11  1  0.71919440  0.57068434  0.26158174  1
  Ni  Ni12  1  0.69755503  0.32749162  0.05850006  1
  Ni  Ni13  1  0.30525685  0.43524670  0.71452693  1
  Ni  Ni14  1  0.31952810  0.67308129  0.96566096  1
  Ni  Ni15  1  0.28081031  0.16419706  0.46784667  1
  Ni  Ni16  1  0.19567789  0.92366654  0.72077895  1
  Cu  Cu17  1  0.83945444  0.55620434  0.77030945  1
  Cu  Cu18  1  0.83460334  0.33146546  0.56380785  1
  Cu  Cu19  1  0.80869491  0.81823649  0.01535571  1
  Cu  Cu20  1  0.68233716  0.07592511  0.76317957  1
  Cu  Cu21  1  0.29818881  0.91078256  0.22200066  1
  Cu  Cu22  1  0.21248671  0.67902168  0.45127786  1
  Cu  Cu23  1  0.15959018  0.18735624  0.95574290  1
  Cu  Cu24  1  0.20279036  0.43294260  0.19404062  1
