# generated using pymatgen
data_CuNiC11
_symmetry_space_group_name_H-M   'P 1'
_cell_length_a   7.37257200
_cell_length_b   12.79351600
_cell_length_c   11.07058958
_cell_angle_alpha   90.00000000
_cell_angle_beta   110.36390773
_cell_angle_gamma   90.00000000
_symmetry_Int_Tables_number   1
_chemical_formula_structural   CuNiC11
_chemical_formula_sum   'Cu4 Ni4 C44'
_cell_volume   978.92992551
_cell_formula_units_Z   4
loop_
 _symmetry_equiv_pos_site_id
 _symmetry_equiv_pos_as_xyz
  1  'x, y, z'
loop_
 _atom_site_type_symbol
 _atom_site_label
 _atom_site_symmetry_multiplicity
 _atom_site_fract_x
 _atom_site_fract_y
 _atom_site_fract_z
 _atom_site_occupancy
  Ni  Ni0  1  0.50000000  0.00000000  0.50000000  1
  Ni  Ni1  1  0.50000000  0.50000000  0.00000000  1
  Ni  Ni2  1  0.50000000  0.00000000  0.00000000  1
  Ni  Ni3  1  0.50000000  0.50000000  0.50000000  1
  Cu  Cu4  1  0.21051400  0.21413700  0.15104100  1
  Cu  Cu5  1  0.21051400  0.28586300  0.65104100  1
  Cu  Cu6  1  0.78948600  0.78586300  0.84895900  1
  Cu  Cu7  1  0.78948600  0.71413700  0.34895900  1
  C  C8  1  0.90117300  0.34035400  0.04860800  1
  C  C9  1  0.90117300  0.15964600  0.54860800  1
  C  C10  1  0.09882700  0.65964600  0.95139200  1
  C  C11  1  0.09882700  0.84035400  0.45139200  1
  C  C12  1  0.17075000  0.98854500  0.17979000  1
  C  C13  1  0.17075000  0.51145500  0.67979000  1
  C  C14  1  0.82925000  0.01145500  0.82021000  1
  C  C15  1  0.82925000  0.48854500  0.32021000  1
  C  C16  1  0.49245500  0.32454700  0.26714700  1
  C  C17  1  0.49245500  0.17545300  0.76714700  1
  C  C18  1  0.50754500  0.67545300  0.73285300  1
  C  C19  1  0.50754500  0.82454700  0.23285300  1
  C  C20  1  0.14702700  0.19212700  0.37994200  1
  C  C21  1  0.14702700  0.30787300  0.87994200  1
  C  C22  1  0.85297300  0.80787300  0.62005800  1
  C  C23  1  0.85297300  0.69212700  0.12005800  1
  C  C24  1  0.25323800  0.90363000  0.37115300  1
  C  C25  1  0.25323800  0.59637000  0.87115300  1
  C  C26  1  0.74676200  0.09637000  0.62884700  1
  C  C27  1  0.74676200  0.40363000  0.12884700  1
  C  C28  1  0.36113000  0.14101900  0.50312600  1
  C  C29  1  0.36113000  0.35898100  0.00312600  1
  C  C30  1  0.63887000  0.85898100  0.49687400  1
  C  C31  1  0.63887000  0.64101900  0.99687400  1
  C  C32  1  0.53880400  0.06757800  0.33070800  1
  C  C33  1  0.53880400  0.43242200  0.83070800  1
  C  C34  1  0.46119600  0.93242200  0.66929200  1
  C  C35  1  0.46119600  0.56757800  0.16929200  1
  C  C36  1  0.50019100  0.14305000  0.92366800  1
  C  C37  1  0.50019100  0.35695000  0.42366800  1
  C  C38  1  0.49980900  0.85695000  0.07633200  1
  C  C39  1  0.49980900  0.64305000  0.57633200  1
  C  C40  1  0.21121300  0.08495800  0.06198200  1
  C  C41  1  0.21121300  0.41504200  0.56198200  1
  C  C42  1  0.78878700  0.91504200  0.93801800  1
  C  C43  1  0.78878700  0.58495800  0.43801800  1
  C  C44  1  0.68110000  0.05317500  0.18056300  1
  C  C45  1  0.68110000  0.44682500  0.68056300  1
  C  C46  1  0.31890000  0.94682500  0.81943700  1
  C  C47  1  0.31890000  0.55317500  0.31943700  1
  C  C48  1  0.67870400  0.02208900  0.29498900  1
  C  C49  1  0.67870400  0.47791100  0.79498900  1
  C  C50  1  0.32129600  0.97791100  0.70501100  1
  C  C51  1  0.32129600  0.52208900  0.20501100  1
