# generated using pymatgen
data_CuNi4C9
_symmetry_space_group_name_H-M   'P 1'
_cell_length_a   7.65316943
_cell_length_b   7.65316943
_cell_length_c   7.65316943
_cell_angle_alpha   60.00000000
_cell_angle_beta   60.00000000
_cell_angle_gamma   60.00000000
_symmetry_Int_Tables_number   1
_chemical_formula_structural   CuNi4C9
_chemical_formula_sum   'Cu1 Ni4 C9'
_cell_volume   316.96330457
_cell_formula_units_Z   1
loop_
 _symmetry_equiv_pos_site_id
 _symmetry_equiv_pos_as_xyz
  1  'x, y, z'
loop_
 _atom_site_type_symbol
 _atom_site_label
 _atom_site_symmetry_multiplicity
 _atom_site_fract_x
 _atom_site_fract_y
 _atom_site_fract_z
 _atom_site_occupancy
  Ni  Ni0  1  0.62974700  0.12341800  0.12341800  1
  Ni  Ni1  1  0.12341800  0.62974700  0.12341800  1
  Ni  Ni2  1  0.12341800  0.12341800  0.62974700  1
  Ni  Ni3  1  0.12341800  0.12341800  0.12341800  1
  Cu  Cu4  1  0.50000000  0.50000000  0.50000000  1
  C  C5  1  0.75000000  0.75000000  0.75000000  1
  C  C6  1  0.33177800  0.88940700  0.88940700  1
  C  C7  1  0.88940700  0.33177800  0.88940700  1
  C  C8  1  0.88940700  0.88940700  0.33177800  1
  C  C9  1  0.88940700  0.88940700  0.88940700  1
  C  C10  1  0.92212900  0.35929000  0.35929000  1
  C  C11  1  0.35929000  0.92212900  0.35929000  1
  C  C12  1  0.35929000  0.35929000  0.92212900  1
  C  C13  1  0.35929000  0.35929000  0.35929000  1
