# generated using pymatgen
data_Cu3NiC23
_symmetry_space_group_name_H-M   'P 1'
_cell_length_a   10.77755439
_cell_length_b   10.77755439
_cell_length_c   8.63257400
_cell_angle_alpha   90.00000000
_cell_angle_beta   90.00000000
_cell_angle_gamma   120.00000237
_symmetry_Int_Tables_number   1
_chemical_formula_structural   Cu3NiC23
_chemical_formula_sum   'Cu6 Ni2 C46'
_cell_volume   868.38312899
_cell_formula_units_Z   2
loop_
 _symmetry_equiv_pos_site_id
 _symmetry_equiv_pos_as_xyz
  1  'x, y, z'
loop_
 _atom_site_type_symbol
 _atom_site_label
 _atom_site_symmetry_multiplicity
 _atom_site_fract_x
 _atom_site_fract_y
 _atom_site_fract_z
 _atom_site_occupancy
  C  C0  1  0.41826300  0.14006100  0.25000000  1
  C  C1  1  0.58173700  0.85993900  0.75000000  1
  C  C2  1  0.85993900  0.27820200  0.25000000  1
  C  C3  1  0.14006100  0.72179800  0.75000000  1
  C  C4  1  0.72179800  0.58173700  0.25000000  1
  C  C5  1  0.27820200  0.41826300  0.75000000  1
  Ni  Ni6  1  0.00000000  0.00000000  0.25000000  1
  Ni  Ni7  1  0.00000000  0.00000000  0.75000000  1
  Cu  Cu8  1  0.27071900  0.43053900  0.25000000  1
  Cu  Cu9  1  0.72928100  0.56946100  0.75000000  1
  Cu  Cu10  1  0.56946100  0.84018100  0.25000000  1
  Cu  Cu11  1  0.43053900  0.15981900  0.75000000  1
  Cu  Cu12  1  0.15981900  0.72928100  0.25000000  1
  Cu  Cu13  1  0.84018100  0.27071900  0.75000000  1
  C  C14  1  0.42506800  0.14516200  0.02002600  1
  C  C15  1  0.57493200  0.85483800  0.97997400  1
  C  C16  1  0.85483800  0.27990600  0.02002600  1
  C  C17  1  0.57493200  0.85483800  0.52002600  1
  C  C18  1  0.14516200  0.72009400  0.97997400  1
  C  C19  1  0.42506800  0.14516200  0.47997400  1
  C  C20  1  0.72009400  0.57493200  0.02002600  1
  C  C21  1  0.14516200  0.72009400  0.52002600  1
  C  C22  1  0.27990600  0.42506800  0.97997400  1
  C  C23  1  0.85483800  0.27990600  0.47997400  1
  C  C24  1  0.27990600  0.42506800  0.52002600  1
  C  C25  1  0.72009400  0.57493200  0.47997400  1
  C  C26  1  0.28273100  0.22208500  0.25000000  1
  C  C27  1  0.71726900  0.77791500  0.75000000  1
  C  C28  1  0.77791500  0.06064700  0.25000000  1
  C  C29  1  0.22208500  0.93935300  0.75000000  1
  C  C30  1  0.93935300  0.71726900  0.25000000  1
  C  C31  1  0.06064700  0.28273100  0.75000000  1
  C  C32  1  0.02969200  0.23311500  0.25000000  1
  C  C33  1  0.97030800  0.76688500  0.75000000  1
  C  C34  1  0.76688500  0.79657800  0.25000000  1
  C  C35  1  0.23311500  0.20342200  0.75000000  1
  C  C36  1  0.20342200  0.97030800  0.25000000  1
  C  C37  1  0.79657800  0.02969200  0.75000000  1
  C  C38  1  0.33333300  0.66666700  0.25000000  1
  C  C39  1  0.66666700  0.33333300  0.75000000  1
  C  C40  1  0.63421000  0.18547600  0.25000000  1
  C  C41  1  0.36579000  0.81452400  0.75000000  1
  C  C42  1  0.81452400  0.44873400  0.25000000  1
  C  C43  1  0.18547600  0.55126600  0.75000000  1
  C  C44  1  0.55126600  0.36579000  0.25000000  1
  C  C45  1  0.44873400  0.63421000  0.75000000  1
  C  C46  1  0.05330300  0.46755200  0.25000000  1
  C  C47  1  0.94669700  0.53244800  0.75000000  1
  C  C48  1  0.53244800  0.58575100  0.25000000  1
  C  C49  1  0.46755200  0.41424900  0.75000000  1
  C  C50  1  0.41424900  0.94669700  0.25000000  1
  C  C51  1  0.58575100  0.05330300  0.75000000  1
  C  C52  1  0.00000000  0.00000000  0.00000000  1
  C  C53  1  0.00000000  0.00000000  0.50000000  1
