# generated using pymatgen
data_Cu5Ni3C2
_symmetry_space_group_name_H-M   'P 1'
_cell_length_a   10.31066600
_cell_length_b   10.31066600
_cell_length_c   5.42320600
_cell_angle_alpha   90.00000000
_cell_angle_beta   90.00000000
_cell_angle_gamma   90.00000000
_symmetry_Int_Tables_number   1
_chemical_formula_structural   Cu5Ni3C2
_chemical_formula_sum   'Cu20 Ni12 C8'
_cell_volume   576.54012616
_cell_formula_units_Z   4
loop_
 _symmetry_equiv_pos_site_id
 _symmetry_equiv_pos_as_xyz
  1  'x, y, z'
loop_
 _atom_site_type_symbol
 _atom_site_label
 _atom_site_symmetry_multiplicity
 _atom_site_fract_x
 _atom_site_fract_y
 _atom_site_fract_z
 _atom_site_occupancy
  C  C0  1  0.56992900  0.73649300  0.50000000  1
  C  C1  1  0.43007100  0.26350700  0.50000000  1
  C  C2  1  0.06992900  0.76350700  0.00000000  1
  C  C3  1  0.93007100  0.23649300  0.00000000  1
  C  C4  1  0.26350700  0.56992900  0.50000000  1
  C  C5  1  0.73649300  0.43007100  0.50000000  1
  C  C6  1  0.23649300  0.06992900  0.00000000  1
  C  C7  1  0.76350700  0.93007100  0.00000000  1
  Ni  Ni8  1  0.87700400  0.85566600  0.50000000  1
  Ni  Ni9  1  0.12299600  0.14433400  0.50000000  1
  Ni  Ni10  1  0.37700400  0.64433400  0.00000000  1
  Ni  Ni11  1  0.62299600  0.35566600  0.00000000  1
  Ni  Ni12  1  0.14433400  0.87700400  0.50000000  1
  Ni  Ni13  1  0.85566600  0.12299600  0.50000000  1
  Ni  Ni14  1  0.35566600  0.37700400  0.00000000  1
  Ni  Ni15  1  0.64433400  0.62299600  0.00000000  1
  Ni  Ni16  1  0.50000000  0.00000000  0.25000000  1
  Ni  Ni17  1  0.00000000  0.50000000  0.75000000  1
  Ni  Ni18  1  0.00000000  0.50000000  0.25000000  1
  Ni  Ni19  1  0.50000000  0.00000000  0.75000000  1
  Cu  Cu20  1  0.67742400  0.17742400  0.25000000  1
  Cu  Cu21  1  0.32257600  0.82257600  0.25000000  1
  Cu  Cu22  1  0.17742400  0.32257600  0.75000000  1
  Cu  Cu23  1  0.82257600  0.67742400  0.75000000  1
  Cu  Cu24  1  0.82257600  0.67742400  0.25000000  1
  Cu  Cu25  1  0.17742400  0.32257600  0.25000000  1
  Cu  Cu26  1  0.67742400  0.17742400  0.75000000  1
  Cu  Cu27  1  0.32257600  0.82257600  0.75000000  1
  Cu  Cu28  1  0.50000000  0.50000000  0.23806700  1
  Cu  Cu29  1  0.00000000  0.00000000  0.73806700  1
  Cu  Cu30  1  0.50000000  0.50000000  0.76193300  1
  Cu  Cu31  1  0.00000000  0.00000000  0.26193300  1
  Cu  Cu32  1  0.68074100  0.97661500  0.50000000  1
  Cu  Cu33  1  0.31925900  0.02338500  0.50000000  1
  Cu  Cu34  1  0.18074100  0.52338500  0.00000000  1
  Cu  Cu35  1  0.81925900  0.47661500  0.00000000  1
  Cu  Cu36  1  0.02338500  0.68074100  0.50000000  1
  Cu  Cu37  1  0.97661500  0.31925900  0.50000000  1
  Cu  Cu38  1  0.47661500  0.18074100  0.00000000  1
  Cu  Cu39  1  0.52338500  0.81925900  0.00000000  1
