# generated using pymatgen
data_Cu7NiC8
_symmetry_space_group_name_H-M   'P 1'
_cell_length_a   6.58714396
_cell_length_b   6.58714396
_cell_length_c   5.28702400
_cell_angle_alpha   90.00000000
_cell_angle_beta   90.00000000
_cell_angle_gamma   119.99999963
_symmetry_Int_Tables_number   1
_chemical_formula_structural   Cu7NiC8
_chemical_formula_sum   'Cu7 Ni1 C8'
_cell_volume   198.67179947
_cell_formula_units_Z   1
loop_
 _symmetry_equiv_pos_site_id
 _symmetry_equiv_pos_as_xyz
  1  'x, y, z'
loop_
 _atom_site_type_symbol
 _atom_site_label
 _atom_site_symmetry_multiplicity
 _atom_site_fract_x
 _atom_site_fract_y
 _atom_site_fract_z
 _atom_site_occupancy
  Ni  Ni0  1  0.33333300  0.66666700  0.49708400  1
  Cu  Cu1  1  0.83239600  0.66479200  0.49901300  1
  Cu  Cu2  1  0.49967400  0.50032600  0.99987700  1
  Cu  Cu3  1  0.00065100  0.50032600  0.99987700  1
  Cu  Cu4  1  0.33520800  0.16760400  0.49901300  1
  Cu  Cu5  1  0.83239600  0.16760400  0.49901300  1
  Cu  Cu6  1  0.49967400  0.99934900  0.99987700  1
  Cu  Cu7  1  0.00000000  0.00000000  0.00083500  1
  C  C8  1  0.33333300  0.66666700  0.87480200  1
  C  C9  1  0.00000000  0.00000000  0.38151900  1
  C  C10  1  0.33326500  0.16663300  0.88025400  1
  C  C11  1  0.83336700  0.16663300  0.88025400  1
  C  C12  1  0.83336700  0.66673500  0.88025400  1
  C  C13  1  0.49900800  0.50099200  0.38010800  1
  C  C14  1  0.00198500  0.50099200  0.38010800  1
  C  C15  1  0.49900800  0.99801500  0.38010800  1
