# generated using pymatgen
data_Cu5Ni2C25
_symmetry_space_group_name_H-M   'P 1'
_cell_length_a   5.07663500
_cell_length_b   5.14373153
_cell_length_c   11.19616116
_cell_angle_alpha   81.30837491
_cell_angle_beta   86.30879535
_cell_angle_gamma   80.30257802
_symmetry_Int_Tables_number   1
_chemical_formula_structural   Cu5Ni2C25
_chemical_formula_sum   'Cu5 Ni2 C25'
_cell_volume   284.64915405
_cell_formula_units_Z   1
loop_
 _symmetry_equiv_pos_site_id
 _symmetry_equiv_pos_as_xyz
  1  'x, y, z'
loop_
 _atom_site_type_symbol
 _atom_site_label
 _atom_site_symmetry_multiplicity
 _atom_site_fract_x
 _atom_site_fract_y
 _atom_site_fract_z
 _atom_site_occupancy
  C  C0  1  0.25558600  0.44326400  0.06457700  1
  C  C1  1  0.74193100  0.56524100  0.94122600  1
  C  C2  1  0.24868600  0.68738000  0.81338000  1
  C  C3  1  0.25265300  0.18680000  0.30452900  1
  C  C4  1  0.74588500  0.31578500  0.18298700  1
  C  C5  1  0.24927900  0.93655300  0.56494000  1
  C  C6  1  0.75151900  0.05922000  0.43657600  1
  C  C7  1  0.74991900  0.81298800  0.68891100  1
  C  C8  1  0.49996200  0.87353300  0.12578500  1
  Ni  Ni9  1  0.00111700  0.99061100  0.00537000  1
  Ni  Ni10  1  0.50143500  0.63346000  0.36873200  1
  Cu  Cu11  1  0.49973500  0.11530300  0.88287300  1
  Cu  Cu12  1  0.00060300  0.24515300  0.75082500  1
  Cu  Cu13  1  0.50211600  0.37530900  0.62780400  1
  Cu  Cu14  1  0.00143100  0.50362600  0.50040000  1
  Cu  Cu15  1  0.00117100  0.75124300  0.24833100  1
  C  C16  1  0.10292000  0.06888400  0.15488400  1
  C  C17  1  0.64032000  0.20743700  0.02083800  1
  C  C18  1  0.11803800  0.31451500  0.90764300  1
  C  C19  1  0.14522200  0.82607800  0.39771000  1
  C  C20  1  0.64251400  0.93595500  0.28503400  1
  C  C21  1  0.11946600  0.58016700  0.65196500  1
  C  C22  1  0.62514000  0.70457000  0.52289800  1
  C  C23  1  0.62447000  0.45560400  0.77345000  1
  C  C24  1  0.35015400  0.80090700  0.96802900  1
  C  C25  1  0.87607400  0.91544500  0.85138900  1
  C  C26  1  0.37305200  0.04961200  0.72242000  1
  C  C27  1  0.36190600  0.54468400  0.22932200  1
  C  C28  1  0.89231900  0.67879700  0.09712700  1
  C  C29  1  0.38181800  0.31115300  0.47003100  1
  C  C30  1  0.86453500  0.44033300  0.34473500  1
  C  C31  1  0.87902300  0.17038900  0.59527900  1
