# generated using pymatgen
data_Cu6NiC7
_symmetry_space_group_name_H-M   'P 1'
_cell_length_a   16.49682179
_cell_length_b   16.49682179
_cell_length_c   9.99075703
_cell_angle_alpha   72.98300697
_cell_angle_beta   72.98300697
_cell_angle_gamma   19.36486254
_symmetry_Int_Tables_number   1
_chemical_formula_structural   Cu6NiC7
_chemical_formula_sum   'Cu24 Ni4 C28'
_cell_volume   860.90400150
_cell_formula_units_Z   4
loop_
 _symmetry_equiv_pos_site_id
 _symmetry_equiv_pos_as_xyz
  1  'x, y, z'
loop_
 _atom_site_type_symbol
 _atom_site_label
 _atom_site_symmetry_multiplicity
 _atom_site_fract_x
 _atom_site_fract_y
 _atom_site_fract_z
 _atom_site_occupancy
  C  C0  1  0.81862800  0.27418000  0.82920100  1
  C  C1  1  0.72582000  0.18137200  0.17079900  1
  C  C2  1  0.36698300  0.72486000  0.32944800  1
  C  C3  1  0.27514000  0.63301700  0.67055200  1
  C  C4  1  0.21746800  0.78253200  0.00000000  1
  C  C5  1  0.87754300  0.12245700  0.50000000  1
  C  C6  1  0.58770500  0.00102100  0.00463900  1
  C  C7  1  0.99897900  0.41229500  0.99536100  1
  C  C8  1  0.09592500  0.49112200  0.49586700  1
  C  C9  1  0.50887800  0.90407500  0.50413300  1
  C  C10  1  0.52608900  0.97624200  0.74972300  1
  C  C11  1  0.02375800  0.47391100  0.25027700  1
  C  C12  1  0.10580900  0.51222200  0.81621600  1
  C  C13  1  0.48777800  0.89419100  0.18378400  1
  C  C14  1  0.61232300  0.00616700  0.31545600  1
  C  C15  1  0.99383300  0.38767700  0.68454400  1
  C  C16  1  0.90473700  0.21293600  0.14137900  1
  C  C17  1  0.78706400  0.09526300  0.85862100  1
  C  C18  1  0.30679200  0.81184800  0.64112000  1
  C  C19  1  0.18815200  0.69320800  0.35888000  1
  Ni  Ni20  1  0.44933800  0.80308300  0.91204100  1
  Ni  Ni21  1  0.19691700  0.55066200  0.08795900  1
  Ni  Ni22  1  0.90745700  0.34370300  0.40867000  1
  Ni  Ni23  1  0.65629700  0.09254300  0.59133000  1
  Cu  Cu24  1  0.24319000  0.35356600  0.70071600  1
  Cu  Cu25  1  0.64643400  0.75681000  0.29928400  1
  Cu  Cu26  1  0.76380600  0.83611100  0.20236800  1
  Cu  Cu27  1  0.16388900  0.23619400  0.79763200  1
  Cu  Cu28  1  0.18647600  0.38953000  0.96257900  1
  Cu  Cu29  1  0.61047000  0.81352400  0.03742100  1
  Cu  Cu30  1  0.68824200  0.89007000  0.46405300  1
  Cu  Cu31  1  0.10993000  0.31175800  0.53594700  1
  Cu  Cu32  1  0.82700400  0.77556500  0.80547900  1
  Cu  Cu33  1  0.22443500  0.17299600  0.19452100  1
  Cu  Cu34  1  0.33535900  0.26383400  0.29993300  1
  Cu  Cu35  1  0.73616600  0.66464100  0.70006700  1
  Cu  Cu36  1  0.72599600  0.35227600  0.05103800  1
  Cu  Cu37  1  0.64772400  0.27400400  0.94896200  1
  Cu  Cu38  1  0.44528000  0.63347300  0.55128300  1
  Cu  Cu39  1  0.36652700  0.55472000  0.44871700  1
  Cu  Cu40  1  0.16190000  0.93160500  0.13786700  1
  Cu  Cu41  1  0.06839500  0.83810000  0.86213300  1
  Cu  Cu42  1  0.02575000  0.06879100  0.63793800  1
  Cu  Cu43  1  0.93120900  0.97425000  0.36206200  1
  Cu  Cu44  1  0.79963200  0.30165100  0.29039900  1
  Cu  Cu45  1  0.69834900  0.20036800  0.70960100  1
  Cu  Cu46  1  0.39556300  0.70722800  0.79043300  1
  Cu  Cu47  1  0.29277200  0.60443700  0.20956700  1
  C  C48  1  0.18401900  0.53518100  0.78882600  1
  C  C49  1  0.46481900  0.81598100  0.21117400  1
  C  C50  1  0.67681800  0.04327300  0.28797800  1
  C  C51  1  0.95672700  0.32318200  0.71202200  1
  C  C52  1  0.94173200  0.27725700  0.07003600  1
  C  C53  1  0.72274300  0.05826800  0.92996400  1
  C  C54  1  0.37259300  0.84730500  0.56911000  1
  C  C55  1  0.15269500  0.62740700  0.43089000  1
