# generated using pymatgen
data_CuNi10C7
_symmetry_space_group_name_H-M   'P 1'
_cell_length_a   6.94266033
_cell_length_b   9.15370003
_cell_length_c   9.63017731
_cell_angle_alpha   83.34353097
_cell_angle_beta   93.54850900
_cell_angle_gamma   71.80225582
_symmetry_Int_Tables_number   1
_chemical_formula_structural   CuNi10C7
_chemical_formula_sum   'Cu1 Ni10 C7'
_cell_volume   574.34949197
_cell_formula_units_Z   1
loop_
 _symmetry_equiv_pos_site_id
 _symmetry_equiv_pos_as_xyz
  1  'x, y, z'
loop_
 _atom_site_type_symbol
 _atom_site_label
 _atom_site_symmetry_multiplicity
 _atom_site_fract_x
 _atom_site_fract_y
 _atom_site_fract_z
 _atom_site_occupancy
  C  C0  1  0.14659500  0.04232600  0.65975300  1
  C  C1  1  0.53173800  0.62270300  0.63170000  1
  C  C2  1  0.49641200  0.36061800  0.35570700  1
  C  C3  1  0.19900300  0.91321300  0.16300700  1
  C  C4  1  0.07033300  0.19347600  0.98510500  1
  C  C5  1  0.93043100  0.80871500  0.01024100  1
  C  C6  1  0.75730700  0.10256500  0.85641000  1
  Ni  Ni7  1  0.46631400  0.17074000  0.20837900  1
  Ni  Ni8  1  0.41832600  0.49083500  0.81956300  1
  Ni  Ni9  1  0.84261500  0.18060400  0.44715800  1
  Ni  Ni10  1  0.15894600  0.52530600  0.27697500  1
  Ni  Ni11  1  0.63945900  0.49266000  0.19627100  1
  Ni  Ni12  1  0.36422400  0.21667700  0.54811400  1
  Ni  Ni13  1  0.87664400  0.49902700  0.73033500  1
  Ni  Ni14  1  0.61978800  0.79723700  0.46835500  1
  Ni  Ni15  1  0.16362300  0.77623500  0.56088900  1
  Ni  Ni16  1  0.50012600  0.84139600  0.79928000  1
  Cu  Cu17  1  0.52182200  0.48709800  0.50418900  1
