# generated using pymatgen
data_Cu5Ni2C25
_symmetry_space_group_name_H-M   'P 1'
_cell_length_a   6.56696000
_cell_length_b   6.65341845
_cell_length_c   7.69010383
_cell_angle_alpha   65.13682967
_cell_angle_beta   75.26142096
_cell_angle_gamma   72.18346402
_symmetry_Int_Tables_number   1
_chemical_formula_structural   Cu5Ni2C25
_chemical_formula_sum   'Cu5 Ni2 C25'
_cell_volume   287.14584781
_cell_formula_units_Z   1
loop_
 _symmetry_equiv_pos_site_id
 _symmetry_equiv_pos_as_xyz
  1  'x, y, z'
loop_
 _atom_site_type_symbol
 _atom_site_label
 _atom_site_symmetry_multiplicity
 _atom_site_fract_x
 _atom_site_fract_y
 _atom_site_fract_z
 _atom_site_occupancy
  C  C0  1  0.06973000  0.44480600  0.67969600  1
  C  C1  1  0.31383000  0.19440400  0.43533900  1
  C  C2  1  0.68471300  0.80609800  0.56553300  1
  C  C3  1  0.93309700  0.55586800  0.32038800  1
  C  C4  1  0.55648400  0.93666900  0.19064700  1
  C  C5  1  0.19180200  0.30866600  0.06545700  1
  C  C6  1  0.80916200  0.69055200  0.93281400  1
  C  C7  1  0.43939100  0.06428900  0.81116600  1
  C  C8  1  0.49917000  0.50113100  0.49853500  1
  Ni  Ni9  1  0.00360900  0.00007300  0.00105600  1
  Ni  Ni10  1  0.74705500  0.25102600  0.25067500  1
  Cu  Cu11  1  0.25327900  0.73868100  0.74698700  1
  Cu  Cu12  1  0.86669100  0.12416000  0.62459100  1
  Cu  Cu13  1  0.13953700  0.86670800  0.38122800  1
  Cu  Cu14  1  0.37654800  0.62461100  0.12715900  1
  Cu  Cu15  1  0.62464000  0.38046300  0.86462400  1
  C  C16  1  0.14095900  0.07978800  0.73179300  1
  C  C17  1  0.38849500  0.85313000  0.46687900  1
  C  C18  1  0.77792800  0.45634700  0.61350500  1
  C  C19  1  0.00990700  0.21679000  0.34440000  1
  C  C20  1  0.65328000  0.56383100  0.21462400  1
  C  C21  1  0.26143800  0.97497300  0.08946300  1
  C  C22  1  0.90161100  0.31681000  0.98508900  1
  C  C23  1  0.51723900  0.70562000  0.86149600  1
  C  C24  1  0.97344000  0.78858000  0.65124400  1
  C  C25  1  0.22643000  0.55073000  0.38150900  1
  C  C26  1  0.61538300  0.15541000  0.51978100  1
  C  C27  1  0.85666100  0.92754900  0.26842400  1
  C  C28  1  0.49485600  0.27562500  0.15098600  1
  C  C29  1  0.09942500  0.68551300  0.03046000  1
  C  C30  1  0.73672500  0.03422200  0.90740900  1
  C  C31  1  0.33749200  0.42688400  0.78704000  1
