# generated using pymatgen
data_CuNiC8
_symmetry_space_group_name_H-M   'P 1'
_cell_length_a   6.06367303
_cell_length_b   6.07083949
_cell_length_c   8.56025075
_cell_angle_alpha   90.18052120
_cell_angle_beta   90.19117685
_cell_angle_gamma   90.03505021
_symmetry_Int_Tables_number   1
_chemical_formula_structural   CuNiC8
_chemical_formula_sum   'Cu2 Ni2 C16'
_cell_volume   315.11302474
_cell_formula_units_Z   2
loop_
 _symmetry_equiv_pos_site_id
 _symmetry_equiv_pos_as_xyz
  1  'x, y, z'
loop_
 _atom_site_type_symbol
 _atom_site_label
 _atom_site_symmetry_multiplicity
 _atom_site_fract_x
 _atom_site_fract_y
 _atom_site_fract_z
 _atom_site_occupancy
  C  C0  1  0.50510991  0.52071008  0.24983480  1
  C  C1  1  0.49489009  0.47928992  0.75016520  1
  Ni  Ni2  1  0.99544225  0.02901348  0.25164738  1
  Ni  Ni3  1  0.00455775  0.97098652  0.74835262  1
  Cu  Cu4  1  -0.00000000  0.50000000  0.00000000  1
  Cu  Cu5  1  0.50000000  0.00000000  0.50000000  1
  C  C6  1  0.50000000  0.00000000  0.00000000  1
  C  C7  1  -0.00000000  0.50000000  0.50000000  1
  C  C8  1  0.22595097  0.20629423  0.95558230  1
  C  C9  1  0.27075786  0.71231545  0.53166966  1
  C  C10  1  0.77404903  0.79370577  0.04441770  1
  C  C11  1  0.72924214  0.28768455  0.46833034  1
  C  C12  1  0.28917526  0.72827868  0.96568941  1
  C  C13  1  0.20326323  0.22269948  0.54219657  1
  C  C14  1  0.71082474  0.27172132  0.03431059  1
  C  C15  1  0.79673677  0.77730052  0.45780343  1
  C  C16  1  0.41726800  0.99591055  0.24021284  1
  C  C17  1  0.06210171  0.46661786  0.25950223  1
  C  C18  1  0.58273200  0.00408945  0.75978716  1
  C  C19  1  0.93789829  0.53338214  0.74049777  1
