# generated using pymatgen
data_Cu4NiC
_symmetry_space_group_name_H-M   'P 1'
_cell_length_a   6.83040204
_cell_length_b   6.83040204
_cell_length_c   6.83040204
_cell_angle_alpha   112.96252512
_cell_angle_beta   112.96252512
_cell_angle_gamma   102.69388228
_symmetry_Int_Tables_number   1
_chemical_formula_structural   Cu4NiC
_chemical_formula_sum   'Cu16 Ni4 C4'
_cell_volume   242.77887847
_cell_formula_units_Z   4
loop_
 _symmetry_equiv_pos_site_id
 _symmetry_equiv_pos_as_xyz
  1  'x, y, z'
loop_
 _atom_site_type_symbol
 _atom_site_label
 _atom_site_symmetry_multiplicity
 _atom_site_fract_x
 _atom_site_fract_y
 _atom_site_fract_z
 _atom_site_occupancy
  C  C0  1  0.79765100  0.79765100  0.00000000  1
  C  C1  1  0.20234900  0.20234900  0.00000000  1
  C  C2  1  0.75000000  0.25000000  0.50000000  1
  C  C3  1  0.25000000  0.75000000  0.50000000  1
  Ni  Ni4  1  0.27128000  0.50000000  0.77128000  1
  Ni  Ni5  1  0.72872000  0.50000000  0.22872000  1
  Ni  Ni6  1  0.50000000  0.72872000  0.22872000  1
  Ni  Ni7  1  0.50000000  0.27128000  0.77128000  1
  Cu  Cu8  1  0.27530100  0.11176000  0.38706100  1
  Cu  Cu9  1  0.72469900  0.88824000  0.61293900  1
  Cu  Cu10  1  0.27530100  0.88824000  0.16354100  1
  Cu  Cu11  1  0.72469900  0.11176000  0.83645900  1
  Cu  Cu12  1  0.11176000  0.72469900  0.83645900  1
  Cu  Cu13  1  0.88824000  0.27530100  0.16354100  1
  Cu  Cu14  1  0.11176000  0.27530100  0.38706100  1
  Cu  Cu15  1  0.88824000  0.72469900  0.61293900  1
  Cu  Cu16  1  0.11389500  0.11389500  0.53347100  1
  Cu  Cu17  1  0.58042400  0.58042400  0.46652900  1
  Cu  Cu18  1  0.11389500  0.58042400  0.00000000  1
  Cu  Cu19  1  0.58042400  0.11389500  0.00000000  1
  Cu  Cu20  1  0.88610500  0.88610500  0.46652900  1
  Cu  Cu21  1  0.41957600  0.41957600  0.53347100  1
  Cu  Cu22  1  0.88610500  0.41957600  0.00000000  1
  Cu  Cu23  1  0.41957600  0.88610500  0.00000000  1
