# generated using pymatgen
data_Cu16NiC10
_symmetry_space_group_name_H-M   'P 1'
_cell_length_a   6.92828900
_cell_length_b   6.92828900
_cell_length_c   11.68560500
_cell_angle_alpha   90.00000000
_cell_angle_beta   90.00000000
_cell_angle_gamma   90.00000000
_symmetry_Int_Tables_number   1
_chemical_formula_structural   Cu16NiC10
_chemical_formula_sum   'Cu16 Ni1 C10'
_cell_volume   560.92292796
_cell_formula_units_Z   1
loop_
 _symmetry_equiv_pos_site_id
 _symmetry_equiv_pos_as_xyz
  1  'x, y, z'
loop_
 _atom_site_type_symbol
 _atom_site_label
 _atom_site_symmetry_multiplicity
 _atom_site_fract_x
 _atom_site_fract_y
 _atom_site_fract_z
 _atom_site_occupancy
  C  C0  1  0.50000000  0.00000000  0.70813600  1
  C  C1  1  0.00000000  0.50000000  0.29186400  1
  Ni  Ni2  1  0.50000000  0.50000000  0.00000000  1
  C  C3  1  0.50000000  0.20507300  0.20779600  1
  C  C4  1  0.00000000  0.70804400  0.62565900  1
  C  C5  1  0.70804400  0.00000000  0.37434100  1
  C  C6  1  0.20507300  0.50000000  0.79220400  1
  C  C7  1  0.29195600  0.00000000  0.37434100  1
  C  C8  1  0.79492700  0.50000000  0.79220400  1
  C  C9  1  0.50000000  0.79492700  0.20779600  1
  C  C10  1  0.00000000  0.29195600  0.62565900  1
  Cu  Cu11  1  0.50000000  0.72522700  0.82269500  1
  Cu  Cu12  1  0.00000000  0.22648100  0.40450600  1
  Cu  Cu13  1  0.72522700  0.50000000  0.17730500  1
  Cu  Cu14  1  0.22648100  0.00000000  0.59549400  1
  Cu  Cu15  1  0.27477300  0.50000000  0.17730500  1
  Cu  Cu16  1  0.77351900  0.00000000  0.59549400  1
  Cu  Cu17  1  0.50000000  0.27477300  0.82269500  1
  Cu  Cu18  1  0.00000000  0.77351900  0.40450600  1
  Cu  Cu19  1  0.50000000  0.73422300  0.40344900  1
  Cu  Cu20  1  0.00000000  0.23348700  0.82585700  1
  Cu  Cu21  1  0.23348700  0.00000000  0.17414300  1
  Cu  Cu22  1  0.73422300  0.50000000  0.59655100  1
  Cu  Cu23  1  0.76651300  0.00000000  0.17414300  1
  Cu  Cu24  1  0.26577700  0.50000000  0.59655100  1
  Cu  Cu25  1  0.50000000  0.26577700  0.40344900  1
  Cu  Cu26  1  0.00000000  0.76651300  0.82585700  1
