# generated using pymatgen
data_CuNiC6
_symmetry_space_group_name_H-M   'P 1'
_cell_length_a   6.06530200
_cell_length_b   6.98394400
_cell_length_c   10.85430200
_cell_angle_alpha   90.00000000
_cell_angle_beta   90.00000000
_cell_angle_gamma   90.00000000
_symmetry_Int_Tables_number   1
_chemical_formula_structural   CuNiC6
_chemical_formula_sum   'Cu4 Ni4 C24'
_cell_volume   459.78529675
_cell_formula_units_Z   4
loop_
 _symmetry_equiv_pos_site_id
 _symmetry_equiv_pos_as_xyz
  1  'x, y, z'
loop_
 _atom_site_type_symbol
 _atom_site_label
 _atom_site_symmetry_multiplicity
 _atom_site_fract_x
 _atom_site_fract_y
 _atom_site_fract_z
 _atom_site_occupancy
  C  C0  1  0.60958400  0.25000000  0.50000000  1
  C  C1  1  0.60958400  0.25000000  0.00000000  1
  C  C2  1  0.39041600  0.75000000  0.50000000  1
  C  C3  1  0.39041600  0.75000000  0.00000000  1
  C  C4  1  0.86619700  0.52871900  0.75000000  1
  C  C5  1  0.86619700  0.97128100  0.25000000  1
  C  C6  1  0.13380300  0.02871900  0.75000000  1
  C  C7  1  0.13380300  0.47128100  0.25000000  1
  Ni  Ni8  1  0.11475000  0.25000000  0.50000000  1
  Ni  Ni9  1  0.88525000  0.75000000  0.50000000  1
  Ni  Ni10  1  0.88525000  0.75000000  0.00000000  1
  Ni  Ni11  1  0.11475000  0.25000000  0.00000000  1
  Cu  Cu12  1  0.57101600  0.86951100  0.75000000  1
  Cu  Cu13  1  0.57101600  0.63048900  0.25000000  1
  Cu  Cu14  1  0.42898400  0.36951100  0.75000000  1
  Cu  Cu15  1  0.42898400  0.13048900  0.25000000  1
  C  C16  1  0.27777500  0.43142700  0.03155200  1
  C  C17  1  0.27777500  0.06857300  0.96844800  1
  C  C18  1  0.72222500  0.93142700  0.46844800  1
  C  C19  1  0.72222500  0.56857300  0.53155200  1
  C  C20  1  0.72222500  0.56857300  0.96844800  1
  C  C21  1  0.72222500  0.93142700  0.03155200  1
  C  C22  1  0.27777500  0.06857300  0.53155200  1
  C  C23  1  0.27777500  0.43142700  0.46844800  1
  C  C24  1  0.05171300  0.73977200  0.12063700  1
  C  C25  1  0.05171300  0.73977200  0.37936300  1
  C  C26  1  0.94828700  0.23977200  0.37936300  1
  C  C27  1  0.94828700  0.26022800  0.62063700  1
  C  C28  1  0.94828700  0.26022800  0.87936300  1
  C  C29  1  0.94828700  0.23977200  0.12063700  1
  C  C30  1  0.05171300  0.76022800  0.62063700  1
  C  C31  1  0.05171300  0.76022800  0.87936300  1
