# generated using pymatgen
data_CuNiC61
_symmetry_space_group_name_H-M   'P 1'
_cell_length_a   8.69355200
_cell_length_b   8.80335200
_cell_length_c   8.90272700
_cell_angle_alpha   90.00000000
_cell_angle_beta   90.00000000
_cell_angle_gamma   90.00000000
_symmetry_Int_Tables_number   1
_chemical_formula_structural   CuNiC61
_chemical_formula_sum   'Cu1 Ni1 C61'
_cell_volume   681.34704949
_cell_formula_units_Z   1
loop_
 _symmetry_equiv_pos_site_id
 _symmetry_equiv_pos_as_xyz
  1  'x, y, z'
loop_
 _atom_site_type_symbol
 _atom_site_label
 _atom_site_symmetry_multiplicity
 _atom_site_fract_x
 _atom_site_fract_y
 _atom_site_fract_z
 _atom_site_occupancy
  Ni  Ni0  1  0.50000000  0.50000000  0.97006800  1
  Cu  Cu1  1  0.00000000  0.00000000  0.99506200  1
  C  C2  1  0.00000000  0.50000000  0.98071700  1
  C  C3  1  0.50000000  0.00000000  0.00026100  1
  C  C4  1  0.00000000  0.00000000  0.50052600  1
  C  C5  1  0.00000000  0.50000000  0.51724100  1
  C  C6  1  0.50000000  0.00000000  0.49956000  1
  C  C7  1  0.50000000  0.50000000  0.48626200  1
  C  C8  1  0.24941300  0.25008700  0.00970100  1
  C  C9  1  0.24941300  0.74991300  0.00970100  1
  C  C10  1  0.75058700  0.25008700  0.00970100  1
  C  C11  1  0.75058700  0.74991300  0.00970100  1
  C  C12  1  0.24862400  0.24448800  0.49545700  1
  C  C13  1  0.24862400  0.75551200  0.49545700  1
  C  C14  1  0.75137600  0.24448800  0.49545700  1
  C  C15  1  0.75137600  0.75551200  0.49545700  1
  C  C16  1  0.00000000  0.22798400  0.24995300  1
  C  C17  1  0.00000000  0.77201600  0.24995300  1
  C  C18  1  0.50000000  0.23914600  0.25244300  1
  C  C19  1  0.50000000  0.76085400  0.25244300  1
  C  C20  1  0.00000000  0.25086000  0.74881700  1
  C  C21  1  0.00000000  0.74914000  0.74881700  1
  C  C22  1  0.50000000  0.24373400  0.73510900  1
  C  C23  1  0.50000000  0.75626600  0.73510900  1
  C  C24  1  0.25763900  0.00000000  0.25246700  1
  C  C25  1  0.27084300  0.50000000  0.25649000  1
  C  C26  1  0.74236100  0.00000000  0.25246700  1
  C  C27  1  0.72915700  0.50000000  0.25649000  1
  C  C28  1  0.25397800  0.00000000  0.75009400  1
  C  C29  1  0.25380700  0.50000000  0.72333100  1
  C  C30  1  0.74602200  0.00000000  0.75009400  1
  C  C31  1  0.74619300  0.50000000  0.72333100  1
  C  C32  1  0.00000000  0.00000000  0.27928000  1
  C  C33  1  0.50000000  0.00000000  0.26770100  1
  C  C34  1  0.50000000  0.50000000  0.27290500  1
  C  C35  1  0.00000000  0.00000000  0.71912400  1
  C  C36  1  0.00000000  0.50000000  0.74376600  1
  C  C37  1  0.50000000  0.00000000  0.73815900  1
  C  C38  1  0.50000000  0.50000000  0.69479100  1
  C  C39  1  0.24416600  0.24712200  0.25653600  1
  C  C40  1  0.24416600  0.75287800  0.25653600  1
  C  C41  1  0.75583400  0.24712200  0.25653600  1
  C  C42  1  0.75583400  0.75287800  0.25653600  1
  C  C43  1  0.25159600  0.25739400  0.74958800  1
  C  C44  1  0.25159600  0.74260600  0.74958800  1
  C  C45  1  0.74840400  0.25739400  0.74958800  1
  C  C46  1  0.74840400  0.74260600  0.74958800  1
  C  C47  1  0.00000000  0.27601300  0.00633200  1
  C  C48  1  0.00000000  0.72398700  0.00633200  1
  C  C49  1  0.50000000  0.22082200  0.02088100  1
  C  C50  1  0.50000000  0.77917800  0.02088100  1
  C  C51  1  0.00000000  0.26061900  0.49491500  1
  C  C52  1  0.00000000  0.73938100  0.49491500  1
  C  C53  1  0.50000000  0.24526900  0.49553100  1
  C  C54  1  0.50000000  0.75473100  0.49553100  1
  C  C55  1  0.27539300  0.00000000  0.99956600  1
  C  C56  1  0.21491500  0.50000000  0.04320700  1
  C  C57  1  0.72460700  0.00000000  0.99956600  1
  C  C58  1  0.78508500  0.50000000  0.04320700  1
  C  C59  1  0.25144400  0.00000000  0.50301000  1
  C  C60  1  0.23712800  0.50000000  0.48758100  1
  C  C61  1  0.74855600  0.00000000  0.50301000  1
  C  C62  1  0.76287200  0.50000000  0.48758100  1
