# generated using pymatgen
data_CuNi4C27
_symmetry_space_group_name_H-M   'P 1'
_cell_length_a   5.53767300
_cell_length_b   5.54258840
_cell_length_c   13.13777023
_cell_angle_alpha   92.38070569
_cell_angle_beta   92.22368466
_cell_angle_gamma   105.69587780
_symmetry_Int_Tables_number   1
_chemical_formula_structural   CuNi4C27
_chemical_formula_sum   'Cu1 Ni4 C27'
_cell_volume   387.34162082
_cell_formula_units_Z   1
loop_
 _symmetry_equiv_pos_site_id
 _symmetry_equiv_pos_as_xyz
  1  'x, y, z'
loop_
 _atom_site_type_symbol
 _atom_site_label
 _atom_site_symmetry_multiplicity
 _atom_site_fract_x
 _atom_site_fract_y
 _atom_site_fract_z
 _atom_site_occupancy
  C  C0  1  0.95379000  0.28935000  0.12911500  1
  C  C1  1  0.45442000  0.79596900  0.62427800  1
  C  C2  1  0.54558000  0.20403100  0.37572200  1
  C  C3  1  0.04621000  0.71065000  0.87088500  1
  C  C4  1  0.00000000  0.00000000  0.50000000  1
  C  C5  1  0.75187800  0.74863200  0.25230500  1
  C  C6  1  0.24812200  0.25136800  0.74769500  1
  Ni  Ni7  1  0.19443400  0.55660100  0.37593900  1
  Ni  Ni8  1  0.69760200  0.05904200  0.87238300  1
  Ni  Ni9  1  0.30239800  0.94095800  0.12761700  1
  Ni  Ni10  1  0.80556600  0.44339900  0.62406100  1
  Cu  Cu11  1  0.50000000  0.50000000  0.00000000  1
  C  C12  1  0.41784000  0.54810700  0.29725200  1
  C  C13  1  0.91495500  0.04349500  0.79149200  1
  C  C14  1  0.28302200  0.15595500  0.04672900  1
  C  C15  1  0.79690400  0.66790300  0.54612100  1
  C  C16  1  0.08504500  0.95650500  0.20850800  1
  C  C17  1  0.58216000  0.45189300  0.70274800  1
  C  C18  1  0.20309600  0.33209700  0.45387900  1
  C  C19  1  0.71697800  0.84404500  0.95327100  1
  C  C20  1  0.80435600  0.94570100  0.37609900  1
  C  C21  1  0.29437500  0.44758700  0.86938700  1
  C  C22  1  0.70562500  0.55241300  0.13061300  1
  C  C23  1  0.19564400  0.05429900  0.62390100  1
  C  C24  1  0.23289000  0.66815000  0.06175200  1
  C  C25  1  0.74606000  0.17056900  0.55830300  1
  C  C26  1  0.92103700  0.49588900  0.31043600  1
  C  C27  1  0.42193300  0.99961200  0.80897500  1
  C  C28  1  0.25394000  0.82943100  0.44169700  1
  C  C29  1  0.76711000  0.33185000  0.93824800  1
  C  C30  1  0.57806700  0.00038800  0.19102500  1
  C  C31  1  0.07896300  0.50411100  0.68956400  1
