# generated using pymatgen
data_Cu3Ni5C12
_symmetry_space_group_name_H-M   'P 1'
_cell_length_a   5.78017759
_cell_length_b   5.78017759
_cell_length_c   14.27385915
_cell_angle_alpha   89.90501487
_cell_angle_beta   89.90501487
_cell_angle_gamma   59.98578933
_symmetry_Int_Tables_number   1
_chemical_formula_structural   Cu3Ni5C12
_chemical_formula_sum   'Cu6 Ni10 C24'
_cell_volume   412.94422808
_cell_formula_units_Z   2
loop_
 _symmetry_equiv_pos_site_id
 _symmetry_equiv_pos_as_xyz
  1  'x, y, z'
loop_
 _atom_site_type_symbol
 _atom_site_label
 _atom_site_symmetry_multiplicity
 _atom_site_fract_x
 _atom_site_fract_y
 _atom_site_fract_z
 _atom_site_occupancy
  Ni  Ni0  1  0.66894200  0.66894200  0.83316500  1
  Ni  Ni1  1  0.00193300  0.49809100  0.49742400  1
  Ni  Ni2  1  0.66855200  0.15837300  0.83333100  1
  Ni  Ni3  1  0.83802200  0.83802200  0.65927600  1
  Ni  Ni4  1  0.15837300  0.66855200  0.83333100  1
  Ni  Ni5  1  0.82737700  0.33395600  0.16703100  1
  Ni  Ni6  1  0.15914500  0.15914500  0.33835500  1
  Ni  Ni7  1  0.49809100  0.00193300  0.49742400  1
  Ni  Ni8  1  0.33489000  0.33489000  0.16738800  1
  Ni  Ni9  1  0.33395600  0.82737700  0.16703100  1
  Cu  Cu10  1  0.16459900  0.16459900  0.96166200  1
  Cu  Cu11  1  0.49873800  0.49873800  0.01219500  1
  Cu  Cu12  1  0.49444500  0.49444500  0.62244600  1
  Cu  Cu13  1  0.82854100  0.82854100  0.29199300  1
  Cu  Cu14  1  0.16876600  0.16876600  0.69882700  1
  Cu  Cu15  1  0.50522000  0.50522000  0.38032500  1
  C  C16  1  0.34166400  0.34166400  0.90545100  1
  C  C17  1  0.49823800  0.49823800  0.76239100  1
  C  C18  1  0.34169300  0.81143300  0.90513300  1
  C  C19  1  0.81143300  0.34169300  0.90513300  1
  C  C20  1  0.68024300  0.68024300  0.57801000  1
  C  C21  1  0.53074600  0.98001700  0.74981100  1
  C  C22  1  0.98001700  0.53074600  0.74981100  1
  C  C23  1  0.82101500  0.82101500  0.42313300  1
  C  C24  1  0.65596300  0.13610400  0.58527400  1
  C  C25  1  0.83259000  0.83259000  0.89253500  1
  C  C26  1  0.13610400  0.65596300  0.58527400  1
  C  C27  1  0.98456500  0.98456500  0.74774000  1
  C  C28  1  0.01568900  0.01568900  0.24895500  1
  C  C29  1  0.86577000  0.34004400  0.41455500  1
  C  C30  1  0.34004400  0.86577000  0.41455500  1
  C  C31  1  0.16479900  0.16479900  0.09650900  1
  C  C32  1  0.02081200  0.45806300  0.24729200  1
  C  C33  1  0.17718100  0.17718100  0.57102800  1
  C  C34  1  0.45806300  0.02081200  0.24729200  1
  C  C35  1  0.31902800  0.31902800  0.42089500  1
  C  C36  1  0.19820300  0.64897900  0.09874600  1
  C  C37  1  0.64897900  0.19820300  0.09874600  1
  C  C38  1  0.49877500  0.49877500  0.24617700  1
  C  C39  1  0.64956500  0.64956500  0.09840900  1
