# generated using pymatgen
data_Cu4NiC2
_symmetry_space_group_name_H-M   'P 1'
_cell_length_a   3.03049497
_cell_length_b   5.40462093
_cell_length_c   12.34317817
_cell_angle_alpha   90.01002775
_cell_angle_beta   90.01196630
_cell_angle_gamma   108.60903306
_symmetry_Int_Tables_number   1
_chemical_formula_structural   Cu4NiC2
_chemical_formula_sum   'Cu8 Ni2 C4'
_cell_volume   191.59534852
_cell_formula_units_Z   2
loop_
 _symmetry_equiv_pos_site_id
 _symmetry_equiv_pos_as_xyz
  1  'x, y, z'
loop_
 _atom_site_type_symbol
 _atom_site_label
 _atom_site_symmetry_multiplicity
 _atom_site_fract_x
 _atom_site_fract_y
 _atom_site_fract_z
 _atom_site_occupancy
  C  C0  1  0.08495100  0.18435400  0.19813000  1
  C  C1  1  0.24990700  0.50407800  0.90761900  1
  C  C2  1  0.75025300  0.49581000  0.40761500  1
  C  C3  1  0.91464900  0.81576600  0.69818000  1
  Ni  Ni4  1  0.31105900  0.63027700  0.75905200  1
  Ni  Ni5  1  0.68913900  0.36973700  0.25905800  1
  Cu  Cu6  1  0.18844000  0.37561900  0.05216300  1
  Cu  Cu7  1  0.16214100  0.24821800  0.43765500  1
  Cu  Cu8  1  0.45841300  0.96268600  0.15289700  1
  Cu  Cu9  1  0.33331700  0.73988200  0.36965000  1
  Cu  Cu10  1  0.66660300  0.25993300  0.86965000  1
  Cu  Cu11  1  0.54106100  0.03757300  0.65313200  1
  Cu  Cu12  1  0.81178700  0.62448800  0.55213700  1
  Cu  Cu13  1  0.83828100  0.75158000  0.93770900  1
