# generated using pymatgen
data_Cu10NiC2
_symmetry_space_group_name_H-M   'P 1'
_cell_length_a   4.55878300
_cell_length_b   6.41595400
_cell_length_c   14.73906000
_cell_angle_alpha   90.00000000
_cell_angle_beta   90.00000000
_cell_angle_gamma   90.00000000
_symmetry_Int_Tables_number   1
_chemical_formula_structural   Cu10NiC2
_chemical_formula_sum   'Cu20 Ni2 C4'
_cell_volume   431.10191143
_cell_formula_units_Z   2
loop_
 _symmetry_equiv_pos_site_id
 _symmetry_equiv_pos_as_xyz
  1  'x, y, z'
loop_
 _atom_site_type_symbol
 _atom_site_label
 _atom_site_symmetry_multiplicity
 _atom_site_fract_x
 _atom_site_fract_y
 _atom_site_fract_z
 _atom_site_occupancy
  C  C0  1  0.63092000  0.50000000  0.25511100  1
  C  C1  1  0.36908000  0.00000000  0.75511100  1
  C  C2  1  0.06164700  0.50000000  0.48447300  1
  C  C3  1  0.93835300  0.00000000  0.98447300  1
  Ni  Ni4  1  0.63055700  0.50000000  0.80640700  1
  Ni  Ni5  1  0.36944300  0.00000000  0.30640700  1
  Cu  Cu6  1  0.83755400  0.50000000  0.76448300  1
  Cu  Cu7  1  0.16244600  0.00000000  0.26448300  1
  Cu  Cu8  1  0.36138400  0.73678300  0.76143800  1
  Cu  Cu9  1  0.63861600  0.76321700  0.26143800  1
  Cu  Cu10  1  0.63861600  0.23678300  0.26143800  1
  Cu  Cu11  1  0.36138400  0.26321700  0.76143800  1
  Cu  Cu12  1  0.21947500  0.50000000  0.28231600  1
  Cu  Cu13  1  0.78052500  0.00000000  0.78231600  1
  Cu  Cu14  1  0.02511300  0.79942300  0.94044600  1
  Cu  Cu15  1  0.97488700  0.70057700  0.44044600  1
  Cu  Cu16  1  0.97488700  0.29942300  0.44044600  1
  Cu  Cu17  1  0.02511300  0.20057700  0.94044600  1
  Cu  Cu18  1  0.03972700  0.50000000  0.21382700  1
  Cu  Cu19  1  0.96027300  0.00000000  0.71382700  1
  Cu  Cu20  1  0.50988500  0.90481200  0.53423400  1
  Cu  Cu21  1  0.49011500  0.59518800  0.03423400  1
  Cu  Cu22  1  0.49011500  0.40481200  0.03423400  1
  Cu  Cu23  1  0.50988500  0.09518800  0.53423400  1
  Cu  Cu24  1  0.23628000  0.50000000  0.56992900  1
  Cu  Cu25  1  0.76372000  0.00000000  0.06992900  1
