# generated using pymatgen
data_Cu4NiC32
_symmetry_space_group_name_H-M   'P 1'
_cell_length_a   7.00820615
_cell_length_b   8.62236714
_cell_length_c   10.41821791
_cell_angle_alpha   90.04601332
_cell_angle_beta   103.58609469
_cell_angle_gamma   90.54619417
_symmetry_Int_Tables_number   1
_chemical_formula_structural   Cu4NiC32
_chemical_formula_sum   'Cu4 Ni1 C32'
_cell_volume   611.89834730
_cell_formula_units_Z   1
loop_
 _symmetry_equiv_pos_site_id
 _symmetry_equiv_pos_as_xyz
  1  'x, y, z'
loop_
 _atom_site_type_symbol
 _atom_site_label
 _atom_site_symmetry_multiplicity
 _atom_site_fract_x
 _atom_site_fract_y
 _atom_site_fract_z
 _atom_site_occupancy
  C  C0  1  0.95682098  0.79904685  0.67239661  1
  C  C1  1  0.06734418  0.25276371  0.88924881  1
  C  C2  1  0.96946072  0.73928909  0.12373125  1
  C  C3  1  0.05331293  0.20558686  0.32840762  1
  Ni  Ni4  1  0.89115513  0.41553803  0.57050707  1
  C  C5  1  0.46859926  0.47893552  0.67449681  1
  C  C6  1  0.51540010  0.97803210  0.82349442  1
  C  C7  1  0.50997906  0.51941552  0.32257101  1
  C  C8  1  0.48912473  0.01667945  0.17627375  1
  Cu  Cu9  1  0.59629077  0.14859059  0.55198698  1
  Cu  Cu10  1  0.40092945  0.64261628  0.94567712  1
  Cu  Cu11  1  0.39704007  0.85494559  0.45260570  1
  Cu  Cu12  1  0.60897334  0.35472557  0.05261178  1
  C  C13  1  0.84505426  0.18877735  0.56398211  1
  C  C14  1  0.15723253  0.62051725  0.92735204  1
  C  C15  1  0.16517432  0.86583356  0.44611681  1
  C  C16  1  0.84304701  0.36096869  0.06534887  1
  C  C17  1  0.53037071  0.21037842  0.70404558  1
  C  C18  1  0.45497984  0.70547590  0.78462482  1
  C  C19  1  0.44595618  0.78785196  0.29575063  1
  C  C20  1  0.56091952  0.29200493  0.21206000  1
  C  C21  1  0.18448553  0.45223392  0.62606808  1
  C  C22  1  0.78480196  0.95636749  0.87651217  1
  C  C23  1  0.78717057  0.53424645  0.40129578  1
  C  C24  1  0.22052844  0.04987650  0.12839937  1
  C  C25  1  0.75620342  0.98501374  0.22995099  1
  C  C26  1  0.24361117  0.49089701  0.25828999  1
  C  C27  1  0.24885824  0.00698191  0.76839185  1
  C  C28  1  0.75173646  0.49709210  0.70691795  1
  C  C29  1  0.55250347  0.55883171  0.10735091  1
  C  C30  1  0.45180577  0.06031102  0.39479892  1
  C  C31  1  0.50768518  0.35655444  0.48694304  1
  C  C32  1  0.56650409  0.93047118  0.60678522  1
  C  C33  1  0.52552156  0.15672416  0.99209554  1
  C  C34  1  0.45847097  0.65117854  0.51093959  1
  C  C35  1  0.46874210  0.85306081  0.00836195  1
  C  C36  1  0.46235095  0.42843281  0.88860787  1
