# generated using pymatgen
data_CuNiC5
_symmetry_space_group_name_H-M   'P 1'
_cell_length_a   11.91820900
_cell_length_b   7.17329100
_cell_length_c   12.92445600
_cell_angle_alpha   90.00000000
_cell_angle_beta   90.00000000
_cell_angle_gamma   90.00000000
_symmetry_Int_Tables_number   1
_chemical_formula_structural   CuNiC5
_chemical_formula_sum   'Cu8 Ni8 C40'
_cell_volume   1104.94769095
_cell_formula_units_Z   8
loop_
 _symmetry_equiv_pos_site_id
 _symmetry_equiv_pos_as_xyz
  1  'x, y, z'
loop_
 _atom_site_type_symbol
 _atom_site_label
 _atom_site_symmetry_multiplicity
 _atom_site_fract_x
 _atom_site_fract_y
 _atom_site_fract_z
 _atom_site_occupancy
  C  C0  1  0.11265500  0.89933700  0.68774200  1
  C  C1  1  0.88734500  0.10066300  0.18774200  1
  C  C2  1  0.38734500  0.89933700  0.18774200  1
  C  C3  1  0.61265500  0.10066300  0.68774200  1
  C  C4  1  0.11851600  0.37134900  0.33230900  1
  C  C5  1  0.88148300  0.62865100  0.83230900  1
  C  C6  1  0.38148300  0.37134900  0.83230900  1
  C  C7  1  0.61851700  0.62865100  0.33230900  1
  Ni  Ni8  1  0.16163000  0.62665800  0.94071200  1
  Ni  Ni9  1  0.83837000  0.37334200  0.44071200  1
  Ni  Ni10  1  0.33837000  0.62665800  0.44071200  1
  Ni  Ni11  1  0.66163000  0.37334200  0.94071200  1
  Ni  Ni12  1  0.12698100  0.13506900  0.01788700  1
  Ni  Ni13  1  0.87301900  0.86493100  0.51788700  1
  Ni  Ni14  1  0.37301900  0.13506900  0.51788700  1
  Ni  Ni15  1  0.62698100  0.86493100  0.01788700  1
  Cu  Cu16  1  0.10677400  0.37578900  0.67127300  1
  Cu  Cu17  1  0.89322600  0.62421100  0.17127300  1
  Cu  Cu18  1  0.39322600  0.37578900  0.17127300  1
  Cu  Cu19  1  0.60677400  0.62421100  0.67127300  1
  Cu  Cu20  1  0.11530900  0.88465600  0.32212500  1
  Cu  Cu21  1  0.88469100  0.11534400  0.82212500  1
  Cu  Cu22  1  0.38469100  0.88465600  0.82212500  1
  Cu  Cu23  1  0.61530900  0.11534400  0.32212500  1
  C  C24  1  0.03362800  0.86184200  0.87918500  1
  C  C25  1  0.96637200  0.13815800  0.37918500  1
  C  C26  1  0.46637200  0.86184200  0.37918500  1
  C  C27  1  0.53362800  0.13815800  0.87918500  1
  C  C28  1  0.03823800  0.34728500  0.14739100  1
  C  C29  1  0.96176200  0.65271500  0.64739100  1
  C  C30  1  0.46176200  0.34728500  0.64739100  1
  C  C31  1  0.53823800  0.65271500  0.14739100  1
  C  C32  1  0.02373400  0.39579300  0.89603300  1
  C  C33  1  0.97626600  0.60420700  0.39603300  1
  C  C34  1  0.47626600  0.39579300  0.39603300  1
  C  C35  1  0.52373400  0.60420700  0.89603300  1
  C  C36  1  0.03185900  0.89366600  0.12539100  1
  C  C37  1  0.96814100  0.10633400  0.62539100  1
  C  C38  1  0.46814100  0.89366600  0.62539100  1
  C  C39  1  0.53185900  0.10633400  0.12539100  1
  C  C40  1  0.22868500  0.87988600  0.52063900  1
  C  C41  1  0.77131500  0.12011400  0.02063900  1
  C  C42  1  0.27131500  0.87988600  0.02063900  1
  C  C43  1  0.72868500  0.12011400  0.52063900  1
  C  C44  1  0.22821900  0.37507700  0.50263700  1
  C  C45  1  0.77178100  0.62492300  0.00263700  1
  C  C46  1  0.27178100  0.37507700  0.00263700  1
  C  C47  1  0.72821900  0.62492300  0.50263700  1
  C  C48  1  0.23231500  0.13472800  0.77685000  1
  C  C49  1  0.76768500  0.86527200  0.27685000  1
  C  C50  1  0.26768500  0.13472800  0.27685000  1
  C  C51  1  0.73231500  0.86527200  0.77685000  1
  C  C52  1  0.23947200  0.62450300  0.77682600  1
  C  C53  1  0.76052800  0.37549700  0.27682600  1
  C  C54  1  0.26052800  0.62450300  0.27682600  1
  C  C55  1  0.73947200  0.37549700  0.77682600  1
