# generated using pymatgen
data_Cu3(Ni8C11)2
_symmetry_space_group_name_H-M   'P 1'
_cell_length_a   6.64916000
_cell_length_b   7.64519054
_cell_length_c   18.42490119
_cell_angle_alpha   101.86204085
_cell_angle_beta   90.00000000
_cell_angle_gamma   115.77632290
_symmetry_Int_Tables_number   1
_chemical_formula_structural   Cu3(Ni8C11)2
_chemical_formula_sum   'Cu6 Ni32 C44'
_cell_volume   821.15096136
_cell_formula_units_Z   2
loop_
 _symmetry_equiv_pos_site_id
 _symmetry_equiv_pos_as_xyz
  1  'x, y, z'
loop_
 _atom_site_type_symbol
 _atom_site_label
 _atom_site_symmetry_multiplicity
 _atom_site_fract_x
 _atom_site_fract_y
 _atom_site_fract_z
 _atom_site_occupancy
  C  C0  1  0.14685200  0.33649500  0.39311000  1
  C  C1  1  0.81035700  0.66350500  0.10689000  1
  C  C2  1  0.85314800  0.66350500  0.60689000  1
  C  C3  1  0.18964300  0.33649500  0.89311000  1
  Ni  Ni4  1  0.49434200  0.70551200  0.48167800  1
  Ni  Ni5  1  0.78883000  0.29448800  0.01832200  1
  Ni  Ni6  1  0.50565800  0.29448800  0.51832200  1
  Ni  Ni7  1  0.21117000  0.70551200  0.98167800  1
  Ni  Ni8  1  0.27920800  0.74448000  0.48774700  1
  Ni  Ni9  1  0.53472800  0.25552000  0.01225300  1
  Ni  Ni10  1  0.72079200  0.25552000  0.51225300  1
  Ni  Ni11  1  0.46527200  0.74448000  0.98774700  1
  Ni  Ni12  1  0.20058300  0.44072900  0.24839900  1
  Ni  Ni13  1  0.75985500  0.55927100  0.25160100  1
  Ni  Ni14  1  0.79941700  0.55927100  0.75160100  1
  Ni  Ni15  1  0.24014500  0.44072900  0.74839900  1
  Ni  Ni16  1  0.37076300  0.64228900  0.30484500  1
  Ni  Ni17  1  0.72847400  0.35771100  0.19515500  1
  Ni  Ni18  1  0.62923700  0.35771100  0.69515500  1
  Ni  Ni19  1  0.27152600  0.64228900  0.80484500  1
  Ni  Ni20  1  0.69226500  0.01799200  0.39346200  1
  Ni  Ni21  1  0.67427400  0.98200800  0.10653800  1
  Ni  Ni22  1  0.30773500  0.98200800  0.60653800  1
  Ni  Ni23  1  0.32572600  0.01799200  0.89346200  1
  Ni  Ni24  1  0.83617200  0.99498800  0.45586200  1
  Ni  Ni25  1  0.84118300  0.00501200  0.04413800  1
  Ni  Ni26  1  0.16382800  0.00501200  0.54413800  1
  Ni  Ni27  1  0.15881700  0.99498800  0.95586200  1
  Ni  Ni28  1  0.05223100  0.90562200  0.35662900  1
  Ni  Ni29  1  0.14661000  0.09437800  0.14337100  1
  Ni  Ni30  1  0.94776900  0.09437800  0.64337100  1
  Ni  Ni31  1  0.85339000  0.90562200  0.85662900  1
  Ni  Ni32  1  0.31057100  0.02944900  0.34564200  1
  Ni  Ni33  1  0.28112200  0.97055100  0.15435800  1
  Ni  Ni34  1  0.68942900  0.97055100  0.65435800  1
  Ni  Ni35  1  0.71887800  0.02944900  0.84564200  1
  Cu  Cu36  1  0.24731400  0.44191400  0.58814500  1
  Cu  Cu37  1  0.80540000  0.55808600  0.91185500  1
  Cu  Cu38  1  0.75268600  0.55808600  0.41185500  1
  Cu  Cu39  1  0.19460000  0.44191400  0.08814500  1
  Cu  Cu40  1  0.69119400  0.00000000  0.25000000  1
  Cu  Cu41  1  0.30880600  0.00000000  0.75000000  1
  C  C42  1  0.22497700  0.30560100  0.51300700  1
  C  C43  1  0.91937700  0.69439900  0.98699300  1
  C  C44  1  0.77502300  0.69439900  0.48699300  1
  C  C45  1  0.08062300  0.30560100  0.01300700  1
  C  C46  1  0.48134100  0.60139100  0.60354800  1
  C  C47  1  0.87995000  0.39860900  0.89645200  1
  C  C48  1  0.51865900  0.39860900  0.39645200  1
  C  C49  1  0.12005000  0.60139100  0.10354800  1
  C  C50  1  0.09316000  0.53257000  0.58311300  1
  C  C51  1  0.56059000  0.46743000  0.91688700  1
  C  C52  1  0.90684000  0.46743000  0.41688700  1
  C  C53  1  0.43941000  0.53257000  0.08311300  1
  C  C54  1  0.19132100  0.32369500  0.64548400  1
  C  C55  1  0.86762600  0.67630500  0.85451600  1
  C  C56  1  0.80867900  0.67630500  0.35451600  1
  C  C57  1  0.13237400  0.32369500  0.14548400  1
  C  C58  1  0.90420700  0.16548500  0.28993600  1
  C  C59  1  0.73872200  0.83451500  0.21006400  1
  C  C60  1  0.09579300  0.83451500  0.71006400  1
  C  C61  1  0.26127800  0.16548500  0.78993600  1
  C  C62  1  0.52773400  0.92868300  0.30544200  1
  C  C63  1  0.59905100  0.07131700  0.19455800  1
  C  C64  1  0.47226600  0.07131700  0.69455800  1
  C  C65  1  0.40094900  0.92868300  0.80544200  1
  C  C66  1  0.35191000  0.67623900  0.45424600  1
  C  C67  1  0.67567100  0.32376100  0.04575400  1
  C  C68  1  0.64809000  0.32376100  0.54575400  1
  C  C69  1  0.32432900  0.67623900  0.95424600  1
  C  C70  1  0.26368500  0.50210200  0.30088600  1
  C  C71  1  0.76158300  0.49789800  0.19911400  1
  C  C72  1  0.73631500  0.49789800  0.69911400  1
  C  C73  1  0.23841700  0.50210200  0.80088600  1
  C  C74  1  0.81076400  0.09442600  0.43647700  1
  C  C75  1  0.71633800  0.90557400  0.06352300  1
  C  C76  1  0.18923600  0.90557400  0.56352300  1
  C  C77  1  0.28366200  0.09442600  0.93647700  1
  C  C78  1  0.17917200  0.04093100  0.36626900  1
  C  C79  1  0.13824200  0.95906900  0.13373100  1
  C  C80  1  0.82082800  0.95906900  0.63373100  1
  C  C81  1  0.86175800  0.04093100  0.86626900  1
