# generated using pymatgen
data_Cu(NiC)2
_symmetry_space_group_name_H-M   'P 1'
_cell_length_a   6.13038000
_cell_length_b   6.13038000
_cell_length_c   3.30319400
_cell_angle_alpha   90.00000000
_cell_angle_beta   90.00000000
_cell_angle_gamma   90.00000000
_symmetry_Int_Tables_number   1
_chemical_formula_structural   Cu(NiC)2
_chemical_formula_sum   'Cu2 Ni4 C4'
_cell_volume   124.13918002
_cell_formula_units_Z   2
loop_
 _symmetry_equiv_pos_site_id
 _symmetry_equiv_pos_as_xyz
  1  'x, y, z'
loop_
 _atom_site_type_symbol
 _atom_site_label
 _atom_site_symmetry_multiplicity
 _atom_site_fract_x
 _atom_site_fract_y
 _atom_site_fract_z
 _atom_site_occupancy
  Ni  Ni0  1  0.67855600  0.17855600  0.50000000  1
  Ni  Ni1  1  0.32144400  0.82144400  0.50000000  1
  Ni  Ni2  1  0.17855600  0.32144400  0.50000000  1
  Ni  Ni3  1  0.82144400  0.67855600  0.50000000  1
  C  C4  1  0.10857100  0.60857100  0.00000000  1
  C  C5  1  0.89142900  0.39142900  0.00000000  1
  C  C6  1  0.60857100  0.89142900  0.00000000  1
  C  C7  1  0.39142900  0.10857100  0.00000000  1
  Cu  Cu8  1  0.00000000  0.00000000  0.00000000  1
  Cu  Cu9  1  0.50000000  0.50000000  0.00000000  1
