# generated using pymatgen
data_Cu(NiC2)2
_symmetry_space_group_name_H-M   'P 1'
_cell_length_a   7.77725917
_cell_length_b   7.77725917
_cell_length_c   7.77725917
_cell_angle_alpha   136.07171749
_cell_angle_beta   113.56441139
_cell_angle_gamma   83.10856042
_symmetry_Int_Tables_number   1
_chemical_formula_structural   Cu(NiC2)2
_chemical_formula_sum   'Cu4 Ni8 C16'
_cell_volume   288.51864332
_cell_formula_units_Z   4
loop_
 _symmetry_equiv_pos_site_id
 _symmetry_equiv_pos_as_xyz
  1  'x, y, z'
loop_
 _atom_site_type_symbol
 _atom_site_label
 _atom_site_symmetry_multiplicity
 _atom_site_fract_x
 _atom_site_fract_y
 _atom_site_fract_z
 _atom_site_occupancy
  Ni  Ni0  1  0.50000000  0.50000000  0.00000000  1
  Ni  Ni1  1  0.00000000  0.00000000  0.00000000  1
  Ni  Ni2  1  0.78172900  0.75000000  0.03172900  1
  Ni  Ni3  1  0.21827100  0.25000000  0.96827100  1
  Ni  Ni4  1  0.37547200  0.37547200  0.50000000  1
  Ni  Ni5  1  0.62452800  0.12452800  0.00000000  1
  Ni  Ni6  1  0.37547200  0.87547200  0.00000000  1
  Ni  Ni7  1  0.62452800  0.62452800  0.50000000  1
  Cu  Cu8  1  0.00372000  0.62075000  0.38297000  1
  Cu  Cu9  1  0.99628000  0.37925000  0.61703000  1
  Cu  Cu10  1  0.73778000  0.12075000  0.61703000  1
  Cu  Cu11  1  0.26222000  0.87925000  0.38297000  1
  C  C12  1  0.53761300  0.75000000  0.78761300  1
  C  C13  1  0.46238700  0.25000000  0.21238700  1
  C  C14  1  0.03623900  0.75000000  0.28623900  1
  C  C15  1  0.96376100  0.25000000  0.71376100  1
  C  C16  1  0.24420800  0.98733300  0.25687500  1
  C  C17  1  0.75579200  0.01266700  0.74312500  1
  C  C18  1  0.23045900  0.48733300  0.74312500  1
  C  C19  1  0.76954100  0.51266700  0.25687500  1
  C  C20  1  0.63156200  0.35857200  0.74409700  1
  C  C21  1  0.36843800  0.11253400  0.72701000  1
  C  C22  1  0.11447500  0.85857200  0.72701000  1
  C  C23  1  0.88552500  0.61253400  0.74409700  1
  C  C24  1  0.36843800  0.64142800  0.25590300  1
  C  C25  1  0.63156200  0.88746600  0.27299000  1
  C  C26  1  0.88552500  0.14142800  0.27299000  1
  C  C27  1  0.11447500  0.38746600  0.25590300  1
