# generated using pymatgen
data_CuNi13C19
_symmetry_space_group_name_H-M   'P 1'
_cell_length_a   10.69850024
_cell_length_b   10.69850024
_cell_length_c   10.70930703
_cell_angle_alpha   89.99686718
_cell_angle_beta   89.99686718
_cell_angle_gamma   89.98436764
_symmetry_Int_Tables_number   1
_chemical_formula_structural   CuNi13C19
_chemical_formula_sum   'Cu2 Ni26 C38'
_cell_volume   1225.76482384
_cell_formula_units_Z   2
loop_
 _symmetry_equiv_pos_site_id
 _symmetry_equiv_pos_as_xyz
  1  'x, y, z'
loop_
 _atom_site_type_symbol
 _atom_site_label
 _atom_site_symmetry_multiplicity
 _atom_site_fract_x
 _atom_site_fract_y
 _atom_site_fract_z
 _atom_site_occupancy
  C  C0  1  0.49968800  0.00029200  0.50002400  1
  C  C1  1  0.00029200  0.49968800  0.00002400  1
  Ni  Ni2  1  0.75126600  0.75055200  0.24840300  1
  Ni  Ni3  1  0.75008200  0.25051800  0.75211100  1
  Ni  Ni4  1  0.24917900  0.25092200  0.24899400  1
  Ni  Ni5  1  0.24807400  0.74983500  0.75054200  1
  Ni  Ni6  1  0.75055200  0.75126600  0.74840300  1
  Ni  Ni7  1  0.25051800  0.75008200  0.25211100  1
  Ni  Ni8  1  0.25092200  0.24917900  0.74899400  1
  Ni  Ni9  1  0.74983500  0.24807400  0.25054200  1
  Ni  Ni10  1  0.75633700  0.99987200  0.50009500  1
  Ni  Ni11  1  0.49940000  0.74426000  0.49956900  1
  Ni  Ni12  1  0.50051400  0.00067900  0.24430000  1
  Ni  Ni13  1  0.49937100  0.25562400  0.50040300  1
  Ni  Ni14  1  0.49973100  0.00049600  0.75567800  1
  Ni  Ni15  1  0.24379500  0.99989900  0.49988200  1
  Ni  Ni16  1  0.99987200  0.75633700  0.00009500  1
  Ni  Ni17  1  0.74426000  0.49940000  0.99956900  1
  Ni  Ni18  1  0.00067900  0.50051400  0.74430000  1
  Ni  Ni19  1  0.25562400  0.49937100  0.00040300  1
  Ni  Ni20  1  0.00049600  0.49973100  0.25567800  1
  Ni  Ni21  1  0.99989900  0.24379500  0.99988200  1
  Ni  Ni22  1  0.75056400  0.00039100  0.00090900  1
  Ni  Ni23  1  0.00039100  0.75056400  0.50090900  1
  Ni  Ni24  1  0.49841600  0.50046800  0.25015100  1
  Ni  Ni25  1  0.00045800  0.24941400  0.49912700  1
  Ni  Ni26  1  0.50046800  0.49841600  0.75015100  1
  Ni  Ni27  1  0.24941400  0.00045800  0.99912700  1
  Cu  Cu28  1  0.74990300  0.50009900  0.49971300  1
  Cu  Cu29  1  0.50009900  0.74990300  0.99971300  1
  C  C30  1  0.00033000  0.99948000  0.24999400  1
  C  C31  1  0.50001900  0.24999700  0.00042800  1
  C  C32  1  0.99948000  0.00033000  0.74999400  1
  C  C33  1  0.24999700  0.50001900  0.50042800  1
  C  C34  1  0.87971100  0.63469700  0.37033800  1
  C  C35  1  0.63025600  0.62105200  0.13499000  1
  C  C36  1  0.87221200  0.87798100  0.12812800  1
  C  C37  1  0.87917500  0.36512900  0.63059800  1
  C  C38  1  0.62288200  0.37156700  0.87179300  1
  C  C39  1  0.87356300  0.12261700  0.87193600  1
  C  C40  1  0.12825800  0.37235900  0.37680300  1
  C  C41  1  0.37652000  0.37163800  0.12695600  1
  C  C42  1  0.12672600  0.12356400  0.12854900  1
  C  C43  1  0.12791300  0.62739000  0.62231100  1
  C  C44  1  0.36894200  0.62097500  0.86591200  1
  C  C45  1  0.12789400  0.87710100  0.87140800  1
  C  C46  1  0.63469700  0.87971100  0.87033800  1
  C  C47  1  0.62105200  0.63025600  0.63499000  1
  C  C48  1  0.87798100  0.87221200  0.62812800  1
  C  C49  1  0.36512900  0.87917500  0.13059800  1
  C  C50  1  0.37156700  0.62288200  0.37179300  1
  C  C51  1  0.12261700  0.87356300  0.37193600  1
  C  C52  1  0.37235900  0.12825800  0.87680300  1
  C  C53  1  0.37163800  0.37652000  0.62695600  1
  C  C54  1  0.12356400  0.12672600  0.62854900  1
  C  C55  1  0.62739000  0.12791300  0.12231100  1
  C  C56  1  0.62097500  0.36894200  0.36591200  1
  C  C57  1  0.87710100  0.12789400  0.37140800  1
  C  C58  1  0.62051900  0.87923600  0.37925900  1
  C  C59  1  0.62042200  0.12110100  0.62012000  1
  C  C60  1  0.37911100  0.12062100  0.37989300  1
  C  C61  1  0.37910900  0.87983400  0.62068400  1
  C  C62  1  0.87923600  0.62051900  0.87925900  1
  C  C63  1  0.12110100  0.62042200  0.12012000  1
  C  C64  1  0.12062100  0.37911100  0.87989300  1
  C  C65  1  0.87983400  0.37910900  0.12068400  1
