# generated using pymatgen
data_Cu3Ni2C15
_symmetry_space_group_name_H-M   'P 1'
_cell_length_a   27.42277300
_cell_length_b   7.86295400
_cell_length_c   10.53058408
_cell_angle_alpha   77.20294086
_cell_angle_beta   90.00000000
_cell_angle_gamma   90.00000000
_symmetry_Int_Tables_number   1
_chemical_formula_structural   Cu3Ni2C15
_chemical_formula_sum   'Cu12 Ni8 C60'
_cell_volume   2214.24547072
_cell_formula_units_Z   4
loop_
 _symmetry_equiv_pos_site_id
 _symmetry_equiv_pos_as_xyz
  1  'x, y, z'
loop_
 _atom_site_type_symbol
 _atom_site_label
 _atom_site_symmetry_multiplicity
 _atom_site_fract_x
 _atom_site_fract_y
 _atom_site_fract_z
 _atom_site_occupancy
  C  C0  1  0.25000000  0.67306000  0.77160900  1
  C  C1  1  0.75000000  0.32694000  0.22839100  1
  C  C2  1  0.25000000  0.09256000  0.38604000  1
  C  C3  1  0.75000000  0.90744000  0.61396000  1
  C  C4  1  0.25000000  0.19153600  0.98012200  1
  C  C5  1  0.75000000  0.80846400  0.01987800  1
  C  C6  1  0.25000000  0.56289500  0.40105400  1
  C  C7  1  0.75000000  0.43710500  0.59894600  1
  C  C8  1  0.56043100  0.23644900  0.61873900  1
  C  C9  1  0.06043100  0.76355100  0.38126100  1
  C  C10  1  0.43956900  0.76355100  0.38126100  1
  C  C11  1  0.93956900  0.23644900  0.61873900  1
  C  C12  1  0.56722500  0.82555600  0.07911300  1
  C  C13  1  0.06722500  0.17444400  0.92088700  1
  C  C14  1  0.43277500  0.17444400  0.92088700  1
  C  C15  1  0.93277500  0.82555600  0.07911300  1
  Ni  Ni16  1  0.37582600  0.35529700  0.31299400  1
  Ni  Ni17  1  0.87582600  0.64470300  0.68700600  1
  Ni  Ni18  1  0.62417400  0.64470300  0.68700600  1
  Ni  Ni19  1  0.12417400  0.35529700  0.31299400  1
  Ni  Ni20  1  0.37262800  0.51628300  0.66646600  1
  Ni  Ni21  1  0.87262800  0.48371700  0.33353400  1
  Ni  Ni22  1  0.62737200  0.48371700  0.33353400  1
  Ni  Ni23  1  0.12737200  0.51628300  0.66646600  1
  Cu  Cu24  1  0.36915200  0.67363500  0.99450600  1
  Cu  Cu25  1  0.86915200  0.32636500  0.00549400  1
  Cu  Cu26  1  0.63084800  0.32636500  0.00549400  1
  Cu  Cu27  1  0.13084800  0.67363500  0.99450600  1
  Cu  Cu28  1  0.36279200  0.00186500  0.64021800  1
  Cu  Cu29  1  0.86279200  0.99813500  0.35978200  1
  Cu  Cu30  1  0.63720800  0.99813500  0.35978200  1
  Cu  Cu31  1  0.13720800  0.00186500  0.64021800  1
  Cu  Cu32  1  0.48658500  0.73872100  0.76326100  1
  Cu  Cu33  1  0.98658500  0.26127900  0.23673900  1
  Cu  Cu34  1  0.51341500  0.26127900  0.23673900  1
  Cu  Cu35  1  0.01341500  0.73872100  0.76326100  1
  C  C36  1  0.33419100  0.95206200  0.86743600  1
  C  C37  1  0.83419100  0.04793800  0.13256400  1
  C  C38  1  0.66580900  0.04793800  0.13256400  1
  C  C39  1  0.16580900  0.95206200  0.86743600  1
  C  C40  1  0.45177900  0.01610300  0.63411600  1
  C  C41  1  0.95177900  0.98389700  0.36588400  1
  C  C42  1  0.54822100  0.98389700  0.36588400  1
  C  C43  1  0.04822100  0.01610300  0.63411600  1
  C  C44  1  0.46537300  0.49880600  0.67162400  1
  C  C45  1  0.96537300  0.50119400  0.32837600  1
  C  C46  1  0.53462700  0.50119400  0.32837600  1
  C  C47  1  0.03462700  0.49880600  0.67162400  1
  C  C48  1  0.34670500  0.65839600  0.21529900  1
  C  C49  1  0.84670500  0.34160400  0.78470100  1
  C  C50  1  0.65329500  0.34160400  0.78470100  1
  C  C51  1  0.15329500  0.65839600  0.21529900  1
  C  C52  1  0.33147000  0.78865800  0.53422100  1
  C  C53  1  0.83147000  0.21134200  0.46577900  1
  C  C54  1  0.66853000  0.21134200  0.46577900  1
  C  C55  1  0.16853000  0.78865800  0.53422100  1
  C  C56  1  0.33599200  0.29405500  0.53940100  1
  C  C57  1  0.83599200  0.70594500  0.46059900  1
  C  C58  1  0.66400800  0.70594500  0.46059900  1
  C  C59  1  0.16400800  0.29405500  0.53940100  1
  C  C60  1  0.34421300  0.44105800  0.89962600  1
  C  C61  1  0.84421300  0.55894200  0.10037400  1
  C  C62  1  0.65578700  0.55894200  0.10037400  1
  C  C63  1  0.15578700  0.44105800  0.89962600  1
  C  C64  1  0.45790700  0.72088900  0.98845400  1
  C  C65  1  0.95790700  0.27911100  0.01154600  1
  C  C66  1  0.54209300  0.27911100  0.01154600  1
  C  C67  1  0.04209300  0.72088900  0.98845400  1
  C  C68  1  0.56872400  0.83424600  0.77432000  1
  C  C69  1  0.06872400  0.16575400  0.22568000  1
  C  C70  1  0.43127600  0.16575400  0.22568000  1
  C  C71  1  0.93127600  0.83424600  0.77432000  1
  C  C72  1  0.25000000  0.35853000  0.68762900  1
  C  C73  1  0.75000000  0.64147000  0.31237100  1
  C  C74  1  0.25000000  0.39656900  0.19339300  1
  C  C75  1  0.75000000  0.60343100  0.80660700  1
  C  C76  1  0.30924500  0.06919600  0.18686700  1
  C  C77  1  0.80924500  0.93080400  0.81313300  1
  C  C78  1  0.69075500  0.93080400  0.81313300  1
  C  C79  1  0.19075500  0.06919600  0.18686700  1
