# generated using pymatgen
data_Cu2NiC7
_symmetry_space_group_name_H-M   'P 1'
_cell_length_a   5.85449589
_cell_length_b   11.34297882
_cell_length_c   8.15102519
_cell_angle_alpha   92.62242035
_cell_angle_beta   89.99955541
_cell_angle_gamma   90.00285764
_symmetry_Int_Tables_number   1
_chemical_formula_structural   Cu2NiC7
_chemical_formula_sum   'Cu8 Ni4 C28'
_cell_volume   540.72170767
_cell_formula_units_Z   4
loop_
 _symmetry_equiv_pos_site_id
 _symmetry_equiv_pos_as_xyz
  1  'x, y, z'
loop_
 _atom_site_type_symbol
 _atom_site_label
 _atom_site_symmetry_multiplicity
 _atom_site_fract_x
 _atom_site_fract_y
 _atom_site_fract_z
 _atom_site_occupancy
  Ni  Ni0  1  0.99999200  0.49999400  0.50002400  1
  Ni  Ni1  1  0.50000400  0.75000300  0.99997900  1
  Ni  Ni2  1  0.99999600  0.00000500  0.50002300  1
  Ni  Ni3  1  0.50000200  0.24999900  0.99997700  1
  Cu  Cu4  1  0.00000900  0.76048300  0.76048400  1
  Cu  Cu5  1  0.50000200  0.01051100  0.26048600  1
  Cu  Cu6  1  0.00000900  0.26047500  0.76048500  1
  Cu  Cu7  1  0.49999700  0.51049600  0.26048300  1
  Cu  Cu8  1  0.99999600  0.23949100  0.23951200  1
  Cu  Cu9  1  0.49999600  0.48951800  0.73951800  1
  Cu  Cu10  1  0.99999600  0.73950000  0.23951300  1
  Cu  Cu11  1  0.49999400  0.98952600  0.73951800  1
  C  C12  1  0.99999100  0.49998200  0.99999100  1
  C  C13  1  0.50001100  0.75001700  0.50000900  1
  C  C14  1  0.99998900  0.99997800  0.99998700  1
  C  C15  1  0.50001000  0.25002300  0.50001200  1
  C  C16  1  0.67306700  0.39236300  0.46182200  1
  C  C17  1  0.17306700  0.64236500  0.96178200  1
  C  C18  1  0.67307100  0.89236500  0.46182200  1
  C  C19  1  0.17306700  0.14236400  0.96178500  1
  C  C20  1  0.09401800  0.50885500  0.22892300  1
  C  C21  1  0.59401400  0.75880900  0.72891700  1
  C  C22  1  0.09401800  0.00885400  0.22892700  1
  C  C23  1  0.59401800  0.25880900  0.72891700  1
  C  C24  1  0.23284300  0.34535800  0.55576200  1
  C  C25  1  0.73287800  0.59537600  0.05582600  1
  C  C26  1  0.23284500  0.84536200  0.55576100  1
  C  C27  1  0.73287400  0.09537300  0.05582400  1
  C  C28  1  0.32693700  0.60763400  0.53821500  1
  C  C29  1  0.82693100  0.85763700  0.03817800  1
  C  C30  1  0.32693200  0.10763600  0.53821800  1
  C  C31  1  0.82692800  0.35763500  0.03817700  1
  C  C32  1  0.76712300  0.65462400  0.44417400  1
  C  C33  1  0.26715800  0.90464300  0.94423700  1
  C  C34  1  0.76712500  0.15462700  0.44417400  1
  C  C35  1  0.26715700  0.40463800  0.94423800  1
  C  C36  1  0.90598800  0.49119000  0.77108400  1
  C  C37  1  0.40598300  0.74114500  0.27107700  1
  C  C38  1  0.90598200  0.99119000  0.77108300  1
  C  C39  1  0.40598000  0.24114600  0.27107400  1
