# generated using pymatgen
data_Cu12Ni2C
_symmetry_space_group_name_H-M   'P 1'
_cell_length_a   5.69013000
_cell_length_b   9.41476100
_cell_length_c   16.26258500
_cell_angle_alpha   90.00000000
_cell_angle_beta   90.00000000
_cell_angle_gamma   90.00000000
_symmetry_Int_Tables_number   1
_chemical_formula_structural   Cu12Ni2C
_chemical_formula_sum   'Cu48 Ni8 C4'
_cell_volume   871.20642137
_cell_formula_units_Z   4
loop_
 _symmetry_equiv_pos_site_id
 _symmetry_equiv_pos_as_xyz
  1  'x, y, z'
loop_
 _atom_site_type_symbol
 _atom_site_label
 _atom_site_symmetry_multiplicity
 _atom_site_fract_x
 _atom_site_fract_y
 _atom_site_fract_z
 _atom_site_occupancy
  C  C0  1  0.00000000  0.00000000  0.00000000  1
  C  C1  1  0.50000000  0.50000000  0.00000000  1
  C  C2  1  0.00000000  0.00000000  0.50000000  1
  C  C3  1  0.50000000  0.50000000  0.50000000  1
  Ni  Ni4  1  0.21021400  0.25913700  0.09199600  1
  Ni  Ni5  1  0.78978600  0.74086300  0.90800400  1
  Ni  Ni6  1  0.71021400  0.24086300  0.90800400  1
  Ni  Ni7  1  0.78978600  0.74086300  0.59199600  1
  Ni  Ni8  1  0.28978600  0.75913700  0.09199600  1
  Ni  Ni9  1  0.21021400  0.25913700  0.40800400  1
  Ni  Ni10  1  0.28978600  0.75913700  0.40800400  1
  Ni  Ni11  1  0.71021400  0.24086300  0.59199600  1
  Cu  Cu12  1  0.59751200  0.59179700  0.25000000  1
  Cu  Cu13  1  0.40248800  0.40820300  0.75000000  1
  Cu  Cu14  1  0.09751200  0.90820300  0.75000000  1
  Cu  Cu15  1  0.90248800  0.09179700  0.25000000  1
  Cu  Cu16  1  0.55676800  0.36306300  0.25000000  1
  Cu  Cu17  1  0.44323200  0.63693700  0.75000000  1
  Cu  Cu18  1  0.05676800  0.13693700  0.75000000  1
  Cu  Cu19  1  0.94323200  0.86306300  0.25000000  1
  Cu  Cu20  1  0.41650700  0.21277000  0.13738700  1
  Cu  Cu21  1  0.58349300  0.78723000  0.86261300  1
  Cu  Cu22  1  0.91650700  0.28723000  0.86261300  1
  Cu  Cu23  1  0.58349300  0.78723000  0.63738700  1
  Cu  Cu24  1  0.08349300  0.71277000  0.13738700  1
  Cu  Cu25  1  0.41650700  0.21277000  0.36261300  1
  Cu  Cu26  1  0.08349300  0.71277000  0.36261300  1
  Cu  Cu27  1  0.91650700  0.28723000  0.63738700  1
  Cu  Cu28  1  0.84569300  0.03279300  0.09389900  1
  Cu  Cu29  1  0.15430700  0.96720700  0.90610100  1
  Cu  Cu30  1  0.34569300  0.46720700  0.90610100  1
  Cu  Cu31  1  0.15430700  0.96720700  0.59389900  1
  Cu  Cu32  1  0.65430700  0.53279300  0.09389900  1
  Cu  Cu33  1  0.84569300  0.03279300  0.40610100  1
  Cu  Cu34  1  0.65430700  0.53279300  0.40610100  1
  Cu  Cu35  1  0.34569300  0.46720700  0.59389900  1
  Cu  Cu36  1  0.17987600  0.17487600  0.01206000  1
  Cu  Cu37  1  0.82012400  0.82512400  0.98794000  1
  Cu  Cu38  1  0.67987600  0.32512400  0.98794000  1
  Cu  Cu39  1  0.82012400  0.82512400  0.51206000  1
  Cu  Cu40  1  0.32012400  0.67487600  0.01206000  1
  Cu  Cu41  1  0.17987600  0.17487600  0.48794000  1
  Cu  Cu42  1  0.32012400  0.67487600  0.48794000  1
  Cu  Cu43  1  0.67987600  0.32512400  0.51206000  1
  Cu  Cu44  1  0.98720800  0.25014300  0.13933900  1
  Cu  Cu45  1  0.01279200  0.74985700  0.86066100  1
  Cu  Cu46  1  0.48720800  0.24985700  0.86066100  1
  Cu  Cu47  1  0.01279200  0.74985700  0.63933900  1
  Cu  Cu48  1  0.51279200  0.75014300  0.13933900  1
  Cu  Cu49  1  0.98720800  0.25014300  0.36066100  1
  Cu  Cu50  1  0.51279200  0.75014300  0.36066100  1
  Cu  Cu51  1  0.48720800  0.24985700  0.63933900  1
  Cu  Cu52  1  0.23247800  0.41161200  0.06310000  1
  Cu  Cu53  1  0.76752200  0.58838800  0.93690000  1
  Cu  Cu54  1  0.73247800  0.08838800  0.93690000  1
  Cu  Cu55  1  0.76752200  0.58838800  0.56310000  1
  Cu  Cu56  1  0.26752200  0.91161200  0.06310000  1
  Cu  Cu57  1  0.23247800  0.41161200  0.43690000  1
  Cu  Cu58  1  0.26752200  0.91161200  0.43690000  1
  Cu  Cu59  1  0.73247800  0.08838800  0.56310000  1
