# generated using pymatgen
data_Cu9Ni3C
_symmetry_space_group_name_H-M   'P 1'
_cell_length_a   6.92033100
_cell_length_b   7.50992100
_cell_length_c   8.58794700
_cell_angle_alpha   90.00000000
_cell_angle_beta   90.00000000
_cell_angle_gamma   90.00000000
_symmetry_Int_Tables_number   1
_chemical_formula_structural   Cu9Ni3C
_chemical_formula_sum   'Cu18 Ni6 C2'
_cell_volume   446.32538815
_cell_formula_units_Z   2
loop_
 _symmetry_equiv_pos_site_id
 _symmetry_equiv_pos_as_xyz
  1  'x, y, z'
loop_
 _atom_site_type_symbol
 _atom_site_label
 _atom_site_symmetry_multiplicity
 _atom_site_fract_x
 _atom_site_fract_y
 _atom_site_fract_z
 _atom_site_occupancy
  C  C0  1  0.00000000  0.50000000  0.65329100  1
  C  C1  1  0.50000000  0.00000000  0.34670900  1
  Ni  Ni2  1  0.50000000  0.73122100  0.80381500  1
  Ni  Ni3  1  0.50000000  0.26877900  0.80381500  1
  Ni  Ni4  1  0.00000000  0.76877900  0.19618500  1
  Ni  Ni5  1  0.00000000  0.23122100  0.19618500  1
  Ni  Ni6  1  0.00000000  0.00000000  0.64532700  1
  Ni  Ni7  1  0.50000000  0.50000000  0.35467300  1
  Cu  Cu8  1  0.71664800  0.67564900  0.53723500  1
  Cu  Cu9  1  0.71664800  0.32435100  0.53723500  1
  Cu  Cu10  1  0.28335200  0.67564900  0.53723500  1
  Cu  Cu11  1  0.28335200  0.32435100  0.53723500  1
  Cu  Cu12  1  0.78335200  0.82435100  0.46276500  1
  Cu  Cu13  1  0.78335200  0.17564900  0.46276500  1
  Cu  Cu14  1  0.21664800  0.82435100  0.46276500  1
  Cu  Cu15  1  0.21664800  0.17564900  0.46276500  1
  Cu  Cu16  1  0.00000000  0.50000000  0.29994600  1
  Cu  Cu17  1  0.50000000  0.00000000  0.70005400  1
  Cu  Cu18  1  0.31792400  0.50000000  0.82562800  1
  Cu  Cu19  1  0.68207600  0.50000000  0.82562800  1
  Cu  Cu20  1  0.18207600  0.00000000  0.17437200  1
  Cu  Cu21  1  0.81792400  0.00000000  0.17437200  1
  Cu  Cu22  1  0.00000000  0.80428400  0.77925000  1
  Cu  Cu23  1  0.00000000  0.19571600  0.77925000  1
  Cu  Cu24  1  0.50000000  0.69571600  0.22075000  1
  Cu  Cu25  1  0.50000000  0.30428400  0.22075000  1
