# generated using pymatgen
data_CuNiC3
_symmetry_space_group_name_H-M   'P 1'
_cell_length_a   5.76870742
_cell_length_b   5.76870742
_cell_length_c   12.34695000
_cell_angle_alpha   90.00000000
_cell_angle_beta   90.00000000
_cell_angle_gamma   119.99999330
_symmetry_Int_Tables_number   1
_chemical_formula_structural   CuNiC3
_chemical_formula_sum   'Cu6 Ni6 C18'
_cell_volume   355.83394484
_cell_formula_units_Z   6
loop_
 _symmetry_equiv_pos_site_id
 _symmetry_equiv_pos_as_xyz
  1  'x, y, z'
loop_
 _atom_site_type_symbol
 _atom_site_label
 _atom_site_symmetry_multiplicity
 _atom_site_fract_x
 _atom_site_fract_y
 _atom_site_fract_z
 _atom_site_occupancy
  Ni  Ni0  1  0.66666700  0.33333300  0.27061000  1
  Ni  Ni1  1  0.33333300  0.66666700  0.77061000  1
  Ni  Ni2  1  0.66666700  0.33333300  0.77061000  1
  Ni  Ni3  1  0.33333300  0.66666700  0.27061000  1
  Ni  Ni4  1  0.00000000  0.00000000  0.73200600  1
  Ni  Ni5  1  0.00000000  0.00000000  0.23200600  1
  Cu  Cu6  1  0.69976900  0.00000000  0.49746700  1
  Cu  Cu7  1  0.69976900  0.69976900  0.99746700  1
  Cu  Cu8  1  0.00000000  0.30023100  0.99746700  1
  Cu  Cu9  1  0.00000000  0.69976900  0.49746700  1
  Cu  Cu10  1  0.30023100  0.30023100  0.49746700  1
  Cu  Cu11  1  0.30023100  0.00000000  0.99746700  1
  C  C12  1  0.66666700  0.33333300  0.02788700  1
  C  C13  1  0.33333300  0.66666700  0.52788700  1
  C  C14  1  0.66666700  0.33333300  0.52788700  1
  C  C15  1  0.33333300  0.66666700  0.02788700  1
  C  C16  1  0.00000000  0.00000000  0.87868000  1
  C  C17  1  0.00000000  0.00000000  0.37868000  1
  C  C18  1  0.45505400  0.00000000  0.84151300  1
  C  C19  1  0.45505400  0.45505400  0.34151300  1
  C  C20  1  0.00000000  0.54494600  0.34151300  1
  C  C21  1  0.00000000  0.45505400  0.84151300  1
  C  C22  1  0.54494600  0.54494600  0.84151300  1
  C  C23  1  0.54494600  0.00000000  0.34151300  1
  C  C24  1  0.29938900  0.00000000  0.18346000  1
  C  C25  1  0.29938900  0.29938900  0.68346000  1
  C  C26  1  0.00000000  0.70061100  0.68346000  1
  C  C27  1  0.00000000  0.29938900  0.18346000  1
  C  C28  1  0.70061100  0.70061100  0.18346000  1
  C  C29  1  0.70061100  0.00000000  0.68346000  1
