# generated using pymatgen
data_CuNiC12
_symmetry_space_group_name_H-M   'P 1'
_cell_length_a   9.14686800
_cell_length_b   9.26147500
_cell_length_c   17.72525100
_cell_angle_alpha   90.00000000
_cell_angle_beta   90.00000000
_cell_angle_gamma   90.00000000
_symmetry_Int_Tables_number   1
_chemical_formula_structural   CuNiC12
_chemical_formula_sum   'Cu8 Ni8 C96'
_cell_volume   1501.56786111
_cell_formula_units_Z   8
loop_
 _symmetry_equiv_pos_site_id
 _symmetry_equiv_pos_as_xyz
  1  'x, y, z'
loop_
 _atom_site_type_symbol
 _atom_site_label
 _atom_site_symmetry_multiplicity
 _atom_site_fract_x
 _atom_site_fract_y
 _atom_site_fract_z
 _atom_site_occupancy
  C  C0  1  0.06775200  0.36198900  0.10016600  1
  C  C1  1  0.56775200  0.63801100  0.39983400  1
  C  C2  1  0.43224800  0.86198900  0.89983400  1
  C  C3  1  0.93224800  0.13801100  0.60016600  1
  C  C4  1  0.93224800  0.63801100  0.89983400  1
  C  C5  1  0.43224800  0.36198900  0.60016600  1
  C  C6  1  0.56775200  0.13801100  0.10016600  1
  C  C7  1  0.06775200  0.86198900  0.39983400  1
  Ni  Ni8  1  0.75481100  0.49438300  0.21106500  1
  Ni  Ni9  1  0.25481100  0.50561700  0.28893500  1
  Ni  Ni10  1  0.74518900  0.99438300  0.78893500  1
  Ni  Ni11  1  0.24518900  0.00561700  0.71106500  1
  Ni  Ni12  1  0.24518900  0.50561700  0.78893500  1
  Ni  Ni13  1  0.74518900  0.49438300  0.71106500  1
  Ni  Ni14  1  0.25481100  0.00561700  0.21106500  1
  Ni  Ni15  1  0.75481100  0.99438300  0.28893500  1
  Cu  Cu16  1  0.07191500  0.30550200  0.43623800  1
  Cu  Cu17  1  0.57191500  0.69449800  0.06376200  1
  Cu  Cu18  1  0.42808500  0.80550200  0.56376200  1
  Cu  Cu19  1  0.92808500  0.19449800  0.93623800  1
  Cu  Cu20  1  0.92808500  0.69449800  0.56376200  1
  Cu  Cu21  1  0.42808500  0.30550200  0.93623800  1
  Cu  Cu22  1  0.57191500  0.19449800  0.43623800  1
  Cu  Cu23  1  0.07191500  0.80550200  0.06376200  1
  C  C24  1  0.23405700  0.07021100  0.01191800  1
  C  C25  1  0.73405700  0.92978900  0.48808200  1
  C  C26  1  0.26594300  0.57021100  0.98808200  1
  C  C27  1  0.76594300  0.42978900  0.51191800  1
  C  C28  1  0.76594300  0.92978900  0.98808200  1
  C  C29  1  0.26594300  0.07021100  0.51191800  1
  C  C30  1  0.73405700  0.42978900  0.01191800  1
  C  C31  1  0.23405700  0.57021100  0.48808200  1
  C  C32  1  0.50434600  0.25575900  0.27193800  1
  C  C33  1  0.00434600  0.74424100  0.22806200  1
  C  C34  1  0.99565400  0.75575900  0.72806200  1
  C  C35  1  0.49565400  0.24424100  0.77193800  1
  C  C36  1  0.49565400  0.74424100  0.72806200  1
  C  C37  1  0.99565400  0.25575900  0.77193800  1
  C  C38  1  0.00434600  0.24424100  0.27193800  1
  C  C39  1  0.50434600  0.75575900  0.22806200  1
  C  C40  1  0.41558800  0.36013900  0.32172400  1
  C  C41  1  0.91558800  0.63986100  0.17827600  1
  C  C42  1  0.08441200  0.86013900  0.67827600  1
  C  C43  1  0.58441200  0.13986100  0.82172400  1
  C  C44  1  0.58441200  0.63986100  0.67827600  1
  C  C45  1  0.08441200  0.36013900  0.82172400  1
  C  C46  1  0.91558800  0.13986100  0.32172400  1
  C  C47  1  0.41558800  0.86013900  0.17827600  1
  C  C48  1  0.60195100  0.33415400  0.21363600  1
  C  C49  1  0.10195100  0.66584600  0.28636400  1
  C  C50  1  0.89804900  0.83415400  0.78636400  1
  C  C51  1  0.39804900  0.16584600  0.71363600  1
  C  C52  1  0.39804900  0.66584600  0.78636400  1
  C  C53  1  0.89804900  0.33415400  0.71363600  1
  C  C54  1  0.10195100  0.16584600  0.21363600  1
  C  C55  1  0.60195100  0.83415400  0.28636400  1
  C  C56  1  0.19027700  0.91542300  0.98912700  1
  C  C57  1  0.69027700  0.08457700  0.51087300  1
  C  C58  1  0.30972300  0.41542300  0.01087300  1
  C  C59  1  0.80972300  0.58457700  0.48912700  1
  C  C60  1  0.80972300  0.08457700  0.01087300  1
  C  C61  1  0.30972300  0.91542300  0.48912700  1
  C  C62  1  0.69027700  0.58457700  0.98912700  1
  C  C63  1  0.19027700  0.41542300  0.51087300  1
  C  C64  1  0.59864700  0.15820400  0.32795800  1
  C  C65  1  0.09864700  0.84179600  0.17204200  1
  C  C66  1  0.90135300  0.65820400  0.67204200  1
  C  C67  1  0.73649200  0.54383500  0.30013400  1
  C  C68  1  0.40135300  0.34179600  0.82795800  1
  C  C69  1  0.90135300  0.15820400  0.82795800  1
  C  C70  1  0.09864700  0.34179600  0.32795800  1
  C  C71  1  0.59864700  0.65820400  0.17204200  1
  C  C72  1  0.37740500  0.10494300  0.96689800  1
  C  C73  1  0.87740500  0.89505700  0.53310200  1
  C  C74  1  0.12259500  0.60494300  0.03310200  1
  C  C75  1  0.62259500  0.39505700  0.46689800  1
  C  C76  1  0.62259500  0.89505700  0.03310200  1
  C  C77  1  0.12259500  0.10494300  0.46689800  1
  C  C78  1  0.87740500  0.39505700  0.96689800  1
  C  C79  1  0.37740500  0.60494300  0.53310200  1
  C  C80  1  0.22762100  0.08080100  0.59689700  1
  C  C81  1  0.72762100  0.91919900  0.90310300  1
  C  C82  1  0.27237900  0.58080100  0.40310300  1
  C  C83  1  0.77237900  0.41919900  0.09689700  1
  C  C84  1  0.77237900  0.91919900  0.40310300  1
  C  C85  1  0.27237900  0.08080100  0.09689700  1
  C  C86  1  0.72762100  0.41919900  0.59689700  1
  C  C87  1  0.22762100  0.58080100  0.90310300  1
  C  C88  1  0.91227900  0.84656200  0.27771400  1
  C  C89  1  0.41227900  0.15343800  0.22228600  1
  C  C90  1  0.58772100  0.34656200  0.72228600  1
  C  C91  1  0.08772100  0.65343800  0.77771400  1
  C  C92  1  0.08772100  0.15343800  0.72228600  1
  C  C93  1  0.58772100  0.84656200  0.77771400  1
  C  C94  1  0.41227900  0.65343800  0.27771400  1
  C  C95  1  0.91227900  0.34656200  0.22228600  1
  C  C96  1  0.11199900  0.68042100  0.50571200  1
  C  C97  1  0.61199900  0.31957900  0.99428800  1
  C  C98  1  0.38800100  0.18042100  0.49428800  1
  C  C99  1  0.88800100  0.81957900  0.00571200  1
  C  C100  1  0.88800100  0.31957900  0.49428800  1
  C  C101  1  0.38800100  0.68042100  0.00571200  1
  C  C102  1  0.61199900  0.81957900  0.50571200  1
  C  C103  1  0.11199900  0.18042100  0.99428800  1
  C  C104  1  0.73649200  0.04383500  0.19986600  1
  C  C105  1  0.23649200  0.95616500  0.30013400  1
  C  C106  1  0.76350800  0.54383500  0.80013400  1
  C  C107  1  0.26350800  0.45616500  0.69986600  1
  C  C108  1  0.26350800  0.95616500  0.80013400  1
  C  C109  1  0.76350800  0.04383500  0.69986600  1
  C  C110  1  0.23649200  0.45616500  0.19986600  1
  C  C111  1  0.40135300  0.84179600  0.67204200  1
