# generated using pymatgen
data_CuNiC8
_symmetry_space_group_name_H-M   'P 1'
_cell_length_a   5.53011300
_cell_length_b   5.60654000
_cell_length_c   7.85578800
_cell_angle_alpha   90.00000000
_cell_angle_beta   90.00000000
_cell_angle_gamma   90.00000000
_symmetry_Int_Tables_number   1
_chemical_formula_structural   CuNiC8
_chemical_formula_sum   'Cu2 Ni2 C16'
_cell_volume   243.56713373
_cell_formula_units_Z   2
loop_
 _symmetry_equiv_pos_site_id
 _symmetry_equiv_pos_as_xyz
  1  'x, y, z'
loop_
 _atom_site_type_symbol
 _atom_site_label
 _atom_site_symmetry_multiplicity
 _atom_site_fract_x
 _atom_site_fract_y
 _atom_site_fract_z
 _atom_site_occupancy
  Ni  Ni0  1  0.25864800  0.53865300  0.00000000  1
  Ni  Ni1  1  0.74135200  0.03865300  0.00000000  1
  Cu  Cu2  1  0.24207600  0.44971600  0.50000000  1
  Cu  Cu3  1  0.75792400  0.94971600  0.50000000  1
  C  C4  1  0.74888500  0.49904300  0.74549200  1
  C  C5  1  0.25111500  0.99904300  0.25450800  1
  C  C6  1  0.74888500  0.49904300  0.25450800  1
  C  C7  1  0.25111500  0.99904300  0.74549200  1
  C  C8  1  0.54543900  0.79326000  0.78091400  1
  C  C9  1  0.45456100  0.29326000  0.21908600  1
  C  C10  1  0.95402800  0.20526300  0.29879200  1
  C  C11  1  0.04597200  0.70526300  0.70120800  1
  C  C12  1  0.95402800  0.20526300  0.70120800  1
  C  C13  1  0.04597200  0.70526300  0.29879200  1
  C  C14  1  0.54543900  0.79326000  0.21908600  1
  C  C15  1  0.45456100  0.29326000  0.78091400  1
  C  C16  1  0.18329300  0.99185900  0.00000000  1
  C  C17  1  0.81670700  0.49185900  0.00000000  1
  C  C18  1  0.33856800  0.02464000  0.50000000  1
  C  C19  1  0.66143200  0.52464000  0.50000000  1
