# generated using pymatgen
data_Cu5Ni2C9
_symmetry_space_group_name_H-M   'P 1'
_cell_length_a   6.92118800
_cell_length_b   7.78809100
_cell_length_c   11.69088900
_cell_angle_alpha   90.00000000
_cell_angle_beta   90.00000000
_cell_angle_gamma   90.00000000
_symmetry_Int_Tables_number   1
_chemical_formula_structural   Cu5Ni2C9
_chemical_formula_sum   'Cu20 Ni8 C36'
_cell_volume   630.17214228
_cell_formula_units_Z   4
loop_
 _symmetry_equiv_pos_site_id
 _symmetry_equiv_pos_as_xyz
  1  'x, y, z'
loop_
 _atom_site_type_symbol
 _atom_site_label
 _atom_site_symmetry_multiplicity
 _atom_site_fract_x
 _atom_site_fract_y
 _atom_site_fract_z
 _atom_site_occupancy
  C  C0  1  0.50000000  0.00000000  0.50000000  1
  C  C1  1  0.00000000  0.50000000  0.00000000  1
  C  C2  1  0.50000000  0.50000000  0.50000000  1
  C  C3  1  0.00000000  0.00000000  0.00000000  1
  C  C4  1  0.89579300  0.51419900  0.60650100  1
  C  C5  1  0.39579300  0.98580100  0.89349900  1
  C  C6  1  0.10420700  0.01419900  0.39349900  1
  C  C7  1  0.60420700  0.48580100  0.10650100  1
  C  C8  1  0.10420700  0.48580100  0.39349900  1
  C  C9  1  0.60420700  0.01419900  0.10650100  1
  C  C10  1  0.89579300  0.98580100  0.60650100  1
  C  C11  1  0.39579300  0.51419900  0.89349900  1
  C  C12  1  0.15452700  0.25000000  0.59916400  1
  C  C13  1  0.65452700  0.25000000  0.90083600  1
  C  C14  1  0.84547300  0.75000000  0.40083600  1
  C  C15  1  0.34547300  0.75000000  0.09916400  1
  C  C16  1  0.16298700  0.25000000  0.81754400  1
  C  C17  1  0.66298700  0.25000000  0.68245600  1
  C  C18  1  0.83701300  0.75000000  0.18245600  1
  C  C19  1  0.33701300  0.75000000  0.31754400  1
  C  C20  1  0.01565200  0.43943600  0.62801800  1
  C  C21  1  0.51565200  0.06056400  0.87198200  1
  C  C22  1  0.98434800  0.93943600  0.37198200  1
  C  C23  1  0.48434800  0.56056400  0.12801800  1
  C  C24  1  0.98434800  0.56056400  0.37198200  1
  C  C25  1  0.48434800  0.93943600  0.12801800  1
  C  C26  1  0.01565200  0.06056400  0.62801800  1
  C  C27  1  0.51565200  0.43943600  0.87198200  1
  C  C28  1  0.97877500  0.25000000  0.71052900  1
  C  C29  1  0.47877500  0.25000000  0.78947100  1
  C  C30  1  0.02122500  0.75000000  0.28947100  1
  C  C31  1  0.52122500  0.75000000  0.21052900  1
  C  C32  1  0.90249700  0.25000000  0.56533900  1
  C  C33  1  0.40249700  0.25000000  0.93466100  1
  C  C34  1  0.09750300  0.75000000  0.43466100  1
  C  C35  1  0.59750300  0.75000000  0.06533900  1
  Ni  Ni36  1  0.92136000  0.25000000  0.28806000  1
  Ni  Ni37  1  0.42136000  0.25000000  0.21194000  1
  Ni  Ni38  1  0.07864000  0.75000000  0.71194000  1
  Ni  Ni39  1  0.57864000  0.75000000  0.78806000  1
  Ni  Ni40  1  0.01188400  0.25000000  0.62443600  1
  Ni  Ni41  1  0.51188400  0.25000000  0.87556400  1
  Ni  Ni42  1  0.98811600  0.75000000  0.37556400  1
  Ni  Ni43  1  0.48811600  0.75000000  0.12443600  1
  Cu  Cu44  1  0.59877300  0.25000000  0.48587600  1
  Cu  Cu45  1  0.09877300  0.25000000  0.01412400  1
  Cu  Cu46  1  0.40122700  0.75000000  0.51412400  1
  Cu  Cu47  1  0.90122700  0.75000000  0.98587600  1
  Cu  Cu48  1  0.73954000  0.07378700  0.07072700  1
  Cu  Cu49  1  0.23954000  0.42621300  0.42927300  1
  Cu  Cu50  1  0.26046000  0.57378700  0.92927300  1
  Cu  Cu51  1  0.76046000  0.92621300  0.57072700  1
  Cu  Cu52  1  0.26046000  0.92621300  0.92927300  1
  Cu  Cu53  1  0.76046000  0.57378700  0.57072700  1
  Cu  Cu54  1  0.73954000  0.42621300  0.07072700  1
  Cu  Cu55  1  0.23954000  0.07378700  0.42927300  1
  Cu  Cu56  1  0.60412500  0.55996300  0.35788300  1
  Cu  Cu57  1  0.10412500  0.94003700  0.14211700  1
  Cu  Cu58  1  0.39587500  0.05996300  0.64211700  1
  Cu  Cu59  1  0.89587500  0.44003700  0.85788300  1
  Cu  Cu60  1  0.39587500  0.44003700  0.64211700  1
  Cu  Cu61  1  0.89587500  0.05996300  0.85788300  1
  Cu  Cu62  1  0.60412500  0.94003700  0.35788300  1
  Cu  Cu63  1  0.10412500  0.55996300  0.14211700  1
