# generated using pymatgen
data_CuNiC4
_symmetry_space_group_name_H-M   'P 1'
_cell_length_a   3.67742700
_cell_length_b   5.93441400
_cell_length_c   11.52655800
_cell_angle_alpha   90.00000000
_cell_angle_beta   90.00000000
_cell_angle_gamma   90.00000000
_symmetry_Int_Tables_number   1
_chemical_formula_structural   CuNiC4
_chemical_formula_sum   'Cu4 Ni4 C16'
_cell_volume   251.54838931
_cell_formula_units_Z   4
loop_
 _symmetry_equiv_pos_site_id
 _symmetry_equiv_pos_as_xyz
  1  'x, y, z'
loop_
 _atom_site_type_symbol
 _atom_site_label
 _atom_site_symmetry_multiplicity
 _atom_site_fract_x
 _atom_site_fract_y
 _atom_site_fract_z
 _atom_site_occupancy
  Ni  Ni0  1  0.00000000  0.12841000  0.65033100  1
  Ni  Ni1  1  0.00000000  0.87159000  0.34966900  1
  Ni  Ni2  1  0.00000000  0.62841000  0.84966900  1
  Ni  Ni3  1  0.00000000  0.37159000  0.15033100  1
  C  C4  1  0.50000000  0.47638700  0.69335800  1
  C  C5  1  0.50000000  0.52361300  0.30664200  1
  C  C6  1  0.50000000  0.97638700  0.80664200  1
  C  C7  1  0.50000000  0.02361300  0.19335800  1
  C  C8  1  0.50000000  0.29228900  0.81218100  1
  C  C9  1  0.50000000  0.70771100  0.18781900  1
  C  C10  1  0.50000000  0.79228900  0.68781900  1
  C  C11  1  0.50000000  0.20771100  0.31218100  1
  C  C12  1  0.50000000  0.36749100  0.96806300  1
  C  C13  1  0.50000000  0.63250900  0.03193700  1
  C  C14  1  0.50000000  0.86749100  0.53193700  1
  C  C15  1  0.50000000  0.13250900  0.46806300  1
  C  C16  1  0.50000000  0.38545500  0.54716200  1
  C  C17  1  0.50000000  0.61454500  0.45283800  1
  C  C18  1  0.50000000  0.88545500  0.95283800  1
  C  C19  1  0.50000000  0.11454500  0.04716200  1
  Cu  Cu20  1  0.00000000  0.13775600  0.90822200  1
  Cu  Cu21  1  0.00000000  0.86224400  0.09177800  1
  Cu  Cu22  1  0.00000000  0.63775600  0.59177800  1
  Cu  Cu23  1  0.00000000  0.36224400  0.40822200  1
