# generated using pymatgen
data_Cu11Ni2C3
_symmetry_space_group_name_H-M   'P 1'
_cell_length_a   6.14635100
_cell_length_b   8.97037800
_cell_length_c   15.95291600
_cell_angle_alpha   90.00000000
_cell_angle_beta   90.00000000
_cell_angle_gamma   90.00000000
_symmetry_Int_Tables_number   1
_chemical_formula_structural   Cu11Ni2C3
_chemical_formula_sum   'Cu44 Ni8 C12'
_cell_volume   879.56548799
_cell_formula_units_Z   4
loop_
 _symmetry_equiv_pos_site_id
 _symmetry_equiv_pos_as_xyz
  1  'x, y, z'
loop_
 _atom_site_type_symbol
 _atom_site_label
 _atom_site_symmetry_multiplicity
 _atom_site_fract_x
 _atom_site_fract_y
 _atom_site_fract_z
 _atom_site_occupancy
  C  C0  1  0.02465300  0.15684500  0.69932100  1
  C  C1  1  0.47534700  0.34315500  0.19932100  1
  C  C2  1  0.52465300  0.84315500  0.30067900  1
  C  C3  1  0.97534700  0.65684500  0.80067900  1
  C  C4  1  0.97534700  0.84315500  0.30067900  1
  C  C5  1  0.52465300  0.65684500  0.80067900  1
  C  C6  1  0.47534700  0.15684500  0.69932100  1
  C  C7  1  0.02465300  0.34315500  0.19932100  1
  C  C8  1  0.75000000  0.98676600  0.90490000  1
  C  C9  1  0.75000000  0.51323400  0.40490000  1
  C  C10  1  0.25000000  0.01323400  0.09510000  1
  C  C11  1  0.25000000  0.48676600  0.59510000  1
  Ni  Ni12  1  0.25000000  0.07962200  0.85527000  1
  Ni  Ni13  1  0.25000000  0.42037800  0.35527000  1
  Ni  Ni14  1  0.75000000  0.92037800  0.14473000  1
  Ni  Ni15  1  0.75000000  0.57962200  0.64473000  1
  Ni  Ni16  1  0.25000000  0.73356800  0.94820400  1
  Ni  Ni17  1  0.25000000  0.76643200  0.44820400  1
  Ni  Ni18  1  0.75000000  0.26643200  0.05179600  1
  Ni  Ni19  1  0.75000000  0.23356800  0.55179600  1
  Cu  Cu20  1  0.06558100  0.09709800  0.81510300  1
  Cu  Cu21  1  0.43441900  0.40290200  0.31510300  1
  Cu  Cu22  1  0.56558100  0.90290200  0.18489700  1
  Cu  Cu23  1  0.93441900  0.59709800  0.68489700  1
  Cu  Cu24  1  0.93441900  0.90290200  0.18489700  1
  Cu  Cu25  1  0.56558100  0.59709800  0.68489700  1
  Cu  Cu26  1  0.43441900  0.09709800  0.81510300  1
  Cu  Cu27  1  0.06558100  0.40290200  0.31510300  1
  Cu  Cu28  1  0.25000000  0.04128800  0.93152500  1
  Cu  Cu29  1  0.25000000  0.45871200  0.43152500  1
  Cu  Cu30  1  0.75000000  0.95871200  0.06847500  1
  Cu  Cu31  1  0.75000000  0.54128800  0.56847500  1
  Cu  Cu32  1  0.06451800  0.72826600  0.90913300  1
  Cu  Cu33  1  0.43548200  0.77173400  0.40913300  1
  Cu  Cu34  1  0.56451800  0.27173400  0.09086700  1
  Cu  Cu35  1  0.93548200  0.22826600  0.59086700  1
  Cu  Cu36  1  0.93548200  0.27173400  0.09086700  1
  Cu  Cu37  1  0.56451800  0.22826600  0.59086700  1
  Cu  Cu38  1  0.43548200  0.72826600  0.90913300  1
  Cu  Cu39  1  0.06451800  0.77173400  0.40913300  1
  Cu  Cu40  1  0.25000000  0.74834200  0.02756900  1
  Cu  Cu41  1  0.25000000  0.75165800  0.52756900  1
  Cu  Cu42  1  0.75000000  0.25165800  0.97243100  1
  Cu  Cu43  1  0.75000000  0.24834200  0.47243100  1
  Cu  Cu44  1  0.25000000  0.29181000  0.70198700  1
  Cu  Cu45  1  0.25000000  0.20819000  0.20198700  1
  Cu  Cu46  1  0.75000000  0.70819000  0.29801300  1
  Cu  Cu47  1  0.75000000  0.79181000  0.79801300  1
  Cu  Cu48  1  0.75000000  0.06051200  0.71134000  1
  Cu  Cu49  1  0.75000000  0.43948800  0.21134000  1
  Cu  Cu50  1  0.25000000  0.93948800  0.28866000  1
  Cu  Cu51  1  0.25000000  0.56051200  0.78866000  1
  Cu  Cu52  1  0.25000000  0.04607200  0.65966600  1
  Cu  Cu53  1  0.25000000  0.45392800  0.15966600  1
  Cu  Cu54  1  0.75000000  0.95392800  0.34033400  1
  Cu  Cu55  1  0.75000000  0.54607200  0.84033400  1
  Cu  Cu56  1  0.75000000  0.22437100  0.73956000  1
  Cu  Cu57  1  0.75000000  0.27562900  0.23956000  1
  Cu  Cu58  1  0.25000000  0.77562900  0.26044000  1
  Cu  Cu59  1  0.25000000  0.72437100  0.76044000  1
  Cu  Cu60  1  0.25000000  0.39634300  0.95143600  1
  Cu  Cu61  1  0.25000000  0.10365700  0.45143600  1
  Cu  Cu62  1  0.75000000  0.60365700  0.04856400  1
  Cu  Cu63  1  0.75000000  0.89634300  0.54856400  1
