# generated using pymatgen
data_Cu2NiC
_symmetry_space_group_name_H-M   'P 1'
_cell_length_a   5.17344629
_cell_length_b   5.17344629
_cell_length_c   15.85564400
_cell_angle_alpha   90.00000000
_cell_angle_beta   90.00000000
_cell_angle_gamma   120.00000375
_symmetry_Int_Tables_number   1
_chemical_formula_structural   Cu2NiC
_chemical_formula_sum   'Cu12 Ni6 C6'
_cell_volume   367.51442629
_cell_formula_units_Z   6
loop_
 _symmetry_equiv_pos_site_id
 _symmetry_equiv_pos_as_xyz
  1  'x, y, z'
loop_
 _atom_site_type_symbol
 _atom_site_label
 _atom_site_symmetry_multiplicity
 _atom_site_fract_x
 _atom_site_fract_y
 _atom_site_fract_z
 _atom_site_occupancy
  C  C0  1  0.33333300  0.66666700  0.54559500  1
  C  C1  1  0.66666700  0.33333300  0.45440500  1
  C  C2  1  0.66666700  0.33333300  0.04559500  1
  C  C3  1  0.33333300  0.66666700  0.95440500  1
  C  C4  1  0.33333300  0.66666700  0.75000000  1
  C  C5  1  0.66666700  0.33333300  0.25000000  1
  Ni  Ni6  1  0.00000000  0.00000000  0.25000000  1
  Ni  Ni7  1  0.00000000  0.00000000  0.75000000  1
  Ni  Ni8  1  0.33333300  0.66666700  0.25000000  1
  Ni  Ni9  1  0.66666700  0.33333300  0.75000000  1
  Ni  Ni10  1  0.00000000  0.00000000  0.00000000  1
  Ni  Ni11  1  0.00000000  0.00000000  0.50000000  1
  Cu  Cu12  1  0.16826100  0.33652200  0.12445500  1
  Cu  Cu13  1  0.83173900  0.66347800  0.87554500  1
  Cu  Cu14  1  0.66347800  0.83173900  0.12445500  1
  Cu  Cu15  1  0.83173900  0.66347800  0.62445500  1
  Cu  Cu16  1  0.33652200  0.16826100  0.87554500  1
  Cu  Cu17  1  0.16826100  0.33652200  0.37554500  1
  Cu  Cu18  1  0.16826100  0.83173900  0.12445500  1
  Cu  Cu19  1  0.33652200  0.16826100  0.62445500  1
  Cu  Cu20  1  0.83173900  0.16826100  0.87554500  1
  Cu  Cu21  1  0.66347800  0.83173900  0.37554500  1
  Cu  Cu22  1  0.83173900  0.16826100  0.62445500  1
  Cu  Cu23  1  0.16826100  0.83173900  0.37554500  1
