# generated using pymatgen
data_Cu11(Ni2C)2
_symmetry_space_group_name_H-M   'P 1'
_cell_length_a   7.52095900
_cell_length_b   10.17632800
_cell_length_c   12.85922494
_cell_angle_alpha   76.51047219
_cell_angle_beta   90.00000000
_cell_angle_gamma   90.00000000
_symmetry_Int_Tables_number   1
_chemical_formula_structural   Cu11(Ni2C)2
_chemical_formula_sum   'Cu44 Ni16 C8'
_cell_volume   957.03908859
_cell_formula_units_Z   4
loop_
 _symmetry_equiv_pos_site_id
 _symmetry_equiv_pos_as_xyz
  1  'x, y, z'
loop_
 _atom_site_type_symbol
 _atom_site_label
 _atom_site_symmetry_multiplicity
 _atom_site_fract_x
 _atom_site_fract_y
 _atom_site_fract_z
 _atom_site_occupancy
  C  C0  1  0.27692400  0.61252400  0.29532100  1
  C  C1  1  0.72307600  0.38747600  0.70467900  1
  C  C2  1  0.27692400  0.88747600  0.70467900  1
  C  C3  1  0.72307600  0.11252400  0.29532100  1
  C  C4  1  0.77243300  0.74033900  0.24992000  1
  C  C5  1  0.22756700  0.25966100  0.75008000  1
  C  C6  1  0.77243300  0.75966100  0.75008000  1
  C  C7  1  0.22756700  0.24033900  0.24992000  1
  Ni  Ni8  1  0.36829300  0.92501700  0.27339200  1
  Ni  Ni9  1  0.63170700  0.07498300  0.72660800  1
  Ni  Ni10  1  0.36829300  0.57498300  0.72660800  1
  Ni  Ni11  1  0.63170700  0.42501700  0.27339200  1
  Ni  Ni12  1  0.87570800  0.75000000  0.00000000  1
  Ni  Ni13  1  0.12429200  0.25000000  0.00000000  1
  Ni  Ni14  1  0.79196400  0.82865700  0.48482800  1
  Ni  Ni15  1  0.20803600  0.17134300  0.51517200  1
  Ni  Ni16  1  0.79196400  0.67134300  0.51517200  1
  Ni  Ni17  1  0.20803600  0.32865700  0.48482800  1
  Ni  Ni18  1  0.66887400  0.75000000  0.00000000  1
  Ni  Ni19  1  0.33112600  0.25000000  0.00000000  1
  Ni  Ni20  1  0.83907900  0.41543900  0.26748100  1
  Ni  Ni21  1  0.16092100  0.58456100  0.73251900  1
  Ni  Ni22  1  0.83907900  0.08456100  0.73251900  1
  Ni  Ni23  1  0.16092100  0.91543900  0.26748100  1
  Cu  Cu24  1  0.75270600  0.02206600  0.11681300  1
  Cu  Cu25  1  0.24729400  0.97793400  0.88318700  1
  Cu  Cu26  1  0.75270600  0.47793400  0.88318700  1
  Cu  Cu27  1  0.24729400  0.52206600  0.11681300  1
  Cu  Cu28  1  0.45801900  0.81940900  0.27536900  1
  Cu  Cu29  1  0.54198100  0.18059100  0.72463100  1
  Cu  Cu30  1  0.45801900  0.68059100  0.72463100  1
  Cu  Cu31  1  0.54198100  0.31940900  0.27536900  1
  Cu  Cu32  1  0.59335600  0.75902800  0.08602400  1
  Cu  Cu33  1  0.40664400  0.24097200  0.91397600  1
  Cu  Cu34  1  0.59335600  0.74097200  0.91397600  1
  Cu  Cu35  1  0.40664400  0.25902800  0.08602400  1
  Cu  Cu36  1  0.74263000  0.42892600  0.98024400  1
  Cu  Cu37  1  0.25737000  0.57107400  0.01975600  1
  Cu  Cu38  1  0.74263000  0.07107400  0.01975600  1
  Cu  Cu39  1  0.25737000  0.92892600  0.98024400  1
  Cu  Cu40  1  0.90865000  0.29947400  0.28074200  1
  Cu  Cu41  1  0.09135000  0.70052600  0.71925800  1
  Cu  Cu42  1  0.90865000  0.20052600  0.71925800  1
  Cu  Cu43  1  0.09135000  0.79947400  0.28074200  1
  Cu  Cu44  1  0.57051300  0.54109100  0.27383500  1
  Cu  Cu45  1  0.42948700  0.45890900  0.72616500  1
  Cu  Cu46  1  0.57051300  0.95890900  0.72616500  1
  Cu  Cu47  1  0.42948700  0.04109100  0.27383500  1
  Cu  Cu48  1  0.95080200  0.77137600  0.08271100  1
  Cu  Cu49  1  0.04919800  0.22862400  0.91728900  1
  Cu  Cu50  1  0.95080200  0.72862400  0.91728900  1
  Cu  Cu51  1  0.04919800  0.27137600  0.08271100  1
  Cu  Cu52  1  0.92181000  0.52709500  0.24770400  1
  Cu  Cu53  1  0.07819000  0.47290500  0.75229600  1
  Cu  Cu54  1  0.92181000  0.97290500  0.75229600  1
  Cu  Cu55  1  0.07819000  0.02709500  0.24770400  1
  Cu  Cu56  1  0.34901900  0.80878600  0.50546000  1
  Cu  Cu57  1  0.65098100  0.19121400  0.49454000  1
  Cu  Cu58  1  0.34901900  0.69121400  0.49454000  1
  Cu  Cu59  1  0.65098100  0.30878600  0.50546000  1
  Cu  Cu60  1  0.79807500  0.88835000  0.56026900  1
  Cu  Cu61  1  0.20192500  0.11165000  0.43973100  1
  Cu  Cu62  1  0.79807500  0.61165000  0.43973100  1
  Cu  Cu63  1  0.20192500  0.38835000  0.56026900  1
  Cu  Cu64  1  0.78113100  0.88459900  0.38542600  1
  Cu  Cu65  1  0.21886900  0.11540100  0.61457400  1
  Cu  Cu66  1  0.78113100  0.61540100  0.61457400  1
  Cu  Cu67  1  0.21886900  0.38459900  0.38542600  1
