# generated using pymatgen
data_Cu4NiC14
_symmetry_space_group_name_H-M   'P 1'
_cell_length_a   4.81806400
_cell_length_b   5.37158200
_cell_length_c   18.54124000
_cell_angle_alpha   90.00000000
_cell_angle_beta   90.00000000
_cell_angle_gamma   90.00000000
_symmetry_Int_Tables_number   1
_chemical_formula_structural   Cu4NiC14
_chemical_formula_sum   'Cu8 Ni2 C28'
_cell_volume   479.85889537
_cell_formula_units_Z   2
loop_
 _symmetry_equiv_pos_site_id
 _symmetry_equiv_pos_as_xyz
  1  'x, y, z'
loop_
 _atom_site_type_symbol
 _atom_site_label
 _atom_site_symmetry_multiplicity
 _atom_site_fract_x
 _atom_site_fract_y
 _atom_site_fract_z
 _atom_site_occupancy
  C  C0  1  0.00000000  0.00000000  0.40597500  1
  C  C1  1  0.00000000  0.00000000  0.59402500  1
  C  C2  1  0.00000000  0.50000000  0.09402500  1
  C  C3  1  0.00000000  0.50000000  0.90597500  1
  Ni  Ni4  1  0.00000000  0.00000000  0.00000000  1
  Ni  Ni5  1  0.00000000  0.50000000  0.50000000  1
  Cu  Cu6  1  0.50000000  0.00000000  0.11913500  1
  Cu  Cu7  1  0.50000000  0.00000000  0.88086500  1
  Cu  Cu8  1  0.50000000  0.50000000  0.38086500  1
  Cu  Cu9  1  0.50000000  0.50000000  0.61913500  1
  Cu  Cu10  1  0.19047800  0.25000000  0.25000000  1
  Cu  Cu11  1  0.80952200  0.75000000  0.75000000  1
  Cu  Cu12  1  0.80952200  0.75000000  0.25000000  1
  Cu  Cu13  1  0.19047800  0.25000000  0.75000000  1
  C  C14  1  0.36662200  0.21854700  0.17632300  1
  C  C15  1  0.63337800  0.78145300  0.82367700  1
  C  C16  1  0.63337800  0.71854700  0.32367700  1
  C  C17  1  0.36662200  0.28145300  0.32367700  1
  C  C18  1  0.36662200  0.28145300  0.67632300  1
  C  C19  1  0.63337800  0.71854700  0.67632300  1
  C  C20  1  0.63337800  0.78145300  0.17632300  1
  C  C21  1  0.36662200  0.21854700  0.82367700  1
  C  C22  1  0.75359900  0.12957100  0.07808000  1
  C  C23  1  0.24640100  0.87042900  0.92192000  1
  C  C24  1  0.24640100  0.62957100  0.42192000  1
  C  C25  1  0.75359900  0.37042900  0.42192000  1
  C  C26  1  0.75359900  0.37042900  0.57808000  1
  C  C27  1  0.24640100  0.62957100  0.57808000  1
  C  C28  1  0.24640100  0.87042900  0.07808000  1
  C  C29  1  0.75359900  0.12957100  0.92192000  1
  C  C30  1  0.17893000  0.30359800  0.00000000  1
  C  C31  1  0.82107000  0.69640200  0.00000000  1
  C  C32  1  0.82107000  0.80359800  0.50000000  1
  C  C33  1  0.17893000  0.19640200  0.50000000  1
  C  C34  1  0.00000000  0.00000000  0.26626400  1
  C  C35  1  0.00000000  0.00000000  0.73373600  1
  C  C36  1  0.00000000  0.50000000  0.23373600  1
  C  C37  1  0.00000000  0.50000000  0.76626400  1
