# generated using pymatgen
data_Cu6NiC6
_symmetry_space_group_name_H-M   'P 1'
_cell_length_a   5.06147308
_cell_length_b   5.06147308
_cell_length_c   8.08268200
_cell_angle_alpha   90.00000000
_cell_angle_beta   90.00000000
_cell_angle_gamma   119.99998795
_symmetry_Int_Tables_number   1
_chemical_formula_structural   Cu6NiC6
_chemical_formula_sum   'Cu6 Ni1 C6'
_cell_volume   179.32466959
_cell_formula_units_Z   1
loop_
 _symmetry_equiv_pos_site_id
 _symmetry_equiv_pos_as_xyz
  1  'x, y, z'
loop_
 _atom_site_type_symbol
 _atom_site_label
 _atom_site_symmetry_multiplicity
 _atom_site_fract_x
 _atom_site_fract_y
 _atom_site_fract_z
 _atom_site_occupancy
  Ni  Ni0  1  0.00000000  0.00000000  0.00000000  1
  Cu  Cu1  1  0.50000000  0.00000000  0.24833200  1
  Cu  Cu2  1  0.50000000  0.50000000  0.24833200  1
  Cu  Cu3  1  0.00000000  0.50000000  0.24833200  1
  Cu  Cu4  1  0.50000000  0.00000000  0.75166800  1
  Cu  Cu5  1  0.50000000  0.50000000  0.75166800  1
  Cu  Cu6  1  0.00000000  0.50000000  0.75166800  1
  C  C7  1  0.00000000  0.00000000  0.65804900  1
  C  C8  1  0.33333300  0.66666700  0.00000000  1
  C  C9  1  0.66666700  0.33333300  0.00000000  1
  C  C10  1  0.33333300  0.66666700  0.50000000  1
  C  C11  1  0.66666700  0.33333300  0.50000000  1
  C  C12  1  0.00000000  0.00000000  0.34195100  1
