# generated using pymatgen
data_Cu(NiC)4
_symmetry_space_group_name_H-M   'P 1'
_cell_length_a   10.20953573
_cell_length_b   12.19821714
_cell_length_c   12.19821714
_cell_angle_alpha   117.68419523
_cell_angle_beta   113.25383752
_cell_angle_gamma   66.74616248
_symmetry_Int_Tables_number   1
_chemical_formula_structural   Cu(NiC)4
_chemical_formula_sum   'Cu4 Ni16 C16'
_cell_volume   1193.51030001
_cell_formula_units_Z   4
loop_
 _symmetry_equiv_pos_site_id
 _symmetry_equiv_pos_as_xyz
  1  'x, y, z'
loop_
 _atom_site_type_symbol
 _atom_site_label
 _atom_site_symmetry_multiplicity
 _atom_site_fract_x
 _atom_site_fract_y
 _atom_site_fract_z
 _atom_site_occupancy
  Ni  Ni0  1  0.44273100  0.07691700  0.32924900  1
  Ni  Ni1  1  0.44273100  0.67075100  0.92308300  1
  Ni  Ni2  1  0.55726900  0.92308300  0.67075100  1
  Ni  Ni3  1  0.55726900  0.32924900  0.07691700  1
  Ni  Ni4  1  0.54380900  0.13949900  0.47759500  1
  Ni  Ni5  1  0.54380900  0.52240500  0.86050100  1
  Ni  Ni6  1  0.45619100  0.86050100  0.52240500  1
  Ni  Ni7  1  0.45619100  0.47759500  0.13949900  1
  Ni  Ni8  1  0.60997000  0.09023700  0.34315500  1
  Ni  Ni9  1  0.60997000  0.65684500  0.90976300  1
  Ni  Ni10  1  0.39003000  0.90976300  0.65684500  1
  Ni  Ni11  1  0.39003000  0.34315500  0.09023700  1
  Ni  Ni12  1  0.46504200  0.22339000  0.37832600  1
  Ni  Ni13  1  0.46504200  0.62167400  0.77661000  1
  Ni  Ni14  1  0.53495800  0.77661000  0.62167400  1
  Ni  Ni15  1  0.53495800  0.37832600  0.22339000  1
  C  C16  1  0.21974500  0.98792200  0.74808700  1
  C  C17  1  0.21974500  0.25191300  0.01207800  1
  C  C18  1  0.78025500  0.01207800  0.25191300  1
  C  C19  1  0.78025500  0.74808700  0.98792200  1
  C  C20  1  0.33265200  0.93166000  0.89401000  1
  C  C21  1  0.33265200  0.10599000  0.06834000  1
  C  C22  1  0.66734800  0.06834000  0.10599000  1
  C  C23  1  0.66734800  0.89401000  0.93166000  1
  C  C24  1  0.48618700  0.65241600  0.14474300  1
  C  C25  1  0.48618700  0.85525700  0.34758400  1
  C  C26  1  0.51381300  0.34758400  0.85525700  1
  C  C27  1  0.51381300  0.14474300  0.65241600  1
  C  C28  1  0.69962300  0.58998600  0.19677400  1
  C  C29  1  0.69962300  0.80322600  0.41001400  1
  C  C30  1  0.30037700  0.41001400  0.80322600  1
  C  C31  1  0.30037700  0.19677400  0.58998600  1
  Cu  Cu32  1  0.51560700  0.13367800  0.38251100  1
  Cu  Cu33  1  0.51560700  0.61748900  0.86632200  1
  Cu  Cu34  1  0.48439300  0.86632200  0.61748900  1
  Cu  Cu35  1  0.48439300  0.38251100  0.13367800  1
