# generated using pymatgen
data_Cu8Ni8C9
_symmetry_space_group_name_H-M   'P 1'
_cell_length_a   5.00385648
_cell_length_b   10.48627745
_cell_length_c   5.67913056
_cell_angle_alpha   79.85850240
_cell_angle_beta   92.82774973
_cell_angle_gamma   88.39109569
_symmetry_Int_Tables_number   1
_chemical_formula_structural   Cu8Ni8C9
_chemical_formula_sum   'Cu8 Ni8 C9'
_cell_volume   292.77639049
_cell_formula_units_Z   1
loop_
 _symmetry_equiv_pos_site_id
 _symmetry_equiv_pos_as_xyz
  1  'x, y, z'
loop_
 _atom_site_type_symbol
 _atom_site_label
 _atom_site_symmetry_multiplicity
 _atom_site_fract_x
 _atom_site_fract_y
 _atom_site_fract_z
 _atom_site_occupancy
  C  C0  1  0.52194871  0.64605568  0.57003381  1
  C  C1  1  0.49387696  0.26109054  0.75343790  1
  C  C2  1  0.53089774  0.00445199  0.51629590  1
  C  C3  1  0.48442246  0.78129648  0.06967947  1
  C  C4  1  0.50263697  0.48372778  0.03376232  1
  C  C5  1  0.99051877  0.23076857  0.27691939  1
  C  C6  1  0.03900673  0.77678705  0.71636076  1
  C  C7  1  0.00339664  0.49724902  0.49155304  1
  C  C8  1  0.02521342  0.00641579  0.01833847  1
  Ni  Ni9  1  0.82926946  0.06984428  0.30495247  1
  Ni  Ni10  1  0.69756487  0.81972655  0.55680716  1
  Ni  Ni11  1  0.67003948  0.57134258  0.29296571  1
  Ni  Ni12  1  0.68772132  0.31986594  0.03485985  1
  Ni  Ni13  1  0.32498083  0.43910004  0.69687806  1
  Ni  Ni14  1  0.33558930  0.65287213  0.87858250  1
  Ni  Ni15  1  0.32368031  0.17825440  0.49405914  1
  Ni  Ni16  1  0.26145416  0.91731360  0.76752731  1
  Cu  Cu17  1  0.83708232  0.56825258  0.77254044  1
  Cu  Cu18  1  0.82254983  0.32022462  0.54615229  1
  Cu  Cu19  1  0.87977831  0.81891980  0.02506643  1
  Cu  Cu20  1  0.70004153  0.08113498  0.79755747  1
  Cu  Cu21  1  0.34652624  0.93336104  0.24382807  1
  Cu  Cu22  1  0.15973626  0.68304489  0.41855785  1
  Cu  Cu23  1  0.19954145  0.18934823  0.98202496  1
  Cu  Cu24  1  0.16585894  0.42455142  0.21744923  1
