# generated using pymatgen
data_Cu2Ni2C37
_symmetry_space_group_name_H-M   'P 1'
_cell_length_a   7.80531024
_cell_length_b   19.57589600
_cell_length_c   7.73730402
_cell_angle_alpha   90.00000000
_cell_angle_beta   119.96377091
_cell_angle_gamma   90.00000000
_symmetry_Int_Tables_number   1
_chemical_formula_structural   Cu2Ni2C37
_chemical_formula_sum   'Cu4 Ni4 C74'
_cell_volume   1024.21361307
_cell_formula_units_Z   2
loop_
 _symmetry_equiv_pos_site_id
 _symmetry_equiv_pos_as_xyz
  1  'x, y, z'
loop_
 _atom_site_type_symbol
 _atom_site_label
 _atom_site_symmetry_multiplicity
 _atom_site_fract_x
 _atom_site_fract_y
 _atom_site_fract_z
 _atom_site_occupancy
  C  C0  1  0.73509300  0.17053300  0.62911100  1
  C  C1  1  0.26490700  0.67053300  0.37088900  1
  C  C2  1  0.82056300  0.15111400  0.04756400  1
  C  C3  1  0.17943700  0.65111400  0.95243600  1
  C  C4  1  0.04082400  0.40750800  0.54923100  1
  C  C5  1  0.95917600  0.90750800  0.45076900  1
  C  C6  1  0.38990800  0.15995400  0.71227100  1
  C  C7  1  0.61009200  0.65995400  0.28772900  1
  C  C8  1  0.76435200  0.33283400  0.68219600  1
  C  C9  1  0.23564800  0.83283400  0.31780400  1
  C  C10  1  0.87067000  0.30858900  0.14785000  1
  C  C11  1  0.12933000  0.80858900  0.85215000  1
  C  C12  1  0.03678800  0.57774400  0.54368700  1
  C  C13  1  0.96321200  0.07774400  0.45631300  1
  C  C14  1  0.43560400  0.32066200  0.80149800  1
  C  C15  1  0.56439600  0.82066200  0.19850200  1
  C  C16  1  0.78813700  0.49341200  0.04340500  1
  C  C17  1  0.21186300  0.99341200  0.95659500  1
  C  C18  1  0.63885300  0.60394700  0.73882200  1
  C  C19  1  0.36114700  0.10394700  0.26117800  1
  C  C20  1  0.35980900  0.49216800  0.09871400  1
  C  C21  1  0.64019100  0.99216800  0.90128600  1
  C  C22  1  0.76422600  0.49201300  0.80077800  1
  C  C23  1  0.23577400  0.99201300  0.19922200  1
  C  C24  1  0.82902100  0.60548000  0.97758000  1
  C  C25  1  0.17097900  0.10548000  0.02242000  1
  C  C26  1  0.59098900  0.60285900  0.92797600  1
  C  C27  1  0.40901100  0.10285900  0.07202400  1
  C  C28  1  0.47392300  0.49232300  0.36201900  1
  C  C29  1  0.52607700  0.99232300  0.63798100  1
  C  C30  1  0.24836000  0.37769800  0.09893900  1
  C  C31  1  0.75164000  0.87769800  0.90106100  1
  C  C32  1  0.21140900  0.49177100  0.21392000  1
  C  C33  1  0.78859100  0.99177100  0.78608000  1
  C  C34  1  0.54755800  0.48899700  0.82539900  1
  C  C35  1  0.45244200  0.98899700  0.17460100  1
  C  C36  1  0.82199900  0.25088200  0.88713600  1
  C  C37  1  0.17800100  0.75088200  0.11286400  1
  C  C38  1  0.34921000  0.37813600  0.34174600  1
  C  C39  1  0.65079000  0.87813600  0.65825400  1
  Ni  Ni40  1  0.69727300  0.50950100  0.88785300  1
  Ni  Ni41  1  0.30272700  0.00950100  0.11214700  1
  Ni  Ni42  1  0.34887600  0.47152000  0.22483600  1
  Ni  Ni43  1  0.65112400  0.97152000  0.77516400  1
  Cu  Cu44  1  0.68829300  0.58565600  0.88192100  1
  Cu  Cu45  1  0.31170700  0.08565600  0.11807900  1
  Cu  Cu46  1  0.36279800  0.39723600  0.22654200  1
  Cu  Cu47  1  0.63720200  0.89723600  0.77345800  1
  C  C48  1  0.56369200  0.12721000  0.95693000  1
  C  C49  1  0.43630800  0.62721000  0.04307000  1
  C  C50  1  0.02874400  0.35877100  0.35233700  1
  C  C51  1  0.97125600  0.85877100  0.64766300  1
  C  C52  1  0.78640900  0.25560700  0.57085200  1
  C  C53  1  0.21359100  0.75560700  0.42914800  1
  C  C54  1  0.30148200  0.24259500  0.72480600  1
  C  C55  1  0.69851800  0.74259500  0.27519400  1
  C  C56  1  0.19178600  0.10434200  0.65769900  1
  C  C57  1  0.80821400  0.60434200  0.34230100  1
  C  C58  1  0.69388700  0.22686400  0.84182600  1
  C  C59  1  0.30611300  0.72686400  0.15817400  1
  C  C60  1  0.52591200  0.35201200  0.64412800  1
  C  C61  1  0.47408800  0.85201200  0.35587200  1
  C  C62  1  0.76263800  0.12242700  0.44722100  1
  C  C63  1  0.23736200  0.62242700  0.55277900  1
  C  C64  1  0.47616300  0.14753400  0.53767500  1
  C  C65  1  0.52383700  0.64753400  0.46232500  1
  C  C66  1  0.90574600  0.12964600  0.86960900  1
  C  C67  1  0.09425400  0.62964600  0.13039100  1
  C  C68  1  0.05928700  0.49207300  0.48598700  1
  C  C69  1  0.94071300  0.99207300  0.51401300  1
  C  C70  1  0.95084300  0.08303800  0.22308100  1
  C  C71  1  0.04915700  0.58303800  0.77691900  1
  C  C72  1  0.25466600  0.38200200  0.77041400  1
  C  C73  1  0.74533400  0.88200200  0.22958600  1
  C  C74  1  0.83661000  0.40200200  0.58853800  1
  C  C75  1  0.16339000  0.90200200  0.41146200  1
  C  C76  1  0.61872400  0.32950700  0.05774700  1
  C  C77  1  0.38127600  0.82950700  0.94225300  1
  C  C78  1  0.93964800  0.22166600  0.22214900  1
  C  C79  1  0.06035200  0.72166600  0.77785100  1
  C  C80  1  0.93279800  0.32870700  0.95320400  1
  C  C81  1  0.06720200  0.82870700  0.04679600  1
