# generated using pymatgen
data_Cu5Ni2C25
_symmetry_space_group_name_H-M   'P 1'
_cell_length_a   5.90419400
_cell_length_b   6.45216570
_cell_length_c   7.84112525
_cell_angle_alpha   86.01656165
_cell_angle_beta   75.95128486
_cell_angle_gamma   76.93812394
_symmetry_Int_Tables_number   1
_chemical_formula_structural   Cu5Ni2C25
_chemical_formula_sum   'Cu5 Ni2 C25'
_cell_volume   282.24087452
_cell_formula_units_Z   1
loop_
 _symmetry_equiv_pos_site_id
 _symmetry_equiv_pos_as_xyz
  1  'x, y, z'
loop_
 _atom_site_type_symbol
 _atom_site_label
 _atom_site_symmetry_multiplicity
 _atom_site_fract_x
 _atom_site_fract_y
 _atom_site_fract_z
 _atom_site_occupancy
  C  C0  1  0.06338200  0.12018300  0.62784300  1
  C  C1  1  0.80207400  0.62855400  0.11889600  1
  C  C2  1  0.56202400  0.12019700  0.62810000  1
  C  C3  1  0.93432800  0.88101400  0.37320000  1
  C  C4  1  0.68409900  0.36980800  0.88135500  1
  C  C5  1  0.44054200  0.87864600  0.37141900  1
  C  C6  1  0.32129600  0.62910500  0.11868200  1
  C  C7  1  0.19236000  0.37121300  0.88039100  1
  C  C8  1  0.49969300  0.00034300  0.99972100  1
  Ni  Ni9  1  0.99982100  0.00075700  0.00008200  1
  Ni  Ni10  1  0.25020200  0.49917500  0.49998700  1
  Cu  Cu11  1  0.75071100  0.50071800  0.50034000  1
  Cu  Cu12  1  0.61732900  0.24909600  0.24285200  1
  Cu  Cu13  1  0.38188200  0.75283000  0.75739800  1
  Cu  Cu14  1  0.12880000  0.24862800  0.24727500  1
  Cu  Cu15  1  0.87406700  0.74941500  0.75363900  1
  C  C16  1  0.27129200  0.04628500  0.81450800  1
  C  C17  1  0.04266200  0.54367100  0.33454700  1
  C  C18  1  0.80416600  0.04059300  0.82414900  1
  C  C19  1  0.14847400  0.79226500  0.56871500  1
  C  C20  1  0.89144100  0.29690500  0.06441000  1
  C  C21  1  0.64655200  0.79127700  0.56696900  1
  C  C22  1  0.52167000  0.54838100  0.31739300  1
  C  C23  1  0.38775500  0.30885700  0.07727500  1
  C  C24  1  0.85199800  0.21272000  0.42986100  1
  C  C25  1  0.60936000  0.68800700  0.91971300  1
  C  C26  1  0.35555100  0.20273600  0.43477100  1
  C  C27  1  0.72845600  0.95439000  0.18596600  1
  C  C28  1  0.45832200  0.45588000  0.66754200  1
  C  C29  1  0.19314100  0.95985500  0.17517100  1
  C  C30  1  0.10736200  0.70554200  0.93738400  1
  C  C31  1  0.97919300  0.45295400  0.68044600  1
