# generated using pymatgen
data_Cu2NiC13
_symmetry_space_group_name_H-M   'P 1'
_cell_length_a   8.51719458
_cell_length_b   8.51719458
_cell_length_c   9.91842120
_cell_angle_alpha   59.27086945
_cell_angle_beta   59.27086945
_cell_angle_gamma   53.07684097
_symmetry_Int_Tables_number   1
_chemical_formula_structural   Cu2NiC13
_chemical_formula_sum   'Cu4 Ni2 C26'
_cell_volume   472.15034612
_cell_formula_units_Z   2
loop_
 _symmetry_equiv_pos_site_id
 _symmetry_equiv_pos_as_xyz
  1  'x, y, z'
loop_
 _atom_site_type_symbol
 _atom_site_label
 _atom_site_symmetry_multiplicity
 _atom_site_fract_x
 _atom_site_fract_y
 _atom_site_fract_z
 _atom_site_occupancy
  Ni  Ni0  1  0.50000000  0.00000000  0.50000000  1
  Ni  Ni1  1  0.00000000  0.50000000  0.00000000  1
  Cu  Cu2  1  0.59540000  0.63870700  0.92641300  1
  Cu  Cu3  1  0.36129300  0.40460000  0.57358700  1
  Cu  Cu4  1  0.40460000  0.36129300  0.07358700  1
  Cu  Cu5  1  0.63870700  0.59540000  0.42641300  1
  C  C6  1  0.28928800  0.71071200  0.75000000  1
  C  C7  1  0.71071200  0.28928800  0.25000000  1
  C  C8  1  0.27305000  0.94881100  0.64095500  1
  C  C9  1  0.05118900  0.72695000  0.85904500  1
  C  C10  1  0.72695000  0.05118900  0.35904500  1
  C  C11  1  0.94881100  0.27305000  0.14095500  1
  C  C12  1  0.44181500  0.58178900  0.88023600  1
  C  C13  1  0.41821100  0.55818500  0.61976400  1
  C  C14  1  0.55818500  0.41821100  0.11976400  1
  C  C15  1  0.58178900  0.44181500  0.38023600  1
  C  C16  1  0.57835000  0.88867400  0.73756100  1
  C  C17  1  0.11132600  0.42165000  0.76243900  1
  C  C18  1  0.42165000  0.11132600  0.26243900  1
  C  C19  1  0.88867400  0.57835000  0.23756100  1
  C  C20  1  0.73977900  0.66892400  0.98731900  1
  C  C21  1  0.33107600  0.26022100  0.51268100  1
  C  C22  1  0.26022100  0.33107600  0.01268100  1
  C  C23  1  0.66892400  0.73977900  0.48731900  1
  C  C24  1  0.06706100  0.94097200  0.03505200  1
  C  C25  1  0.05902800  0.93293900  0.46494800  1
  C  C26  1  0.93293900  0.05902800  0.96494800  1
  C  C27  1  0.94097200  0.06706100  0.53505200  1
  C  C28  1  0.97153800  0.43004700  0.73964500  1
  C  C29  1  0.56995300  0.02846200  0.76035500  1
  C  C30  1  0.02846200  0.56995300  0.26035500  1
  C  C31  1  0.43004700  0.97153800  0.23964500  1
