# generated using pymatgen
data_CuNiC7
_symmetry_space_group_name_H-M   'P 1'
_cell_length_a   6.43023200
_cell_length_b   7.11587500
_cell_length_c   9.14441800
_cell_angle_alpha   90.00000000
_cell_angle_beta   90.00000000
_cell_angle_gamma   90.00000000
_symmetry_Int_Tables_number   1
_chemical_formula_structural   CuNiC7
_chemical_formula_sum   'Cu4 Ni4 C28'
_cell_volume   418.41863922
_cell_formula_units_Z   4
loop_
 _symmetry_equiv_pos_site_id
 _symmetry_equiv_pos_as_xyz
  1  'x, y, z'
loop_
 _atom_site_type_symbol
 _atom_site_label
 _atom_site_symmetry_multiplicity
 _atom_site_fract_x
 _atom_site_fract_y
 _atom_site_fract_z
 _atom_site_occupancy
  C  C0  1  0.87894100  0.03022400  0.32664900  1
  C  C1  1  0.62105900  0.46977600  0.82664900  1
  C  C2  1  0.12105900  0.53022400  0.67335100  1
  C  C3  1  0.37894100  0.96977600  0.17335100  1
  C  C4  1  0.12105900  0.96977600  0.67335100  1
  C  C5  1  0.37894100  0.53022400  0.17335100  1
  C  C6  1  0.87894100  0.46977600  0.32664900  1
  C  C7  1  0.62105900  0.03022400  0.82664900  1
  Ni  Ni8  1  0.88169400  0.75000000  0.03870100  1
  Ni  Ni9  1  0.61830600  0.75000000  0.53870100  1
  Ni  Ni10  1  0.11830600  0.25000000  0.96129900  1
  Ni  Ni11  1  0.38169400  0.25000000  0.46129900  1
  Cu  Cu12  1  0.67565200  0.25000000  0.10054800  1
  Cu  Cu13  1  0.82434800  0.25000000  0.60054800  1
  Cu  Cu14  1  0.32434800  0.75000000  0.89945200  1
  Cu  Cu15  1  0.17565200  0.75000000  0.39945200  1
  C  C16  1  0.82623600  0.06630700  0.06774400  1
  C  C17  1  0.67376400  0.43369300  0.56774400  1
  C  C18  1  0.17376400  0.56630700  0.93225600  1
  C  C19  1  0.32623600  0.93369300  0.43225600  1
  C  C20  1  0.17376400  0.93369300  0.93225600  1
  C  C21  1  0.32623600  0.56630700  0.43225600  1
  C  C22  1  0.82623600  0.43369300  0.06774400  1
  C  C23  1  0.67376400  0.06630700  0.56774400  1
  C  C24  1  0.59966200  0.25000000  0.27335700  1
  C  C25  1  0.90033800  0.25000000  0.77335700  1
  C  C26  1  0.40033800  0.75000000  0.72664300  1
  C  C27  1  0.09966200  0.75000000  0.22664300  1
  C  C28  1  0.02708600  0.25000000  0.49126600  1
  C  C29  1  0.47291400  0.25000000  0.99126600  1
  C  C30  1  0.97291400  0.75000000  0.50873400  1
  C  C31  1  0.52708600  0.75000000  0.00873400  1
  C  C32  1  0.68613000  0.75000000  0.30343700  1
  C  C33  1  0.81387000  0.75000000  0.80343700  1
  C  C34  1  0.31387000  0.25000000  0.69656300  1
  C  C35  1  0.18613000  0.25000000  0.19656300  1
