# generated using pymatgen
data_Cu7NiC3
_symmetry_space_group_name_H-M   'P 1'
_cell_length_a   7.78122190
_cell_length_b   8.42127095
_cell_length_c   10.02546200
_cell_angle_alpha   90.00000000
_cell_angle_beta   90.00000000
_cell_angle_gamma   104.52157001
_symmetry_Int_Tables_number   1
_chemical_formula_structural   Cu7NiC3
_chemical_formula_sum   'Cu28 Ni4 C12'
_cell_volume   635.95899053
_cell_formula_units_Z   4
loop_
 _symmetry_equiv_pos_site_id
 _symmetry_equiv_pos_as_xyz
  1  'x, y, z'
loop_
 _atom_site_type_symbol
 _atom_site_label
 _atom_site_symmetry_multiplicity
 _atom_site_fract_x
 _atom_site_fract_y
 _atom_site_fract_z
 _atom_site_occupancy
  C  C0  1  0.76124900  0.73962100  0.08481900  1
  C  C1  1  0.23875100  0.76037900  0.58481900  1
  C  C2  1  0.23875100  0.26037900  0.91518100  1
  C  C3  1  0.76124900  0.23962100  0.41518100  1
  C  C4  1  0.57405300  0.32014400  0.13454900  1
  C  C5  1  0.42594700  0.17985600  0.63454900  1
  C  C6  1  0.42594700  0.67985600  0.86545100  1
  C  C7  1  0.57405300  0.82014400  0.36545100  1
  C  C8  1  0.86902900  0.16467700  0.10574500  1
  C  C9  1  0.13097100  0.33532300  0.60574500  1
  C  C10  1  0.13097100  0.83532300  0.89425500  1
  C  C11  1  0.86902900  0.66467700  0.39425500  1
  Ni  Ni12  1  0.79907500  0.97922300  0.69531300  1
  Ni  Ni13  1  0.20092500  0.52077700  0.19531300  1
  Ni  Ni14  1  0.20092500  0.02077700  0.30468700  1
  Ni  Ni15  1  0.79907500  0.47922300  0.80468700  1
  Cu  Cu16  1  0.68985900  0.21248900  0.05859300  1
  Cu  Cu17  1  0.31014100  0.28751100  0.55859300  1
  Cu  Cu18  1  0.31014100  0.78751100  0.94140700  1
  Cu  Cu19  1  0.68985900  0.71248900  0.44140700  1
  Cu  Cu20  1  0.61318900  0.73666100  0.92046100  1
  Cu  Cu21  1  0.38681100  0.76333900  0.42046100  1
  Cu  Cu22  1  0.38681100  0.26333900  0.07953900  1
  Cu  Cu23  1  0.61318900  0.23666100  0.57953900  1
  Cu  Cu24  1  0.90231600  0.70969100  0.24697000  1
  Cu  Cu25  1  0.09768400  0.79030900  0.74697000  1
  Cu  Cu26  1  0.09768400  0.29030900  0.75303000  1
  Cu  Cu27  1  0.90231600  0.20969100  0.25303000  1
  Cu  Cu28  1  0.83808500  0.98287100  0.07803100  1
  Cu  Cu29  1  0.16191500  0.51712900  0.57803100  1
  Cu  Cu30  1  0.16191500  0.01712900  0.92196900  1
  Cu  Cu31  1  0.83808500  0.48287100  0.42196900  1
  Cu  Cu32  1  0.97842900  0.73351700  0.97722500  1
  Cu  Cu33  1  0.02157100  0.76648300  0.47722500  1
  Cu  Cu34  1  0.02157100  0.26648300  0.02277500  1
  Cu  Cu35  1  0.97842900  0.23351700  0.52277500  1
  Cu  Cu36  1  0.57611600  0.78428400  0.21535000  1
  Cu  Cu37  1  0.42388400  0.71571600  0.71535000  1
  Cu  Cu38  1  0.42388400  0.21571600  0.78465000  1
  Cu  Cu39  1  0.57611600  0.28428400  0.28465000  1
  Cu  Cu40  1  0.66028200  0.49875800  0.10173500  1
  Cu  Cu41  1  0.33971800  0.00124200  0.60173500  1
  Cu  Cu42  1  0.33971800  0.50124200  0.89826500  1
  Cu  Cu43  1  0.66028200  0.99875800  0.39826500  1
