# generated using pymatgen
data_Cu13Ni6C11
_symmetry_space_group_name_H-M   'P 1'
_cell_length_a   11.19966400
_cell_length_b   11.19966400
_cell_length_c   11.06636200
_cell_angle_alpha   90.00000000
_cell_angle_beta   90.00000000
_cell_angle_gamma   90.00000000
_symmetry_Int_Tables_number   1
_chemical_formula_structural   Cu13Ni6C11
_chemical_formula_sum   'Cu26 Ni12 C22'
_cell_volume   1388.08116066
_cell_formula_units_Z   2
loop_
 _symmetry_equiv_pos_site_id
 _symmetry_equiv_pos_as_xyz
  1  'x, y, z'
loop_
 _atom_site_type_symbol
 _atom_site_label
 _atom_site_symmetry_multiplicity
 _atom_site_fract_x
 _atom_site_fract_y
 _atom_site_fract_z
 _atom_site_occupancy
  C  C0  1  0.50000000  0.00000000  0.64970000  1
  C  C1  1  0.00000000  0.50000000  0.35030000  1
  C  C2  1  0.76465400  0.73534600  0.71704700  1
  C  C3  1  0.76465400  0.26465400  0.71704700  1
  C  C4  1  0.23534600  0.73534600  0.71704700  1
  C  C5  1  0.23534600  0.26465400  0.71704700  1
  C  C6  1  0.73534600  0.76465400  0.28295300  1
  C  C7  1  0.73534600  0.23534600  0.28295300  1
  C  C8  1  0.26465400  0.76465400  0.28295300  1
  C  C9  1  0.26465400  0.23534600  0.28295300  1
  C  C10  1  0.00000000  0.50000000  0.85216700  1
  C  C11  1  0.50000000  0.00000000  0.14783300  1
  C  C12  1  0.77629100  0.00000000  0.98924300  1
  C  C13  1  0.22370900  0.00000000  0.98924300  1
  C  C14  1  0.50000000  0.27629100  0.98924300  1
  C  C15  1  0.50000000  0.72370900  0.98924300  1
  C  C16  1  0.72370900  0.50000000  0.01075700  1
  C  C17  1  0.27629100  0.50000000  0.01075700  1
  C  C18  1  0.00000000  0.22370900  0.01075700  1
  C  C19  1  0.00000000  0.77629100  0.01075700  1
  C  C20  1  0.50000000  0.50000000  0.50000000  1
  C  C21  1  0.00000000  0.00000000  0.50000000  1
  Ni  Ni22  1  0.71987300  0.50000000  0.49570800  1
  Ni  Ni23  1  0.28012700  0.50000000  0.49570800  1
  Ni  Ni24  1  0.00000000  0.21987300  0.49570800  1
  Ni  Ni25  1  0.00000000  0.78012700  0.49570800  1
  Ni  Ni26  1  0.78012700  0.00000000  0.50429200  1
  Ni  Ni27  1  0.21987300  0.00000000  0.50429200  1
  Ni  Ni28  1  0.50000000  0.28012700  0.50429200  1
  Ni  Ni29  1  0.50000000  0.71987300  0.50429200  1
  Ni  Ni30  1  0.50000000  0.50000000  0.71511800  1
  Ni  Ni31  1  0.00000000  0.00000000  0.71511800  1
  Ni  Ni32  1  0.00000000  0.00000000  0.28488200  1
  Ni  Ni33  1  0.50000000  0.50000000  0.28488200  1
  Cu  Cu34  1  0.00000000  0.50000000  0.70480300  1
  Cu  Cu35  1  0.50000000  0.00000000  0.29519700  1
  Cu  Cu36  1  0.70632000  0.00000000  0.85912700  1
  Cu  Cu37  1  0.29368000  0.00000000  0.85912700  1
  Cu  Cu38  1  0.50000000  0.20632000  0.85912700  1
  Cu  Cu39  1  0.50000000  0.79368000  0.85912700  1
  Cu  Cu40  1  0.79368000  0.50000000  0.14087300  1
  Cu  Cu41  1  0.20632000  0.50000000  0.14087300  1
  Cu  Cu42  1  0.00000000  0.29368000  0.14087300  1
  Cu  Cu43  1  0.00000000  0.70632000  0.14087300  1
  Cu  Cu44  1  0.67312900  0.00000000  0.10607800  1
  Cu  Cu45  1  0.32687100  0.00000000  0.10607800  1
  Cu  Cu46  1  0.50000000  0.17312900  0.10607800  1
  Cu  Cu47  1  0.50000000  0.82687100  0.10607800  1
  Cu  Cu48  1  0.82687100  0.50000000  0.89392200  1
  Cu  Cu49  1  0.17312900  0.50000000  0.89392200  1
  Cu  Cu50  1  0.00000000  0.32687100  0.89392200  1
  Cu  Cu51  1  0.00000000  0.67312900  0.89392200  1
  Cu  Cu52  1  0.86607300  0.86607300  0.00000000  1
  Cu  Cu53  1  0.86607300  0.13392700  0.00000000  1
  Cu  Cu54  1  0.13392700  0.86607300  0.00000000  1
  Cu  Cu55  1  0.13392700  0.13392700  0.00000000  1
  Cu  Cu56  1  0.36607300  0.36607300  0.00000000  1
  Cu  Cu57  1  0.36607300  0.63392700  0.00000000  1
  Cu  Cu58  1  0.63392700  0.36607300  0.00000000  1
  Cu  Cu59  1  0.63392700  0.63392700  0.00000000  1
