# generated using pymatgen
data_Cu2Ni2C15
_symmetry_space_group_name_H-M   'P 1'
_cell_length_a   7.81294315
_cell_length_b   7.58197813
_cell_length_c   4.74627938
_cell_angle_alpha   94.50149906
_cell_angle_beta   94.94427031
_cell_angle_gamma   110.83497531
_symmetry_Int_Tables_number   1
_chemical_formula_structural   Cu2Ni2C15
_chemical_formula_sum   'Cu2 Ni2 C15'
_cell_volume   259.99039285
_cell_formula_units_Z   1
loop_
 _symmetry_equiv_pos_site_id
 _symmetry_equiv_pos_as_xyz
  1  'x, y, z'
loop_
 _atom_site_type_symbol
 _atom_site_label
 _atom_site_symmetry_multiplicity
 _atom_site_fract_x
 _atom_site_fract_y
 _atom_site_fract_z
 _atom_site_occupancy
  C  C0  1  0.50000000  0.00000000  0.50000000  1
  Ni  Ni1  1  0.15237600  0.66886900  0.12804700  1
  Ni  Ni2  1  0.84762400  0.33113100  0.87195300  1
  C  C3  1  0.15028300  0.49499300  0.63986000  1
  C  C4  1  0.84971700  0.50500700  0.36014000  1
  C  C5  1  0.09466200  0.83439200  0.73986000  1
  C  C6  1  0.90533800  0.16560800  0.26014000  1
  Cu  Cu7  1  0.75365800  0.78417200  0.94331700  1
  Cu  Cu8  1  0.24634200  0.21582800  0.05668300  1
  C  C9  1  0.09360900  0.48072100  0.81892500  1
  C  C10  1  0.90639100  0.51927900  0.18107600  1
  C  C11  1  0.07102400  0.84465300  0.94087000  1
  C  C12  1  0.92897600  0.15534700  0.05913000  1
  C  C13  1  0.19597300  0.83236500  0.45691500  1
  C  C14  1  0.80402700  0.16763500  0.54308600  1
  C  C15  1  0.25473400  0.53045100  0.34184000  1
  C  C16  1  0.74526600  0.46954900  0.65816000  1
  C  C17  1  0.39217200  0.81629300  0.06164900  1
  C  C18  1  0.60782800  0.18370700  0.93835100  1
