# generated using pymatgen
data_CuNiC16
_symmetry_space_group_name_H-M   'P 1'
_cell_length_a   5.73251711
_cell_length_b   5.73251711
_cell_length_c   8.28844347
_cell_angle_alpha   90.00000000
_cell_angle_beta   90.00000000
_cell_angle_gamma   89.39908923
_symmetry_Int_Tables_number   1
_chemical_formula_structural   CuNiC16
_chemical_formula_sum   'Cu1 Ni1 C16'
_cell_volume   272.35779701
_cell_formula_units_Z   1
loop_
 _symmetry_equiv_pos_site_id
 _symmetry_equiv_pos_as_xyz
  1  'x, y, z'
loop_
 _atom_site_type_symbol
 _atom_site_label
 _atom_site_symmetry_multiplicity
 _atom_site_fract_x
 _atom_site_fract_y
 _atom_site_fract_z
 _atom_site_occupancy
  Ni  Ni0  1  0.02006817  0.97993183  0.50000000  1
  Cu  Cu1  1  0.47678283  0.52321717  -0.00000000  1
  C  C2  1  0.50934352  0.01364998  0.26244990  1
  C  C3  1  0.50934352  0.01364998  0.73755010  1
  C  C4  1  -0.01364998  0.49065648  0.73755010  1
  C  C5  1  -0.01364998  0.49065648  0.26244990  1
  C  C6  1  0.29895390  0.30533538  0.21127431  1
  C  C7  1  0.69466462  0.70104610  0.21127431  1
  C  C8  1  0.69466462  0.70104610  0.78872569  1
  C  C9  1  0.29895390  0.30533538  0.78872569  1
  C  C10  1  0.23255671  0.76744329  0.18867192  1
  C  C11  1  0.81289195  0.18710805  0.29982763  1
  C  C12  1  0.81289195  0.18710805  0.70017237  1
  C  C13  1  0.23255671  0.76744329  0.81132808  1
  C  C14  1  0.55024552  0.08344041  -0.00000000  1
  C  C15  1  0.42328252  -0.01253993  0.50000000  1
  C  C16  1  0.91655959  0.44975448  -0.00000000  1
  C  C17  1  0.01253993  0.57671748  0.50000000  1
