# generated using pymatgen
data_CuNi4C15
_symmetry_space_group_name_H-M   'P 1'
_cell_length_a   5.86322629
_cell_length_b   5.86322629
_cell_length_c   19.35660800
_cell_angle_alpha   90.00000000
_cell_angle_beta   90.00000000
_cell_angle_gamma   120.00000328
_symmetry_Int_Tables_number   1
_chemical_formula_structural   CuNi4C15
_chemical_formula_sum   'Cu2 Ni8 C30'
_cell_volume   576.27951836
_cell_formula_units_Z   2
loop_
 _symmetry_equiv_pos_site_id
 _symmetry_equiv_pos_as_xyz
  1  'x, y, z'
loop_
 _atom_site_type_symbol
 _atom_site_label
 _atom_site_symmetry_multiplicity
 _atom_site_fract_x
 _atom_site_fract_y
 _atom_site_fract_z
 _atom_site_occupancy
  Ni  Ni0  1  0.00000000  0.00000000  0.00299700  1
  Ni  Ni1  1  0.00000000  0.00000000  0.50299700  1
  Ni  Ni2  1  0.33333300  0.66666700  0.14502300  1
  Ni  Ni3  1  0.66666700  0.33333300  0.64502300  1
  Ni  Ni4  1  0.33333300  0.66666700  0.36958700  1
  Ni  Ni5  1  0.66666700  0.33333300  0.86958700  1
  Ni  Ni6  1  0.66666700  0.33333300  0.24812600  1
  Ni  Ni7  1  0.33333300  0.66666700  0.74812600  1
  Cu  Cu8  1  0.00000000  0.00000000  0.16619400  1
  Cu  Cu9  1  0.00000000  0.00000000  0.66619400  1
  C  C10  1  0.00000000  0.00000000  0.30996200  1
  C  C11  1  0.00000000  0.00000000  0.80996200  1
  C  C12  1  0.33333300  0.66666700  0.56582300  1
  C  C13  1  0.66666700  0.33333300  0.06582300  1
  C  C14  1  0.33333300  0.66666700  0.93947300  1
  C  C15  1  0.66666700  0.33333300  0.43947300  1
  C  C16  1  0.84133700  0.68267500  0.75778900  1
  C  C17  1  0.15866300  0.31732500  0.25778900  1
  C  C18  1  0.68267500  0.84133700  0.25778900  1
  C  C19  1  0.84133700  0.15866300  0.75778900  1
  C  C20  1  0.16944300  0.83055700  0.87892600  1
  C  C21  1  0.33888700  0.16944300  0.37892600  1
  C  C22  1  0.83055700  0.66111300  0.37892600  1
  C  C23  1  0.16944300  0.33888700  0.87892600  1
  C  C24  1  0.66111300  0.83055700  0.87892600  1
  C  C25  1  0.83055700  0.16944300  0.37892600  1
  C  C26  1  0.17380800  0.82619200  0.61769100  1
  C  C27  1  0.34761700  0.17380800  0.11769100  1
  C  C28  1  0.15866300  0.84133700  0.25778900  1
  C  C29  1  0.31732500  0.15866300  0.75778900  1
  C  C30  1  0.49855800  0.50144200  0.99653200  1
  C  C31  1  0.99711600  0.49855800  0.49653200  1
  C  C32  1  0.50144200  0.00288400  0.49653200  1
  C  C33  1  0.49855800  0.99711600  0.99653200  1
  C  C34  1  0.00288400  0.50144200  0.99653200  1
  C  C35  1  0.50144200  0.49855800  0.49653200  1
  C  C36  1  0.82619200  0.17380800  0.11769100  1
  C  C37  1  0.65238300  0.82619200  0.61769100  1
  C  C38  1  0.17380800  0.34761700  0.61769100  1
  C  C39  1  0.82619200  0.65238300  0.11769100  1
