# generated using pymatgen
data_Cu2Ni2C17
_symmetry_space_group_name_H-M   'P 1'
_cell_length_a   5.82054976
_cell_length_b   6.09133786
_cell_length_c   7.95730859
_cell_angle_alpha   91.23930959
_cell_angle_beta   90.40700570
_cell_angle_gamma   97.81568630
_symmetry_Int_Tables_number   1
_chemical_formula_structural   Cu2Ni2C17
_chemical_formula_sum   'Cu2 Ni2 C17'
_cell_volume   279.42534165
_cell_formula_units_Z   1
loop_
 _symmetry_equiv_pos_site_id
 _symmetry_equiv_pos_as_xyz
  1  'x, y, z'
loop_
 _atom_site_type_symbol
 _atom_site_label
 _atom_site_symmetry_multiplicity
 _atom_site_fract_x
 _atom_site_fract_y
 _atom_site_fract_z
 _atom_site_occupancy
  C  C0  1  0.58025300  0.46301800  0.73163500  1
  C  C1  1  0.94956800  0.97817400  0.27241100  1
  C  C2  1  0.96577700  0.07574900  0.81292500  1
  C  C3  1  0.44432300  0.48446800  0.23725700  1
  C  C4  1  0.21414300  0.73197200  0.72497700  1
  Ni  Ni5  1  0.96635300  0.53168400  0.01238900  1
  Ni  Ni6  1  0.45552700  0.01117900  0.48217000  1
  Cu  Cu7  1  0.02131100  0.48859100  0.48578900  1
  Cu  Cu8  1  0.48557700  0.98169200  0.00531900  1
  C  C9  1  0.00751700  0.43576900  0.74552300  1
  C  C10  1  0.40091400  0.03994100  0.74577800  1
  C  C11  1  0.03468000  0.58055800  0.25375200  1
  C  C12  1  0.51752900  0.90331400  0.24669200  1
  C  C13  1  0.20710100  0.24439500  0.43829800  1
  C  C14  1  0.70338600  0.27776800  0.01988300  1
  C  C15  1  0.76017100  0.79172500  0.97102800  1
  C  C16  1  0.36700200  0.66314800  0.51849400  1
  C  C17  1  0.92860600  0.78690900  0.58114600  1
  C  C18  1  0.29026500  0.68551600  0.96239400  1
  C  C19  1  0.22068400  0.16752000  0.05055000  1
  C  C20  1  0.70549900  0.30786100  0.45159100  1
