# generated using pymatgen
data_Cu2NiC8
_symmetry_space_group_name_H-M   'P 1'
_cell_length_a   8.67883126
_cell_length_b   8.67883126
_cell_length_c   5.63447100
_cell_angle_alpha   90.00000000
_cell_angle_beta   90.00000000
_cell_angle_gamma   129.46510905
_symmetry_Int_Tables_number   1
_chemical_formula_structural   Cu2NiC8
_chemical_formula_sum   'Cu4 Ni2 C16'
_cell_volume   327.64200018
_cell_formula_units_Z   2
loop_
 _symmetry_equiv_pos_site_id
 _symmetry_equiv_pos_as_xyz
  1  'x, y, z'
loop_
 _atom_site_type_symbol
 _atom_site_label
 _atom_site_symmetry_multiplicity
 _atom_site_fract_x
 _atom_site_fract_y
 _atom_site_fract_z
 _atom_site_occupancy
  C  C0  1  0.91816900  0.33887600  0.75000000  1
  C  C1  1  0.33887600  0.91816900  0.25000000  1
  Ni  Ni2  1  0.53194500  0.76050100  0.75000000  1
  Ni  Ni3  1  0.76050100  0.53194500  0.25000000  1
  Cu  Cu4  1  0.96708400  0.81248900  0.75000000  1
  Cu  Cu5  1  0.81248900  0.96708400  0.25000000  1
  Cu  Cu6  1  0.44765900  0.30039900  0.75000000  1
  Cu  Cu7  1  0.30039900  0.44765900  0.25000000  1
  C  C8  1  0.26456400  0.99583000  0.75000000  1
  C  C9  1  0.99583000  0.26456400  0.25000000  1
  C  C10  1  0.58178800  0.29375100  0.49305800  1
  C  C11  1  0.29375100  0.58178800  0.50694200  1
  C  C12  1  0.58178800  0.29375100  0.00694200  1
  C  C13  1  0.29375100  0.58178800  0.99305800  1
  C  C14  1  0.67672000  0.64464100  0.75000000  1
  C  C15  1  0.64464100  0.67672000  0.25000000  1
  C  C16  1  0.97587500  0.66432600  0.50649800  1
  C  C17  1  0.66432600  0.97587500  0.49350200  1
  C  C18  1  0.97587500  0.66432600  0.99350200  1
  C  C19  1  0.66432600  0.97587500  0.00649800  1
  C  C20  1  0.00168000  0.00168000  0.50000000  1
  C  C21  1  0.00168000  0.00168000  0.00000000  1
