# generated using pymatgen
data_Cu27(NiC3)2
_symmetry_space_group_name_H-M   'P 1'
_cell_length_a   8.33539514
_cell_length_b   8.33539514
_cell_length_c   8.86313279
_cell_angle_alpha   97.01174338
_cell_angle_beta   97.01174338
_cell_angle_gamma   116.79927714
_symmetry_Int_Tables_number   1
_chemical_formula_structural   Cu27(NiC3)2
_chemical_formula_sum   'Cu27 Ni2 C6'
_cell_volume   534.53373915
_cell_formula_units_Z   1
loop_
 _symmetry_equiv_pos_site_id
 _symmetry_equiv_pos_as_xyz
  1  'x, y, z'
loop_
 _atom_site_type_symbol
 _atom_site_label
 _atom_site_symmetry_multiplicity
 _atom_site_fract_x
 _atom_site_fract_y
 _atom_site_fract_z
 _atom_site_occupancy
  C  C0  1  0.14843300  0.14843300  0.20677000  1
  C  C1  1  0.85156700  0.85156700  0.79323000  1
  C  C2  1  0.43952600  0.89433900  0.16916400  1
  C  C3  1  0.89433900  0.43952600  0.16916400  1
  C  C4  1  0.56047400  0.10566100  0.83083600  1
  C  C5  1  0.10566100  0.56047400  0.83083600  1
  Ni  Ni6  1  0.74763700  0.25236300  0.50000000  1
  Ni  Ni7  1  0.25236300  0.74763700  0.50000000  1
  Cu  Cu8  1  0.15098900  0.64012700  0.08667400  1
  Cu  Cu9  1  0.64012700  0.15098900  0.08667400  1
  Cu  Cu10  1  0.84901100  0.35987300  0.91332600  1
  Cu  Cu11  1  0.35987300  0.84901100  0.91332600  1
  Cu  Cu12  1  0.61071400  0.61071400  0.73721300  1
  Cu  Cu13  1  0.38928600  0.38928600  0.26278700  1
  Cu  Cu14  1  0.57132200  0.77650200  0.13530700  1
  Cu  Cu15  1  0.77650200  0.57132200  0.13530700  1
  Cu  Cu16  1  0.42867800  0.22349800  0.86469300  1
  Cu  Cu17  1  0.22349800  0.42867800  0.86469300  1
  Cu  Cu18  1  0.31231700  0.02183800  0.22316300  1
  Cu  Cu19  1  0.02183800  0.31231700  0.22316300  1
  Cu  Cu20  1  0.68768300  0.97816200  0.77683700  1
  Cu  Cu21  1  0.97816200  0.68768300  0.77683700  1
  Cu  Cu22  1  0.69070200  0.07285900  0.39713400  1
  Cu  Cu23  1  0.07285900  0.69070200  0.39713400  1
  Cu  Cu24  1  0.30929800  0.92714100  0.60286600  1
  Cu  Cu25  1  0.92714100  0.30929800  0.60286600  1
  Cu  Cu26  1  0.61186900  0.23913600  0.59900500  1
  Cu  Cu27  1  0.23913600  0.61186900  0.59900500  1
  Cu  Cu28  1  0.38813100  0.76086400  0.40099500  1
  Cu  Cu29  1  0.76086400  0.38813100  0.40099500  1
  Cu  Cu30  1  0.28464100  0.28464100  0.46534900  1
  Cu  Cu31  1  0.71535900  0.71535900  0.53465100  1
  Cu  Cu32  1  0.01720400  0.01720400  0.38797800  1
  Cu  Cu33  1  0.98279600  0.98279600  0.61202200  1
  Cu  Cu34  1  0.00000000  0.00000000  0.00000000  1
