# generated using pymatgen
data_CuNi12C5
_symmetry_space_group_name_H-M   'P 1'
_cell_length_a   21.57404017
_cell_length_b   21.57404017
_cell_length_c   21.57404017
_cell_angle_alpha   60.00000000
_cell_angle_beta   60.00000000
_cell_angle_gamma   60.00000000
_symmetry_Int_Tables_number   1
_chemical_formula_structural   CuNi12C5
_chemical_formula_sum   'Cu2 Ni24 C10'
_cell_volume   7100.34499796
_cell_formula_units_Z   2
loop_
 _symmetry_equiv_pos_site_id
 _symmetry_equiv_pos_as_xyz
  1  'x, y, z'
loop_
 _atom_site_type_symbol
 _atom_site_label
 _atom_site_symmetry_multiplicity
 _atom_site_fract_x
 _atom_site_fract_y
 _atom_site_fract_z
 _atom_site_occupancy
  Ni  Ni0  1  0.56671955  0.56671955  0.18675676  1
  Ni  Ni1  1  0.67980414  0.18675676  0.56671955  1
  Ni  Ni2  1  0.18675676  0.67980414  0.56671955  1
  Ni  Ni3  1  0.56671955  0.18675676  0.56671955  1
  Ni  Ni4  1  0.07019586  0.18328045  0.56324324  1
  Ni  Ni5  1  0.18328045  0.18328045  0.56324324  1
  Ni  Ni6  1  0.56671955  0.56671955  0.67980414  1
  Ni  Ni7  1  0.18675676  0.56671955  0.67980414  1
  Ni  Ni8  1  0.18328045  0.56324324  0.18328045  1
  Ni  Ni9  1  0.07019586  0.56324324  0.18328045  1
  Ni  Ni10  1  0.67980414  0.56671955  0.18675676  1
  Ni  Ni11  1  0.18328045  0.07019586  0.18328045  1
  Ni  Ni12  1  0.56324324  0.07019586  0.18328045  1
  Ni  Ni13  1  0.56671955  0.67980414  0.56671955  1
  Ni  Ni14  1  0.56324324  0.18328045  0.07019586  1
  Ni  Ni15  1  0.18328045  0.18328045  0.07019586  1
  Ni  Ni16  1  0.18675676  0.56671955  0.56671955  1
  Ni  Ni17  1  0.56671955  0.18675676  0.67980414  1
  Ni  Ni18  1  0.67980414  0.56671955  0.56671955  1
  Ni  Ni19  1  0.56671955  0.67980414  0.18675676  1
  Ni  Ni20  1  0.18328045  0.56324324  0.07019586  1
  Ni  Ni21  1  0.56324324  0.18328045  0.18328045  1
  Ni  Ni22  1  0.18328045  0.07019586  0.56324324  1
  Ni  Ni23  1  0.07019586  0.18328045  0.18328045  1
  C  C24  1  0.79142488  0.79142488  0.79142488  1
  C  C25  1  0.62572535  0.79142488  0.79142488  1
  C  C26  1  0.79142488  0.62572535  0.79142488  1
  C  C27  1  0.12427465  0.95857512  0.95857512  1
  C  C28  1  0.95857512  0.95857512  0.95857512  1
  C  C29  1  0.79142488  0.79142488  0.62572535  1
  C  C30  1  0.95857512  0.12427465  0.95857512  1
  C  C31  1  0.95857512  0.95857512  0.12427465  1
  Cu  Cu32  1  0.00000000  -0.00000000  -0.00000000  1
  Cu  Cu33  1  0.75000000  0.75000000  0.75000000  1
  C  C34  1  0.50000000  0.50000000  0.50000000  1
  C  C35  1  0.25000000  0.25000000  0.25000000  1
