# generated using pymatgen
data_Cu5NiC11
_symmetry_space_group_name_H-M   'P 1'
_cell_length_a   8.30846000
_cell_length_b   12.17829200
_cell_length_c   14.64374945
_cell_angle_alpha   90.00000000
_cell_angle_beta   106.73045378
_cell_angle_gamma   90.00000000
_symmetry_Int_Tables_number   1
_chemical_formula_structural   Cu5NiC11
_chemical_formula_sum   'Cu40 Ni8 C88'
_cell_volume   1418.97556671
_cell_formula_units_Z   8
loop_
 _symmetry_equiv_pos_site_id
 _symmetry_equiv_pos_as_xyz
  1  'x, y, z'
loop_
 _atom_site_type_symbol
 _atom_site_label
 _atom_site_symmetry_multiplicity
 _atom_site_fract_x
 _atom_site_fract_y
 _atom_site_fract_z
 _atom_site_occupancy
  C  C0  1  0.30844500  0.82750300  0.95088700  1
  C  C1  1  0.30844500  0.67249700  0.45088700  1
  C  C2  1  0.69155500  0.17249700  0.04911300  1
  C  C3  1  0.69155500  0.32750300  0.54911300  1
  C  C4  1  0.32481200  0.91449700  0.04321000  1
  C  C5  1  0.32481200  0.58550300  0.54321000  1
  C  C6  1  0.67518800  0.08550300  0.95679000  1
  C  C7  1  0.67518800  0.41449700  0.45679000  1
  C  C8  1  0.33680700  0.77896100  0.06324300  1
  C  C9  1  0.33680700  0.72103900  0.56324300  1
  C  C10  1  0.66319300  0.22103900  0.93675700  1
  C  C11  1  0.66319300  0.27896100  0.43675700  1
  C  C12  1  0.06184500  0.75710400  0.98038900  1
  C  C13  1  0.06184500  0.74289600  0.48038900  1
  C  C14  1  0.93815500  0.24289600  0.01961100  1
  C  C15  1  0.93815500  0.25710400  0.51961100  1
  C  C16  1  0.04612200  0.88883800  0.94974200  1
  C  C17  1  0.04612200  0.61116200  0.44974200  1
  C  C18  1  0.95387800  0.11116200  0.05025800  1
  C  C19  1  0.95387800  0.38883800  0.55025800  1
  C  C20  1  0.96195800  0.35506400  0.37457400  1
  C  C21  1  0.96195800  0.14493600  0.87457400  1
  C  C22  1  0.03804200  0.64493600  0.62542600  1
  C  C23  1  0.03804200  0.85506400  0.12542600  1
  C  C24  1  0.04054800  0.31613400  0.28232600  1
  C  C25  1  0.04054800  0.18386600  0.78232600  1
  C  C26  1  0.95945200  0.68386600  0.71767400  1
  C  C27  1  0.95945200  0.81613400  0.21767400  1
  C  C28  1  0.90726600  0.42201000  0.26902100  1
  C  C29  1  0.90726600  0.07799000  0.76902100  1
  C  C30  1  0.09273400  0.57799000  0.73097900  1
  C  C31  1  0.09273400  0.92201000  0.23097900  1
  C  C32  1  0.24617000  0.41527300  0.38234100  1
  C  C33  1  0.24617000  0.08472700  0.88234100  1
  C  C34  1  0.75383000  0.58472700  0.61765900  1
  C  C35  1  0.75383000  0.91527300  0.11765900  1
  C  C36  1  0.15659600  0.50128200  0.29657900  1
  C  C37  1  0.15659600  0.99871800  0.79657900  1
  C  C38  1  0.84340400  0.49871800  0.70342100  1
  C  C39  1  0.84340400  0.00128200  0.20342100  1
  Ni  Ni40  1  0.54380800  0.68302900  0.29701900  1
  Ni  Ni41  1  0.54380800  0.81697100  0.79701900  1
  Ni  Ni42  1  0.45619200  0.31697100  0.70298100  1
  Ni  Ni43  1  0.45619200  0.18302900  0.20298100  1
  Ni  Ni44  1  0.24649200  0.47268700  0.00172200  1
  Ni  Ni45  1  0.24649200  0.02731300  0.50172200  1
  Ni  Ni46  1  0.75350800  0.52731300  0.99827800  1
  Ni  Ni47  1  0.75350800  0.97268700  0.49827800  1
  Cu  Cu48  1  0.27858800  0.83880500  0.01483200  1
  Cu  Cu49  1  0.27858800  0.66119500  0.51483200  1
  Cu  Cu50  1  0.72141200  0.16119500  0.98516800  1
  Cu  Cu51  1  0.72141200  0.33880500  0.48516800  1
  Cu  Cu52  1  0.09998800  0.83502300  0.00404300  1
  Cu  Cu53  1  0.09998800  0.66497700  0.50404300  1
  Cu  Cu54  1  0.90001200  0.16497700  0.99595700  1
  Cu  Cu55  1  0.90001200  0.33502300  0.49595700  1
  Cu  Cu56  1  0.00510900  0.38183800  0.31760800  1
  Cu  Cu57  1  0.00510900  0.11816200  0.81760800  1
  Cu  Cu58  1  0.99489100  0.61816200  0.68239200  1
  Cu  Cu59  1  0.99489100  0.88183800  0.18239200  1
  Cu  Cu60  1  0.13904200  0.46031300  0.35420900  1
  Cu  Cu61  1  0.13904200  0.03968700  0.85420900  1
  Cu  Cu62  1  0.86095800  0.53968700  0.64579100  1
  Cu  Cu63  1  0.86095800  0.96031300  0.14579100  1
  Cu  Cu64  1  0.65580100  0.73028400  0.24849800  1
  Cu  Cu65  1  0.65580100  0.76971600  0.74849800  1
  Cu  Cu66  1  0.34419900  0.26971600  0.75150200  1
  Cu  Cu67  1  0.34419900  0.23028400  0.25150200  1
  Cu  Cu68  1  0.38184400  0.72821600  0.28021900  1
  Cu  Cu69  1  0.38184400  0.77178400  0.78021900  1
  Cu  Cu70  1  0.61815600  0.27178400  0.71978100  1
  Cu  Cu71  1  0.61815600  0.22821600  0.21978100  1
  Cu  Cu72  1  0.60348100  0.59432800  0.35912400  1
  Cu  Cu73  1  0.60348100  0.90567200  0.85912400  1
  Cu  Cu74  1  0.39651900  0.40567200  0.64087600  1
  Cu  Cu75  1  0.39651900  0.09432800  0.14087600  1
  Cu  Cu76  1  0.16875000  0.51427700  0.91246500  1
  Cu  Cu77  1  0.16875000  0.98572300  0.41246500  1
  Cu  Cu78  1  0.83125000  0.48572300  0.08753500  1
  Cu  Cu79  1  0.83125000  0.01427700  0.58753500  1
  Cu  Cu80  1  0.26778600  0.52349900  0.08896900  1
  Cu  Cu81  1  0.26778600  0.97650100  0.58896900  1
  Cu  Cu82  1  0.73221400  0.47650100  0.91103100  1
  Cu  Cu83  1  0.73221400  0.02349900  0.41103100  1
  Cu  Cu84  1  0.31863400  0.36267200  0.00604200  1
  Cu  Cu85  1  0.31863400  0.13732800  0.50604200  1
  Cu  Cu86  1  0.68136600  0.63732800  0.99395800  1
  Cu  Cu87  1  0.68136600  0.86267200  0.49395800  1
  C  C88  1  0.80605800  0.74240800  0.29408200  1
  C  C89  1  0.80605800  0.75759200  0.79408200  1
  C  C90  1  0.19394200  0.25759200  0.70591800  1
  C  C91  1  0.19394200  0.24240800  0.20591800  1
  C  C92  1  0.59732200  0.75819000  0.16347800  1
  C  C93  1  0.59732200  0.74181000  0.66347800  1
  C  C94  1  0.40267800  0.24181000  0.83652200  1
  C  C95  1  0.40267800  0.25819000  0.33652200  1
  C  C96  1  0.34518500  0.81097200  0.22786600  1
  C  C97  1  0.34518500  0.68902800  0.72786600  1
  C  C98  1  0.65481500  0.18902800  0.77213400  1
  C  C99  1  0.65481500  0.31097200  0.27213400  1
  C  C100  1  0.27885000  0.68594800  0.31821500  1
  C  C101  1  0.27885000  0.81405200  0.81821500  1
  C  C102  1  0.72115000  0.31405200  0.68178500  1
  C  C103  1  0.72115000  0.18594800  0.18178500  1
  C  C104  1  0.52157000  0.55988000  0.41356500  1
  C  C105  1  0.52157000  0.94012000  0.91356500  1
  C  C106  1  0.47843000  0.44012000  0.58643500  1
  C  C107  1  0.47843000  0.05988000  0.08643500  1
  C  C108  1  0.73847800  0.54974900  0.35762100  1
  C  C109  1  0.73847800  0.95025100  0.85762100  1
  C  C110  1  0.26152200  0.45025100  0.64237900  1
  C  C111  1  0.26152200  0.04974900  0.14237900  1
  C  C112  1  0.17408200  0.45512300  0.84207800  1
  C  C113  1  0.17408200  0.04487700  0.34207800  1
  C  C114  1  0.82591800  0.54487700  0.15792200  1
  C  C115  1  0.82591800  0.95512300  0.65792200  1
  C  C116  1  0.09620100  0.60597800  0.90145700  1
  C  C117  1  0.09620100  0.89402200  0.40145700  1
  C  C118  1  0.90379900  0.39402200  0.09854300  1
  C  C119  1  0.90379900  0.10597800  0.59854300  1
  C  C120  1  0.22457800  0.62163100  0.09402500  1
  C  C121  1  0.22457800  0.87836900  0.59402500  1
  C  C122  1  0.77542200  0.37836900  0.90597500  1
  C  C123  1  0.77542200  0.12163100  0.40597500  1
  C  C124  1  0.33135100  0.46530700  0.16162900  1
  C  C125  1  0.33135100  0.03469300  0.66162900  1
  C  C126  1  0.66864900  0.53469300  0.83837100  1
  C  C127  1  0.66864900  0.96530700  0.33837100  1
  C  C128  1  0.22114900  0.28363900  0.98957500  1
  C  C129  1  0.22114900  0.21636100  0.48957500  1
  C  C130  1  0.77885100  0.71636100  0.01042500  1
  C  C131  1  0.77885100  0.78363900  0.51042500  1
  C  C132  1  0.47413400  0.35604100  0.02737700  1
  C  C133  1  0.47413400  0.14395900  0.52737700  1
  C  C134  1  0.52586600  0.64395900  0.97262300  1
  C  C135  1  0.52586600  0.85604100  0.47262300  1
