# generated using pymatgen
data_Cu(NiC4)5
_symmetry_space_group_name_H-M   'P 1'
_cell_length_a   10.03091271
_cell_length_b   10.03091271
_cell_length_c   10.03091271
_cell_angle_alpha   109.40266490
_cell_angle_beta   109.40266490
_cell_angle_gamma   109.60841927
_symmetry_Int_Tables_number   1
_chemical_formula_structural   Cu(NiC4)5
_chemical_formula_sum   'Cu2 Ni10 C40'
_cell_volume   776.95809156
_cell_formula_units_Z   2
loop_
 _symmetry_equiv_pos_site_id
 _symmetry_equiv_pos_as_xyz
  1  'x, y, z'
loop_
 _atom_site_type_symbol
 _atom_site_label
 _atom_site_symmetry_multiplicity
 _atom_site_fract_x
 _atom_site_fract_y
 _atom_site_fract_z
 _atom_site_occupancy
  Ni  Ni0  1  0.08886000  0.67161100  0.82468400  1
  Ni  Ni1  1  0.92161100  0.59692700  0.08275100  1
  Ni  Ni2  1  0.51417600  0.83886000  0.91724900  1
  Ni  Ni3  1  0.84692700  0.26417600  0.17531600  1
  Ni  Ni4  1  0.16114000  0.07838900  0.67531600  1
  Ni  Ni5  1  0.32838900  0.15307300  0.41724900  1
  Ni  Ni6  1  0.73582400  0.91114000  0.58275100  1
  Ni  Ni7  1  0.40307300  0.48582400  0.32468400  1
  Ni  Ni8  1  0.25000000  0.75000000  0.50000000  1
  Ni  Ni9  1  0.00000000  0.00000000  0.00000000  1
  Cu  Cu10  1  0.50000000  0.50000000  0.00000000  1
  Cu  Cu11  1  0.75000000  0.25000000  0.50000000  1
  C  C12  1  0.41754800  0.14266500  0.08745800  1
  C  C13  1  0.39266500  0.80520700  0.22511700  1
  C  C14  1  0.19479300  0.41991000  0.58745800  1
  C  C15  1  0.66991000  0.58245200  0.72511700  1
  C  C16  1  0.85733500  0.94479300  0.27488300  1
  C  C17  1  0.83245200  0.60733500  0.41254200  1
  C  C18  1  0.05520700  0.33009000  0.91254200  1
  C  C19  1  0.58009000  0.16754800  0.77488300  1
  C  C20  1  0.25976400  0.35621700  0.73737100  1
  C  C21  1  0.60621700  0.36884600  0.59645300  1
  C  C22  1  0.77239300  0.00976400  0.40354700  1
  C  C23  1  0.61884600  0.52239300  0.26262900  1
  C  C24  1  0.99023600  0.39378300  0.76262900  1
  C  C25  1  0.64378300  0.38115400  0.90354700  1
  C  C26  1  0.47760700  0.74023600  0.09645300  1
  C  C27  1  0.63115400  0.22760700  0.23737100  1
  C  C28  1  0.97570700  0.30416800  0.45080900  1
  C  C29  1  0.55416800  0.60336000  0.82846200  1
  C  C30  1  0.77489800  0.72570700  0.17153800  1
  C  C31  1  0.85336000  0.52489800  0.54919100  1
  C  C32  1  0.27429300  0.44583200  0.04919100  1
  C  C33  1  0.69583200  0.14664000  0.67153800  1
  C  C34  1  0.47510200  0.02429300  0.32846200  1
  C  C35  1  0.39664000  0.22510200  0.95080900  1
  C  C36  1  0.25030000  0.63144100  0.67764000  1
  C  C37  1  0.88144100  0.70380000  0.88114100  1
  C  C38  1  0.82265900  0.00030000  0.11885900  1
  C  C39  1  0.95380000  0.57265900  0.32236000  1
  C  C40  1  0.32236300  0.92827300  0.96086700  1
  C  C41  1  0.17827300  0.71740600  0.10590900  1
  C  C42  1  0.61149600  0.07236300  0.89409100  1
  C  C43  1  0.96740600  0.36149600  0.03913300  1
  C  C44  1  0.92763700  0.82172700  0.53913300  1
  C  C45  1  0.07172700  0.03259400  0.39409100  1
  C  C46  1  0.63850400  0.67763700  0.60590900  1
  C  C47  1  0.28259400  0.38850400  0.46086700  1
  C  C48  1  0.29620000  0.17734100  0.17764000  1
  C  C49  1  0.42734100  0.74970000  0.38114100  1
  C  C50  1  0.36855900  0.04620000  0.61885900  1
  C  C51  1  0.99970000  0.11855900  0.82236000  1
