# generated using pymatgen
data_Cu12NiC8
_symmetry_space_group_name_H-M   'P 1'
_cell_length_a   9.71814213
_cell_length_b   9.71814213
_cell_length_c   6.82226700
_cell_angle_alpha   90.00000000
_cell_angle_beta   90.00000000
_cell_angle_gamma   120.00000089
_symmetry_Int_Tables_number   1
_chemical_formula_structural   Cu12NiC8
_chemical_formula_sum   'Cu24 Ni2 C16'
_cell_volume   557.98925104
_cell_formula_units_Z   2
loop_
 _symmetry_equiv_pos_site_id
 _symmetry_equiv_pos_as_xyz
  1  'x, y, z'
loop_
 _atom_site_type_symbol
 _atom_site_label
 _atom_site_symmetry_multiplicity
 _atom_site_fract_x
 _atom_site_fract_y
 _atom_site_fract_z
 _atom_site_occupancy
  C  C0  1  0.33333300  0.66666700  0.00178500  1
  C  C1  1  0.66666700  0.33333300  0.99821500  1
  C  C2  1  0.66666700  0.33333300  0.50178500  1
  C  C3  1  0.33333300  0.66666700  0.49821500  1
  C  C4  1  0.26254400  0.25877400  0.25000000  1
  C  C5  1  0.73745600  0.74122600  0.75000000  1
  C  C6  1  0.74122600  0.00377000  0.25000000  1
  C  C7  1  0.25877400  0.99623000  0.75000000  1
  C  C8  1  0.99623000  0.73745600  0.25000000  1
  C  C9  1  0.00377000  0.26254400  0.75000000  1
  C  C10  1  0.40123200  0.03176600  0.25000000  1
  C  C11  1  0.59876800  0.96823400  0.75000000  1
  C  C12  1  0.96823400  0.36946500  0.25000000  1
  C  C13  1  0.03176600  0.63053500  0.75000000  1
  C  C14  1  0.63053500  0.59876800  0.25000000  1
  C  C15  1  0.36946500  0.40123200  0.75000000  1
  Ni  Ni16  1  0.00000000  0.00000000  0.25000000  1
  Ni  Ni17  1  0.00000000  0.00000000  0.75000000  1
  Cu  Cu18  1  0.14994800  0.48600400  0.25000000  1
  Cu  Cu19  1  0.85005200  0.51399600  0.75000000  1
  Cu  Cu20  1  0.51399600  0.66394400  0.25000000  1
  Cu  Cu21  1  0.48600400  0.33605600  0.75000000  1
  Cu  Cu22  1  0.33605600  0.85005200  0.25000000  1
  Cu  Cu23  1  0.66394400  0.14994800  0.75000000  1
  Cu  Cu24  1  0.58763600  0.12612900  0.25000000  1
  Cu  Cu25  1  0.41236400  0.87387100  0.75000000  1
  Cu  Cu26  1  0.87387100  0.46150700  0.25000000  1
  Cu  Cu27  1  0.12612900  0.53849300  0.75000000  1
  Cu  Cu28  1  0.53849300  0.41236400  0.25000000  1
  Cu  Cu29  1  0.46150700  0.58763600  0.75000000  1
  Cu  Cu30  1  0.34794900  0.08783800  0.06664500  1
  Cu  Cu31  1  0.65205100  0.91216200  0.93335500  1
  Cu  Cu32  1  0.91216200  0.26011100  0.06664500  1
  Cu  Cu33  1  0.65205100  0.91216200  0.56664500  1
  Cu  Cu34  1  0.08783800  0.73988900  0.93335500  1
  Cu  Cu35  1  0.34794900  0.08783800  0.43335500  1
  Cu  Cu36  1  0.73988900  0.65205100  0.06664500  1
  Cu  Cu37  1  0.08783800  0.73988900  0.56664500  1
  Cu  Cu38  1  0.26011100  0.34794900  0.93335500  1
  Cu  Cu39  1  0.91216200  0.26011100  0.43335500  1
  Cu  Cu40  1  0.26011100  0.34794900  0.56664500  1
  Cu  Cu41  1  0.73988900  0.65205100  0.43335500  1
