# generated using pymatgen
data_Cu(Ni4C7)2
_symmetry_space_group_name_H-M   'P 1'
_cell_length_a   12.24640000
_cell_length_b   5.66519100
_cell_length_c   18.60326500
_cell_angle_alpha   90.00000000
_cell_angle_beta   90.00000000
_cell_angle_gamma   90.00000000
_symmetry_Int_Tables_number   1
_chemical_formula_structural   Cu(Ni4C7)2
_chemical_formula_sum   'Cu2 Ni16 C28'
_cell_volume   1290.66094797
_cell_formula_units_Z   2
loop_
 _symmetry_equiv_pos_site_id
 _symmetry_equiv_pos_as_xyz
  1  'x, y, z'
loop_
 _atom_site_type_symbol
 _atom_site_label
 _atom_site_symmetry_multiplicity
 _atom_site_fract_x
 _atom_site_fract_y
 _atom_site_fract_z
 _atom_site_occupancy
  Ni  Ni0  1  0.00000000  0.11326900  0.47233400  1
  Ni  Ni1  1  0.00000000  0.85563200  0.86214200  1
  Ni  Ni2  1  0.50000000  0.24873300  0.37471300  1
  Ni  Ni3  1  0.50000000  0.31951300  0.05223300  1
  Ni  Ni4  1  0.50000000  0.17936100  0.19877200  1
  Ni  Ni5  1  0.50000000  0.18191000  0.69891000  1
  Ni  Ni6  1  0.50000000  0.31825600  0.55005500  1
  Ni  Ni7  1  0.50000000  0.74873300  0.12528700  1
  Ni  Ni8  1  0.50000000  0.67936100  0.30122800  1
  Ni  Ni9  1  0.50000000  0.81825600  0.94994500  1
  Ni  Ni10  1  0.50000000  0.81951300  0.44776700  1
  Ni  Ni11  1  0.50000000  0.68191000  0.80109000  1
  Ni  Ni12  1  0.00000000  0.11065500  0.12114800  1
  Ni  Ni13  1  0.00000000  0.61065500  0.37885200  1
  Ni  Ni14  1  0.00000000  0.35563200  0.63785800  1
  Ni  Ni15  1  0.00000000  0.61326900  0.02766600  1
  Cu  Cu16  1  0.50000000  0.75061500  0.62450500  1
  Cu  Cu17  1  0.50000000  0.25061500  0.87549500  1
  C  C18  1  0.00000000  0.33390800  0.05963100  1
  C  C19  1  0.00000000  0.82971600  0.09077500  1
  C  C20  1  0.00000000  0.83390800  0.44036900  1
  C  C21  1  0.00000000  0.80030400  0.77112200  1
  C  C22  1  0.00000000  0.68017400  0.93832400  1
  C  C23  1  0.50000000  0.45307300  0.64311300  1
  C  C24  1  0.50000000  0.64459900  0.03112700  1
  C  C25  1  0.50000000  0.55242400  0.39468000  1
  C  C26  1  0.50000000  0.84851700  0.71697400  1
  C  C27  1  0.50000000  0.35122700  0.28109600  1
  C  C28  1  0.50000000  0.04882400  0.60739000  1
  C  C29  1  0.50000000  0.05242400  0.10532000  1
  C  C30  1  0.50000000  0.14459900  0.46887300  1
  C  C31  1  0.50000000  0.15494300  0.96661500  1
  C  C32  1  0.50000000  0.44482000  0.14450000  1
  C  C33  1  0.50000000  0.94482000  0.35550000  1
  C  C34  1  0.50000000  0.85122700  0.21890400  1
  C  C35  1  0.50000000  0.65494300  0.53338500  1
  C  C36  1  0.50000000  0.95307300  0.85688700  1
  C  C37  1  0.50000000  0.34851700  0.78302600  1
  C  C38  1  0.50000000  0.54882400  0.89261000  1
  C  C39  1  0.00000000  0.14510700  0.21338400  1
  C  C40  1  0.00000000  0.13441900  0.89997900  1
  C  C41  1  0.00000000  0.18017400  0.56167600  1
  C  C42  1  0.00000000  0.32971600  0.40922500  1
  C  C43  1  0.00000000  0.30030400  0.72887800  1
  C  C44  1  0.00000000  0.64510700  0.28661600  1
  C  C45  1  0.00000000  0.63441900  0.60002100  1
