# generated using pymatgen
data_CuNiC
_symmetry_space_group_name_H-M   'P 1'
_cell_length_a   5.85085600
_cell_length_b   5.85085600
_cell_length_c   5.85085600
_cell_angle_alpha   90.00000000
_cell_angle_beta   90.00000000
_cell_angle_gamma   90.00000000
_symmetry_Int_Tables_number   1
_chemical_formula_structural   CuNiC
_chemical_formula_sum   'Cu4 Ni4 C4'
_cell_volume   200.28952124
_cell_formula_units_Z   4
loop_
 _symmetry_equiv_pos_site_id
 _symmetry_equiv_pos_as_xyz
  1  'x, y, z'
loop_
 _atom_site_type_symbol
 _atom_site_label
 _atom_site_symmetry_multiplicity
 _atom_site_fract_x
 _atom_site_fract_y
 _atom_site_fract_z
 _atom_site_occupancy
  Ni  Ni0  1  0.11691300  0.88308700  0.38308700  1
  Ni  Ni1  1  0.88308700  0.38308700  0.11691300  1
  Ni  Ni2  1  0.38308700  0.11691300  0.88308700  1
  Ni  Ni3  1  0.61691300  0.61691300  0.61691300  1
  C  C4  1  0.49615700  0.50384300  0.00384300  1
  C  C5  1  0.50384300  0.00384300  0.49615700  1
  C  C6  1  0.00384300  0.49615700  0.50384300  1
  C  C7  1  0.99615700  0.99615700  0.99615700  1
  Cu  Cu8  1  0.88600700  0.11399300  0.61399300  1
  Cu  Cu9  1  0.11399300  0.61399300  0.88600700  1
  Cu  Cu10  1  0.61399300  0.88600700  0.11399300  1
  Cu  Cu11  1  0.38600700  0.38600700  0.38600700  1
