# generated using pymatgen
data_Cu2NiC2
_symmetry_space_group_name_H-M   'P 1'
_cell_length_a   7.65299600
_cell_length_b   10.98043000
_cell_length_c   10.99046198
_cell_angle_alpha   88.23793285
_cell_angle_beta   90.00000000
_cell_angle_gamma   90.00000000
_symmetry_Int_Tables_number   1
_chemical_formula_structural   Cu2NiC2
_chemical_formula_sum   'Cu16 Ni8 C16'
_cell_volume   923.12682654
_cell_formula_units_Z   8
loop_
 _symmetry_equiv_pos_site_id
 _symmetry_equiv_pos_as_xyz
  1  'x, y, z'
loop_
 _atom_site_type_symbol
 _atom_site_label
 _atom_site_symmetry_multiplicity
 _atom_site_fract_x
 _atom_site_fract_y
 _atom_site_fract_z
 _atom_site_occupancy
  C  C0  1  0.82620300  0.83392100  0.17377200  1
  C  C1  1  0.32620300  0.16607900  0.32622800  1
  C  C2  1  0.17379700  0.16607900  0.82622800  1
  C  C3  1  0.67379700  0.83392100  0.67377200  1
  C  C4  1  0.82035200  0.58584300  0.91848600  1
  C  C5  1  0.32035200  0.41415700  0.58151400  1
  C  C6  1  0.17964800  0.41415700  0.08151400  1
  C  C7  1  0.67964800  0.58584300  0.41848600  1
  C  C8  1  0.32625400  0.91122100  0.09446300  1
  C  C9  1  0.82625400  0.08877900  0.40553700  1
  C  C10  1  0.67374600  0.08877900  0.90553700  1
  C  C11  1  0.17374600  0.91122100  0.59446300  1
  C  C12  1  0.17633900  0.66658600  0.34259500  1
  C  C13  1  0.67633900  0.33341400  0.15740500  1
  C  C14  1  0.82366100  0.33341400  0.65740500  1
  C  C15  1  0.32366100  0.66658600  0.84259500  1
  Ni  Ni16  1  0.99716300  0.87356500  0.88740300  1
  Ni  Ni17  1  0.49716300  0.12643500  0.61259700  1
  Ni  Ni18  1  0.00283700  0.12643500  0.11259700  1
  Ni  Ni19  1  0.50283700  0.87356500  0.38740300  1
  Ni  Ni20  1  0.99914200  0.62088100  0.63285000  1
  Ni  Ni21  1  0.49914200  0.37911900  0.86715000  1
  Ni  Ni22  1  0.00085800  0.37911900  0.36715000  1
  Ni  Ni23  1  0.50085800  0.62088100  0.13285000  1
  Cu  Cu24  1  0.63075000  0.82120900  0.94440100  1
  Cu  Cu25  1  0.13075000  0.17879100  0.55559900  1
  Cu  Cu26  1  0.36925000  0.17879100  0.05559900  1
  Cu  Cu27  1  0.86925000  0.82120900  0.44440100  1
  Cu  Cu28  1  0.87176400  0.32095400  0.92597000  1
  Cu  Cu29  1  0.37176400  0.67904600  0.57403000  1
  Cu  Cu30  1  0.12823600  0.67904600  0.07403000  1
  Cu  Cu31  1  0.62823600  0.32095400  0.42597000  1
  Cu  Cu32  1  0.86335900  0.06781200  0.66748200  1
  Cu  Cu33  1  0.36335900  0.93218800  0.83251800  1
  Cu  Cu34  1  0.13664100  0.93218800  0.33251800  1
  Cu  Cu35  1  0.63664100  0.06781200  0.16748200  1
  Cu  Cu36  1  0.62376600  0.56230300  0.68589000  1
  Cu  Cu37  1  0.12376600  0.43769700  0.81411000  1
  Cu  Cu38  1  0.37623400  0.43769700  0.31411000  1
  Cu  Cu39  1  0.87623400  0.56230300  0.18589000  1
