# generated using pymatgen
data_Cu(NiC)4
_symmetry_space_group_name_H-M   'P 1'
_cell_length_a   7.42129025
_cell_length_b   7.42129025
_cell_length_c   7.42129025
_cell_angle_alpha   125.15455298
_cell_angle_beta   125.15455298
_cell_angle_gamma   81.28219746
_symmetry_Int_Tables_number   1
_chemical_formula_structural   Cu(NiC)4
_chemical_formula_sum   'Cu2 Ni8 C8'
_cell_volume   263.13892999
_cell_formula_units_Z   2
loop_
 _symmetry_equiv_pos_site_id
 _symmetry_equiv_pos_as_xyz
  1  'x, y, z'
loop_
 _atom_site_type_symbol
 _atom_site_label
 _atom_site_symmetry_multiplicity
 _atom_site_fract_x
 _atom_site_fract_y
 _atom_site_fract_z
 _atom_site_occupancy
  C  C0  1  0.83125600  0.33125600  0.16251300  1
  C  C1  1  0.33125600  0.16874400  0.50000000  1
  C  C2  1  0.66874400  0.83125600  0.50000000  1
  C  C3  1  0.16874400  0.66874400  0.83748700  1
  C  C4  1  0.25000000  0.25000000  0.00000000  1
  C  C5  1  0.75000000  0.75000000  0.00000000  1
  C  C6  1  0.75000000  0.25000000  0.50000000  1
  C  C7  1  0.25000000  0.75000000  0.50000000  1
  Ni  Ni8  1  0.50583000  0.00583000  0.21550600  1
  Ni  Ni9  1  0.20967500  0.70967500  0.21550600  1
  Ni  Ni10  1  0.49417000  0.99417000  0.78449400  1
  Ni  Ni11  1  0.99417000  0.20967500  0.50000000  1
  Ni  Ni12  1  0.70967500  0.49417000  0.50000000  1
  Ni  Ni13  1  0.00583000  0.79032500  0.50000000  1
  Ni  Ni14  1  0.29032500  0.50583000  0.50000000  1
  Ni  Ni15  1  0.79032500  0.29032500  0.78449400  1
  Cu  Cu16  1  0.50000000  0.50000000  0.00000000  1
  Cu  Cu17  1  0.00000000  0.00000000  0.00000000  1
