# generated using pymatgen
data_CuNiC13
_symmetry_space_group_name_H-M   'P 1'
_cell_length_a   5.99900189
_cell_length_b   5.99900189
_cell_length_c   14.99863900
_cell_angle_alpha   90.00000000
_cell_angle_beta   90.00000000
_cell_angle_gamma   119.99999876
_symmetry_Int_Tables_number   1
_chemical_formula_structural   CuNiC13
_chemical_formula_sum   'Cu2 Ni2 C26'
_cell_volume   467.45572887
_cell_formula_units_Z   2
loop_
 _symmetry_equiv_pos_site_id
 _symmetry_equiv_pos_as_xyz
  1  'x, y, z'
loop_
 _atom_site_type_symbol
 _atom_site_label
 _atom_site_symmetry_multiplicity
 _atom_site_fract_x
 _atom_site_fract_y
 _atom_site_fract_z
 _atom_site_occupancy
  C  C0  1  0.00000000  0.00000000  0.74618400  1
  C  C1  1  0.00000000  0.00000000  0.24618400  1
  C  C2  1  0.66666700  0.33333300  0.39852900  1
  C  C3  1  0.33333300  0.66666700  0.60483300  1
  C  C4  1  0.33333300  0.66666700  0.89852900  1
  C  C5  1  0.66666700  0.33333300  0.10483300  1
  C  C6  1  0.00000000  0.00000000  0.50163600  1
  C  C7  1  0.00000000  0.00000000  0.00163600  1
  Ni  Ni8  1  0.66666700  0.33333300  0.64621000  1
  Ni  Ni9  1  0.33333300  0.66666700  0.14621000  1
  Cu  Cu10  1  0.33333300  0.66666700  0.33899000  1
  Cu  Cu11  1  0.66666700  0.33333300  0.83899000  1
  C  C12  1  0.51753600  0.03507200  0.75437900  1
  C  C13  1  0.51753600  0.48246400  0.75437900  1
  C  C14  1  0.96492800  0.48246400  0.75437900  1
  C  C15  1  0.48246400  0.96492800  0.25437900  1
  C  C16  1  0.48246400  0.51753600  0.25437900  1
  C  C17  1  0.03507200  0.51753600  0.25437900  1
  C  C18  1  0.82269200  0.64538400  0.90734200  1
  C  C19  1  0.82269200  0.17730800  0.90734200  1
  C  C20  1  0.35461600  0.17730800  0.90734200  1
  C  C21  1  0.17482600  0.34965300  0.09281900  1
  C  C22  1  0.17482600  0.82517400  0.09281900  1
  C  C23  1  0.65034700  0.82517400  0.09281900  1
  C  C24  1  0.17730800  0.35461600  0.40734200  1
  C  C25  1  0.17730800  0.82269200  0.40734200  1
  C  C26  1  0.64538400  0.82269200  0.40734200  1
  C  C27  1  0.82517400  0.65034700  0.59281900  1
  C  C28  1  0.82517400  0.17482600  0.59281900  1
  C  C29  1  0.34965300  0.17482600  0.59281900  1
