# generated using pymatgen
data_CuNiC6
_symmetry_space_group_name_H-M   'P 1'
_cell_length_a   5.79153400
_cell_length_b   7.34814700
_cell_length_c   8.61101700
_cell_angle_alpha   90.00000000
_cell_angle_beta   90.00000000
_cell_angle_gamma   90.00000000
_symmetry_Int_Tables_number   1
_chemical_formula_structural   CuNiC6
_chemical_formula_sum   'Cu4 Ni4 C24'
_cell_volume   366.45942236
_cell_formula_units_Z   4
loop_
 _symmetry_equiv_pos_site_id
 _symmetry_equiv_pos_as_xyz
  1  'x, y, z'
loop_
 _atom_site_type_symbol
 _atom_site_label
 _atom_site_symmetry_multiplicity
 _atom_site_fract_x
 _atom_site_fract_y
 _atom_site_fract_z
 _atom_site_occupancy
  C  C0  1  0.50000000  0.36602000  0.33078200  1
  C  C1  1  0.50000000  0.63398000  0.66921800  1
  C  C2  1  0.50000000  0.13398000  0.83078200  1
  C  C3  1  0.50000000  0.86602000  0.16921800  1
  Ni  Ni4  1  0.25077400  0.00000000  0.50000000  1
  Ni  Ni5  1  0.74922600  0.00000000  0.50000000  1
  Ni  Ni6  1  0.74922600  0.50000000  0.00000000  1
  Ni  Ni7  1  0.25077400  0.50000000  0.00000000  1
  Cu  Cu8  1  0.00000000  0.10712200  0.14615700  1
  Cu  Cu9  1  0.00000000  0.89287800  0.85384300  1
  Cu  Cu10  1  0.00000000  0.39287800  0.64615700  1
  Cu  Cu11  1  0.00000000  0.60712200  0.35384300  1
  C  C12  1  0.50000000  0.33825100  0.05738600  1
  C  C13  1  0.50000000  0.66174900  0.94261400  1
  C  C14  1  0.50000000  0.16174900  0.55738600  1
  C  C15  1  0.50000000  0.83825100  0.44261400  1
  C  C16  1  0.23324100  0.00000000  0.00000000  1
  C  C17  1  0.76675900  0.00000000  0.00000000  1
  C  C18  1  0.76675900  0.50000000  0.50000000  1
  C  C19  1  0.23324100  0.50000000  0.50000000  1
  C  C20  1  0.25961700  0.10586100  0.29502000  1
  C  C21  1  0.74038300  0.89413900  0.70498000  1
  C  C22  1  0.25961700  0.89413900  0.70498000  1
  C  C23  1  0.74038300  0.39413900  0.79502000  1
  C  C24  1  0.74038300  0.10586100  0.29502000  1
  C  C25  1  0.25961700  0.60586100  0.20498000  1
  C  C26  1  0.74038300  0.60586100  0.20498000  1
  C  C27  1  0.25961700  0.39413900  0.79502000  1
  C  C28  1  0.00000000  0.34969700  0.07065700  1
  C  C29  1  0.00000000  0.65030300  0.92934300  1
  C  C30  1  0.00000000  0.15030300  0.57065700  1
  C  C31  1  0.00000000  0.84969700  0.42934300  1
