# generated using pymatgen
data_Cu2NiC4
_symmetry_space_group_name_H-M   'P 1'
_cell_length_a   7.21224640
_cell_length_b   7.21224640
_cell_length_c   21.86765146
_cell_angle_alpha   78.04189300
_cell_angle_beta   78.04189300
_cell_angle_gamma   53.99582112
_symmetry_Int_Tables_number   1
_chemical_formula_structural   Cu2NiC4
_chemical_formula_sum   'Cu16 Ni8 C32'
_cell_volume   894.96596015
_cell_formula_units_Z   8
loop_
 _symmetry_equiv_pos_site_id
 _symmetry_equiv_pos_as_xyz
  1  'x, y, z'
loop_
 _atom_site_type_symbol
 _atom_site_label
 _atom_site_symmetry_multiplicity
 _atom_site_fract_x
 _atom_site_fract_y
 _atom_site_fract_z
 _atom_site_occupancy
  Ni  Ni0  1  0.58811200  0.58811200  0.03098400  1
  Ni  Ni1  1  0.13564200  0.13564200  0.09601500  1
  Ni  Ni2  1  0.87955000  0.87955000  0.29353400  1
  Ni  Ni3  1  0.34402400  0.34402400  0.37928300  1
  Ni  Ni4  1  0.58416500  0.58416500  0.64961400  1
  Ni  Ni5  1  0.52681300  0.52681300  0.51287200  1
  Ni  Ni6  1  0.90898000  0.90898000  0.85231400  1
  Ni  Ni7  1  0.72535600  0.72535600  0.73974200  1
  Cu  Cu8  1  0.62242900  0.11313900  0.11948000  1
  Cu  Cu9  1  0.32372200  0.32372200  0.24592500  1
  Cu  Cu10  1  0.11313900  0.62242900  0.11948000  1
  Cu  Cu11  1  0.16777800  0.16777800  0.53120900  1
  Cu  Cu12  1  0.83321400  0.34674500  0.37818400  1
  Cu  Cu13  1  0.62925800  0.62925800  0.20395900  1
  Cu  Cu14  1  0.41967300  0.41967300  0.80180500  1
  Cu  Cu15  1  0.34674500  0.83321400  0.37818400  1
  Cu  Cu16  1  0.12461000  0.62412700  0.62449100  1
  Cu  Cu17  1  0.87792000  0.87792000  0.46210500  1
  Cu  Cu18  1  0.62412700  0.12461000  0.62449100  1
  Cu  Cu19  1  0.92642800  0.42618900  0.88082300  1
  Cu  Cu20  1  0.42618900  0.92642800  0.88082300  1
  Cu  Cu21  1  0.08510500  0.08510500  0.70425400  1
  Cu  Cu22  1  0.98391200  0.98391200  0.97908300  1
  Cu  Cu23  1  0.39054200  0.39054200  0.96379200  1
  C  C24  1  0.26303700  0.80282600  0.06137600  1
  C  C25  1  0.88599100  0.88599100  0.17837000  1
  C  C26  1  0.80282600  0.26303700  0.06137600  1
  C  C27  1  0.85353700  0.85353700  0.05867900  1
  C  C28  1  0.47723400  0.47723400  0.19707600  1
  C  C29  1  0.55225400  0.11751200  0.30809600  1
  C  C30  1  0.45404200  0.91250800  0.14509900  1
  C  C31  1  0.20485900  0.20485900  0.43542600  1
  C  C32  1  0.11751200  0.55225400  0.30809600  1
  C  C33  1  0.29178800  0.29178800  0.05064600  1
  C  C34  1  0.96569100  0.96569100  0.36246900  1
  C  C35  1  0.91250800  0.45404200  0.14509900  1
  C  C36  1  0.74440900  0.32888500  0.58424200  1
  C  C37  1  0.64114500  0.64114500  0.42822700  1
  C  C38  1  0.75719700  0.21224200  0.46176300  1
  C  C39  1  0.43490000  0.43490000  0.71048600  1
  C  C40  1  0.32888500  0.74440900  0.58424200  1
  C  C41  1  0.49895500  0.49895500  0.35690800  1
  C  C42  1  0.31615300  0.31615300  0.53939600  1
  C  C43  1  0.21224200  0.75719700  0.46176300  1
  C  C44  1  0.87736800  0.87736800  0.68408900  1
  C  C45  1  0.06246800  0.57816200  0.81655500  1
  C  C46  1  0.89547000  0.44658300  0.68955600  1
  C  C47  1  0.68597800  0.68597800  0.94024100  1
  C  C48  1  0.57816200  0.06246800  0.81655500  1
  C  C49  1  0.86278600  0.86278600  0.56591300  1
  C  C50  1  0.64707800  0.64707800  0.82745800  1
  C  C51  1  0.44658300  0.89547000  0.68955600  1
  C  C52  1  0.26827700  0.26827700  0.92236400  1
  C  C53  1  0.10380900  0.71557700  0.92963000  1
  C  C54  1  0.05379400  0.05379400  0.79717300  1
  C  C55  1  0.71557700  0.10380900  0.92963000  1
