# generated using pymatgen
data_CuNiC20
_symmetry_space_group_name_H-M   'P 1'
_cell_length_a   7.91467282
_cell_length_b   7.91467282
_cell_length_c   9.87817700
_cell_angle_alpha   90.00000000
_cell_angle_beta   90.00000000
_cell_angle_gamma   112.08947758
_symmetry_Int_Tables_number   1
_chemical_formula_structural   CuNiC20
_chemical_formula_sum   'Cu2 Ni2 C40'
_cell_volume   573.36867011
_cell_formula_units_Z   2
loop_
 _symmetry_equiv_pos_site_id
 _symmetry_equiv_pos_as_xyz
  1  'x, y, z'
loop_
 _atom_site_type_symbol
 _atom_site_label
 _atom_site_symmetry_multiplicity
 _atom_site_fract_x
 _atom_site_fract_y
 _atom_site_fract_z
 _atom_site_occupancy
  Ni  Ni0  1  0.00000000  0.00000000  0.50000000  1
  Ni  Ni1  1  0.00000000  0.00000000  0.00000000  1
  Cu  Cu2  1  0.36391100  0.63608900  0.25000000  1
  Cu  Cu3  1  0.63608900  0.36391100  0.75000000  1
  C  C4  1  0.25805200  0.74194800  0.04399100  1
  C  C5  1  0.74194800  0.25805200  0.95600900  1
  C  C6  1  0.25805200  0.74194800  0.45600900  1
  C  C7  1  0.74194800  0.25805200  0.54399100  1
  C  C8  1  0.24608200  0.29720200  0.25000000  1
  C  C9  1  0.29720200  0.24608200  0.75000000  1
  C  C10  1  0.75391800  0.70279800  0.75000000  1
  C  C11  1  0.70279800  0.75391800  0.25000000  1
  C  C12  1  0.13023900  0.64332300  0.11600400  1
  C  C13  1  0.64332300  0.13023900  0.88399600  1
  C  C14  1  0.13023900  0.64332300  0.38399600  1
  C  C15  1  0.64332300  0.13023900  0.61600400  1
  C  C16  1  0.86976100  0.35667700  0.88399600  1
  C  C17  1  0.35667700  0.86976100  0.11600400  1
  C  C18  1  0.86976100  0.35667700  0.61600400  1
  C  C19  1  0.35667700  0.86976100  0.38399600  1
  C  C20  1  0.34058100  0.36262800  0.14899000  1
  C  C21  1  0.36262800  0.34058100  0.85101000  1
  C  C22  1  0.34058100  0.36262800  0.35101000  1
  C  C23  1  0.36262800  0.34058100  0.64899000  1
  C  C24  1  0.65941900  0.63737200  0.85101000  1
  C  C25  1  0.63737200  0.65941900  0.14899000  1
  C  C26  1  0.65941900  0.63737200  0.64899000  1
  C  C27  1  0.63737200  0.65941900  0.35101000  1
  C  C28  1  0.20467200  0.79532800  0.94487200  1
  C  C29  1  0.79532800  0.20467200  0.05512800  1
  C  C30  1  0.20467200  0.79532800  0.55512800  1
  C  C31  1  0.79532800  0.20467200  0.44487200  1
  C  C32  1  0.34958600  0.65041400  0.01344300  1
  C  C33  1  0.65041400  0.34958600  0.98655700  1
  C  C34  1  0.34958600  0.65041400  0.48655700  1
  C  C35  1  0.65041400  0.34958600  0.51344300  1
  C  C36  1  0.19650100  0.13257800  0.25000000  1
  C  C37  1  0.13257800  0.19650100  0.75000000  1
  C  C38  1  0.80349900  0.86742200  0.75000000  1
  C  C39  1  0.86742200  0.80349900  0.25000000  1
  C  C40  1  0.11757800  0.35052500  0.25000000  1
  C  C41  1  0.35052500  0.11757800  0.75000000  1
  C  C42  1  0.88242200  0.64947500  0.75000000  1
  C  C43  1  0.64947500  0.88242200  0.25000000  1
