# generated using pymatgen
data_Cu10NiC13
_symmetry_space_group_name_H-M   'P 1'
_cell_length_a   13.19062998
_cell_length_b   13.19062998
_cell_length_c   13.19062998
_cell_angle_alpha   89.54316388
_cell_angle_beta   89.54316388
_cell_angle_gamma   89.54316388
_symmetry_Int_Tables_number   1
_chemical_formula_structural   Cu10NiC13
_chemical_formula_sum   'Cu80 Ni8 C104'
_cell_volume   2294.85587588
_cell_formula_units_Z   8
loop_
 _symmetry_equiv_pos_site_id
 _symmetry_equiv_pos_as_xyz
  1  'x, y, z'
loop_
 _atom_site_type_symbol
 _atom_site_label
 _atom_site_symmetry_multiplicity
 _atom_site_fract_x
 _atom_site_fract_y
 _atom_site_fract_z
 _atom_site_occupancy
  C  C0  1  0.00000000  0.00000000  0.50000000  1
  C  C1  1  0.00000000  0.50000000  0.00000000  1
  C  C2  1  0.50000000  0.00000000  0.00000000  1
  C  C3  1  0.50000000  0.50000000  0.50000000  1
  C  C4  1  0.50000000  0.50000000  0.00000000  1
  C  C5  1  0.50000000  0.00000000  0.50000000  1
  C  C6  1  0.00000000  0.50000000  0.50000000  1
  C  C7  1  0.00000000  0.00000000  0.00000000  1
  C  C8  1  0.33322811  0.11869791  0.26364028  1
  C  C9  1  0.66756967  0.61984711  0.24941742  1
  C  C10  1  0.16923787  0.87881841  0.75470363  1
  C  C11  1  0.83047008  0.37758402  0.74919482  1
  C  C12  1  0.26364028  0.33322811  0.11869791  1
  C  C13  1  0.24941742  0.66756967  0.61984711  1
  C  C14  1  0.75470363  0.16923787  0.87881841  1
  C  C15  1  0.74919482  0.83047008  0.37758402  1
  C  C16  1  0.11869791  0.26364028  0.33322811  1
  C  C17  1  0.61984711  0.24941742  0.66756967  1
  C  C18  1  0.87881841  0.75470363  0.16923787  1
  C  C19  1  0.37758402  0.74919482  0.83047008  1
  C  C20  1  0.66677189  0.88130209  0.73635972  1
  C  C21  1  0.33243033  0.38015289  0.75058258  1
  C  C22  1  0.83076213  0.12118159  0.24529637  1
  C  C23  1  0.16952992  0.62241598  0.25080518  1
  C  C24  1  0.73635972  0.66677189  0.88130209  1
  C  C25  1  0.75058258  0.33243033  0.38015289  1
  C  C26  1  0.24529637  0.83076213  0.12118159  1
  C  C27  1  0.25080518  0.16952992  0.62241598  1
  C  C28  1  0.88130209  0.73635972  0.66677189  1
  C  C29  1  0.38015289  0.75058258  0.33243033  1
  C  C30  1  0.12118159  0.24529637  0.83076213  1
  C  C31  1  0.62241598  0.25080518  0.16952992  1
  C  C32  1  0.50578706  0.27213875  0.18314380  1
  C  C33  1  0.49626890  0.77078175  0.32099986  1
  C  C34  1  0.99834626  0.71907790  0.68725250  1
  C  C35  1  0.00440160  0.22642626  0.81701381  1
  C  C36  1  0.18314380  0.50578706  0.27213875  1
  C  C37  1  0.32099986  0.49626890  0.77078175  1
  C  C38  1  0.68725250  0.99834626  0.71907790  1
  C  C39  1  0.81701381  0.00440160  0.22642626  1
  C  C40  1  0.27213875  0.18314380  0.50578706  1
  C  C41  1  0.77078175  0.32099986  0.49626890  1
  C  C42  1  0.71907790  0.68725250  0.99834626  1
  C  C43  1  0.22642626  0.81701381  0.00440160  1
  C  C44  1  0.49421294  0.72786125  0.81685620  1
  C  C45  1  0.50373110  0.22921825  0.67900014  1
  C  C46  1  0.00165374  0.28092210  0.31274750  1
  C  C47  1  0.99559840  0.77357374  0.18298619  1
  C  C48  1  0.81685620  0.49421294  0.72786125  1
  C  C49  1  0.67900014  0.50373110  0.22921825  1
  C  C50  1  0.31274750  0.00165374  0.28092210  1
  C  C51  1  0.18298619  0.99559840  0.77357374  1
  C  C52  1  0.72786125  0.81685620  0.49421294  1
  C  C53  1  0.22921825  0.67900014  0.50373110  1
  C  C54  1  0.28092210  0.31274750  0.00165374  1
  C  C55  1  0.77357374  0.18298619  0.99559840  1
  C  C56  1  0.16630109  0.18293530  0.05328149  1
  C  C57  1  0.82936746  0.68049304  0.44714679  1
  C  C58  1  0.33078618  0.81818754  0.54906674  1
  C  C59  1  0.66672830  0.31879219  0.94923789  1
  C  C60  1  0.05328149  0.16630109  0.18293530  1
  C  C61  1  0.44714679  0.82936746  0.68049304  1
  C  C62  1  0.54906674  0.33078618  0.81818754  1
  C  C63  1  0.94923789  0.66672830  0.31879219  1
  C  C64  1  0.18293530  0.05328149  0.16630109  1
  C  C65  1  0.68049304  0.44714679  0.82936746  1
  C  C66  1  0.81818754  0.54906674  0.33078618  1
  C  C67  1  0.31879219  0.94923789  0.66672830  1
  C  C68  1  0.83369891  0.81706470  0.94671851  1
  C  C69  1  0.17063254  0.31950696  0.55285321  1
  C  C70  1  0.66921382  0.18181246  0.45093326  1
  C  C71  1  0.33327170  0.68120781  0.05076211  1
  C  C72  1  0.94671851  0.83369891  0.81706470  1
  C  C73  1  0.55285321  0.17063254  0.31950696  1
  C  C74  1  0.45093326  0.66921382  0.18181246  1
  C  C75  1  0.05076211  0.33327170  0.68120781  1
  C  C76  1  0.81706470  0.94671851  0.83369891  1
  C  C77  1  0.31950696  0.55285321  0.17063254  1
  C  C78  1  0.18181246  0.45093326  0.66921382  1
  C  C79  1  0.68120781  0.05076211  0.33327170  1
  C  C80  1  0.15739691  0.03755531  0.21495112  1
  C  C81  1  0.84754500  0.53704924  0.28335301  1
  C  C82  1  0.34591605  0.96315056  0.71441538  1
  C  C83  1  0.65492649  0.46265532  0.78086291  1
  C  C84  1  0.21495112  0.15739691  0.03755531  1
  C  C85  1  0.28335301  0.84754500  0.53704924  1
  C  C86  1  0.71441538  0.34591605  0.96315056  1
  C  C87  1  0.78086291  0.65492649  0.46265532  1
  C  C88  1  0.03755531  0.21495112  0.15739691  1
  C  C89  1  0.53704924  0.28335301  0.84754500  1
  C  C90  1  0.96315056  0.71441538  0.34591605  1
  C  C91  1  0.46265532  0.78086291  0.65492649  1
  C  C92  1  0.84260309  0.96244469  0.78504888  1
  C  C93  1  0.15245500  0.46295076  0.71664699  1
  C  C94  1  0.65408395  0.03684944  0.28558462  1
  C  C95  1  0.34507351  0.53734468  0.21913709  1
  C  C96  1  0.78504888  0.84260309  0.96244469  1
  C  C97  1  0.71664699  0.15245500  0.46295076  1
  C  C98  1  0.28558462  0.65408395  0.03684944  1
  C  C99  1  0.21913709  0.34507351  0.53734468  1
  C  C100  1  0.96244469  0.78504888  0.84260309  1
  C  C101  1  0.46295076  0.71664699  0.15245500  1
  C  C102  1  0.03684944  0.28558462  0.65408395  1
  C  C103  1  0.53734468  0.21913709  0.34507351  1
  Ni  Ni104  1  0.17405050  0.82522737  0.32170410  1
  Ni  Ni105  1  0.82522737  0.32170410  0.17405050  1
  Ni  Ni106  1  0.32170410  0.17405050  0.82522737  1
  Ni  Ni107  1  0.67628587  0.67628587  0.67628587  1
  Ni  Ni108  1  0.82594950  0.17477263  0.67829590  1
  Ni  Ni109  1  0.17477263  0.67829590  0.82594950  1
  Ni  Ni110  1  0.67829590  0.82594950  0.17477263  1
  Ni  Ni111  1  0.32371413  0.32371413  0.32371413  1
  Cu  Cu112  1  0.23921349  0.76106174  0.25494834  1
  Cu  Cu113  1  0.76106174  0.25494834  0.23921349  1
  Cu  Cu114  1  0.25494834  0.23921349  0.76106174  1
  Cu  Cu115  1  0.74104075  0.74104075  0.74104075  1
  Cu  Cu116  1  0.76078651  0.23893826  0.74505166  1
  Cu  Cu117  1  0.23893826  0.74505166  0.76078651  1
  Cu  Cu118  1  0.74505166  0.76078651  0.23893826  1
  Cu  Cu119  1  0.25895925  0.25895925  0.25895925  1
  Cu  Cu120  1  0.07280888  0.84406435  0.27506340  1
  Cu  Cu121  1  0.92528413  0.34044680  0.22195619  1
  Cu  Cu122  1  0.42195500  0.15627509  0.77529366  1
  Cu  Cu123  1  0.57524619  0.65972173  0.72475561  1
  Cu  Cu124  1  0.27506340  0.07280888  0.84406435  1
  Cu  Cu125  1  0.22195619  0.92528413  0.34044680  1
  Cu  Cu126  1  0.77529366  0.42195500  0.15627509  1
  Cu  Cu127  1  0.72475561  0.57524619  0.65972173  1
  Cu  Cu128  1  0.84406435  0.27506340  0.07280888  1
  Cu  Cu129  1  0.34044680  0.22195619  0.92528413  1
  Cu  Cu130  1  0.15627509  0.77529366  0.42195500  1
  Cu  Cu131  1  0.65972173  0.72475561  0.57524619  1
  Cu  Cu132  1  0.92719112  0.15593565  0.72493660  1
  Cu  Cu133  1  0.07471587  0.65955320  0.77804381  1
  Cu  Cu134  1  0.57804500  0.84372491  0.22470634  1
  Cu  Cu135  1  0.42475381  0.34027827  0.27524439  1
  Cu  Cu136  1  0.72493660  0.92719112  0.15593565  1
  Cu  Cu137  1  0.77804381  0.07471587  0.65955320  1
  Cu  Cu138  1  0.22470634  0.57804500  0.84372491  1
  Cu  Cu139  1  0.27524439  0.42475381  0.34027827  1
  Cu  Cu140  1  0.15593565  0.72493660  0.92719112  1
  Cu  Cu141  1  0.65955320  0.77804381  0.07471587  1
  Cu  Cu142  1  0.84372491  0.22470634  0.57804500  1
  Cu  Cu143  1  0.34027827  0.27524439  0.42475381  1
  Cu  Cu144  1  0.24601164  0.35940000  0.05041525  1
  Cu  Cu145  1  0.76404724  0.86059537  0.44436628  1
  Cu  Cu146  1  0.26475173  0.63573729  0.55393023  1
  Cu  Cu147  1  0.73878987  0.13899162  0.94621488  1
  Cu  Cu148  1  0.05041525  0.24601164  0.35940000  1
  Cu  Cu149  1  0.44436628  0.76404724  0.86059537  1
  Cu  Cu150  1  0.55393023  0.26475173  0.63573729  1
  Cu  Cu151  1  0.94621488  0.73878987  0.13899162  1
  Cu  Cu152  1  0.35940000  0.05041525  0.24601164  1
  Cu  Cu153  1  0.86059537  0.44436628  0.76404724  1
  Cu  Cu154  1  0.63573729  0.55393023  0.26475173  1
  Cu  Cu155  1  0.13899162  0.94621488  0.73878987  1
  Cu  Cu156  1  0.75398836  0.64060000  0.94958475  1
  Cu  Cu157  1  0.23595276  0.13940463  0.55563372  1
  Cu  Cu158  1  0.73524827  0.36426271  0.44606977  1
  Cu  Cu159  1  0.26121013  0.86100838  0.05378512  1
  Cu  Cu160  1  0.94958475  0.75398836  0.64060000  1
  Cu  Cu161  1  0.55563372  0.23595276  0.13940463  1
  Cu  Cu162  1  0.44606977  0.73524827  0.36426271  1
  Cu  Cu163  1  0.05378512  0.26121013  0.86100838  1
  Cu  Cu164  1  0.64060000  0.94958475  0.75398836  1
  Cu  Cu165  1  0.13940463  0.55563372  0.23595276  1
  Cu  Cu166  1  0.36426271  0.44606977  0.73524827  1
  Cu  Cu167  1  0.86100838  0.05378512  0.26121013  1
  Cu  Cu168  1  0.49588790  0.63976110  0.98233663  1
  Cu  Cu169  1  0.49919506  0.13910002  0.51480743  1
  Cu  Cu170  1  0.01190918  0.36120983  0.47646251  1
  Cu  Cu171  1  0.99460592  0.86071204  0.02032572  1
  Cu  Cu172  1  0.98233663  0.49588790  0.63976110  1
  Cu  Cu173  1  0.51480743  0.49919506  0.13910002  1
  Cu  Cu174  1  0.47646251  0.01190918  0.36120983  1
  Cu  Cu175  1  0.02032572  0.99460592  0.86071204  1
  Cu  Cu176  1  0.63976110  0.98233663  0.49588790  1
  Cu  Cu177  1  0.13910002  0.51480743  0.49919506  1
  Cu  Cu178  1  0.36120983  0.47646251  0.01190918  1
  Cu  Cu179  1  0.86071204  0.02032572  0.99460592  1
  Cu  Cu180  1  0.50411210  0.36023890  0.01766337  1
  Cu  Cu181  1  0.50080494  0.86089998  0.48519257  1
  Cu  Cu182  1  0.98809082  0.63879017  0.52353749  1
  Cu  Cu183  1  0.00539408  0.13928796  0.97967428  1
  Cu  Cu184  1  0.01766337  0.50411210  0.36023890  1
  Cu  Cu185  1  0.48519257  0.50080494  0.86089998  1
  Cu  Cu186  1  0.52353749  0.98809082  0.63879017  1
  Cu  Cu187  1  0.97967428  0.00539408  0.13928796  1
  Cu  Cu188  1  0.36023890  0.01766337  0.50411210  1
  Cu  Cu189  1  0.86089998  0.48519257  0.50080494  1
  Cu  Cu190  1  0.63879017  0.52353749  0.98809082  1
  Cu  Cu191  1  0.13928796  0.97967428  0.00539408  1
