# generated using pymatgen
data_Cu2NiC10
_symmetry_space_group_name_H-M   'P 1'
_cell_length_a   10.20781541
_cell_length_b   10.20781541
_cell_length_c   5.31344404
_cell_angle_alpha   89.67745825
_cell_angle_beta   89.67745825
_cell_angle_gamma   33.96244488
_symmetry_Int_Tables_number   1
_chemical_formula_structural   Cu2NiC10
_chemical_formula_sum   'Cu4 Ni2 C20'
_cell_volume   309.29544661
_cell_formula_units_Z   2
loop_
 _symmetry_equiv_pos_site_id
 _symmetry_equiv_pos_as_xyz
  1  'x, y, z'
loop_
 _atom_site_type_symbol
 _atom_site_label
 _atom_site_symmetry_multiplicity
 _atom_site_fract_x
 _atom_site_fract_y
 _atom_site_fract_z
 _atom_site_occupancy
  C  C0  1  0.72537800  0.04338300  0.76464400  1
  C  C1  1  0.95661700  0.27462200  0.73535600  1
  C  C2  1  0.27462200  0.95661700  0.23535600  1
  C  C3  1  0.04338300  0.72537800  0.26464400  1
  Ni  Ni4  1  0.35337200  0.64662800  0.75000000  1
  Ni  Ni5  1  0.64662800  0.35337200  0.25000000  1
  Cu  Cu6  1  0.56521800  0.87316900  0.73239900  1
  Cu  Cu7  1  0.12683100  0.43478200  0.76760100  1
  Cu  Cu8  1  0.43478200  0.12683100  0.26760100  1
  Cu  Cu9  1  0.87316900  0.56521800  0.23239900  1
  C  C10  1  0.81420800  0.04470900  0.42699700  1
  C  C11  1  0.95529100  0.18579200  0.07300300  1
  C  C12  1  0.18579300  0.95529100  0.57300300  1
  C  C13  1  0.04470900  0.81420800  0.92699700  1
  C  C14  1  0.56832600  0.31533700  0.90535800  1
  C  C15  1  0.68466300  0.43167400  0.59464200  1
  C  C16  1  0.43167400  0.68466300  0.09464200  1
  C  C17  1  0.31533700  0.56832600  0.40535800  1
  C  C18  1  0.71721600  0.92603400  0.06501300  1
  C  C19  1  0.07396600  0.28278400  0.43498700  1
  C  C20  1  0.15917500  0.45224200  0.13583900  1
  C  C21  1  0.54775800  0.84082500  0.36416100  1
  C  C22  1  0.84082500  0.54775800  0.86416100  1
  C  C23  1  0.45224200  0.15917500  0.63583900  1
  C  C24  1  0.92603400  0.71721600  0.56501300  1
  C  C25  1  0.28278400  0.07396600  0.93498700  1
