# generated using pymatgen
data_Cu2NiC8
_symmetry_space_group_name_H-M   'P 1'
_cell_length_a   6.64122200
_cell_length_b   7.32837300
_cell_length_c   12.98089666
_cell_angle_alpha   62.26671659
_cell_angle_beta   90.00000000
_cell_angle_gamma   90.00000000
_symmetry_Int_Tables_number   1
_chemical_formula_structural   Cu2NiC8
_chemical_formula_sum   'Cu8 Ni4 C32'
_cell_volume   559.19605890
_cell_formula_units_Z   4
loop_
 _symmetry_equiv_pos_site_id
 _symmetry_equiv_pos_as_xyz
  1  'x, y, z'
loop_
 _atom_site_type_symbol
 _atom_site_label
 _atom_site_symmetry_multiplicity
 _atom_site_fract_x
 _atom_site_fract_y
 _atom_site_fract_z
 _atom_site_occupancy
  C  C0  1  0.35470000  0.74132000  0.52655000  1
  C  C1  1  0.64530000  0.25868000  0.47345000  1
  C  C2  1  0.85470000  0.25868000  0.97345000  1
  C  C3  1  0.14530000  0.74132000  0.02655000  1
  Ni  Ni4  1  0.39971600  0.71388500  0.26900200  1
  Ni  Ni5  1  0.60028400  0.28611500  0.73099800  1
  Ni  Ni6  1  0.89971600  0.28611500  0.23099800  1
  Ni  Ni7  1  0.10028400  0.71388500  0.76900200  1
  Cu  Cu8  1  0.65909600  0.71395100  0.04573900  1
  Cu  Cu9  1  0.34090400  0.28604900  0.95426100  1
  Cu  Cu10  1  0.15909600  0.28604900  0.45426100  1
  Cu  Cu11  1  0.84090400  0.71395100  0.54573900  1
  Cu  Cu12  1  0.91143200  0.80006000  0.28117000  1
  Cu  Cu13  1  0.08856800  0.19994000  0.71883000  1
  Cu  Cu14  1  0.41143200  0.19994000  0.21883000  1
  Cu  Cu15  1  0.58856800  0.80006000  0.78117000  1
  C  C16  1  0.37318600  0.93123000  0.30702400  1
  C  C17  1  0.62681400  0.06877000  0.69297600  1
  C  C18  1  0.87318600  0.06877000  0.19297600  1
  C  C19  1  0.12681400  0.93123000  0.80702400  1
  C  C20  1  0.82585100  0.90948300  0.02198500  1
  C  C21  1  0.17414900  0.09051700  0.97801500  1
  C  C22  1  0.32585100  0.09051700  0.47801500  1
  C  C23  1  0.67414900  0.90948300  0.52198500  1
  C  C24  1  0.60932000  0.27762600  0.28036700  1
  C  C25  1  0.39068000  0.72237400  0.71963300  1
  C  C26  1  0.10932000  0.72237400  0.21963300  1
  C  C27  1  0.89068000  0.27762600  0.78036700  1
  C  C28  1  0.99995300  0.74983400  0.42530300  1
  C  C29  1  0.00004700  0.25016600  0.57469700  1
  C  C30  1  0.49995300  0.25016600  0.07469700  1
  C  C31  1  0.50004700  0.74983400  0.92530300  1
  C  C32  1  0.44589600  0.70435600  0.12926200  1
  C  C33  1  0.55410400  0.29564400  0.87073800  1
  C  C34  1  0.94589600  0.29564400  0.37073800  1
  C  C35  1  0.05410400  0.70435600  0.62926200  1
  C  C36  1  0.84126500  0.51233800  0.07909200  1
  C  C37  1  0.15873500  0.48766200  0.92090800  1
  C  C38  1  0.34126500  0.48766200  0.42090800  1
  C  C39  1  0.65873500  0.51233800  0.57909200  1
  C  C40  1  0.68789100  0.65344500  0.31537600  1
  C  C41  1  0.31210900  0.34655500  0.68462400  1
  C  C42  1  0.18789100  0.34655500  0.18462400  1
  C  C43  1  0.81210900  0.65344500  0.81537600  1
