# generated using pymatgen
data_Cu3Ni2C19
_symmetry_space_group_name_H-M   'P 1'
_cell_length_a   7.78645967
_cell_length_b   7.78645967
_cell_length_c   10.27358752
_cell_angle_alpha   71.06544223
_cell_angle_beta   71.06544223
_cell_angle_gamma   21.41441403
_symmetry_Int_Tables_number   1
_chemical_formula_structural   Cu3Ni2C19
_chemical_formula_sum   'Cu3 Ni2 C19'
_cell_volume   214.66048638
_cell_formula_units_Z   1
loop_
 _symmetry_equiv_pos_site_id
 _symmetry_equiv_pos_as_xyz
  1  'x, y, z'
loop_
 _atom_site_type_symbol
 _atom_site_label
 _atom_site_symmetry_multiplicity
 _atom_site_fract_x
 _atom_site_fract_y
 _atom_site_fract_z
 _atom_site_occupancy
  C  C0  1  0.16758800  0.16758800  0.24252700  1
  C  C1  1  0.83606600  0.83606600  0.76344000  1
  C  C2  1  0.50003000  0.50003000  0.24643400  1
  C  C3  1  0.16817800  0.16817800  0.75366200  1
  C  C4  1  0.83433800  0.83433800  0.23591800  1
  C  C5  1  0.49272000  0.49272000  0.76118500  1
  C  C6  1  0.33430300  0.33430300  0.99702600  1
  Ni  Ni7  1  0.99710500  0.99710500  0.99695700  1
  Ni  Ni8  1  0.66697900  0.66697900  0.49770600  1
  Cu  Cu9  1  0.99463300  0.99463300  0.50356600  1
  Cu  Cu10  1  0.67598200  0.67598200  0.00666200  1
  Cu  Cu11  1  0.33598400  0.33598400  0.49841000  1
  C  C12  1  0.24105000  0.24105000  0.88326900  1
  C  C13  1  0.91582300  0.91582300  0.38200100  1
  C  C14  1  0.57555000  0.57555000  0.89071100  1
  C  C15  1  0.23870600  0.23870600  0.38603500  1
  C  C16  1  0.92466400  0.92466400  0.88407500  1
  C  C17  1  0.58158900  0.58158900  0.39218600  1
  C  C18  1  0.09426200  0.09426200  0.60864100  1
  C  C19  1  0.74266100  0.74266100  0.12137000  1
  C  C20  1  0.42103800  0.42103800  0.62249600  1
  C  C21  1  0.08522000  0.08522000  0.10760300  1
  C  C22  1  0.74880400  0.74880400  0.60634600  1
  C  C23  1  0.42672800  0.42672800  0.11177500  1
