# generated using pymatgen
data_Cu2(Ni2C)3
_symmetry_space_group_name_H-M   'P 1'
_cell_length_a   9.08133984
_cell_length_b   9.08133984
_cell_length_c   9.08133984
_cell_angle_alpha   109.47122063
_cell_angle_beta   109.47122063
_cell_angle_gamma   109.47122063
_symmetry_Int_Tables_number   1
_chemical_formula_structural   Cu2(Ni2C)3
_chemical_formula_sum   'Cu8 Ni24 C12'
_cell_volume   576.53794146
_cell_formula_units_Z   4
loop_
 _symmetry_equiv_pos_site_id
 _symmetry_equiv_pos_as_xyz
  1  'x, y, z'
loop_
 _atom_site_type_symbol
 _atom_site_label
 _atom_site_symmetry_multiplicity
 _atom_site_fract_x
 _atom_site_fract_y
 _atom_site_fract_z
 _atom_site_occupancy
  C  C0  1  0.25000000  0.12500000  0.87500000  1
  C  C1  1  0.75000000  0.37500000  0.62500000  1
  C  C2  1  0.37500000  0.62500000  0.75000000  1
  C  C3  1  0.12500000  0.87500000  0.25000000  1
  C  C4  1  0.62500000  0.75000000  0.37500000  1
  C  C5  1  0.87500000  0.25000000  0.12500000  1
  Ni  Ni6  1  0.71237700  0.62699900  0.04439200  1
  Ni  Ni7  1  0.41739200  0.87300100  0.58537800  1
  Ni  Ni8  1  0.08260800  0.66798600  0.45560800  1
  Ni  Ni9  1  0.78762300  0.83201400  0.91462200  1
  Ni  Ni10  1  0.54439200  0.12699900  0.21237700  1
  Ni  Ni11  1  0.08537800  0.37300100  0.91739200  1
  Ni  Ni12  1  0.95560800  0.16798600  0.58260800  1
  Ni  Ni13  1  0.41462200  0.33201400  0.28762300  1
  Ni  Ni14  1  0.62699900  0.04439200  0.71237700  1
  Ni  Ni15  1  0.87300100  0.58537800  0.41739200  1
  Ni  Ni16  1  0.66798600  0.45560800  0.08260800  1
  Ni  Ni17  1  0.83201400  0.91462200  0.78762300  1
  Ni  Ni18  1  0.12699900  0.21237700  0.54439200  1
  Ni  Ni19  1  0.37300100  0.91739200  0.08537800  1
  Ni  Ni20  1  0.16798600  0.58260800  0.95560800  1
  Ni  Ni21  1  0.33201400  0.28762300  0.41462200  1
  Ni  Ni22  1  0.04439200  0.71237700  0.62699900  1
  Ni  Ni23  1  0.58537800  0.41739200  0.87300100  1
  Ni  Ni24  1  0.45560800  0.08260800  0.66798600  1
  Ni  Ni25  1  0.91462200  0.78762300  0.83201400  1
  Ni  Ni26  1  0.21237700  0.54439200  0.12699900  1
  Ni  Ni27  1  0.91739200  0.08537800  0.37300100  1
  Ni  Ni28  1  0.58260800  0.95560800  0.16798600  1
  Ni  Ni29  1  0.28762300  0.41462200  0.33201400  1
  Cu  Cu30  1  0.69840600  0.50000000  0.00000000  1
  Cu  Cu31  1  0.50000000  0.00000000  0.69840600  1
  Cu  Cu32  1  0.00000000  0.69840600  0.50000000  1
  Cu  Cu33  1  0.80159400  0.80159400  0.80159400  1
  Cu  Cu34  1  0.50000000  0.00000000  0.19840600  1
  Cu  Cu35  1  0.19840600  0.50000000  0.00000000  1
  Cu  Cu36  1  0.00000000  0.19840600  0.50000000  1
  Cu  Cu37  1  0.30159400  0.30159400  0.30159400  1
  C  C38  1  0.75000000  0.87500000  0.12500000  1
  C  C39  1  0.25000000  0.62500000  0.37500000  1
  C  C40  1  0.62500000  0.37500000  0.25000000  1
  C  C41  1  0.87500000  0.12500000  0.75000000  1
  C  C42  1  0.37500000  0.25000000  0.62500000  1
  C  C43  1  0.12500000  0.75000000  0.87500000  1
