# generated using pymatgen
data_CuNi12C11
_symmetry_space_group_name_H-M   'P 1'
_cell_length_a   6.30253823
_cell_length_b   6.30253823
_cell_length_c   24.81685483
_cell_angle_alpha   81.88620501
_cell_angle_beta   81.88620501
_cell_angle_gamma   70.47120117
_symmetry_Int_Tables_number   1
_chemical_formula_structural   CuNi12C11
_chemical_formula_sum   'Cu4 Ni48 C44'
_cell_volume   915.09093772
_cell_formula_units_Z   4
loop_
 _symmetry_equiv_pos_site_id
 _symmetry_equiv_pos_as_xyz
  1  'x, y, z'
loop_
 _atom_site_type_symbol
 _atom_site_label
 _atom_site_symmetry_multiplicity
 _atom_site_fract_x
 _atom_site_fract_y
 _atom_site_fract_z
 _atom_site_occupancy
  C  C0  1  0.05421200  0.94578800  0.75000000  1
  C  C1  1  0.94578800  0.05421200  0.25000000  1
  C  C2  1  0.00000000  0.00000000  0.00000000  1
  C  C3  1  0.00000000  0.00000000  0.50000000  1
  Ni  Ni4  1  0.32749500  0.00346000  0.65509600  1
  Ni  Ni5  1  0.67250500  0.99654000  0.34490400  1
  Ni  Ni6  1  0.99654000  0.67250500  0.84490400  1
  Ni  Ni7  1  0.00346000  0.32749500  0.15509600  1
  Ni  Ni8  1  0.44395000  0.70379000  0.80175400  1
  Ni  Ni9  1  0.55605000  0.29621000  0.19824600  1
  Ni  Ni10  1  0.29621000  0.55605000  0.69824600  1
  Ni  Ni11  1  0.70379000  0.44395000  0.30175400  1
  Ni  Ni12  1  0.71017700  0.35495200  0.94149500  1
  Ni  Ni13  1  0.28982300  0.64504800  0.05850500  1
  Ni  Ni14  1  0.64504800  0.28982300  0.55850500  1
  Ni  Ni15  1  0.35495200  0.71017700  0.44149500  1
  Ni  Ni16  1  0.31890200  0.93178300  0.90735500  1
  Ni  Ni17  1  0.68109800  0.06821700  0.09264500  1
  Ni  Ni18  1  0.06821700  0.68109800  0.59264500  1
  Ni  Ni19  1  0.93178300  0.31890200  0.40735500  1
  Ni  Ni20  1  0.69247400  0.75217400  0.00199600  1
  Ni  Ni21  1  0.30752600  0.24782600  0.99800400  1
  Ni  Ni22  1  0.24782600  0.30752600  0.49800400  1
  Ni  Ni23  1  0.75217400  0.69247400  0.50199600  1
  Ni  Ni24  1  0.78000200  0.89817700  0.84581600  1
  Ni  Ni25  1  0.21999800  0.10182300  0.15418400  1
  Ni  Ni26  1  0.10182300  0.21999800  0.65418400  1
  Ni  Ni27  1  0.89817700  0.78000200  0.34581600  1
  Ni  Ni28  1  0.35469300  0.96429600  0.42144700  1
  Ni  Ni29  1  0.64530700  0.03570400  0.57855300  1
  Ni  Ni30  1  0.03570400  0.64530700  0.07855300  1
  Ni  Ni31  1  0.96429600  0.35469300  0.92144700  1
  Ni  Ni32  1  0.30475100  0.71232300  0.56907600  1
  Ni  Ni33  1  0.69524900  0.28767700  0.43092400  1
  Ni  Ni34  1  0.28767700  0.69524900  0.93092400  1
  Ni  Ni35  1  0.71232300  0.30475100  0.06907600  1
  Ni  Ni36  1  0.66171200  0.92452100  0.94725500  1
  Ni  Ni37  1  0.33828800  0.07547900  0.05274500  1
  Ni  Ni38  1  0.07547900  0.33828800  0.55274500  1
  Ni  Ni39  1  0.92452100  0.66171200  0.44725500  1
  Ni  Ni40  1  0.66503700  0.19269000  0.70019800  1
  Ni  Ni41  1  0.33496300  0.80731000  0.29980200  1
  Ni  Ni42  1  0.80731000  0.33496300  0.79980200  1
  Ni  Ni43  1  0.19269000  0.66503700  0.20019800  1
  Ni  Ni44  1  0.49386200  0.92081300  0.76791300  1
  Ni  Ni45  1  0.50613800  0.07918700  0.23208700  1
  Ni  Ni46  1  0.07918700  0.50613800  0.73208700  1
  Ni  Ni47  1  0.92081300  0.49386200  0.26791300  1
  Ni  Ni48  1  0.71909800  0.93917300  0.68930200  1
  Ni  Ni49  1  0.28090200  0.06082700  0.31069800  1
  Ni  Ni50  1  0.06082700  0.28090200  0.81069800  1
  Ni  Ni51  1  0.93917300  0.71909800  0.18930200  1
  Cu  Cu52  1  0.41941500  0.31737800  0.87652100  1
  Cu  Cu53  1  0.58058500  0.68262200  0.12347900  1
  Cu  Cu54  1  0.68262200  0.58058500  0.62347900  1
  Cu  Cu55  1  0.31737800  0.41941500  0.37652100  1
  C  C56  1  0.21120100  0.86103200  0.92857400  1
  C  C57  1  0.78879900  0.13896800  0.07142600  1
  C  C58  1  0.13896800  0.78879900  0.57142600  1
  C  C59  1  0.86103200  0.21120100  0.42857400  1
  C  C60  1  0.54151900  0.42252500  0.83052600  1
  C  C61  1  0.45848100  0.57747500  0.16947400  1
  C  C62  1  0.57747500  0.45848100  0.66947400  1
  C  C63  1  0.42252500  0.54151900  0.33052600  1
  C  C64  1  0.20124600  0.09898600  0.67785600  1
  C  C65  1  0.79875400  0.90101400  0.32214400  1
  C  C66  1  0.90101400  0.79875400  0.82214400  1
  C  C67  1  0.09898600  0.20124600  0.17785600  1
  C  C68  1  0.62519300  0.82232200  0.63406200  1
  C  C69  1  0.37480700  0.17767800  0.36593800  1
  C  C70  1  0.17767800  0.37480700  0.86593800  1
  C  C71  1  0.82232200  0.62519300  0.13406200  1
  C  C72  1  0.52961600  0.06524200  0.88211300  1
  C  C73  1  0.47038400  0.93475800  0.11788700  1
  C  C74  1  0.93475800  0.47038400  0.61788700  1
  C  C75  1  0.06524200  0.52961600  0.38211300  1
  C  C76  1  0.31896100  0.86378500  0.45296300  1
  C  C77  1  0.68103900  0.13621500  0.54703700  1
  C  C78  1  0.13621500  0.68103900  0.04703700  1
  C  C79  1  0.86378500  0.31896100  0.95296300  1
  C  C80  1  0.37298400  0.85889800  0.78467100  1
  C  C81  1  0.62701600  0.14110200  0.21532900  1
  C  C82  1  0.14110200  0.62701600  0.71532900  1
  C  C83  1  0.85889800  0.37298400  0.28467100  1
  C  C84  1  0.75882400  0.85388900  0.97695700  1
  C  C85  1  0.24117600  0.14611100  0.02304300  1
  C  C86  1  0.14611100  0.24117600  0.52304300  1
  C  C87  1  0.85388900  0.75882400  0.47695700  1
  C  C88  1  0.72193500  0.03412300  0.71762200  1
  C  C89  1  0.27806500  0.96587700  0.28237800  1
  C  C90  1  0.96587700  0.27806500  0.78237800  1
  C  C91  1  0.03412300  0.72193500  0.21762200  1
  C  C92  1  0.42733500  0.40332100  0.92931300  1
  C  C93  1  0.57266500  0.59667900  0.07068700  1
  C  C94  1  0.59667900  0.57266500  0.57068700  1
  C  C95  1  0.40332100  0.42733500  0.42931300  1
