# generated using pymatgen
data_Cu2Ni16C9
_symmetry_space_group_name_H-M   'P 1'
_cell_length_a   10.08189667
_cell_length_b   10.08189667
_cell_length_c   9.84650200
_cell_angle_alpha   90.00000000
_cell_angle_beta   90.00000000
_cell_angle_gamma   130.31718075
_symmetry_Int_Tables_number   1
_chemical_formula_structural   Cu2Ni16C9
_chemical_formula_sum   'Cu4 Ni32 C18'
_cell_volume   763.11799619
_cell_formula_units_Z   2
loop_
 _symmetry_equiv_pos_site_id
 _symmetry_equiv_pos_as_xyz
  1  'x, y, z'
loop_
 _atom_site_type_symbol
 _atom_site_label
 _atom_site_symmetry_multiplicity
 _atom_site_fract_x
 _atom_site_fract_y
 _atom_site_fract_z
 _atom_site_occupancy
  C  C0  1  0.03232400  0.37650000  0.06439600  1
  C  C1  1  0.37650000  0.03232400  0.93560400  1
  C  C2  1  0.87650000  0.53232400  0.56439600  1
  C  C3  1  0.53232400  0.87650000  0.43560400  1
  C  C4  1  0.99515100  0.99515100  0.00000000  1
  C  C5  1  0.49515100  0.49515100  0.50000000  1
  C  C6  1  0.14948000  0.52266000  0.42088900  1
  C  C7  1  0.52266000  0.14948000  0.57911100  1
  C  C8  1  0.02266000  0.64948000  0.92088900  1
  C  C9  1  0.64948000  0.02266000  0.07911100  1
  C  C10  1  0.22403200  0.28349200  0.25080700  1
  C  C11  1  0.28349200  0.22403200  0.74919300  1
  C  C12  1  0.78349200  0.72403200  0.75080700  1
  C  C13  1  0.72403200  0.78349200  0.24919300  1
  C  C14  1  0.80699200  0.25577100  0.35102400  1
  C  C15  1  0.25577100  0.80699200  0.64897600  1
  C  C16  1  0.75577100  0.30699200  0.85102400  1
  C  C17  1  0.30699200  0.75577100  0.14897600  1
  Ni  Ni18  1  0.97098000  0.75351700  0.47995400  1
  Ni  Ni19  1  0.75351700  0.97098000  0.52004600  1
  Ni  Ni20  1  0.25351700  0.47098000  0.97995400  1
  Ni  Ni21  1  0.47098000  0.25351700  0.02004600  1
  Ni  Ni22  1  0.72545800  0.42270100  0.92714900  1
  Ni  Ni23  1  0.42270100  0.72545800  0.07285100  1
  Ni  Ni24  1  0.92270100  0.22545800  0.42714900  1
  Ni  Ni25  1  0.22545800  0.92270100  0.57285100  1
  Ni  Ni26  1  0.80828900  0.24055600  0.19356100  1
  Ni  Ni27  1  0.24055600  0.80828900  0.80643900  1
  Ni  Ni28  1  0.74055600  0.30828900  0.69356100  1
  Ni  Ni29  1  0.30828900  0.74055600  0.30643900  1
  Ni  Ni30  1  0.66415000  0.64738000  0.35087600  1
  Ni  Ni31  1  0.64738000  0.66415000  0.64912400  1
  Ni  Ni32  1  0.14738000  0.16415000  0.85087600  1
  Ni  Ni33  1  0.16415000  0.14738000  0.14912400  1
  Ni  Ni34  1  0.83861800  0.81067800  0.13853700  1
  Ni  Ni35  1  0.81067800  0.83861800  0.86146300  1
  Ni  Ni36  1  0.31067800  0.33861800  0.63853700  1
  Ni  Ni37  1  0.33861800  0.31067800  0.36146300  1
  Ni  Ni38  1  0.17233100  0.39358300  0.24102100  1
  Ni  Ni39  1  0.39358300  0.17233100  0.75897900  1
  Ni  Ni40  1  0.89358300  0.67233100  0.74102100  1
  Ni  Ni41  1  0.67233100  0.89358300  0.25897900  1
  Ni  Ni42  1  0.11677800  0.62526000  0.09603800  1
  Ni  Ni43  1  0.62526000  0.11677800  0.90396200  1
  Ni  Ni44  1  0.12526000  0.61677800  0.59603800  1
  Ni  Ni45  1  0.61677800  0.12526000  0.40396200  1
  Ni  Ni46  1  0.90234400  0.44958200  0.38525500  1
  Ni  Ni47  1  0.44958200  0.90234400  0.61474500  1
  Ni  Ni48  1  0.94958200  0.40234400  0.88525500  1
  Ni  Ni49  1  0.40234400  0.94958200  0.11474500  1
  Cu  Cu50  1  0.88845800  0.11020500  0.02091700  1
  Cu  Cu51  1  0.11020500  0.88845800  0.97908300  1
  Cu  Cu52  1  0.61020500  0.38845800  0.52091700  1
  Cu  Cu53  1  0.38845800  0.61020500  0.47908300  1
