# generated using pymatgen
data_Cu(NiC10)3
_symmetry_space_group_name_H-M   'P 1'
_cell_length_a   7.03903200
_cell_length_b   7.05216711
_cell_length_c   11.64288965
_cell_angle_alpha   101.05119109
_cell_angle_beta   100.70619561
_cell_angle_gamma   112.03109059
_symmetry_Int_Tables_number   1
_chemical_formula_structural   Cu(NiC10)3
_chemical_formula_sum   'Cu1 Ni3 C30'
_cell_volume   504.29028330
_cell_formula_units_Z   1
loop_
 _symmetry_equiv_pos_site_id
 _symmetry_equiv_pos_as_xyz
  1  'x, y, z'
loop_
 _atom_site_type_symbol
 _atom_site_label
 _atom_site_symmetry_multiplicity
 _atom_site_fract_x
 _atom_site_fract_y
 _atom_site_fract_z
 _atom_site_occupancy
  Ni  Ni0  1  0.94618300  0.69427800  0.59467000  1
  Ni  Ni1  1  0.69511800  0.94708800  0.09290400  1
  Ni  Ni2  1  0.05345000  0.30573500  0.40497400  1
  Cu  Cu3  1  0.30705100  0.04976700  0.90658400  1
  C  C4  1  0.48840600  0.19805200  0.55340800  1
  C  C5  1  0.79892100  0.50861700  0.95010300  1
  C  C6  1  0.50998900  0.80061900  0.45029700  1
  C  C7  1  0.20282100  0.49256300  0.04550000  1
  C  C8  1  0.87784000  0.11764000  0.75258600  1
  C  C9  1  0.12045000  0.88239000  0.24751300  1
  C  C10  1  0.61995700  0.22607700  0.95805300  1
  C  C11  1  0.77275100  0.37174700  0.54175700  1
  C  C12  1  0.37327300  0.77786300  0.03708800  1
  C  C13  1  0.22686900  0.62761100  0.45931900  1
  C  C14  1  0.95470200  0.03098000  0.88938800  1
  C  C15  1  0.96803100  0.05333500  0.61144700  1
  C  C16  1  0.06302800  0.97218700  0.10344600  1
  C  C17  1  0.02959400  0.94768300  0.38861000  1
  C  C18  1  0.32329500  0.38713600  0.93988900  1
  C  C19  1  0.60373400  0.67289500  0.55926900  1
  C  C20  1  0.67097400  0.60350600  0.05862100  1
  C  C21  1  0.39390800  0.32553400  0.44466600  1
  C  C22  1  0.34897300  0.19622700  0.70419300  1
  C  C23  1  0.79585600  0.65380200  0.80357100  1
  C  C24  1  0.65503900  0.79767300  0.30251500  1
  C  C25  1  0.20405100  0.35058600  0.19386500  1
  C  C26  1  0.59075900  0.01331300  0.78518100  1
  C  C27  1  0.98723300  0.40269800  0.72178600  1
  C  C28  1  0.40503700  0.98724500  0.22126700  1
  C  C29  1  0.01253500  0.59740600  0.27890300  1
  C  C30  1  0.10231000  0.67939800  0.92353400  1
  C  C31  1  0.32658900  0.89762500  0.57769100  1
  C  C32  1  0.89977200  0.32871200  0.07331700  1
  C  C33  1  0.67150300  0.10201200  0.42408300  1
