# generated using pymatgen
data_Cu2Ni4C13
_symmetry_space_group_name_H-M   'P 1'
_cell_length_a   9.37407300
_cell_length_b   9.37407300
_cell_length_c   5.60878800
_cell_angle_alpha   90.00000000
_cell_angle_beta   90.00000000
_cell_angle_gamma   90.00000000
_symmetry_Int_Tables_number   1
_chemical_formula_structural   Cu2Ni4C13
_chemical_formula_sum   'Cu4 Ni8 C26'
_cell_volume   492.86239989
_cell_formula_units_Z   2
loop_
 _symmetry_equiv_pos_site_id
 _symmetry_equiv_pos_as_xyz
  1  'x, y, z'
loop_
 _atom_site_type_symbol
 _atom_site_label
 _atom_site_symmetry_multiplicity
 _atom_site_fract_x
 _atom_site_fract_y
 _atom_site_fract_z
 _atom_site_occupancy
  Ni  Ni0  1  0.94494800  0.73466800  0.50000000  1
  Ni  Ni1  1  0.05505200  0.26533200  0.50000000  1
  Ni  Ni2  1  0.44494800  0.76533200  0.00000000  1
  Ni  Ni3  1  0.55505200  0.23466800  0.00000000  1
  Ni  Ni4  1  0.26533200  0.94494800  0.50000000  1
  Ni  Ni5  1  0.73466800  0.05505200  0.50000000  1
  Ni  Ni6  1  0.23466800  0.44494800  0.00000000  1
  Ni  Ni7  1  0.76533200  0.55505200  0.00000000  1
  Cu  Cu8  1  0.00000000  0.00000000  0.18260200  1
  Cu  Cu9  1  0.50000000  0.50000000  0.68260200  1
  Cu  Cu10  1  0.00000000  0.00000000  0.81739800  1
  Cu  Cu11  1  0.50000000  0.50000000  0.31739800  1
  C  C12  1  0.62040500  0.73085300  0.50000000  1
  C  C13  1  0.37959500  0.26914700  0.50000000  1
  C  C14  1  0.12040500  0.76914700  0.00000000  1
  C  C15  1  0.87959500  0.23085300  0.00000000  1
  C  C16  1  0.26914700  0.62040500  0.50000000  1
  C  C17  1  0.73085300  0.37959500  0.50000000  1
  C  C18  1  0.23085300  0.12040500  0.00000000  1
  C  C19  1  0.76914700  0.87959500  0.00000000  1
  C  C20  1  0.43705800  0.70454800  0.50000000  1
  C  C21  1  0.56294200  0.29545200  0.50000000  1
  C  C22  1  0.93705800  0.79545200  0.00000000  1
  C  C23  1  0.06294200  0.20454800  0.00000000  1
  C  C24  1  0.29545200  0.43705800  0.50000000  1
  C  C25  1  0.70454800  0.56294200  0.50000000  1
  C  C26  1  0.20454800  0.93705800  0.00000000  1
  C  C27  1  0.79545200  0.06294200  0.00000000  1
  C  C28  1  0.67419200  0.82580800  0.25000000  1
  C  C29  1  0.32580800  0.17419200  0.25000000  1
  C  C30  1  0.17419200  0.67419200  0.75000000  1
  C  C31  1  0.82580800  0.32580800  0.75000000  1
  C  C32  1  0.17419200  0.67419200  0.25000000  1
  C  C33  1  0.82580800  0.32580800  0.25000000  1
  C  C34  1  0.32580800  0.17419200  0.75000000  1
  C  C35  1  0.67419200  0.82580800  0.75000000  1
  C  C36  1  0.00000000  0.00000000  0.50000000  1
  C  C37  1  0.50000000  0.50000000  0.00000000  1
