# generated using pymatgen
data_Cu10Ni2C3
_symmetry_space_group_name_H-M   'P 1'
_cell_length_a   7.46923032
_cell_length_b   7.46923032
_cell_length_c   7.46922993
_cell_angle_alpha   60.15507820
_cell_angle_beta   60.15507820
_cell_angle_gamma   60.15508359
_symmetry_Int_Tables_number   1
_chemical_formula_structural   Cu10Ni2C3
_chemical_formula_sum   'Cu10 Ni2 C3'
_cell_volume   295.68913182
_cell_formula_units_Z   1
loop_
 _symmetry_equiv_pos_site_id
 _symmetry_equiv_pos_as_xyz
  1  'x, y, z'
loop_
 _atom_site_type_symbol
 _atom_site_label
 _atom_site_symmetry_multiplicity
 _atom_site_fract_x
 _atom_site_fract_y
 _atom_site_fract_z
 _atom_site_occupancy
  C  C0  1  0.40416100  0.40416100  0.78719700  1
  C  C1  1  0.78719700  0.40416100  0.40416100  1
  C  C2  1  0.40416100  0.78719700  0.40416100  1
  Ni  Ni3  1  0.00098000  0.00098000  0.00098000  1
  Ni  Ni4  1  0.39004800  0.39004800  0.39004800  1
  Cu  Cu5  1  0.00855400  0.50793000  0.50793000  1
  Cu  Cu6  1  0.50793000  0.50793000  0.00855400  1
  Cu  Cu7  1  0.50793000  0.00855400  0.50793000  1
  Cu  Cu8  1  0.51245700  0.98810500  0.98810500  1
  Cu  Cu9  1  0.98810500  0.51245700  0.98810500  1
  Cu  Cu10  1  0.98810500  0.98810500  0.51245700  1
  Cu  Cu11  1  0.87122200  0.87122200  0.38565600  1
  Cu  Cu12  1  0.87122200  0.38565600  0.87122200  1
  Cu  Cu13  1  0.38565600  0.87122200  0.87122200  1
  Cu  Cu14  1  0.87227100  0.87227100  0.87227100  1
