# generated using pymatgen
data_Cu14Ni6C29
_symmetry_space_group_name_H-M   'P 1'
_cell_length_a   7.71714300
_cell_length_b   10.06627300
_cell_length_c   12.05075242
_cell_angle_alpha   82.64834408
_cell_angle_beta   90.00000000
_cell_angle_gamma   90.00000000
_symmetry_Int_Tables_number   1
_chemical_formula_structural   Cu14Ni6C29
_chemical_formula_sum   'Cu28 Ni12 C58'
_cell_volume   928.44148157
_cell_formula_units_Z   2
loop_
 _symmetry_equiv_pos_site_id
 _symmetry_equiv_pos_as_xyz
  1  'x, y, z'
loop_
 _atom_site_type_symbol
 _atom_site_label
 _atom_site_symmetry_multiplicity
 _atom_site_fract_x
 _atom_site_fract_y
 _atom_site_fract_z
 _atom_site_occupancy
  C  C0  1  0.00000000  0.50000000  0.00000000  1
  C  C1  1  0.50000000  0.50000000  0.50000000  1
  C  C2  1  0.33528800  0.51389000  0.03574200  1
  C  C3  1  0.83528800  0.48611000  0.46425800  1
  C  C4  1  0.66471200  0.48611000  0.96425800  1
  C  C5  1  0.16471200  0.51389000  0.53574200  1
  C  C6  1  0.31204500  0.39006200  0.96436400  1
  C  C7  1  0.81204500  0.60993800  0.53563600  1
  C  C8  1  0.68795500  0.60993800  0.03563600  1
  C  C9  1  0.18795500  0.39006200  0.46436400  1
  C  C10  1  0.99014700  0.48407600  0.23159000  1
  C  C11  1  0.49014700  0.51592400  0.26841000  1
  C  C12  1  0.00985300  0.51592400  0.76841000  1
  C  C13  1  0.50985300  0.48407600  0.73159000  1
  C  C14  1  0.15938600  0.56284800  0.18191900  1
  C  C15  1  0.65938600  0.43715200  0.31808100  1
  C  C16  1  0.84061400  0.43715200  0.81808100  1
  C  C17  1  0.34061400  0.56284800  0.68191900  1
  C  C18  1  0.04486900  0.72829300  0.86985900  1
  C  C19  1  0.54486900  0.27170700  0.63014100  1
  C  C20  1  0.95513100  0.27170700  0.13014100  1
  C  C21  1  0.45513100  0.72829300  0.36985900  1
  C  C22  1  0.13045100  0.73783800  0.98873800  1
  C  C23  1  0.63045100  0.26216200  0.51126200  1
  C  C24  1  0.86954900  0.26216200  0.01126200  1
  C  C25  1  0.36954900  0.73783800  0.48873800  1
  C  C26  1  0.21203600  0.87793400  0.28003500  1
  C  C27  1  0.71203600  0.12206600  0.21996500  1
  C  C28  1  0.78796400  0.12206600  0.71996500  1
  C  C29  1  0.28796400  0.87793400  0.78003500  1
  C  C30  1  0.10711900  0.86911700  0.40885700  1
  C  C31  1  0.60711900  0.13088300  0.09114300  1
  C  C32  1  0.89288100  0.13088300  0.59114300  1
  C  C33  1  0.39288100  0.86911700  0.90885700  1
  C  C34  1  0.82787300  0.85374100  0.12358500  1
  C  C35  1  0.32787300  0.14625900  0.37641500  1
  C  C36  1  0.17212700  0.14625900  0.87641500  1
  C  C37  1  0.67212700  0.85374100  0.62358500  1
  C  C38  1  0.05098300  0.87776300  0.11736300  1
  C  C39  1  0.55098300  0.12223700  0.38263700  1
  C  C40  1  0.94901700  0.12223700  0.88263700  1
  C  C41  1  0.44901700  0.87776300  0.61736300  1
  C  C42  1  0.80882700  0.83194800  0.41719500  1
  C  C43  1  0.30882700  0.16805200  0.08280500  1
  C  C44  1  0.19117300  0.16805200  0.58280500  1
  C  C45  1  0.69117300  0.83194800  0.91719500  1
  C  C46  1  0.68394400  0.84527500  0.29402500  1
  C  C47  1  0.18394400  0.15472500  0.20597500  1
  C  C48  1  0.31605600  0.15472500  0.70597500  1
  C  C49  1  0.81605600  0.84527500  0.79402500  1
  C  C50  1  0.94596200  0.87068100  0.27220900  1
  C  C51  1  0.44596200  0.12931900  0.22779100  1
  C  C52  1  0.05403800  0.12931900  0.72779100  1
  C  C53  1  0.55403800  0.87068100  0.77220900  1
  C  C54  1  0.56255000  0.24549900  0.87101200  1
  C  C55  1  0.06255000  0.75450100  0.62898800  1
  C  C56  1  0.43745000  0.75450100  0.12898800  1
  C  C57  1  0.93745000  0.24549900  0.37101200  1
  Ni  Ni58  1  0.09846000  0.87648400  0.32362900  1
  Ni  Ni59  1  0.59846000  0.12351600  0.17637100  1
  Ni  Ni60  1  0.90154000  0.12351600  0.67637100  1
  Ni  Ni61  1  0.40154000  0.87648400  0.82362900  1
  Ni  Ni62  1  0.93762600  0.88589100  0.15944200  1
  Ni  Ni63  1  0.43762600  0.11410900  0.34055800  1
  Ni  Ni64  1  0.06237400  0.11410900  0.84055800  1
  Ni  Ni65  1  0.56237400  0.88589100  0.65944200  1
  Ni  Ni66  1  0.80042200  0.85562900  0.33231200  1
  Ni  Ni67  1  0.30042200  0.14437100  0.16768800  1
  Ni  Ni68  1  0.19957800  0.14437100  0.66768800  1
  Ni  Ni69  1  0.69957800  0.85562900  0.83231200  1
  Cu  Cu70  1  0.26601000  0.47874200  0.97717200  1
  Cu  Cu71  1  0.76601000  0.52125800  0.52282800  1
  Cu  Cu72  1  0.73399000  0.52125800  0.02282800  1
  Cu  Cu73  1  0.23399000  0.47874200  0.47717200  1
  Cu  Cu74  1  0.03802100  0.54215300  0.16578500  1
  Cu  Cu75  1  0.53802100  0.45784700  0.33421500  1
  Cu  Cu76  1  0.96197900  0.45784700  0.83421500  1
  Cu  Cu77  1  0.46197900  0.54215300  0.66578500  1
  Cu  Cu78  1  0.03080900  0.69984100  0.95172100  1
  Cu  Cu79  1  0.53080900  0.30015900  0.54827900  1
  Cu  Cu80  1  0.96919100  0.30015900  0.04827900  1
  Cu  Cu81  1  0.46919100  0.69984100  0.45172100  1
  Cu  Cu82  1  0.39332200  0.23233700  0.93158900  1
  Cu  Cu83  1  0.89332200  0.76766300  0.56841100  1
  Cu  Cu84  1  0.60667800  0.76766300  0.06841100  1
  Cu  Cu85  1  0.10667800  0.23233700  0.43158900  1
  Cu  Cu86  1  0.54769000  0.18714900  0.76362000  1
  Cu  Cu87  1  0.04769000  0.81285100  0.73638000  1
  Cu  Cu88  1  0.45231000  0.81285100  0.23638000  1
  Cu  Cu89  1  0.95231000  0.18714900  0.26362000  1
  Cu  Cu90  1  0.70161300  0.17481800  0.94196000  1
  Cu  Cu91  1  0.20161300  0.82518200  0.55804000  1
  Cu  Cu92  1  0.29838700  0.82518200  0.05804000  1
  Cu  Cu93  1  0.79838700  0.17481800  0.44196000  1
  Cu  Cu94  1  0.60907200  0.39162400  0.84576200  1
  Cu  Cu95  1  0.10907200  0.60837600  0.65423800  1
  Cu  Cu96  1  0.39092800  0.60837600  0.15423800  1
  Cu  Cu97  1  0.89092800  0.39162400  0.34576200  1
