# generated using pymatgen
data_CuNiC6
_symmetry_space_group_name_H-M   'P 1'
_cell_length_a   7.14995648
_cell_length_b   7.14995648
_cell_length_c   7.14995648
_cell_angle_alpha   130.79498600
_cell_angle_beta   130.79498600
_cell_angle_gamma   72.13900629
_symmetry_Int_Tables_number   1
_chemical_formula_structural   CuNiC6
_chemical_formula_sum   'Cu1 Ni1 C6'
_cell_volume   204.83319232
_cell_formula_units_Z   1
loop_
 _symmetry_equiv_pos_site_id
 _symmetry_equiv_pos_as_xyz
  1  'x, y, z'
loop_
 _atom_site_type_symbol
 _atom_site_label
 _atom_site_symmetry_multiplicity
 _atom_site_fract_x
 _atom_site_fract_y
 _atom_site_fract_z
 _atom_site_occupancy
  C  C0  1  0.50000000  0.50000000  0.00000000  1
  C  C1  1  0.75000000  0.25000000  0.50000000  1
  Ni  Ni2  1  0.00000000  0.00000000  0.00000000  1
  Cu  Cu3  1  0.25000000  0.75000000  0.50000000  1
  C  C4  1  0.65441400  0.62618000  0.52969100  1
  C  C5  1  0.09648900  0.12472300  0.47030900  1
  C  C6  1  0.87527700  0.34558600  0.97176600  1
  C  C7  1  0.37382000  0.90351100  0.02823400  1
