# generated using pymatgen
data_Cu23Ni44C7
_symmetry_space_group_name_H-M   'P 1'
_cell_length_a   11.83881117
_cell_length_b   11.83881117
_cell_length_c   11.83881117
_cell_angle_alpha   60.00000000
_cell_angle_beta   60.00000000
_cell_angle_gamma   60.00000000
_symmetry_Int_Tables_number   1
_chemical_formula_structural   Cu23Ni44C7
_chemical_formula_sum   'Cu23 Ni44 C7'
_cell_volume   1173.30057362
_cell_formula_units_Z   1
loop_
 _symmetry_equiv_pos_site_id
 _symmetry_equiv_pos_as_xyz
  1  'x, y, z'
loop_
 _atom_site_type_symbol
 _atom_site_label
 _atom_site_symmetry_multiplicity
 _atom_site_fract_x
 _atom_site_fract_y
 _atom_site_fract_z
 _atom_site_occupancy
  C  C0  1  0.75312788  0.24687212  0.24687212  1
  C  C1  1  0.75312788  0.24687212  0.75312788  1
  C  C2  1  0.75312788  0.75312788  0.24687212  1
  C  C3  1  0.24687212  0.75312788  0.75312788  1
  C  C4  1  0.24687212  0.75312788  0.24687212  1
  C  C5  1  0.24687212  0.24687212  0.75312788  1
  C  C6  1  -0.00000000  -0.00000000  0.00000000  1
  Ni  Ni7  1  0.47285013  0.01930276  0.25392355  1
  Ni  Ni8  1  0.47285013  0.25392355  0.25392355  1
  Ni  Ni9  1  0.47285013  0.25392355  0.01930276  1
  Ni  Ni10  1  0.01930276  0.47285013  0.25392355  1
  Ni  Ni11  1  0.25392355  0.47285013  0.01930276  1
  Ni  Ni12  1  0.25392355  0.47285013  0.25392355  1
  Ni  Ni13  1  0.25392355  0.25392355  0.47285013  1
  Ni  Ni14  1  0.25392355  0.01930276  0.47285013  1
  Ni  Ni15  1  0.01930276  0.25392355  0.47285013  1
  Ni  Ni16  1  0.25392355  0.25392355  0.01930276  1
  Ni  Ni17  1  0.01930276  0.25392355  0.25392355  1
  Ni  Ni18  1  0.25392355  0.01930276  0.25392355  1
  Ni  Ni19  1  0.52714987  0.98069724  0.74607645  1
  Ni  Ni20  1  0.52714987  0.74607645  0.74607645  1
  Ni  Ni21  1  0.52714987  0.74607645  0.98069724  1
  Ni  Ni22  1  0.98069724  0.52714987  0.74607645  1
  Ni  Ni23  1  0.74607645  0.52714987  0.98069724  1
  Ni  Ni24  1  0.74607645  0.52714987  0.74607645  1
  Ni  Ni25  1  0.74607645  0.74607645  0.52714987  1
  Ni  Ni26  1  0.74607645  0.98069724  0.52714987  1
  Ni  Ni27  1  0.98069724  0.74607645  0.52714987  1
  Ni  Ni28  1  0.74607645  0.74607645  0.98069724  1
  Ni  Ni29  1  0.98069724  0.74607645  0.74607645  1
  Ni  Ni30  1  0.74607645  0.98069724  0.74607645  1
  Ni  Ni31  1  0.63608227  -0.00000000  0.00000000  1
  Ni  Ni32  1  0.63608227  0.00000000  0.36391773  1
  Ni  Ni33  1  0.63608227  0.36391773  0.00000000  1
  Ni  Ni34  1  -0.00000000  0.63608227  0.36391773  1
  Ni  Ni35  1  0.00000000  0.63608227  -0.00000000  1
  Ni  Ni36  1  0.36391773  0.63608227  -0.00000000  1
  Ni  Ni37  1  0.00000000  0.36391773  0.63608227  1
  Ni  Ni38  1  0.36391773  -0.00000000  0.63608227  1
  Ni  Ni39  1  -0.00000000  0.00000000  0.63608227  1
  Ni  Ni40  1  0.36391773  0.00000000  -0.00000000  1
  Ni  Ni41  1  -0.00000000  0.36391773  0.00000000  1
  Ni  Ni42  1  0.00000000  -0.00000000  0.36391773  1
  Ni  Ni43  1  0.76359142  0.41213619  0.41213619  1
  Ni  Ni44  1  0.41213619  0.76359142  0.41213619  1
  Ni  Ni45  1  0.41213619  0.41213619  0.76359142  1
  Ni  Ni46  1  0.41213619  0.41213619  0.41213619  1
  Ni  Ni47  1  0.23640858  0.58786381  0.58786381  1
  Ni  Ni48  1  0.58786381  0.23640858  0.58786381  1
  Ni  Ni49  1  0.58786381  0.58786381  0.23640858  1
  Ni  Ni50  1  0.58786381  0.58786381  0.58786381  1
  Cu  Cu51  1  0.15565891  0.50000000  0.50000000  1
  Cu  Cu52  1  0.15565891  0.50000000  0.84434109  1
  Cu  Cu53  1  0.15565891  0.84434109  0.50000000  1
  Cu  Cu54  1  0.50000000  0.15565891  0.84434109  1
  Cu  Cu55  1  0.50000000  0.15565891  0.50000000  1
  Cu  Cu56  1  0.84434109  0.15565891  0.50000000  1
  Cu  Cu57  1  0.50000000  0.84434109  0.15565891  1
  Cu  Cu58  1  0.84434109  0.50000000  0.15565891  1
  Cu  Cu59  1  0.50000000  0.50000000  0.15565891  1
  Cu  Cu60  1  0.84434109  0.50000000  0.50000000  1
  Cu  Cu61  1  0.50000000  0.84434109  0.50000000  1
  Cu  Cu62  1  0.50000000  0.50000000  0.84434109  1
  Cu  Cu63  1  0.67413555  0.10862148  0.10862148  1
  Cu  Cu64  1  0.10862148  0.67413555  0.10862148  1
  Cu  Cu65  1  0.10862148  0.10862148  0.67413555  1
  Cu  Cu66  1  0.10862148  0.10862148  0.10862148  1
  Cu  Cu67  1  0.32586445  0.89137852  0.89137852  1
  Cu  Cu68  1  0.89137852  0.32586445  0.89137852  1
  Cu  Cu69  1  0.89137852  0.89137852  0.32586445  1
  Cu  Cu70  1  0.89137852  0.89137852  0.89137852  1
  Cu  Cu71  1  0.25000000  0.25000000  0.25000000  1
  Cu  Cu72  1  0.75000000  0.75000000  0.75000000  1
  Cu  Cu73  1  0.50000000  0.50000000  0.50000000  1
