# generated using pymatgen
data_CuNi6C5
_symmetry_space_group_name_H-M   'P 1'
_cell_length_a   10.07561812
_cell_length_b   10.07561812
_cell_length_c   10.07561812
_cell_angle_alpha   90.00000000
_cell_angle_beta   90.00000000
_cell_angle_gamma   90.00000000
_symmetry_Int_Tables_number   1
_chemical_formula_structural   CuNi6C5
_chemical_formula_sum   'Cu8 Ni48 C40'
_cell_volume   1022.85741139
_cell_formula_units_Z   8
loop_
 _symmetry_equiv_pos_site_id
 _symmetry_equiv_pos_as_xyz
  1  'x, y, z'
loop_
 _atom_site_type_symbol
 _atom_site_label
 _atom_site_symmetry_multiplicity
 _atom_site_fract_x
 _atom_site_fract_y
 _atom_site_fract_z
 _atom_site_occupancy
  C  C0  1  -0.00000000  0.00000000  -0.00000000  1
  C  C1  1  0.50000000  0.00000000  0.50000000  1
  C  C2  1  -0.00000000  0.50000000  0.50000000  1
  C  C3  1  0.50000000  0.50000000  -0.00000000  1
  C  C4  1  0.50000000  0.50000000  0.50000000  1
  C  C5  1  -0.00000000  0.50000000  -0.00000000  1
  C  C6  1  0.50000000  0.00000000  -0.00000000  1
  C  C7  1  -0.00000000  0.00000000  0.50000000  1
  Ni  Ni8  1  0.01893613  0.95074883  0.27065189  1
  Ni  Ni9  1  0.98106387  0.04925117  0.72934811  1
  Ni  Ni10  1  0.48106387  0.04925117  0.77065189  1
  Ni  Ni11  1  0.98106387  0.45074883  0.22934811  1
  Ni  Ni12  1  0.27065189  0.01893613  0.95074883  1
  Ni  Ni13  1  0.51893613  0.95074883  0.22934811  1
  Ni  Ni14  1  0.01893613  0.54925117  0.77065189  1
  Ni  Ni15  1  0.72934811  0.98106387  0.04925117  1
  Ni  Ni16  1  0.51893613  0.54925117  0.72934811  1
  Ni  Ni17  1  0.77065189  0.48106387  0.04925117  1
  Ni  Ni18  1  0.48106387  0.45074883  0.27065189  1
  Ni  Ni19  1  0.22934811  0.51893613  0.95074883  1
  Ni  Ni20  1  0.22934811  0.98106387  0.45074883  1
  Ni  Ni21  1  0.77065189  0.01893613  0.54925117  1
  Ni  Ni22  1  0.72934811  0.51893613  0.54925117  1
  Ni  Ni23  1  0.27065189  0.48106387  0.45074883  1
  Ni  Ni24  1  0.95074883  0.27065189  0.01893613  1
  Ni  Ni25  1  0.04925117  0.72934811  0.98106387  1
  Ni  Ni26  1  0.45074883  0.22934811  0.98106387  1
  Ni  Ni27  1  0.54925117  0.77065189  0.01893613  1
  Ni  Ni28  1  0.54925117  0.72934811  0.51893613  1
  Ni  Ni29  1  0.45074883  0.27065189  0.48106387  1
  Ni  Ni30  1  0.04925117  0.77065189  0.48106387  1
  Ni  Ni31  1  0.95074883  0.22934811  0.51893613  1
  Ni  Ni32  1  0.28095216  0.48707359  0.37606553  1
  Ni  Ni33  1  0.71904784  0.51292641  0.62393447  1
  Ni  Ni34  1  0.21904784  0.51292641  0.87606553  1
  Ni  Ni35  1  0.71904784  0.98707359  0.12393447  1
  Ni  Ni36  1  0.37606553  0.28095216  0.48707359  1
  Ni  Ni37  1  0.78095216  0.48707359  0.12393447  1
  Ni  Ni38  1  0.28095216  0.01292641  0.87606553  1
  Ni  Ni39  1  0.62393447  0.71904784  0.51292641  1
  Ni  Ni40  1  0.78095216  0.01292641  0.62393447  1
  Ni  Ni41  1  0.87606553  0.21904784  0.51292641  1
  Ni  Ni42  1  0.21904784  0.98707359  0.37606553  1
  Ni  Ni43  1  0.12393447  0.78095216  0.48707359  1
  Ni  Ni44  1  0.12393447  0.71904784  0.98707359  1
  Ni  Ni45  1  0.87606553  0.28095216  0.01292641  1
  Ni  Ni46  1  0.62393447  0.78095216  0.01292641  1
  Ni  Ni47  1  0.37606553  0.21904784  0.98707359  1
  Ni  Ni48  1  0.48707359  0.37606553  0.28095216  1
  Ni  Ni49  1  0.51292641  0.62393447  0.71904784  1
  Ni  Ni50  1  0.98707359  0.12393447  0.71904784  1
  Ni  Ni51  1  0.01292641  0.87606553  0.28095216  1
  Ni  Ni52  1  0.01292641  0.62393447  0.78095216  1
  Ni  Ni53  1  0.98707359  0.37606553  0.21904784  1
  Ni  Ni54  1  0.51292641  0.87606553  0.21904784  1
  Ni  Ni55  1  0.48707359  0.12393447  0.78095216  1
  Cu  Cu56  1  0.18611352  0.18611352  0.18611352  1
  Cu  Cu57  1  0.81388648  0.81388648  0.81388648  1
  Cu  Cu58  1  0.31388648  0.81388648  0.68611352  1
  Cu  Cu59  1  0.81388648  0.68611352  0.31388648  1
  Cu  Cu60  1  0.68611352  0.18611352  0.31388648  1
  Cu  Cu61  1  0.18611352  0.31388648  0.68611352  1
  Cu  Cu62  1  0.68611352  0.31388648  0.81388648  1
  Cu  Cu63  1  0.31388648  0.68611352  0.18611352  1
  C  C64  1  0.26971492  0.26971492  0.26971492  1
  C  C65  1  0.73028508  0.73028508  0.73028508  1
  C  C66  1  0.23028508  0.73028508  0.76971492  1
  C  C67  1  0.73028508  0.76971492  0.23028508  1
  C  C68  1  0.76971492  0.26971492  0.23028508  1
  C  C69  1  0.26971492  0.23028508  0.76971492  1
  C  C70  1  0.76971492  0.23028508  0.73028508  1
  C  C71  1  0.23028508  0.76971492  0.26971492  1
  C  C72  1  0.05962621  0.14561746  0.25472041  1
  C  C73  1  0.94037379  0.85438254  0.74527959  1
  C  C74  1  0.44037379  0.85438254  0.75472041  1
  C  C75  1  0.94037379  0.64561746  0.24527959  1
  C  C76  1  0.25472041  0.05962621  0.14561746  1
  C  C77  1  0.55962621  0.14561746  0.24527959  1
  C  C78  1  0.05962621  0.35438254  0.75472041  1
  C  C79  1  0.74527959  0.94037379  0.85438254  1
  C  C80  1  0.55962621  0.35438254  0.74527959  1
  C  C81  1  0.75472041  0.44037379  0.85438254  1
  C  C82  1  0.44037379  0.64561746  0.25472041  1
  C  C83  1  0.24527959  0.55962621  0.14561746  1
  C  C84  1  0.24527959  0.94037379  0.64561746  1
  C  C85  1  0.75472041  0.05962621  0.35438254  1
  C  C86  1  0.74527959  0.55962621  0.35438254  1
  C  C87  1  0.25472041  0.44037379  0.64561746  1
  C  C88  1  0.14561746  0.25472041  0.05962621  1
  C  C89  1  0.85438254  0.74527959  0.94037379  1
  C  C90  1  0.64561746  0.24527959  0.94037379  1
  C  C91  1  0.35438254  0.75472041  0.05962621  1
  C  C92  1  0.35438254  0.74527959  0.55962621  1
  C  C93  1  0.64561746  0.25472041  0.44037379  1
  C  C94  1  0.85438254  0.75472041  0.44037379  1
  C  C95  1  0.14561746  0.24527959  0.55962621  1
