# generated using pymatgen
data_CuNiC61
_symmetry_space_group_name_H-M   'P 1'
_cell_length_a   8.66251400
_cell_length_b   8.66251400
_cell_length_c   8.48624600
_cell_angle_alpha   90.00000000
_cell_angle_beta   90.00000000
_cell_angle_gamma   90.00000000
_symmetry_Int_Tables_number   1
_chemical_formula_structural   CuNiC61
_chemical_formula_sum   'Cu1 Ni1 C61'
_cell_volume   636.80067635
_cell_formula_units_Z   1
loop_
 _symmetry_equiv_pos_site_id
 _symmetry_equiv_pos_as_xyz
  1  'x, y, z'
loop_
 _atom_site_type_symbol
 _atom_site_label
 _atom_site_symmetry_multiplicity
 _atom_site_fract_x
 _atom_site_fract_y
 _atom_site_fract_z
 _atom_site_occupancy
  Ni  Ni0  1  0.00000000  0.00000000  0.05659400  1
  Cu  Cu1  1  0.50000000  0.50000000  0.99702800  1
  C  C2  1  0.50000000  0.00000000  0.99183900  1
  C  C3  1  0.00000000  0.50000000  0.99183900  1
  C  C4  1  0.00000000  0.00000000  0.52079000  1
  C  C5  1  0.50000000  0.00000000  0.50359400  1
  C  C6  1  0.00000000  0.50000000  0.50359400  1
  C  C7  1  0.50000000  0.50000000  0.49969100  1
  C  C8  1  0.25311600  0.25311600  0.99739900  1
  C  C9  1  0.74688400  0.25311600  0.99739900  1
  C  C10  1  0.25311600  0.74688400  0.99739900  1
  C  C11  1  0.74688400  0.74688400  0.99739900  1
  C  C12  1  0.24889600  0.24889600  0.49924200  1
  C  C13  1  0.75110400  0.24889600  0.49924200  1
  C  C14  1  0.24889600  0.75110400  0.49924200  1
  C  C15  1  0.75110400  0.75110400  0.49924200  1
  C  C16  1  0.27796800  0.00000000  0.24749200  1
  C  C17  1  0.72203200  0.00000000  0.24749200  1
  C  C18  1  0.25460600  0.50000000  0.24638200  1
  C  C19  1  0.74539400  0.50000000  0.24638200  1
  C  C20  1  0.24839100  0.00000000  0.75723500  1
  C  C21  1  0.75160900  0.00000000  0.75723500  1
  C  C22  1  0.25213600  0.50000000  0.75014300  1
  C  C23  1  0.74786400  0.50000000  0.75014300  1
  C  C24  1  0.00000000  0.27796800  0.24749200  1
  C  C25  1  0.50000000  0.25460600  0.24638200  1
  C  C26  1  0.00000000  0.72203200  0.24749200  1
  C  C27  1  0.50000000  0.74539400  0.24638200  1
  C  C28  1  0.00000000  0.24839100  0.75723500  1
  C  C29  1  0.50000000  0.25213600  0.75014300  1
  C  C30  1  0.00000000  0.75160900  0.75723500  1
  C  C31  1  0.50000000  0.74786400  0.75014300  1
  C  C32  1  0.50000000  0.00000000  0.25825600  1
  C  C33  1  0.00000000  0.50000000  0.25825600  1
  C  C34  1  0.50000000  0.50000000  0.26218800  1
  C  C35  1  0.00000000  0.00000000  0.75019000  1
  C  C36  1  0.50000000  0.00000000  0.74220700  1
  C  C37  1  0.00000000  0.50000000  0.74220700  1
  C  C38  1  0.50000000  0.50000000  0.73458000  1
  C  C39  1  0.24248300  0.24248300  0.24820900  1
  C  C40  1  0.75751700  0.24248300  0.24820900  1
  C  C41  1  0.24248300  0.75751700  0.24820900  1
  C  C42  1  0.75751700  0.75751700  0.24820900  1
  C  C43  1  0.24890200  0.24890200  0.74770500  1
  C  C44  1  0.75109800  0.24890200  0.74770500  1
  C  C45  1  0.24890200  0.75109800  0.74770500  1
  C  C46  1  0.75109800  0.75109800  0.74770500  1
  C  C47  1  0.26933100  0.00000000  0.00196600  1
  C  C48  1  0.73066900  0.00000000  0.00196600  1
  C  C49  1  0.23963700  0.50000000  0.00081500  1
  C  C50  1  0.76036300  0.50000000  0.00081500  1
  C  C51  1  0.24199000  0.00000000  0.49151100  1
  C  C52  1  0.75801000  0.00000000  0.49151100  1
  C  C53  1  0.24668300  0.50000000  0.49618700  1
  C  C54  1  0.75331700  0.50000000  0.49618700  1
  C  C55  1  0.00000000  0.26933100  0.00196600  1
  C  C56  1  0.50000000  0.23963700  0.00081500  1
  C  C57  1  0.00000000  0.73066900  0.00196600  1
  C  C58  1  0.50000000  0.76036300  0.00081500  1
  C  C59  1  0.00000000  0.24199000  0.49151100  1
  C  C60  1  0.50000000  0.24668300  0.49618700  1
  C  C61  1  0.00000000  0.75801000  0.49151100  1
  C  C62  1  0.50000000  0.75331700  0.49618700  1
