# generated using pymatgen
data_CuNi18C49
_symmetry_space_group_name_H-M   'P 1'
_cell_length_a   10.91311060
_cell_length_b   10.91311060
_cell_length_c   21.09033077
_cell_angle_alpha   67.86594422
_cell_angle_beta   67.86594422
_cell_angle_gamma   55.78462820
_symmetry_Int_Tables_number   1
_chemical_formula_structural   CuNi18C49
_chemical_formula_sum   'Cu2 Ni36 C98'
_cell_volume   1878.87234417
_cell_formula_units_Z   2
loop_
 _symmetry_equiv_pos_site_id
 _symmetry_equiv_pos_as_xyz
  1  'x, y, z'
loop_
 _atom_site_type_symbol
 _atom_site_label
 _atom_site_symmetry_multiplicity
 _atom_site_fract_x
 _atom_site_fract_y
 _atom_site_fract_z
 _atom_site_occupancy
  C  C0  1  0.37116100  0.90199300  0.87481300  1
  C  C1  1  0.12584900  0.62999500  0.60356100  1
  C  C2  1  0.62999500  0.12584900  0.10356100  1
  C  C3  1  0.90199300  0.37116100  0.37481300  1
  C  C4  1  0.99546900  0.79691200  0.22110900  1
  C  C5  1  0.20592100  0.00812900  0.27792900  1
  C  C6  1  0.00812900  0.20592100  0.77792900  1
  C  C7  1  0.79691200  0.99546900  0.72110900  1
  C  C8  1  0.51628300  0.60665000  0.03737100  1
  C  C9  1  0.60665000  0.51628300  0.53737100  1
  C  C10  1  0.50203400  0.99762900  0.99819500  1
  C  C11  1  0.99762900  0.50203400  0.49819500  1
  C  C12  1  0.99873300  0.49965200  0.00078700  1
  C  C13  1  0.49965200  0.99873300  0.50078700  1
  C  C14  1  0.02743200  0.53173200  0.82914500  1
  C  C15  1  0.46612300  0.97626500  0.66982400  1
  C  C16  1  0.97626500  0.46612300  0.16982400  1
  C  C17  1  0.53173200  0.02743200  0.32914500  1
  C  C18  1  0.05147600  0.73287900  0.04188500  1
  C  C19  1  0.26531900  0.95404000  0.45788000  1
  C  C20  1  0.95404000  0.26531900  0.95788000  1
  C  C21  1  0.73287900  0.05147600  0.54188500  1
  C  C22  1  0.06439000  0.77564400  0.87420800  1
  C  C23  1  0.22287200  0.94123700  0.62567200  1
  C  C24  1  0.94123700  0.22287200  0.12567200  1
  C  C25  1  0.77564400  0.06439000  0.37420800  1
  Ni  Ni26  1  0.19681600  0.38776000  0.28160300  1
  Ni  Ni27  1  0.60542200  0.80726300  0.21883300  1
  Ni  Ni28  1  0.80726300  0.60542200  0.71883300  1
  Ni  Ni29  1  0.38776000  0.19681600  0.78160300  1
  Ni  Ni30  1  0.59199700  0.97769700  0.87518500  1
  Ni  Ni31  1  0.00869000  0.42221900  0.62164200  1
  Ni  Ni32  1  0.42221900  0.00869000  0.12164200  1
  Ni  Ni33  1  0.97769700  0.59199700  0.37518500  1
  Ni  Ni34  1  0.70157700  0.55369000  0.87482600  1
  Ni  Ni35  1  0.45311200  0.30487700  0.62279100  1
  Ni  Ni36  1  0.30487700  0.45311200  0.12279100  1
  Ni  Ni37  1  0.55369000  0.70157700  0.37482600  1
  Ni  Ni38  1  0.76700000  0.95996900  0.97421800  1
  Ni  Ni39  1  0.02866200  0.23881400  0.52355900  1
  Ni  Ni40  1  0.23881400  0.02866200  0.02355900  1
  Ni  Ni41  1  0.95996900  0.76700000  0.47421800  1
  Ni  Ni42  1  0.33288000  0.69775200  0.20366900  1
  Ni  Ni43  1  0.33908900  0.59412100  0.33116700  1
  Ni  Ni44  1  0.59412100  0.33908900  0.83116700  1
  Ni  Ni45  1  0.69775200  0.33288000  0.70366900  1
  Ni  Ni46  1  0.27078200  0.83953200  0.14487800  1
  Ni  Ni47  1  0.17694000  0.71640500  0.35568100  1
  Ni  Ni48  1  0.71640500  0.17694000  0.85568100  1
  Ni  Ni49  1  0.83953200  0.27078200  0.64487800  1
  Ni  Ni50  1  0.57773500  0.57544000  0.84534100  1
  Ni  Ni51  1  0.40497000  0.39795000  0.67659100  1
  Ni  Ni52  1  0.39795000  0.40497000  0.17659100  1
  Ni  Ni53  1  0.57544000  0.57773500  0.34534100  1
  Ni  Ni54  1  0.29462400  0.24857300  0.94398400  1
  Ni  Ni55  1  0.74880300  0.70911000  0.55563100  1
  Ni  Ni56  1  0.70911000  0.74880300  0.05563100  1
  Ni  Ni57  1  0.24857300  0.29462400  0.44398400  1
  Ni  Ni58  1  0.20033300  0.44171500  0.33881300  1
  Ni  Ni59  1  0.56149500  0.78662300  0.16343300  1
  Ni  Ni60  1  0.78662300  0.56149500  0.66343300  1
  Ni  Ni61  1  0.44171500  0.20033300  0.83881300  1
  Cu  Cu62  1  0.54271300  0.43660400  0.24526100  1
  Cu  Cu63  1  0.43660400  0.54271300  0.74526100  1
  C  C64  1  0.59054400  0.60962900  0.87770700  1
  C  C65  1  0.40749400  0.41000700  0.62800000  1
  C  C66  1  0.41000700  0.40749400  0.12800000  1
  C  C67  1  0.60962900  0.59054400  0.37770700  1
  C  C68  1  0.60861300  0.89753900  0.91819500  1
  C  C69  1  0.09120700  0.39527700  0.57978500  1
  C  C70  1  0.39527700  0.09120700  0.07978500  1
  C  C71  1  0.89753900  0.60861300  0.41819500  1
  C  C72  1  0.15361000  0.47948300  0.29865600  1
  C  C73  1  0.51785900  0.84380700  0.20006600  1
  C  C74  1  0.84380700  0.51785900  0.70006600  1
  C  C75  1  0.47948300  0.15361000  0.79865600  1
  C  C76  1  0.22203200  0.79990500  0.84888800  1
  C  C77  1  0.20128600  0.78276900  0.64802700  1
  C  C78  1  0.78276900  0.20128600  0.14802700  1
  C  C79  1  0.79990500  0.22203200  0.34888800  1
  C  C80  1  0.21731900  0.74422500  0.01365400  1
  C  C81  1  0.25690800  0.78666700  0.48736600  1
  C  C82  1  0.78666700  0.25690800  0.98736600  1
  C  C83  1  0.74422500  0.21731900  0.51365400  1
  C  C84  1  0.91527700  0.67802900  0.77010100  1
  C  C85  1  0.32173500  0.08655900  0.73038600  1
  C  C86  1  0.08655900  0.32173500  0.23038600  1
  C  C87  1  0.67802900  0.91527700  0.27010100  1
  C  C88  1  0.11352600  0.36320800  0.93560900  1
  C  C89  1  0.63839500  0.88499400  0.56452700  1
  C  C90  1  0.88499400  0.63839500  0.06452700  1
  C  C91  1  0.36320800  0.11352600  0.43560900  1
  C  C92  1  0.16827200  0.39022200  0.78241500  1
  C  C93  1  0.60978200  0.83691100  0.71518000  1
  C  C94  1  0.83691100  0.60978200  0.21518000  1
  C  C95  1  0.39022200  0.16827200  0.28241500  1
  C  C96  1  0.95763300  0.85689300  0.95986300  1
  C  C97  1  0.14352000  0.04874400  0.53925500  1
  C  C98  1  0.04874400  0.14352000  0.03925500  1
  C  C99  1  0.85689300  0.95763300  0.45986300  1
  C  C100  1  0.14268000  0.57455900  0.96962500  1
  C  C101  1  0.43069600  0.85175300  0.52967500  1
  C  C102  1  0.85175300  0.43069600  0.02967500  1
  C  C103  1  0.57455900  0.14268000  0.46962500  1
  C  C104  1  0.88888600  0.44926300  0.88242000  1
  C  C105  1  0.54764300  0.11621900  0.61554700  1
  C  C106  1  0.11621900  0.54764300  0.11554700  1
  C  C107  1  0.44926300  0.88888600  0.38242000  1
  C  C108  1  0.91620300  0.65636500  0.91975600  1
  C  C109  1  0.34387500  0.08554300  0.57943500  1
  C  C110  1  0.08554300  0.34387500  0.07943500  1
  C  C111  1  0.65636500  0.91620300  0.41975600  1
  C  C112  1  0.92115600  0.86393900  0.09573100  1
  C  C113  1  0.13383300  0.08065300  0.40387700  1
  C  C114  1  0.08065300  0.13383300  0.90387700  1
  C  C115  1  0.86393900  0.92115600  0.59573100  1
  C  C116  1  0.30752500  0.73017600  0.15826200  1
  C  C117  1  0.26533600  0.69950800  0.31654600  1
  C  C118  1  0.69950800  0.26533600  0.81654600  1
  C  C119  1  0.73017600  0.30752500  0.65826200  1
  C  C120  1  0.65984800  0.04496400  0.98312600  1
  C  C121  1  0.94834300  0.34670500  0.51000600  1
  C  C122  1  0.34670500  0.94834300  0.01000600  1
  C  C123  1  0.04496400  0.65984800  0.48312600  1
  C  C124  1  0.14860600  0.61425000  0.82624600  1
  C  C125  1  0.38183600  0.85440300  0.67540000  1
  C  C126  1  0.85440300  0.38183600  0.17540000  1
  C  C127  1  0.61425000  0.14860600  0.32624600  1
  C  C128  1  0.93463500  0.93127700  0.82442300  1
  C  C129  1  0.06378500  0.06915900  0.67578600  1
  C  C130  1  0.06915900  0.06378500  0.17578600  1
  C  C131  1  0.93127700  0.93463500  0.32442300  1
  C  C132  1  0.40901900  0.19483400  0.93576700  1
  C  C133  1  0.79762700  0.59584700  0.55960800  1
  C  C134  1  0.59584700  0.79762700  0.05960800  1
  C  C135  1  0.19483400  0.40901900  0.43576700  1
