# generated using pymatgen
data_CuNiC16
_symmetry_space_group_name_H-M   'P 1'
_cell_length_a   9.11960091
_cell_length_b   9.11960091
_cell_length_c   9.11960091
_cell_angle_alpha   57.37391119
_cell_angle_beta   57.37391119
_cell_angle_gamma   57.37390599
_symmetry_Int_Tables_number   1
_chemical_formula_structural   CuNiC16
_chemical_formula_sum   'Cu2 Ni2 C32'
_cell_volume   503.89264265
_cell_formula_units_Z   2
loop_
 _symmetry_equiv_pos_site_id
 _symmetry_equiv_pos_as_xyz
  1  'x, y, z'
loop_
 _atom_site_type_symbol
 _atom_site_label
 _atom_site_symmetry_multiplicity
 _atom_site_fract_x
 _atom_site_fract_y
 _atom_site_fract_z
 _atom_site_occupancy
  C  C0  1  0.99974500  0.99974500  0.99974500  1
  C  C1  1  0.50126600  0.50126600  0.50126600  1
  Ni  Ni2  1  0.35775200  0.35775200  0.35775200  1
  Ni  Ni3  1  0.65121000  0.65121000  0.65121000  1
  Cu  Cu4  1  0.84947400  0.84947400  0.84947400  1
  Cu  Cu5  1  0.14319600  0.14319600  0.14319600  1
  C  C6  1  0.24897600  0.95933600  0.54057800  1
  C  C7  1  0.54057800  0.24897600  0.95933600  1
  C  C8  1  0.95933600  0.54057800  0.24897600  1
  C  C9  1  0.75510600  0.04107800  0.45626300  1
  C  C10  1  0.45626300  0.75510600  0.04107800  1
  C  C11  1  0.04107800  0.45626300  0.75510600  1
  C  C12  1  0.81242400  0.00117600  0.60382000  1
  C  C13  1  0.60382000  0.81242400  0.00117600  1
  C  C14  1  0.00117600  0.60382000  0.81242400  1
  C  C15  1  0.19155000  0.98768600  0.37862000  1
  C  C16  1  0.37862000  0.19155000  0.98768600  1
  C  C17  1  0.98768600  0.37862000  0.19155000  1
  C  C18  1  0.52647300  0.24562400  0.14893600  1
  C  C19  1  0.14893600  0.52647300  0.24562400  1
  C  C20  1  0.24562400  0.14893600  0.52647300  1
  C  C21  1  0.48453100  0.73382000  0.87851100  1
  C  C22  1  0.87851100  0.48453100  0.73382000  1
  C  C23  1  0.73382000  0.87851100  0.48453100  1
  C  C24  1  0.09224100  0.88979100  0.75039100  1
  C  C25  1  0.75039100  0.09224100  0.88979100  1
  C  C26  1  0.88979100  0.75039100  0.09224100  1
  C  C27  1  0.90449800  0.08509400  0.26959300  1
  C  C28  1  0.26959300  0.90449800  0.08509400  1
  C  C29  1  0.08509400  0.26959300  0.90449800  1
  C  C30  1  0.45771600  0.58248000  0.20669800  1
  C  C31  1  0.20669800  0.45771600  0.58248000  1
  C  C32  1  0.58248000  0.20669800  0.45771600  1
  C  C33  1  0.52413400  0.45265200  0.78755800  1
  C  C34  1  0.78755800  0.52413400  0.45265200  1
  C  C35  1  0.45265200  0.78755800  0.52413400  1
