# generated using pymatgen
data_CuNiC8
_symmetry_space_group_name_H-M   'P 1'
_cell_length_a   5.75215555
_cell_length_b   9.73227218
_cell_length_c   9.70181117
_cell_angle_alpha   70.08956945
_cell_angle_beta   90.01605945
_cell_angle_gamma   89.96075148
_symmetry_Int_Tables_number   1
_chemical_formula_structural   CuNiC8
_chemical_formula_sum   'Cu4 Ni4 C32'
_cell_volume   510.65765072
_cell_formula_units_Z   4
loop_
 _symmetry_equiv_pos_site_id
 _symmetry_equiv_pos_as_xyz
  1  'x, y, z'
loop_
 _atom_site_type_symbol
 _atom_site_label
 _atom_site_symmetry_multiplicity
 _atom_site_fract_x
 _atom_site_fract_y
 _atom_site_fract_z
 _atom_site_occupancy
  C  C0  1  0.55489700  0.88243700  0.36959500  1
  C  C1  1  0.55131900  0.38159700  0.86854300  1
  C  C2  1  0.94591100  0.88194500  0.86968200  1
  C  C3  1  0.94722000  0.38251800  0.36860600  1
  C  C4  1  0.44834800  0.11812700  0.62928700  1
  C  C5  1  0.45205400  0.61918600  0.12997800  1
  C  C6  1  0.05080100  0.11885800  0.12926600  1
  C  C7  1  0.04920100  0.61854100  0.62965000  1
  Ni  Ni8  1  0.50482500  0.24950100  0.24934800  1
  Ni  Ni9  1  0.50375000  0.74889100  0.74914800  1
  Ni  Ni10  1  0.99456300  0.24928400  0.74893300  1
  Ni  Ni11  1  0.99679800  0.74925900  0.24934400  1
  Cu  Cu12  1  0.49986500  0.49962000  0.50016600  1
  Cu  Cu13  1  0.00008100  0.49953100  0.00020100  1
  Cu  Cu14  1  0.49920400  0.99982300  0.00044200  1
  Cu  Cu15  1  0.00061500  0.99959400  0.50065300  1
  C  C16  1  0.30846200  0.08018800  0.37357700  1
  C  C17  1  0.30685600  0.57993100  0.87182300  1
  C  C18  1  0.19225200  0.07993400  0.87299800  1
  C  C19  1  0.19281400  0.57981800  0.37255700  1
  C  C20  1  0.69937200  0.91848000  0.62737700  1
  C  C21  1  0.70163000  0.41867400  0.12980600  1
  C  C22  1  0.79987700  0.91878500  0.12778400  1
  C  C23  1  0.79895100  0.41892500  0.62889100  1
  C  C24  1  0.79139000  0.12604400  0.32248600  1
  C  C25  1  0.78999000  0.62669100  0.82200900  1
  C  C26  1  0.70887700  0.12610100  0.82223400  1
  C  C27  1  0.71048900  0.62689700  0.32184500  1
  C  C28  1  0.21272000  0.87259100  0.68082600  1
  C  C29  1  0.21442600  0.37238000  0.18126400  1
  C  C30  1  0.28717900  0.87261400  0.18116400  1
  C  C31  1  0.28546200  0.37193600  0.68164200  1
  C  C32  1  0.96549300  0.82546500  0.41824600  1
  C  C33  1  0.96432000  0.32602200  0.91874800  1
  C  C34  1  0.53482400  0.32631700  0.41891100  1
  C  C35  1  0.53438300  0.82569600  0.91801200  1
  C  C36  1  0.02928200  0.17755600  0.57871100  1
  C  C37  1  0.03077600  0.67657200  0.07860800  1
  C  C38  1  0.47004000  0.67636200  0.57850000  1
  C  C39  1  0.47068300  0.17730600  0.07914000  1
