# generated using pymatgen
data_Cu4NiC19
_symmetry_space_group_name_H-M   'P 1'
_cell_length_a   8.86450100
_cell_length_b   9.55197000
_cell_length_c   18.27578300
_cell_angle_alpha   90.00000000
_cell_angle_beta   90.00000000
_cell_angle_gamma   90.00000000
_symmetry_Int_Tables_number   1
_chemical_formula_structural   Cu4NiC19
_chemical_formula_sum   'Cu16 Ni4 C76'
_cell_volume   1547.47355451
_cell_formula_units_Z   4
loop_
 _symmetry_equiv_pos_site_id
 _symmetry_equiv_pos_as_xyz
  1  'x, y, z'
loop_
 _atom_site_type_symbol
 _atom_site_label
 _atom_site_symmetry_multiplicity
 _atom_site_fract_x
 _atom_site_fract_y
 _atom_site_fract_z
 _atom_site_occupancy
  C  C0  1  0.34734100  0.75015100  0.25000000  1
  C  C1  1  0.65265900  0.24984900  0.75000000  1
  C  C2  1  0.34734100  0.74984900  0.75000000  1
  C  C3  1  0.65265900  0.25015100  0.25000000  1
  C  C4  1  0.24870000  0.03110200  0.42859700  1
  C  C5  1  0.75130000  0.96889800  0.92859700  1
  C  C6  1  0.24870000  0.46889800  0.57140300  1
  C  C7  1  0.75130000  0.53110200  0.07140300  1
  C  C8  1  0.75130000  0.96889800  0.57140300  1
  C  C9  1  0.24870000  0.03110200  0.07140300  1
  C  C10  1  0.75130000  0.53110200  0.42859700  1
  C  C11  1  0.24870000  0.46889800  0.92859700  1
  Ni  Ni12  1  0.80049700  0.89737400  0.25000000  1
  Ni  Ni13  1  0.19950300  0.10262600  0.75000000  1
  Ni  Ni14  1  0.80049700  0.60262600  0.75000000  1
  Ni  Ni15  1  0.19950300  0.39737400  0.25000000  1
  Cu  Cu16  1  0.09876900  0.07687900  0.25000000  1
  Cu  Cu17  1  0.90123100  0.92312100  0.75000000  1
  Cu  Cu18  1  0.09876900  0.42312100  0.75000000  1
  Cu  Cu19  1  0.90123100  0.57687900  0.25000000  1
  Cu  Cu20  1  0.03498000  0.75000000  0.50000000  1
  Cu  Cu21  1  0.96502000  0.25000000  0.00000000  1
  Cu  Cu22  1  0.96502000  0.25000000  0.50000000  1
  Cu  Cu23  1  0.03498000  0.75000000  0.00000000  1
  Cu  Cu24  1  0.60866700  0.87348700  0.39831500  1
  Cu  Cu25  1  0.39133300  0.12651300  0.89831500  1
  Cu  Cu26  1  0.60866700  0.62651300  0.60168500  1
  Cu  Cu27  1  0.39133300  0.37348700  0.10168500  1
  Cu  Cu28  1  0.39133300  0.12651300  0.60168500  1
  Cu  Cu29  1  0.60866700  0.87348700  0.10168500  1
  Cu  Cu30  1  0.39133300  0.37348700  0.39831500  1
  Cu  Cu31  1  0.60866700  0.62651300  0.89831500  1
  C  C32  1  0.10343200  0.23846300  0.25000000  1
  C  C33  1  0.89656800  0.76153700  0.75000000  1
  C  C34  1  0.10343200  0.26153700  0.75000000  1
  C  C35  1  0.89656800  0.73846300  0.25000000  1
  C  C36  1  0.92952400  0.03677800  0.25000000  1
  C  C37  1  0.07047600  0.96322200  0.75000000  1
  C  C38  1  0.92952400  0.46322200  0.75000000  1
  C  C39  1  0.07047600  0.53677800  0.25000000  1
  C  C40  1  0.17742200  0.01737600  0.31798600  1
  C  C41  1  0.82257800  0.98262400  0.81798600  1
  C  C42  1  0.17742200  0.48262400  0.68201400  1
  C  C43  1  0.82257800  0.51737600  0.18201400  1
  C  C44  1  0.82257800  0.98262400  0.68201400  1
  C  C45  1  0.17742200  0.01737600  0.18201400  1
  C  C46  1  0.82257800  0.51737600  0.31798600  1
  C  C47  1  0.17742200  0.48262400  0.81798600  1
  C  C48  1  0.06411600  0.16016800  0.44880400  1
  C  C49  1  0.93588400  0.83983200  0.94880400  1
  C  C50  1  0.06411600  0.33983200  0.55119600  1
  C  C51  1  0.93588400  0.66016800  0.05119600  1
  C  C52  1  0.93588400  0.83983200  0.55119600  1
  C  C53  1  0.06411600  0.16016800  0.05119600  1
  C  C54  1  0.93588400  0.66016800  0.44880400  1
  C  C55  1  0.06411600  0.33983200  0.94880400  1
  C  C56  1  0.13509700  0.84749100  0.45315500  1
  C  C57  1  0.86490300  0.15250900  0.95315500  1
  C  C58  1  0.13509700  0.65250900  0.54684500  1
  C  C59  1  0.86490300  0.34749100  0.04684500  1
  C  C60  1  0.86490300  0.15250900  0.54684500  1
  C  C61  1  0.13509700  0.84749100  0.04684500  1
  C  C62  1  0.86490300  0.34749100  0.45315500  1
  C  C63  1  0.13509700  0.65250900  0.95315500  1
  C  C64  1  0.44020700  0.91356900  0.39596100  1
  C  C65  1  0.55979300  0.08643100  0.89596100  1
  C  C66  1  0.44020700  0.58643100  0.60403900  1
  C  C67  1  0.55979300  0.41356900  0.10403900  1
  C  C68  1  0.55979300  0.08643100  0.60403900  1
  C  C69  1  0.44020700  0.91356900  0.10403900  1
  C  C70  1  0.55979300  0.41356900  0.39596100  1
  C  C71  1  0.44020700  0.58643100  0.89596100  1
  C  C72  1  0.68584100  0.94744900  0.46275400  1
  C  C73  1  0.31415900  0.05255100  0.96275400  1
  C  C74  1  0.68584100  0.55255100  0.53724600  1
  C  C75  1  0.31415900  0.44744900  0.03724600  1
  C  C76  1  0.31415900  0.05255100  0.53724600  1
  C  C77  1  0.68584100  0.94744900  0.03724600  1
  C  C78  1  0.31415900  0.44744900  0.46275400  1
  C  C79  1  0.68584100  0.55255100  0.96275400  1
  C  C80  1  0.62458500  0.71357800  0.40193700  1
  C  C81  1  0.37541500  0.28642200  0.90193700  1
  C  C82  1  0.62458500  0.78642200  0.59806300  1
  C  C83  1  0.37541500  0.21357800  0.09806300  1
  C  C84  1  0.37541500  0.28642200  0.59806300  1
  C  C85  1  0.62458500  0.71357800  0.09806300  1
  C  C86  1  0.37541500  0.21357800  0.40193700  1
  C  C87  1  0.62458500  0.78642200  0.90193700  1
  C  C88  1  0.68132500  0.92508300  0.32529100  1
  C  C89  1  0.31867500  0.07491700  0.82529100  1
  C  C90  1  0.68132500  0.57491700  0.67470900  1
  C  C91  1  0.31867500  0.42508300  0.17470900  1
  C  C92  1  0.31867500  0.07491700  0.67470900  1
  C  C93  1  0.68132500  0.92508300  0.17470900  1
  C  C94  1  0.31867500  0.42508300  0.32529100  1
  C  C95  1  0.68132500  0.57491700  0.82529100  1
