# generated using pymatgen
data_Cu16Ni2C23
_symmetry_space_group_name_H-M   'P 1'
_cell_length_a   7.38646200
_cell_length_b   13.62613800
_cell_length_c   18.34027700
_cell_angle_alpha   90.00000000
_cell_angle_beta   90.00000000
_cell_angle_gamma   90.00000000
_symmetry_Int_Tables_number   1
_chemical_formula_structural   Cu16Ni2C23
_chemical_formula_sum   'Cu64 Ni8 C92'
_cell_volume   1845.92963273
_cell_formula_units_Z   4
loop_
 _symmetry_equiv_pos_site_id
 _symmetry_equiv_pos_as_xyz
  1  'x, y, z'
loop_
 _atom_site_type_symbol
 _atom_site_label
 _atom_site_symmetry_multiplicity
 _atom_site_fract_x
 _atom_site_fract_y
 _atom_site_fract_z
 _atom_site_occupancy
  C  C0  1  0.51526900  0.11435700  0.29309300  1
  C  C1  1  0.98473100  0.88564300  0.79309300  1
  C  C2  1  0.01526900  0.38564300  0.70690700  1
  C  C3  1  0.48473100  0.61435700  0.20690700  1
  C  C4  1  0.50284200  0.87088500  0.27737500  1
  C  C5  1  0.99715800  0.12911500  0.77737500  1
  C  C6  1  0.00284200  0.62911500  0.72262500  1
  C  C7  1  0.49715800  0.37088500  0.22262500  1
  C  C8  1  0.85818000  0.49832600  0.41719400  1
  C  C9  1  0.64182000  0.50167400  0.91719400  1
  C  C10  1  0.35818000  0.00167400  0.58280600  1
  C  C11  1  0.14182000  0.99832600  0.08280600  1
  C  C12  1  0.05444000  0.85951500  0.30317700  1
  C  C13  1  0.44556000  0.14048500  0.80317700  1
  C  C14  1  0.55444000  0.64048500  0.69682300  1
  C  C15  1  0.94556000  0.35951500  0.19682300  1
  C  C16  1  0.05764200  0.11238200  0.31232000  1
  C  C17  1  0.44235800  0.88761800  0.81232000  1
  C  C18  1  0.55764200  0.38761800  0.68768000  1
  C  C19  1  0.94235800  0.61238200  0.18768000  1
  C  C20  1  0.31532900  0.98081200  0.40630600  1
  C  C21  1  0.18467100  0.01918800  0.90630600  1
  C  C22  1  0.81532900  0.51918800  0.59369400  1
  C  C23  1  0.68467100  0.48081200  0.09369400  1
  C  C24  1  0.74043400  0.69286200  0.32822000  1
  C  C25  1  0.75956600  0.30713800  0.82822000  1
  C  C26  1  0.24043400  0.80713800  0.67178000  1
  C  C27  1  0.25956600  0.19286200  0.17178000  1
  C  C28  1  0.75975900  0.28876300  0.34568500  1
  C  C29  1  0.74024100  0.71123700  0.84568500  1
  C  C30  1  0.25975900  0.21123700  0.65431500  1
  C  C31  1  0.24024100  0.78876300  0.15431500  1
  C  C32  1  0.80944500  0.99610100  0.20641900  1
  C  C33  1  0.69055500  0.00389900  0.70641900  1
  C  C34  1  0.30944500  0.50389900  0.79358100  1
  C  C35  1  0.19055500  0.49610100  0.29358100  1
  C  C36  1  0.26195700  0.21511900  0.46750900  1
  C  C37  1  0.23804300  0.78488100  0.96750900  1
  C  C38  1  0.76195700  0.28488100  0.53249100  1
  C  C39  1  0.73804300  0.71511900  0.03249100  1
  C  C40  1  0.38894200  0.26488600  0.40219300  1
  C  C41  1  0.11105800  0.73511400  0.90219300  1
  C  C42  1  0.88894200  0.23511400  0.59780700  1
  C  C43  1  0.61105800  0.76488600  0.09780700  1
  C  C44  1  0.16416900  0.28563100  0.40519700  1
  C  C45  1  0.33583100  0.71436900  0.90519700  1
  C  C46  1  0.66416900  0.21436900  0.59480300  1
  C  C47  1  0.83583100  0.78563100  0.09480300  1
  C  C48  1  0.16188600  0.65709500  0.41190300  1
  C  C49  1  0.33811400  0.34290500  0.91190300  1
  C  C50  1  0.66188600  0.84290500  0.58809700  1
  C  C51  1  0.83811400  0.15709500  0.08809700  1
  C  C52  1  0.37741000  0.65809200  0.38965000  1
  C  C53  1  0.12259000  0.34190800  0.88965000  1
  C  C54  1  0.87741000  0.84190800  0.61035000  1
  C  C55  1  0.62259000  0.15809200  0.11035000  1
  C  C56  1  0.28125500  0.76120000  0.41886600  1
  C  C57  1  0.21874500  0.23880000  0.91886600  1
  C  C58  1  0.78125500  0.73880000  0.58113400  1
  C  C59  1  0.71874500  0.26120000  0.08113400  1
  C  C60  1  0.23231700  0.36119000  0.53342500  1
  C  C61  1  0.26768300  0.63881000  0.03342500  1
  C  C62  1  0.73231700  0.13881000  0.46657500  1
  C  C63  1  0.76768300  0.86119000  0.96657500  1
  C  C64  1  0.27446500  0.43160300  0.45281300  1
  C  C65  1  0.22553500  0.56839700  0.95281300  1
  C  C66  1  0.77446500  0.06839700  0.54718700  1
  C  C67  1  0.72553500  0.93160300  0.04718700  1
  C  C68  1  0.45751300  0.36948300  0.49765000  1
  C  C69  1  0.04248700  0.63051700  0.99765000  1
  C  C70  1  0.95751300  0.13051700  0.50235000  1
  C  C71  1  0.54248700  0.86948300  0.00235000  1
  C  C72  1  0.43542600  0.71021700  0.52410100  1
  C  C73  1  0.06457400  0.28978300  0.02410100  1
  C  C74  1  0.93542600  0.78978300  0.47589900  1
  C  C75  1  0.56457400  0.21021700  0.97589900  1
  C  C76  1  0.39286100  0.58471000  0.50458400  1
  C  C77  1  0.10713900  0.41529000  0.00458400  1
  C  C78  1  0.89286100  0.91529000  0.49541600  1
  C  C79  1  0.60713900  0.08471000  0.99541600  1
  C  C80  1  0.21424800  0.66111400  0.53803000  1
  C  C81  1  0.28575200  0.33888600  0.03803000  1
  C  C82  1  0.71424800  0.83888600  0.46197000  1
  C  C83  1  0.78575200  0.16111400  0.96197000  1
  C  C84  1  0.31351700  0.36635500  0.48370700  1
  C  C85  1  0.18648300  0.63364500  0.98370700  1
  C  C86  1  0.81351700  0.13364500  0.51629300  1
  C  C87  1  0.68648300  0.86635500  0.01629300  1
  C  C88  1  0.33486500  0.65851300  0.50345300  1
  C  C89  1  0.16513500  0.34148700  0.00345300  1
  C  C90  1  0.83486500  0.84148700  0.49654700  1
  C  C91  1  0.66513500  0.15851300  0.99654700  1
  Ni  Ni92  1  0.27912600  0.27821100  0.43715900  1
  Ni  Ni93  1  0.22087400  0.72178900  0.93715900  1
  Ni  Ni94  1  0.77912600  0.22178900  0.56284100  1
  Ni  Ni95  1  0.72087400  0.77821100  0.06284100  1
  Ni  Ni96  1  0.28581000  0.68520500  0.42713500  1
  Ni  Ni97  1  0.21419000  0.31479500  0.92713500  1
  Ni  Ni98  1  0.78581000  0.81479500  0.57286500  1
  Ni  Ni99  1  0.71419000  0.18520500  0.07286500  1
  Cu  Cu100  1  0.59071000  0.22198600  0.35761300  1
  Cu  Cu101  1  0.90929000  0.77801400  0.85761300  1
  Cu  Cu102  1  0.09071000  0.27801400  0.64238700  1
  Cu  Cu103  1  0.40929000  0.72198600  0.14238700  1
  Cu  Cu104  1  0.46432300  0.98751400  0.34304700  1
  Cu  Cu105  1  0.03567700  0.01248600  0.84304700  1
  Cu  Cu106  1  0.96432300  0.51248600  0.65695300  1
  Cu  Cu107  1  0.53567700  0.48751400  0.15695300  1
  Cu  Cu108  1  0.69910700  0.09073100  0.21985200  1
  Cu  Cu109  1  0.80089300  0.90926900  0.71985200  1
  Cu  Cu110  1  0.19910700  0.40926900  0.78014800  1
  Cu  Cu111  1  0.30089300  0.59073100  0.28014800  1
  Cu  Cu112  1  0.69565400  0.90130100  0.20887300  1
  Cu  Cu113  1  0.80434600  0.09869900  0.70887300  1
  Cu  Cu114  1  0.19565400  0.59869900  0.79112700  1
  Cu  Cu115  1  0.30434600  0.40130100  0.29112700  1
  Cu  Cu116  1  0.57785000  0.76273500  0.33854600  1
  Cu  Cu117  1  0.92215000  0.23726500  0.83854600  1
  Cu  Cu118  1  0.07785000  0.73726500  0.66145400  1
  Cu  Cu119  1  0.42215000  0.26273500  0.16145400  1
  Cu  Cu120  1  0.72000400  0.61156500  0.38526900  1
  Cu  Cu121  1  0.77999600  0.38843500  0.88526900  1
  Cu  Cu122  1  0.22000400  0.88843500  0.61473100  1
  Cu  Cu123  1  0.27999600  0.11156500  0.11473100  1
  Cu  Cu124  1  0.91162200  0.52406400  0.52035000  1
  Cu  Cu125  1  0.58837800  0.47593600  0.02035000  1
  Cu  Cu126  1  0.41162200  0.97593600  0.47965000  1
  Cu  Cu127  1  0.08837800  0.02406400  0.97965000  1
  Cu  Cu128  1  0.76248300  0.36472800  0.40751300  1
  Cu  Cu129  1  0.73751700  0.63527200  0.90751300  1
  Cu  Cu130  1  0.26248300  0.13527200  0.59248700  1
  Cu  Cu131  1  0.23751700  0.86472800  0.09248700  1
  Cu  Cu132  1  0.09492900  0.50487100  0.36725900  1
  Cu  Cu133  1  0.40507100  0.49512900  0.86725900  1
  Cu  Cu134  1  0.59492900  0.99512900  0.63274100  1
  Cu  Cu135  1  0.90507100  0.00487100  0.13274100  1
  Cu  Cu136  1  0.92720200  0.74359200  0.33352300  1
  Cu  Cu137  1  0.57279800  0.25640800  0.83352300  1
  Cu  Cu138  1  0.42720200  0.75640800  0.66647700  1
  Cu  Cu139  1  0.07279800  0.24359200  0.16647700  1
  Cu  Cu140  1  0.26130000  0.83936700  0.23173200  1
  Cu  Cu141  1  0.23870000  0.16063300  0.73173200  1
  Cu  Cu142  1  0.76130000  0.66063300  0.76826800  1
  Cu  Cu143  1  0.73870000  0.33936700  0.26826800  1
  Cu  Cu144  1  0.20734700  0.88479600  0.39067100  1
  Cu  Cu145  1  0.29265300  0.11520400  0.89067100  1
  Cu  Cu146  1  0.70734700  0.61520400  0.60932900  1
  Cu  Cu147  1  0.79265300  0.38479600  0.10932900  1
  Cu  Cu148  1  0.95310100  0.98903800  0.27185800  1
  Cu  Cu149  1  0.54689900  0.01096200  0.77185800  1
  Cu  Cu150  1  0.45310100  0.51096200  0.72814200  1
  Cu  Cu151  1  0.04689900  0.48903800  0.22814200  1
  Cu  Cu152  1  0.19437900  0.07337500  0.40044600  1
  Cu  Cu153  1  0.30562100  0.92662500  0.90044600  1
  Cu  Cu154  1  0.69437900  0.42662500  0.59955400  1
  Cu  Cu155  1  0.80562100  0.57337500  0.09955400  1
  Cu  Cu156  1  0.27338200  0.14800000  0.25168800  1
  Cu  Cu157  1  0.22661800  0.85200000  0.75168800  1
  Cu  Cu158  1  0.77338200  0.35200000  0.74831200  1
  Cu  Cu159  1  0.72661800  0.64800000  0.24831200  1
  Cu  Cu160  1  0.93978300  0.23098700  0.34556900  1
  Cu  Cu161  1  0.56021700  0.76901300  0.84556900  1
  Cu  Cu162  1  0.43978300  0.26901300  0.65443100  1
  Cu  Cu163  1  0.06021700  0.73098700  0.15443100  1
