# generated using pymatgen
data_Cu4Ni2C21
_symmetry_space_group_name_H-M   'P 1'
_cell_length_a   5.78506700
_cell_length_b   7.47150918
_cell_length_c   17.52506234
_cell_angle_alpha   90.11304969
_cell_angle_beta   90.00000000
_cell_angle_gamma   90.00000000
_symmetry_Int_Tables_number   1
_chemical_formula_structural   Cu4Ni2C21
_chemical_formula_sum   'Cu8 Ni4 C42'
_cell_volume   757.48747059
_cell_formula_units_Z   2
loop_
 _symmetry_equiv_pos_site_id
 _symmetry_equiv_pos_as_xyz
  1  'x, y, z'
loop_
 _atom_site_type_symbol
 _atom_site_label
 _atom_site_symmetry_multiplicity
 _atom_site_fract_x
 _atom_site_fract_y
 _atom_site_fract_z
 _atom_site_occupancy
  C  C0  1  0.73017200  0.50000000  0.25000000  1
  C  C1  1  0.26982800  0.50000000  0.75000000  1
  C  C2  1  0.74871100  0.00000000  0.25000000  1
  C  C3  1  0.25128900  0.00000000  0.75000000  1
  C  C4  1  0.23363700  0.99767000  0.42186200  1
  C  C5  1  0.23363700  0.00233000  0.07813800  1
  C  C6  1  0.76636300  0.00233000  0.57813800  1
  C  C7  1  0.76636300  0.99767000  0.92186200  1
  C  C8  1  0.21085200  0.45934100  0.41837900  1
  C  C9  1  0.21085200  0.54065900  0.08162100  1
  C  C10  1  0.78914800  0.54065900  0.58162100  1
  C  C11  1  0.78914800  0.45934100  0.91837900  1
  Ni  Ni12  1  0.74189000  0.74988600  0.40849800  1
  Ni  Ni13  1  0.74189000  0.25011400  0.09150200  1
  Ni  Ni14  1  0.25811000  0.25011400  0.59150200  1
  Ni  Ni15  1  0.25811000  0.74988600  0.90849800  1
  Cu  Cu16  1  0.25509300  0.74585500  0.55684600  1
  Cu  Cu17  1  0.25509300  0.25414500  0.94315400  1
  Cu  Cu18  1  0.74490700  0.25414500  0.44315400  1
  Cu  Cu19  1  0.74490700  0.74585500  0.05684600  1
  Cu  Cu20  1  0.24288200  0.73796000  0.26869400  1
  Cu  Cu21  1  0.24288200  0.26204000  0.23130600  1
  Cu  Cu22  1  0.75711800  0.26204000  0.73130600  1
  Cu  Cu23  1  0.75711800  0.73796000  0.76869400  1
  C  C24  1  0.26788600  0.94941300  0.60298300  1
  C  C25  1  0.26788600  0.05058700  0.89701700  1
  C  C26  1  0.73211400  0.05058700  0.39701700  1
  C  C27  1  0.73211400  0.94941300  0.10298300  1
  C  C28  1  0.23310500  0.55501400  0.61483300  1
  C  C29  1  0.23310500  0.44498600  0.88516700  1
  C  C30  1  0.76689500  0.44498600  0.38516700  1
  C  C31  1  0.76689500  0.55501400  0.11483300  1
  C  C32  1  0.01024000  0.75003400  0.49668900  1
  C  C33  1  0.01024000  0.24996600  0.00331100  1
  C  C34  1  0.98976000  0.24996600  0.50331100  1
  C  C35  1  0.98976000  0.75003400  0.99668900  1
  C  C36  1  0.49966600  0.72897200  0.49811900  1
  C  C37  1  0.49966600  0.27102800  0.00188100  1
  C  C38  1  0.50033400  0.27102800  0.50188100  1
  C  C39  1  0.50033400  0.72897200  0.99811900  1
  C  C40  1  0.49699000  0.77772200  0.31761800  1
  C  C41  1  0.49699000  0.22227800  0.18238200  1
  C  C42  1  0.50301000  0.22227800  0.68238200  1
  C  C43  1  0.50301000  0.77772200  0.81761800  1
  C  C44  1  0.25297800  0.50000000  0.25000000  1
  C  C45  1  0.74702200  0.50000000  0.75000000  1
  C  C46  1  0.99928800  0.77036800  0.32371000  1
  C  C47  1  0.99928800  0.22963200  0.17629000  1
  C  C48  1  0.00071200  0.22963200  0.67629000  1
  C  C49  1  0.00071200  0.77036800  0.82371000  1
  C  C50  1  0.22601700  0.84100000  0.18332700  1
  C  C51  1  0.22601700  0.15900000  0.31667300  1
  C  C52  1  0.77398300  0.15900000  0.81667300  1
  C  C53  1  0.77398300  0.84100000  0.68332700  1
