# generated using pymatgen
data_Cu4NiC2
_symmetry_space_group_name_H-M   'P 1'
_cell_length_a   17.38061200
_cell_length_b   9.29248400
_cell_length_c   9.71115890
_cell_angle_alpha   89.40541743
_cell_angle_beta   90.00000000
_cell_angle_gamma   90.00000000
_symmetry_Int_Tables_number   1
_chemical_formula_structural   Cu4NiC2
_chemical_formula_sum   'Cu32 Ni8 C16'
_cell_volume   1568.35568188
_cell_formula_units_Z   8
loop_
 _symmetry_equiv_pos_site_id
 _symmetry_equiv_pos_as_xyz
  1  'x, y, z'
loop_
 _atom_site_type_symbol
 _atom_site_label
 _atom_site_symmetry_multiplicity
 _atom_site_fract_x
 _atom_site_fract_y
 _atom_site_fract_z
 _atom_site_occupancy
  C  C0  1  0.52844400  0.26874200  0.01194700  1
  C  C1  1  0.02844400  0.73125800  0.48805300  1
  C  C2  1  0.47155600  0.73125800  0.98805300  1
  C  C3  1  0.97155600  0.26874200  0.51194700  1
  C  C4  1  0.78601100  0.37874400  0.12811200  1
  C  C5  1  0.28601100  0.62125600  0.37188800  1
  C  C6  1  0.21398900  0.62125600  0.87188800  1
  C  C7  1  0.71398900  0.37874400  0.62811200  1
  C  C8  1  0.29229000  0.12876800  0.88209300  1
  C  C9  1  0.79229000  0.87123200  0.61790700  1
  C  C10  1  0.70771000  0.87123200  0.11790700  1
  C  C11  1  0.20771000  0.12876800  0.38209300  1
  C  C12  1  0.48676100  0.22719400  0.47272900  1
  C  C13  1  0.98676100  0.77280600  0.02727100  1
  C  C14  1  0.51323900  0.77280600  0.52727100  1
  C  C15  1  0.01323900  0.22719400  0.97272900  1
  Ni  Ni16  1  0.39867800  0.99595200  0.25712200  1
  Ni  Ni17  1  0.89867800  0.00404800  0.24287800  1
  Ni  Ni18  1  0.60132200  0.00404800  0.74287800  1
  Ni  Ni19  1  0.10132200  0.99595200  0.75712200  1
  Ni  Ni20  1  0.59895900  0.52388300  0.28058100  1
  Ni  Ni21  1  0.09895900  0.47611700  0.21941900  1
  Ni  Ni22  1  0.40104100  0.47611700  0.71941900  1
  Ni  Ni23  1  0.90104100  0.52388300  0.78058100  1
  Cu  Cu24  1  0.34406900  0.33537300  0.59320100  1
  Cu  Cu25  1  0.84406900  0.66462700  0.90679900  1
  Cu  Cu26  1  0.65593100  0.66462700  0.40679900  1
  Cu  Cu27  1  0.15593100  0.33537300  0.09320100  1
  Cu  Cu28  1  0.62523200  0.56326900  0.08077000  1
  Cu  Cu29  1  0.12523200  0.43673100  0.41923000  1
  Cu  Cu30  1  0.37476800  0.43673100  0.91923000  1
  Cu  Cu31  1  0.87476800  0.56326900  0.58077000  1
  Cu  Cu32  1  0.12468900  0.96372700  0.96463800  1
  Cu  Cu33  1  0.62468900  0.03627300  0.53536200  1
  Cu  Cu34  1  0.87531100  0.03627300  0.03536200  1
  Cu  Cu35  1  0.37531100  0.96372700  0.46463800  1
  Cu  Cu36  1  0.01515400  0.04861000  0.25121300  1
  Cu  Cu37  1  0.51515400  0.95139000  0.24878700  1
  Cu  Cu38  1  0.98484600  0.95139000  0.74878700  1
  Cu  Cu39  1  0.48484600  0.04861000  0.75121300  1
  Cu  Cu40  1  0.01850800  0.53834000  0.81949500  1
  Cu  Cu41  1  0.51850800  0.46166000  0.68050500  1
  Cu  Cu42  1  0.98149200  0.46166000  0.18050500  1
  Cu  Cu43  1  0.48149200  0.53834000  0.31949500  1
  Cu  Cu44  1  0.86990100  0.31619100  0.83134500  1
  Cu  Cu45  1  0.36990100  0.68380900  0.66865500  1
  Cu  Cu46  1  0.13009900  0.68380900  0.16865500  1
  Cu  Cu47  1  0.63009900  0.31619100  0.33134500  1
  Cu  Cu48  1  0.11509100  0.21238900  0.72384200  1
  Cu  Cu49  1  0.61509100  0.78761100  0.77615800  1
  Cu  Cu50  1  0.88490900  0.78761100  0.27615800  1
  Cu  Cu51  1  0.38490900  0.21238900  0.22384200  1
  Cu  Cu52  1  0.17177300  0.87910900  0.63675300  1
  Cu  Cu53  1  0.67177300  0.12089100  0.86324700  1
  Cu  Cu54  1  0.82822700  0.12089100  0.36324700  1
  Cu  Cu55  1  0.32822700  0.87910900  0.13675300  1
