# generated using pymatgen
data_Cu10Ni3C
_symmetry_space_group_name_H-M   'P 1'
_cell_length_a   7.48580900
_cell_length_b   8.08214106
_cell_length_c   8.23270612
_cell_angle_alpha   63.87971420
_cell_angle_beta   70.67938016
_cell_angle_gamma   62.80658293
_symmetry_Int_Tables_number   1
_chemical_formula_structural   Cu10Ni3C
_chemical_formula_sum   'Cu20 Ni6 C2'
_cell_volume   392.51161984
_cell_formula_units_Z   2
loop_
 _symmetry_equiv_pos_site_id
 _symmetry_equiv_pos_as_xyz
  1  'x, y, z'
loop_
 _atom_site_type_symbol
 _atom_site_label
 _atom_site_symmetry_multiplicity
 _atom_site_fract_x
 _atom_site_fract_y
 _atom_site_fract_z
 _atom_site_occupancy
  C  C0  1  0.46506700  0.73090900  0.57018400  1
  C  C1  1  0.53493300  0.26909100  0.42981600  1
  Ni  Ni2  1  0.09946500  0.71464300  0.81162800  1
  Ni  Ni3  1  0.90053500  0.28535700  0.18837200  1
  Ni  Ni4  1  0.40959700  0.79115400  0.21392800  1
  Ni  Ni5  1  0.59040300  0.20884600  0.78607200  1
  Ni  Ni6  1  0.83221400  0.81336500  0.34422600  1
  Ni  Ni7  1  0.16778600  0.18663500  0.65577400  1
  Cu  Cu8  1  0.69751700  0.61127900  0.76941300  1
  Cu  Cu9  1  0.30248300  0.38872100  0.23058700  1
  Cu  Cu10  1  0.26371500  0.66764700  0.86951200  1
  Cu  Cu11  1  0.73628500  0.33235300  0.13048800  1
  Cu  Cu12  1  0.11800100  0.76478500  0.63631500  1
  Cu  Cu13  1  0.88199900  0.23521500  0.36368500  1
  Cu  Cu14  1  0.93999900  0.71278900  0.91502000  1
  Cu  Cu15  1  0.06000100  0.28721100  0.08498000  1
  Cu  Cu16  1  0.44287600  0.61671800  0.34984200  1
  Cu  Cu17  1  0.55712400  0.38328200  0.65015800  1
  Cu  Cu18  1  0.39078000  0.92768000  0.26351900  1
  Cu  Cu19  1  0.60922000  0.07232000  0.73648100  1
  Cu  Cu20  1  0.39975200  0.81204500  0.06191400  1
  Cu  Cu21  1  0.60024800  0.18795500  0.93808600  1
  Cu  Cu22  1  0.67965200  0.93247700  0.42827900  1
  Cu  Cu23  1  0.32034800  0.06752300  0.57172100  1
  Cu  Cu24  1  0.81040500  0.65224700  0.38231600  1
  Cu  Cu25  1  0.18959500  0.34775300  0.61768400  1
  Cu  Cu26  1  0.97434700  0.85888300  0.24224800  1
  Cu  Cu27  1  0.02565300  0.14111700  0.75775200  1
