# generated using pymatgen
data_Cu3Ni3C7
_symmetry_space_group_name_H-M   'P 1'
_cell_length_a   12.85889498
_cell_length_b   12.85889498
_cell_length_c   6.99696600
_cell_angle_alpha   90.00000000
_cell_angle_beta   90.00000000
_cell_angle_gamma   120.00000504
_symmetry_Int_Tables_number   1
_chemical_formula_structural   Cu3Ni3C7
_chemical_formula_sum   'Cu18 Ni18 C42'
_cell_volume   1001.95374299
_cell_formula_units_Z   6
loop_
 _symmetry_equiv_pos_site_id
 _symmetry_equiv_pos_as_xyz
  1  'x, y, z'
loop_
 _atom_site_type_symbol
 _atom_site_label
 _atom_site_symmetry_multiplicity
 _atom_site_fract_x
 _atom_site_fract_y
 _atom_site_fract_z
 _atom_site_occupancy
  C  C0  1  0.67411900  0.01907600  0.50630400  1
  C  C1  1  0.98092400  0.65504300  0.50630400  1
  C  C2  1  0.34495700  0.32588100  0.50630400  1
  C  C3  1  0.32588100  0.98092400  0.00630400  1
  C  C4  1  0.01907600  0.34495700  0.00630400  1
  C  C5  1  0.65504300  0.67411900  0.00630400  1
  Ni  Ni6  1  0.48806600  0.80048700  0.78746500  1
  Ni  Ni7  1  0.19951300  0.68757900  0.78746500  1
  Ni  Ni8  1  0.31242100  0.51193400  0.78746500  1
  Ni  Ni9  1  0.51193400  0.19951300  0.28746500  1
  Ni  Ni10  1  0.80048700  0.31242100  0.28746500  1
  Ni  Ni11  1  0.68757900  0.48806600  0.28746500  1
  Ni  Ni12  1  0.46652700  0.68827400  0.26615300  1
  Ni  Ni13  1  0.31172600  0.77825300  0.26615300  1
  Ni  Ni14  1  0.22174700  0.53347300  0.26615300  1
  Ni  Ni15  1  0.53347300  0.31172600  0.76615300  1
  Ni  Ni16  1  0.68827400  0.22174700  0.76615300  1
  Ni  Ni17  1  0.77825300  0.46652700  0.76615300  1
  Ni  Ni18  1  0.84594300  0.99213700  0.18798600  1
  Ni  Ni19  1  0.00786300  0.85380600  0.18798600  1
  Ni  Ni20  1  0.14619400  0.15405700  0.18798600  1
  Ni  Ni21  1  0.15405700  0.00786300  0.68798600  1
  Ni  Ni22  1  0.99213700  0.14619400  0.68798600  1
  Ni  Ni23  1  0.85380600  0.84594300  0.68798600  1
  Cu  Cu24  1  0.47885200  0.87919100  0.82225000  1
  Cu  Cu25  1  0.12080900  0.59966100  0.82225000  1
  Cu  Cu26  1  0.40033900  0.52114800  0.82225000  1
  Cu  Cu27  1  0.52114800  0.12080900  0.32225000  1
  Cu  Cu28  1  0.87919100  0.40033900  0.32225000  1
  Cu  Cu29  1  0.59966100  0.47885200  0.32225000  1
  Cu  Cu30  1  0.54479300  0.77928400  0.28317300  1
  Cu  Cu31  1  0.22071600  0.76550900  0.28317300  1
  Cu  Cu32  1  0.23449100  0.45520700  0.28317300  1
  Cu  Cu33  1  0.45520700  0.22071600  0.78317300  1
  Cu  Cu34  1  0.77928400  0.23449100  0.78317300  1
  Cu  Cu35  1  0.76550900  0.54479300  0.78317300  1
  Cu  Cu36  1  0.86259700  0.08478700  0.17433200  1
  Cu  Cu37  1  0.91521300  0.77781000  0.17433200  1
  Cu  Cu38  1  0.22219000  0.13740300  0.17433200  1
  Cu  Cu39  1  0.13740300  0.91521300  0.67433200  1
  Cu  Cu40  1  0.08478700  0.22219000  0.67433200  1
  Cu  Cu41  1  0.77781000  0.86259700  0.67433200  1
  C  C42  1  0.79619300  0.11557200  0.26399900  1
  C  C43  1  0.88442800  0.68062100  0.26399900  1
  C  C44  1  0.31937900  0.20380700  0.26399900  1
  C  C45  1  0.20380700  0.88442800  0.76399900  1
  C  C46  1  0.11557200  0.31937900  0.76399900  1
  C  C47  1  0.68062100  0.79619300  0.76399900  1
  C  C48  1  0.55334900  0.98141400  0.75434500  1
  C  C49  1  0.01858600  0.57193500  0.75434500  1
  C  C50  1  0.42806500  0.44665100  0.75434500  1
  C  C51  1  0.44665100  0.01858600  0.25434500  1
  C  C52  1  0.98141400  0.42806500  0.25434500  1
  C  C53  1  0.57193500  0.55334900  0.25434500  1
  C  C54  1  0.79494100  0.94898500  0.56503500  1
  C  C55  1  0.05101500  0.84595500  0.56503500  1
  C  C56  1  0.15404500  0.20505900  0.56503500  1
  C  C57  1  0.20505900  0.05101500  0.06503500  1
  C  C58  1  0.94898500  0.15404500  0.06503500  1
  C  C59  1  0.84595500  0.79494100  0.06503500  1
  C  C60  1  0.63924900  0.80935000  0.18655000  1
  C  C61  1  0.19065000  0.82990000  0.18655000  1
  C  C62  1  0.17010000  0.36075100  0.18655000  1
  C  C63  1  0.36075100  0.19065000  0.68655000  1
  C  C64  1  0.80935000  0.17010000  0.68655000  1
  C  C65  1  0.82990000  0.63924900  0.68655000  1
  C  C66  1  0.53175000  0.84680600  0.40242500  1
  C  C67  1  0.15319400  0.68494400  0.40242500  1
  C  C68  1  0.31505600  0.46825000  0.40242500  1
  C  C69  1  0.46825000  0.15319400  0.90242500  1
  C  C70  1  0.84680600  0.31505600  0.90242500  1
  C  C71  1  0.68494400  0.53175000  0.90242500  1
  C  C72  1  0.60800100  0.14073500  0.43258300  1
  C  C73  1  0.85926500  0.46726600  0.43258300  1
  C  C74  1  0.53273400  0.39199900  0.43258300  1
  C  C75  1  0.39199900  0.85926500  0.93258300  1
  C  C76  1  0.14073500  0.53273400  0.93258300  1
  C  C77  1  0.46726600  0.60800100  0.93258300  1
