# generated using pymatgen
data_Cu2Ni3C4
_symmetry_space_group_name_H-M   'P 1'
_cell_length_a   6.13791700
_cell_length_b   12.33650000
_cell_length_c   9.30648100
_cell_angle_alpha   90.00000000
_cell_angle_beta   90.00000000
_cell_angle_gamma   90.00000000
_symmetry_Int_Tables_number   1
_chemical_formula_structural   Cu2Ni3C4
_chemical_formula_sum   'Cu8 Ni12 C16'
_cell_volume   704.69058555
_cell_formula_units_Z   4
loop_
 _symmetry_equiv_pos_site_id
 _symmetry_equiv_pos_as_xyz
  1  'x, y, z'
loop_
 _atom_site_type_symbol
 _atom_site_label
 _atom_site_symmetry_multiplicity
 _atom_site_fract_x
 _atom_site_fract_y
 _atom_site_fract_z
 _atom_site_occupancy
  Ni  Ni0  1  0.66783700  0.18069500  0.39097500  1
  Ni  Ni1  1  0.83216300  0.81930500  0.39097500  1
  Ni  Ni2  1  0.66783700  0.31930500  0.10902500  1
  Ni  Ni3  1  0.83216300  0.68069500  0.10902500  1
  Ni  Ni4  1  0.33216300  0.81930500  0.60902500  1
  Ni  Ni5  1  0.16783700  0.18069500  0.60902500  1
  Ni  Ni6  1  0.33216300  0.68069500  0.89097500  1
  Ni  Ni7  1  0.16783700  0.31930500  0.89097500  1
  Ni  Ni8  1  0.75000000  0.50000000  0.43202500  1
  Ni  Ni9  1  0.75000000  0.00000000  0.06797500  1
  Ni  Ni10  1  0.25000000  0.50000000  0.56797500  1
  Ni  Ni11  1  0.25000000  0.00000000  0.93202500  1
  Cu  Cu12  1  0.75000000  0.50000000  0.81401900  1
  Cu  Cu13  1  0.75000000  0.00000000  0.68598100  1
  Cu  Cu14  1  0.25000000  0.50000000  0.18598100  1
  Cu  Cu15  1  0.25000000  0.00000000  0.31401900  1
  Cu  Cu16  1  0.71035300  0.25000000  0.75000000  1
  Cu  Cu17  1  0.78964700  0.75000000  0.75000000  1
  Cu  Cu18  1  0.28964700  0.75000000  0.25000000  1
  Cu  Cu19  1  0.21035300  0.25000000  0.25000000  1
  C  C20  1  0.95653500  0.38521200  0.66849200  1
  C  C21  1  0.54346500  0.61478800  0.66849200  1
  C  C22  1  0.95653500  0.11478800  0.83150800  1
  C  C23  1  0.54346500  0.88521200  0.83150800  1
  C  C24  1  0.04346500  0.61478800  0.33150800  1
  C  C25  1  0.45653500  0.38521200  0.33150800  1
  C  C26  1  0.04346500  0.88521200  0.16849200  1
  C  C27  1  0.45653500  0.11478800  0.16849200  1
  C  C28  1  0.52707700  0.36250400  0.89120100  1
  C  C29  1  0.97292300  0.63749600  0.89120100  1
  C  C30  1  0.52707700  0.13749600  0.60879900  1
  C  C31  1  0.97292300  0.86250400  0.60879900  1
  C  C32  1  0.47292300  0.63749600  0.10879900  1
  C  C33  1  0.02707700  0.36250400  0.10879900  1
  C  C34  1  0.47292300  0.86250400  0.39120100  1
  C  C35  1  0.02707700  0.13749600  0.39120100  1
