# generated using pymatgen
data_CuNiC16
_symmetry_space_group_name_H-M   'P 1'
_cell_length_a   7.37459172
_cell_length_b   7.37459172
_cell_length_c   10.28384212
_cell_angle_alpha   66.42824058
_cell_angle_beta   66.42824058
_cell_angle_gamma   69.98141042
_symmetry_Int_Tables_number   1
_chemical_formula_structural   CuNiC16
_chemical_formula_sum   'Cu2 Ni2 C32'
_cell_volume   458.63417161
_cell_formula_units_Z   2
loop_
 _symmetry_equiv_pos_site_id
 _symmetry_equiv_pos_as_xyz
  1  'x, y, z'
loop_
 _atom_site_type_symbol
 _atom_site_label
 _atom_site_symmetry_multiplicity
 _atom_site_fract_x
 _atom_site_fract_y
 _atom_site_fract_z
 _atom_site_occupancy
  Ni  Ni0  1  0.95935200  0.04064800  0.75000000  1
  Ni  Ni1  1  0.04064800  0.95935200  0.25000000  1
  Cu  Cu2  1  0.50000000  0.00000000  0.00000000  1
  Cu  Cu3  1  0.00000000  0.50000000  0.50000000  1
  C  C4  1  0.31515700  0.29411100  0.69276800  1
  C  C5  1  0.70588900  0.68484300  0.80723200  1
  C  C6  1  0.68484300  0.70588900  0.30723200  1
  C  C7  1  0.29411100  0.31515700  0.19276800  1
  C  C8  1  0.73072900  0.25104600  0.47882800  1
  C  C9  1  0.74895400  0.26927100  0.02117200  1
  C  C10  1  0.26927100  0.74895400  0.52117200  1
  C  C11  1  0.25104600  0.73072900  0.97882800  1
  C  C12  1  0.31092800  0.53102900  0.64624000  1
  C  C13  1  0.46897100  0.68907200  0.85376000  1
  C  C14  1  0.68907200  0.46897100  0.35376000  1
  C  C15  1  0.53102900  0.31092800  0.14624000  1
  C  C16  1  0.50405500  0.21411500  0.56492700  1
  C  C17  1  0.78588500  0.49594500  0.93507300  1
  C  C18  1  0.49594500  0.78588500  0.43507300  1
  C  C19  1  0.21411500  0.50405500  0.06492700  1
  C  C20  1  0.34880600  0.19547900  0.84081500  1
  C  C21  1  0.80452100  0.65119400  0.65918500  1
  C  C22  1  0.65119400  0.80452100  0.15918500  1
  C  C23  1  0.19547900  0.34880600  0.34081500  1
  C  C24  1  0.12888500  0.27204500  0.67641600  1
  C  C25  1  0.72795500  0.87111500  0.82358400  1
  C  C26  1  0.87111500  0.72795500  0.32358400  1
  C  C27  1  0.27204500  0.12888500  0.17641600  1
  C  C28  1  0.81234400  0.27484500  0.58428900  1
  C  C29  1  0.72515500  0.18765600  0.91571100  1
  C  C30  1  0.18765600  0.72515500  0.41571100  1
  C  C31  1  0.27484500  0.81234400  0.08428900  1
  C  C32  1  0.84649500  0.09435100  0.40282300  1
  C  C33  1  0.90564900  0.15350500  0.09717700  1
  C  C34  1  0.15350500  0.90564900  0.59717700  1
  C  C35  1  0.09435100  0.84649500  0.90282300  1
