# generated using pymatgen
data_Cu8(Ni3C5)3
_symmetry_space_group_name_H-M   'P 1'
_cell_length_a   10.41769300
_cell_length_b   7.18575200
_cell_length_c   7.18604908
_cell_angle_alpha   88.61543135
_cell_angle_beta   90.00000000
_cell_angle_gamma   90.00000000
_symmetry_Int_Tables_number   1
_chemical_formula_structural   Cu8(Ni3C5)3
_chemical_formula_sum   'Cu16 Ni18 C30'
_cell_volume   537.78308841
_cell_formula_units_Z   2
loop_
 _symmetry_equiv_pos_site_id
 _symmetry_equiv_pos_as_xyz
  1  'x, y, z'
loop_
 _atom_site_type_symbol
 _atom_site_label
 _atom_site_symmetry_multiplicity
 _atom_site_fract_x
 _atom_site_fract_y
 _atom_site_fract_z
 _atom_site_occupancy
  C  C0  1  0.61496700  0.76637200  0.62358200  1
  C  C1  1  0.38503300  0.26637200  0.62358200  1
  C  C2  1  0.15026300  0.24392600  0.18217100  1
  C  C3  1  0.84973700  0.74392600  0.18217100  1
  C  C4  1  0.10286300  0.70146000  0.63575000  1
  C  C5  1  0.89713700  0.20146000  0.63575000  1
  C  C6  1  0.61225900  0.23131400  0.12810900  1
  C  C7  1  0.38774100  0.73131400  0.12810900  1
  C  C8  1  0.88669800  0.78854700  0.62661800  1
  C  C9  1  0.11330200  0.28854700  0.62661800  1
  C  C10  1  0.38506800  0.27770900  0.13724400  1
  C  C11  1  0.61493200  0.77770900  0.13724400  1
  C  C12  1  0.75467800  0.71551200  0.88260200  1
  C  C13  1  0.24532200  0.21551200  0.88260200  1
  C  C14  1  0.87657400  0.99797200  0.89362200  1
  C  C15  1  0.12342600  0.49797200  0.89362200  1
  C  C16  1  0.59212900  0.50853400  0.31760200  1
  C  C17  1  0.40787100  0.00853400  0.31760200  1
  C  C18  1  0.10489300  0.98203500  0.85872700  1
  C  C19  1  0.89510700  0.48203500  0.85872700  1
  C  C20  1  0.36678500  0.49081900  0.38032200  1
  C  C21  1  0.63321500  0.99081900  0.38032200  1
  C  C22  1  0.63169700  0.00545400  0.87917800  1
  C  C23  1  0.36830300  0.50545400  0.87917800  1
  C  C24  1  0.91064000  0.49497500  0.43626800  1
  C  C25  1  0.08936000  0.99497500  0.43626800  1
  C  C26  1  0.41071700  0.00005000  0.92725400  1
  C  C27  1  0.58928300  0.50005000  0.92725400  1
  C  C28  1  0.13596000  0.50459700  0.37277100  1
  C  C29  1  0.86404000  0.00459700  0.37277100  1
  Ni  Ni30  1  0.45469900  0.76344500  0.77783600  1
  Ni  Ni31  1  0.54530100  0.26344500  0.77783600  1
  Ni  Ni32  1  0.95578300  0.26354000  0.27828800  1
  Ni  Ni33  1  0.04421700  0.76354000  0.27828800  1
  Ni  Ni34  1  0.43828600  0.75346000  0.47267300  1
  Ni  Ni35  1  0.56171400  0.25346000  0.47267300  1
  Ni  Ni36  1  0.98175600  0.23928400  0.99727600  1
  Ni  Ni37  1  0.01824400  0.73928400  0.99727600  1
  Ni  Ni38  1  0.79166500  0.11464000  0.11353400  1
  Ni  Ni39  1  0.20833500  0.61464000  0.11353400  1
  Ni  Ni40  1  0.70557100  0.42061900  0.65439200  1
  Ni  Ni41  1  0.29442900  0.92061900  0.65439200  1
  Ni  Ni42  1  0.20959700  0.92720400  0.15012000  1
  Ni  Ni43  1  0.79040300  0.42720400  0.15012000  1
  Ni  Ni44  1  0.29629100  0.61007700  0.63224100  1
  Ni  Ni45  1  0.70370900  0.11007700  0.63224100  1
  Ni  Ni46  1  0.73870500  0.58530500  0.50773300  1
  Ni  Ni47  1  0.26129500  0.08530500  0.50773300  1
  Cu  Cu48  1  0.99107100  0.75061000  0.39989700  1
  Cu  Cu49  1  0.00892900  0.25061000  0.39989700  1
  Cu  Cu50  1  0.48460600  0.25790800  0.89241700  1
  Cu  Cu51  1  0.51539400  0.75790800  0.89241700  1
  Cu  Cu52  1  0.98551200  0.74445200  0.86112900  1
  Cu  Cu53  1  0.01448800  0.24445200  0.86112900  1
  Cu  Cu54  1  0.49371700  0.25776100  0.36733700  1
  Cu  Cu55  1  0.50628300  0.75776100  0.36733700  1
  Cu  Cu56  1  0.75658900  0.98751900  0.63625700  1
  Cu  Cu57  1  0.24341100  0.48751900  0.63625700  1
  Cu  Cu58  1  0.72844500  0.53317000  0.10978400  1
  Cu  Cu59  1  0.27155500  0.03317000  0.10978400  1
  Cu  Cu60  1  0.23617400  0.03519900  0.63924000  1
  Cu  Cu61  1  0.76382600  0.53519900  0.63924000  1
  Cu  Cu62  1  0.25649600  0.48853100  0.12902900  1
  Cu  Cu63  1  0.74350400  0.98853100  0.12902900  1
