# generated using pymatgen
data_CuNiC12
_symmetry_space_group_name_H-M   'P 1'
_cell_length_a   6.05848478
_cell_length_b   5.91195018
_cell_length_c   5.99230995
_cell_angle_alpha   90.00000000
_cell_angle_beta   60.36067370
_cell_angle_gamma   119.33075621
_symmetry_Int_Tables_number   1
_chemical_formula_structural   CuNiC12
_chemical_formula_sum   'Cu1 Ni1 C12'
_cell_volume   154.09699425
_cell_formula_units_Z   1
loop_
 _symmetry_equiv_pos_site_id
 _symmetry_equiv_pos_as_xyz
  1  'x, y, z'
loop_
 _atom_site_type_symbol
 _atom_site_label
 _atom_site_symmetry_multiplicity
 _atom_site_fract_x
 _atom_site_fract_y
 _atom_site_fract_z
 _atom_site_occupancy
  Ni  Ni0  1  0.50000000  0.50000000  0.50000000  1
  C  C1  1  0.27561200  0.13141100  0.11219400  1
  C  C2  1  0.72438800  0.86858900  0.88780600  1
  C  C3  1  0.00000000  0.50000000  0.00000000  1
  C  C4  1  0.00000000  0.50000000  0.50000000  1
  Cu  Cu5  1  0.50000000  0.00000000  0.50000000  1
  C  C6  1  0.98618100  0.73116300  0.25690900  1
  C  C7  1  0.03876800  0.28677900  0.23061600  1
  C  C8  1  0.52747300  0.25277600  0.72082400  1
  C  C9  1  0.52747300  0.25277600  0.25170400  1
  C  C10  1  0.01381900  0.26883700  0.74309100  1
  C  C11  1  0.96123200  0.71322100  0.76938400  1
  C  C12  1  0.47252700  0.74722400  0.27917600  1
  C  C13  1  0.47252700  0.74722400  0.74829600  1
