# generated using pymatgen
data_CuNiC2
_symmetry_space_group_name_H-M   'P 1'
_cell_length_a   4.43193800
_cell_length_b   5.22245500
_cell_length_c   9.13592200
_cell_angle_alpha   90.00000000
_cell_angle_beta   90.00000000
_cell_angle_gamma   90.00000000
_symmetry_Int_Tables_number   1
_chemical_formula_structural   CuNiC2
_chemical_formula_sum   'Cu3 Ni3 C6'
_cell_volume   211.45636671
_cell_formula_units_Z   3
loop_
 _symmetry_equiv_pos_site_id
 _symmetry_equiv_pos_as_xyz
  1  'x, y, z'
loop_
 _atom_site_type_symbol
 _atom_site_label
 _atom_site_symmetry_multiplicity
 _atom_site_fract_x
 _atom_site_fract_y
 _atom_site_fract_z
 _atom_site_occupancy
  Ni  Ni0  1  0.50000000  0.50000000  0.33290600  1
  Ni  Ni1  1  0.50000000  0.00000000  0.83509200  1
  Ni  Ni2  1  0.50000000  0.00000000  0.16606500  1
  C  C3  1  0.00000000  0.50000000  0.50088400  1
  C  C4  1  0.00000000  0.00000000  0.00024900  1
  C  C5  1  0.00000000  0.74980500  0.25034200  1
  C  C6  1  0.00000000  0.25161100  0.74910900  1
  C  C7  1  0.00000000  0.25019500  0.25034200  1
  C  C8  1  0.00000000  0.74838900  0.74910900  1
  Cu  Cu9  1  0.50000000  0.50000000  0.66637000  1
  Cu  Cu10  1  0.00000000  0.50000000  0.00170500  1
  Cu  Cu11  1  0.00000000  0.00000000  0.49787500  1
