# generated using pymatgen
data_Cu3NiC16
_symmetry_space_group_name_H-M   'P 1'
_cell_length_a   6.15624300
_cell_length_b   6.22388000
_cell_length_c   8.71292470
_cell_angle_alpha   89.97702362
_cell_angle_beta   90.00000000
_cell_angle_gamma   90.00000000
_symmetry_Int_Tables_number   1
_chemical_formula_structural   Cu3NiC16
_chemical_formula_sum   'Cu3 Ni1 C16'
_cell_volume   333.84193618
_cell_formula_units_Z   1
loop_
 _symmetry_equiv_pos_site_id
 _symmetry_equiv_pos_as_xyz
  1  'x, y, z'
loop_
 _atom_site_type_symbol
 _atom_site_label
 _atom_site_symmetry_multiplicity
 _atom_site_fract_x
 _atom_site_fract_y
 _atom_site_fract_z
 _atom_site_occupancy
  C  C0  1  0.00000000  0.50477300  0.75254500  1
  C  C1  1  0.50000000  0.00616000  0.24718400  1
  C  C2  1  0.50000000  0.99384000  0.75281600  1
  C  C3  1  0.00000000  0.49522700  0.24745500  1
  Ni  Ni4  1  0.50000000  0.50000000  0.50000000  1
  Cu  Cu5  1  0.00000000  0.00000000  0.50000000  1
  Cu  Cu6  1  0.50000000  0.50000000  0.00000000  1
  Cu  Cu7  1  0.00000000  0.00000000  0.00000000  1
  C  C8  1  0.00000000  0.06542300  0.75164500  1
  C  C9  1  0.50000000  0.56547500  0.25100900  1
  C  C10  1  0.50000000  0.43452500  0.74899100  1
  C  C11  1  0.00000000  0.93457700  0.24835500  1
  C  C12  1  0.25139300  0.25244400  0.46472200  1
  C  C13  1  0.74936700  0.74944000  0.96220500  1
  C  C14  1  0.25139300  0.74755600  0.53527800  1
  C  C15  1  0.74936700  0.25056000  0.03779500  1
  C  C16  1  0.25063300  0.74944000  0.96220500  1
  C  C17  1  0.74860700  0.25244400  0.46472200  1
  C  C18  1  0.25063300  0.25056000  0.03779500  1
  C  C19  1  0.74860700  0.74755600  0.53527800  1
