# generated using pymatgen
data_Cu2Ni2C11
_symmetry_space_group_name_H-M   'P 1'
_cell_length_a   6.05065728
_cell_length_b   5.53221769
_cell_length_c   12.64515700
_cell_angle_alpha   90.00000000
_cell_angle_beta   90.00000000
_cell_angle_gamma   110.05426514
_symmetry_Int_Tables_number   1
_chemical_formula_structural   Cu2Ni2C11
_chemical_formula_sum   'Cu4 Ni4 C22'
_cell_volume   397.61423850
_cell_formula_units_Z   2
loop_
 _symmetry_equiv_pos_site_id
 _symmetry_equiv_pos_as_xyz
  1  'x, y, z'
loop_
 _atom_site_type_symbol
 _atom_site_label
 _atom_site_symmetry_multiplicity
 _atom_site_fract_x
 _atom_site_fract_y
 _atom_site_fract_z
 _atom_site_occupancy
  C  C0  1  0.58719800  0.03532100  0.81989100  1
  C  C1  1  0.41280200  0.96467900  0.31989100  1
  C  C2  1  0.54822600  0.48681500  0.56641300  1
  C  C3  1  0.45177400  0.51318500  0.06641300  1
  C  C4  1  0.06559500  0.78576100  0.98358300  1
  C  C5  1  0.93440500  0.21423900  0.48358300  1
  Ni  Ni6  1  0.20766000  0.81040400  0.57832200  1
  Ni  Ni7  1  0.79234000  0.18959600  0.07832200  1
  Ni  Ni8  1  0.76205200  0.64981600  0.32805100  1
  Ni  Ni9  1  0.23794800  0.35018400  0.82805100  1
  Cu  Cu10  1  0.78122400  0.23865000  0.58530200  1
  Cu  Cu11  1  0.21877600  0.76135000  0.08530200  1
  Cu  Cu12  1  0.94729900  0.57646400  0.70120500  1
  Cu  Cu13  1  0.05270100  0.42353600  0.20120500  1
  C  C14  1  0.73290600  0.86242000  0.42632400  1
  C  C15  1  0.26709400  0.13758000  0.92632400  1
  C  C16  1  0.80083900  0.42486800  0.98697700  1
  C  C17  1  0.19916100  0.57513200  0.48697700  1
  C  C18  1  0.42932200  0.81598000  0.66133100  1
  C  C19  1  0.57067800  0.18402000  0.16133100  1
  C  C20  1  0.94147100  0.72290200  0.65537100  1
  C  C21  1  0.05852900  0.27709800  0.15537100  1
  C  C22  1  0.77001400  0.91304800  0.01073600  1
  C  C23  1  0.22998600  0.08695200  0.51073600  1
  C  C24  1  0.32513000  0.64276200  0.89452800  1
  C  C25  1  0.67487000  0.35723800  0.39452800  1
  C  C26  1  0.96607000  0.28253600  0.77422900  1
  C  C27  1  0.03393000  0.71746400  0.27422900  1
  C  C28  1  0.55097400  0.66536500  0.23973800  1
  C  C29  1  0.44902600  0.33463500  0.73973800  1
