# generated using pymatgen
data_CuNiC10
_symmetry_space_group_name_H-M   'P 1'
_cell_length_a   7.89166872
_cell_length_b   7.89166872
_cell_length_c   5.21431400
_cell_angle_alpha   90.00000000
_cell_angle_beta   90.00000000
_cell_angle_gamma   90.59595451
_symmetry_Int_Tables_number   1
_chemical_formula_structural   CuNiC10
_chemical_formula_sum   'Cu2 Ni2 C20'
_cell_volume   324.72174988
_cell_formula_units_Z   2
loop_
 _symmetry_equiv_pos_site_id
 _symmetry_equiv_pos_as_xyz
  1  'x, y, z'
loop_
 _atom_site_type_symbol
 _atom_site_label
 _atom_site_symmetry_multiplicity
 _atom_site_fract_x
 _atom_site_fract_y
 _atom_site_fract_z
 _atom_site_occupancy
  Ni  Ni0  1  0.16198900  0.83801100  0.49022100  1
  Ni  Ni1  1  0.83801100  0.16198900  0.49022100  1
  Cu  Cu2  1  0.66150100  0.66150100  0.51451500  1
  Cu  Cu3  1  0.33849900  0.33849900  0.51451500  1
  C  C4  1  0.50000000  0.00000000  0.99608400  1
  C  C5  1  0.00000000  0.50000000  0.99608400  1
  C  C6  1  0.36013000  0.63987000  0.04089500  1
  C  C7  1  0.85339100  0.85339100  0.96066000  1
  C  C8  1  0.63987000  0.36013000  0.04089500  1
  C  C9  1  0.14660900  0.14660900  0.96066000  1
  C  C10  1  0.37235000  0.62765000  0.70476300  1
  C  C11  1  0.84412100  0.84412100  0.29446400  1
  C  C12  1  0.62765000  0.37235000  0.70476300  1
  C  C13  1  0.15587900  0.15587900  0.29446400  1
  C  C14  1  0.41910400  0.83360500  0.18857800  1
  C  C15  1  0.90534900  0.65936600  0.80086600  1
  C  C16  1  0.58089600  0.16639500  0.18857800  1
  C  C17  1  0.09465100  0.34063400  0.80086600  1
  C  C18  1  0.34063400  0.09465100  0.80086600  1
  C  C19  1  0.83360500  0.41910400  0.18857800  1
  C  C20  1  0.65936600  0.90534900  0.80086600  1
  C  C21  1  0.16639500  0.58089600  0.18857800  1
  C  C22  1  0.00000000  0.00000000  0.83896000  1
  C  C23  1  0.50000000  0.50000000  0.20005800  1
