# generated using pymatgen
data_Cu9(NiC3)2
_symmetry_space_group_name_H-M   'P 1'
_cell_length_a   5.57048800
_cell_length_b   5.57048800
_cell_length_c   9.81697700
_cell_angle_alpha   90.00000000
_cell_angle_beta   90.00000000
_cell_angle_gamma   90.00000000
_symmetry_Int_Tables_number   1
_chemical_formula_structural   Cu9(NiC3)2
_chemical_formula_sum   'Cu9 Ni2 C6'
_cell_volume   304.62410029
_cell_formula_units_Z   1
loop_
 _symmetry_equiv_pos_site_id
 _symmetry_equiv_pos_as_xyz
  1  'x, y, z'
loop_
 _atom_site_type_symbol
 _atom_site_label
 _atom_site_symmetry_multiplicity
 _atom_site_fract_x
 _atom_site_fract_y
 _atom_site_fract_z
 _atom_site_occupancy
  C  C0  1  0.00000000  0.50000000  0.54661100  1
  C  C1  1  0.50000000  0.00000000  0.54661100  1
  C  C2  1  0.00000000  0.00000000  0.79778800  1
  C  C3  1  0.50000000  0.50000000  0.80978500  1
  C  C4  1  0.50000000  0.50000000  0.25211100  1
  C  C5  1  0.00000000  0.00000000  0.30078700  1
  Ni  Ni6  1  0.50000000  0.00000000  0.98435800  1
  Ni  Ni7  1  0.00000000  0.50000000  0.98435800  1
  Cu  Cu8  1  0.74383700  0.74383700  0.68222800  1
  Cu  Cu9  1  0.25616300  0.25616300  0.68222800  1
  Cu  Cu10  1  0.74383700  0.25616300  0.68222800  1
  Cu  Cu11  1  0.25616300  0.74383700  0.68222800  1
  Cu  Cu12  1  0.73062200  0.73062200  0.34253800  1
  Cu  Cu13  1  0.26937800  0.26937800  0.34253800  1
  Cu  Cu14  1  0.73062200  0.26937800  0.34253800  1
  Cu  Cu15  1  0.26937800  0.73062200  0.34253800  1
  Cu  Cu16  1  0.00000000  0.00000000  0.49181600  1
