# generated using pymatgen
data_Cu6Ni2C29
_symmetry_space_group_name_H-M   'P 1'
_cell_length_a   8.35114413
_cell_length_b   8.35114413
_cell_length_c   17.39038100
_cell_angle_alpha   90.00000000
_cell_angle_beta   90.00000000
_cell_angle_gamma   120.00000100
_symmetry_Int_Tables_number   1
_chemical_formula_structural   Cu6Ni2C29
_chemical_formula_sum   'Cu12 Ni4 C58'
_cell_volume   1050.34429780
_cell_formula_units_Z   2
loop_
 _symmetry_equiv_pos_site_id
 _symmetry_equiv_pos_as_xyz
  1  'x, y, z'
loop_
 _atom_site_type_symbol
 _atom_site_label
 _atom_site_symmetry_multiplicity
 _atom_site_fract_x
 _atom_site_fract_y
 _atom_site_fract_z
 _atom_site_occupancy
  C  C0  1  0.33333300  0.66666700  0.75000000  1
  C  C1  1  0.66666700  0.33333300  0.25000000  1
  C  C2  1  0.66666700  0.33333300  0.52350100  1
  C  C3  1  0.33333300  0.66666700  0.47649900  1
  C  C4  1  0.66666700  0.33333300  0.97649900  1
  C  C5  1  0.33333300  0.66666700  0.02350100  1
  C  C6  1  0.66666700  0.33333300  0.75000000  1
  C  C7  1  0.33333300  0.66666700  0.25000000  1
  Ni  Ni8  1  0.00000000  0.00000000  0.59192500  1
  Ni  Ni9  1  0.00000000  0.00000000  0.40807500  1
  Ni  Ni10  1  0.00000000  0.00000000  0.90807500  1
  Ni  Ni11  1  0.00000000  0.00000000  0.09192500  1
  Cu  Cu12  1  0.33218900  0.38252500  0.60959600  1
  Cu  Cu13  1  0.66781100  0.61747500  0.39040400  1
  Cu  Cu14  1  0.61747500  0.94966500  0.60959600  1
  Cu  Cu15  1  0.33218900  0.94966500  0.89040400  1
  Cu  Cu16  1  0.38252500  0.05033500  0.39040400  1
  Cu  Cu17  1  0.66781100  0.05033500  0.10959600  1
  Cu  Cu18  1  0.05033500  0.66781100  0.60959600  1
  Cu  Cu19  1  0.61747500  0.66781100  0.89040400  1
  Cu  Cu20  1  0.94966500  0.33218900  0.39040400  1
  Cu  Cu21  1  0.38252500  0.33218900  0.10959600  1
  Cu  Cu22  1  0.05033500  0.38252500  0.89040400  1
  Cu  Cu23  1  0.94966500  0.61747500  0.10959600  1
  C  C24  1  0.83326400  0.02906300  0.62495400  1
  C  C25  1  0.16673600  0.97093700  0.37504600  1
  C  C26  1  0.97093700  0.80420100  0.62495400  1
  C  C27  1  0.83326400  0.80420100  0.87504600  1
  C  C28  1  0.02906300  0.19579900  0.37504600  1
  C  C29  1  0.16673600  0.19579900  0.12495400  1
  C  C30  1  0.19579900  0.16673600  0.62495400  1
  C  C31  1  0.97093700  0.16673600  0.87504600  1
  C  C32  1  0.80420100  0.83326400  0.37504600  1
  C  C33  1  0.02906300  0.83326400  0.12495400  1
  C  C34  1  0.19579900  0.02906300  0.87504600  1
  C  C35  1  0.80420100  0.97093700  0.12495400  1
  C  C36  1  0.33928100  0.47536400  0.68595500  1
  C  C37  1  0.66071900  0.52463600  0.31404500  1
  C  C38  1  0.52463600  0.86391700  0.68595500  1
  C  C39  1  0.33928100  0.86391700  0.81404500  1
  C  C40  1  0.47536400  0.13608300  0.31404500  1
  C  C41  1  0.66071900  0.13608300  0.18595500  1
  C  C42  1  0.13608300  0.66071900  0.68595500  1
  C  C43  1  0.52463600  0.66071900  0.81404500  1
  C  C44  1  0.86391700  0.33928100  0.31404500  1
  C  C45  1  0.47536400  0.33928100  0.18595500  1
  C  C46  1  0.13608300  0.47536400  0.81404500  1
  C  C47  1  0.86391700  0.52463600  0.18595500  1
  C  C48  1  0.59594800  0.11795800  0.59195300  1
  C  C49  1  0.40405200  0.88204200  0.40804700  1
  C  C50  1  0.88204200  0.47799000  0.59195300  1
  C  C51  1  0.59594800  0.47799000  0.90804700  1
  C  C52  1  0.11795800  0.52201000  0.40804700  1
  C  C53  1  0.40405200  0.52201000  0.09195300  1
  C  C54  1  0.52201000  0.40405200  0.59195300  1
  C  C55  1  0.88204200  0.40405200  0.90804700  1
  C  C56  1  0.47799000  0.59594800  0.40804700  1
  C  C57  1  0.11795800  0.59594800  0.09195300  1
  C  C58  1  0.52201000  0.11795800  0.90804700  1
  C  C59  1  0.47799000  0.88204200  0.09195300  1
  C  C60  1  0.25549400  0.44446600  0.54322900  1
  C  C61  1  0.74450600  0.55553400  0.45677100  1
  C  C62  1  0.55553400  0.81102800  0.54322900  1
  C  C63  1  0.25549400  0.81102800  0.95677100  1
  C  C64  1  0.44446600  0.18897200  0.45677100  1
  C  C65  1  0.74450600  0.18897200  0.04322900  1
  C  C66  1  0.18897200  0.74450600  0.54322900  1
  C  C67  1  0.55553400  0.74450600  0.95677100  1
  C  C68  1  0.81102800  0.25549400  0.45677100  1
  C  C69  1  0.44446600  0.25549400  0.04322900  1
  C  C70  1  0.18897200  0.44446600  0.95677100  1
  C  C71  1  0.81102800  0.55553400  0.04322900  1
  C  C72  1  0.00000000  0.00000000  0.50000000  1
  C  C73  1  0.00000000  0.00000000  0.00000000  1
