# generated using pymatgen
data_Cu(NiC6)2
_symmetry_space_group_name_H-M   'P 1'
_cell_length_a   9.32688935
_cell_length_b   9.32688935
_cell_length_c   11.96307800
_cell_angle_alpha   90.00000000
_cell_angle_beta   90.00000000
_cell_angle_gamma   130.28269956
_symmetry_Int_Tables_number   1
_chemical_formula_structural   Cu(NiC6)2
_chemical_formula_sum   'Cu4 Ni8 C48'
_cell_volume   793.89574217
_cell_formula_units_Z   4
loop_
 _symmetry_equiv_pos_site_id
 _symmetry_equiv_pos_as_xyz
  1  'x, y, z'
loop_
 _atom_site_type_symbol
 _atom_site_label
 _atom_site_symmetry_multiplicity
 _atom_site_fract_x
 _atom_site_fract_y
 _atom_site_fract_z
 _atom_site_occupancy
  C  C0  1  0.49334300  0.24328300  0.36955300  1
  C  C1  1  0.50665700  0.75671700  0.36955300  1
  C  C2  1  0.24328300  0.49334300  0.13044700  1
  C  C3  1  0.75671700  0.50665700  0.13044700  1
  C  C4  1  0.50665700  0.75671700  0.63044700  1
  C  C5  1  0.49334300  0.24328300  0.63044700  1
  C  C6  1  0.75671700  0.50665700  0.86955300  1
  C  C7  1  0.24328300  0.49334300  0.86955300  1
  Ni  Ni8  1  0.22789500  0.30837500  0.50000000  1
  Ni  Ni9  1  0.77210500  0.69162400  0.50000000  1
  Ni  Ni10  1  0.30837500  0.22789500  0.00000000  1
  Ni  Ni11  1  0.69162400  0.77210500  0.00000000  1
  Ni  Ni12  1  0.78831900  0.21168100  0.25000000  1
  Ni  Ni13  1  0.21168100  0.78831900  0.25000000  1
  Ni  Ni14  1  0.21168100  0.78831900  0.75000000  1
  Ni  Ni15  1  0.78831900  0.21168100  0.75000000  1
  Cu  Cu16  1  0.00000000  0.00000000  0.25000000  1
  Cu  Cu17  1  0.00000000  0.00000000  0.75000000  1
  Cu  Cu18  1  0.00000000  0.50000000  0.50000000  1
  Cu  Cu19  1  0.50000000  0.00000000  0.00000000  1
  C  C20  1  0.73036800  0.76931700  0.38270600  1
  C  C21  1  0.26963200  0.23068300  0.38270600  1
  C  C22  1  0.76931700  0.73036800  0.11729400  1
  C  C23  1  0.23068300  0.26963200  0.11729400  1
  C  C24  1  0.26963200  0.23068300  0.61729400  1
  C  C25  1  0.73036800  0.76931700  0.61729400  1
  C  C26  1  0.23068300  0.26963200  0.88270600  1
  C  C27  1  0.76931700  0.73036800  0.88270600  1
  C  C28  1  0.44574100  0.62024500  0.00000000  1
  C  C29  1  0.55425900  0.37975500  0.00000000  1
  C  C30  1  0.62024500  0.44574100  0.50000000  1
  C  C31  1  0.37975500  0.55425900  0.50000000  1
  C  C32  1  0.00527500  0.22777500  0.50000000  1
  C  C33  1  0.99472500  0.77222500  0.50000000  1
  C  C34  1  0.22777500  0.00527500  0.00000000  1
  C  C35  1  0.77222500  0.99472500  0.00000000  1
  C  C36  1  0.67067100  0.97521700  0.25673000  1
  C  C37  1  0.32932900  0.02478300  0.25673000  1
  C  C38  1  0.97521700  0.67067100  0.24327000  1
  C  C39  1  0.02478300  0.32932900  0.24327000  1
  C  C40  1  0.32932900  0.02478300  0.74327000  1
  C  C41  1  0.67067100  0.97521700  0.74327000  1
  C  C42  1  0.02478300  0.32932900  0.75673000  1
  C  C43  1  0.97521700  0.67067100  0.75673000  1
  C  C44  1  0.73411000  0.28147300  0.36535400  1
  C  C45  1  0.26589000  0.71852700  0.36535400  1
  C  C46  1  0.28147300  0.73411000  0.13464600  1
  C  C47  1  0.71852700  0.26589000  0.13464600  1
  C  C48  1  0.26589000  0.71852700  0.63464600  1
  C  C49  1  0.73411000  0.28147300  0.63464600  1
  C  C50  1  0.71852700  0.26589000  0.86535400  1
  C  C51  1  0.28147300  0.73411000  0.86535400  1
  C  C52  1  0.57984900  0.90129100  0.50000000  1
  C  C53  1  0.42015100  0.09870900  0.50000000  1
  C  C54  1  0.90129100  0.57984900  0.00000000  1
  C  C55  1  0.09870900  0.42015100  0.00000000  1
  C  C56  1  0.58714600  0.41285400  0.25000000  1
  C  C57  1  0.41285400  0.58714600  0.25000000  1
  C  C58  1  0.41285400  0.58714600  0.75000000  1
  C  C59  1  0.58714600  0.41285400  0.75000000  1
