# generated using pymatgen
data_Cu33Ni2C7
_symmetry_space_group_name_H-M   'P 1'
_cell_length_a   11.04959139
_cell_length_b   11.04959139
_cell_length_c   11.04959139
_cell_angle_alpha   60.00000000
_cell_angle_beta   60.00000000
_cell_angle_gamma   60.00000000
_symmetry_Int_Tables_number   1
_chemical_formula_structural   Cu33Ni2C7
_chemical_formula_sum   'Cu66 Ni4 C14'
_cell_volume   953.94570445
_cell_formula_units_Z   2
loop_
 _symmetry_equiv_pos_site_id
 _symmetry_equiv_pos_as_xyz
  1  'x, y, z'
loop_
 _atom_site_type_symbol
 _atom_site_label
 _atom_site_symmetry_multiplicity
 _atom_site_fract_x
 _atom_site_fract_y
 _atom_site_fract_z
 _atom_site_occupancy
  C  C0  1  0.00000000  0.00000000  0.00000000  1
  C  C1  1  0.70248400  0.70248400  0.42898400  1
  C  C2  1  0.70248400  0.16604900  0.42898400  1
  C  C3  1  0.16604900  0.70248400  0.42898400  1
  C  C4  1  0.70248400  0.70248400  0.16604900  1
  C  C5  1  0.16604900  0.70248400  0.70248400  1
  C  C6  1  0.70248400  0.16604900  0.70248400  1
  C  C7  1  0.42898400  0.16604900  0.70248400  1
  C  C8  1  0.42898400  0.70248400  0.70248400  1
  C  C9  1  0.42898400  0.70248400  0.16604900  1
  C  C10  1  0.16604900  0.42898400  0.70248400  1
  C  C11  1  0.70248400  0.42898400  0.16604900  1
  C  C12  1  0.70248400  0.42898400  0.70248400  1
  C  C13  1  0.50000000  0.50000000  0.50000000  1
  Ni  Ni14  1  0.13688500  0.13688500  0.58934600  1
  Ni  Ni15  1  0.13688500  0.13688500  0.13688500  1
  Ni  Ni16  1  0.58934600  0.13688500  0.13688500  1
  Ni  Ni17  1  0.13688500  0.58934600  0.13688500  1
  Cu  Cu18  1  0.31244200  0.31244200  0.80167700  1
  Cu  Cu19  1  0.31244200  0.57343900  0.80167700  1
  Cu  Cu20  1  0.57343900  0.31244200  0.80167700  1
  Cu  Cu21  1  0.31244200  0.31244200  0.57343900  1
  Cu  Cu22  1  0.57343900  0.31244200  0.31244200  1
  Cu  Cu23  1  0.31244200  0.57343900  0.31244200  1
  Cu  Cu24  1  0.80167700  0.57343900  0.31244200  1
  Cu  Cu25  1  0.80167700  0.31244200  0.31244200  1
  Cu  Cu26  1  0.80167700  0.31244200  0.57343900  1
  Cu  Cu27  1  0.57343900  0.80167700  0.31244200  1
  Cu  Cu28  1  0.31244200  0.80167700  0.57343900  1
  Cu  Cu29  1  0.31244200  0.80167700  0.31244200  1
  Cu  Cu30  1  0.58202500  0.58202500  0.25392500  1
  Cu  Cu31  1  0.58202500  0.58202500  0.58202500  1
  Cu  Cu32  1  0.25392500  0.58202500  0.58202500  1
  Cu  Cu33  1  0.58202500  0.25392500  0.58202500  1
  Cu  Cu34  1  0.81816700  0.81816700  0.28190900  1
  Cu  Cu35  1  0.81816700  0.08175800  0.28190900  1
  Cu  Cu36  1  0.08175800  0.81816700  0.28190900  1
  Cu  Cu37  1  0.81816700  0.81816700  0.08175800  1
  Cu  Cu38  1  0.08175800  0.81816700  0.81816700  1
  Cu  Cu39  1  0.81816700  0.08175800  0.81816700  1
  Cu  Cu40  1  0.28190900  0.08175800  0.81816700  1
  Cu  Cu41  1  0.28190900  0.81816700  0.81816700  1
  Cu  Cu42  1  0.28190900  0.81816700  0.08175800  1
  Cu  Cu43  1  0.08175800  0.28190900  0.81816700  1
  Cu  Cu44  1  0.81816700  0.28190900  0.08175800  1
  Cu  Cu45  1  0.81816700  0.28190900  0.81816700  1
  Cu  Cu46  1  0.57418800  0.57418800  0.81844800  1
  Cu  Cu47  1  0.57418800  0.03317600  0.81844800  1
  Cu  Cu48  1  0.03317600  0.57418800  0.81844800  1
  Cu  Cu49  1  0.57418800  0.57418800  0.03317600  1
  Cu  Cu50  1  0.03317600  0.57418800  0.57418800  1
  Cu  Cu51  1  0.57418800  0.03317600  0.57418800  1
  Cu  Cu52  1  0.81844800  0.03317600  0.57418800  1
  Cu  Cu53  1  0.81844800  0.57418800  0.57418800  1
  Cu  Cu54  1  0.81844800  0.57418800  0.03317600  1
  Cu  Cu55  1  0.03317600  0.81844800  0.57418800  1
  Cu  Cu56  1  0.57418800  0.81844800  0.03317600  1
  Cu  Cu57  1  0.57418800  0.81844800  0.57418800  1
  Cu  Cu58  1  0.04374400  0.04374400  0.26340100  1
  Cu  Cu59  1  0.04374400  0.64911100  0.26340100  1
  Cu  Cu60  1  0.64911100  0.04374400  0.26340100  1
  Cu  Cu61  1  0.04374400  0.04374400  0.64911100  1
  Cu  Cu62  1  0.64911100  0.04374400  0.04374400  1
  Cu  Cu63  1  0.04374400  0.64911100  0.04374400  1
  Cu  Cu64  1  0.26340100  0.64911100  0.04374400  1
  Cu  Cu65  1  0.26340100  0.04374400  0.04374400  1
  Cu  Cu66  1  0.26340100  0.04374400  0.64911100  1
  Cu  Cu67  1  0.64911100  0.26340100  0.04374400  1
  Cu  Cu68  1  0.04374400  0.26340100  0.64911100  1
  Cu  Cu69  1  0.04374400  0.26340100  0.04374400  1
  Cu  Cu70  1  0.19024600  0.19024600  0.42926300  1
  Cu  Cu71  1  0.19024600  0.19024600  0.19024600  1
  Cu  Cu72  1  0.42926300  0.19024600  0.19024600  1
  Cu  Cu73  1  0.19024600  0.42926300  0.19024600  1
  Cu  Cu74  1  0.41085700  0.41085700  0.76742800  1
  Cu  Cu75  1  0.41085700  0.41085700  0.41085700  1
  Cu  Cu76  1  0.76742800  0.41085700  0.41085700  1
  Cu  Cu77  1  0.41085700  0.76742800  0.41085700  1
  Cu  Cu78  1  0.52287300  0.52287300  0.97712700  1
  Cu  Cu79  1  0.52287300  0.97712700  0.97712700  1
  Cu  Cu80  1  0.97712700  0.52287300  0.97712700  1
  Cu  Cu81  1  0.97712700  0.52287300  0.52287300  1
  Cu  Cu82  1  0.52287300  0.97712700  0.52287300  1
  Cu  Cu83  1  0.97712700  0.97712700  0.52287300  1
