# generated using pymatgen
data_CuNi4C3
_symmetry_space_group_name_H-M   'P 1'
_cell_length_a   6.30507100
_cell_length_b   10.91885800
_cell_length_c   11.15345693
_cell_angle_alpha   89.76235974
_cell_angle_beta   90.00000000
_cell_angle_gamma   90.00000000
_symmetry_Int_Tables_number   1
_chemical_formula_structural   CuNi4C3
_chemical_formula_sum   'Cu8 Ni32 C24'
_cell_volume   767.84393573
_cell_formula_units_Z   8
loop_
 _symmetry_equiv_pos_site_id
 _symmetry_equiv_pos_as_xyz
  1  'x, y, z'
loop_
 _atom_site_type_symbol
 _atom_site_label
 _atom_site_symmetry_multiplicity
 _atom_site_fract_x
 _atom_site_fract_y
 _atom_site_fract_z
 _atom_site_occupancy
  C  C0  1  0.50000000  0.95626100  0.26739600  1
  C  C1  1  0.00000000  0.76385000  0.06978700  1
  C  C2  1  0.50000000  0.73747100  0.57922200  1
  C  C3  1  0.50000000  0.45221900  0.23412500  1
  C  C4  1  0.22845700  0.24192100  0.65964800  1
  C  C5  1  0.77154300  0.24192100  0.65964800  1
  C  C6  1  0.50000000  0.23355400  0.93498000  1
  C  C7  1  0.00000000  0.02810600  0.73301000  1
  C  C8  1  0.25052400  0.00041600  0.99934200  1
  C  C9  1  0.74947600  0.00041600  0.99934200  1
  C  C10  1  0.24934800  0.00225300  0.49991600  1
  C  C11  1  0.75065200  0.00225300  0.49991600  1
  C  C12  1  0.24560900  0.49668500  0.49972600  1
  C  C13  1  0.75439100  0.49668500  0.49972600  1
  C  C14  1  0.24656600  0.49963800  0.99628600  1
  C  C15  1  0.75343400  0.49963800  0.99628600  1
  C  C16  1  0.50000000  0.97600400  0.74188800  1
  C  C17  1  0.50000000  0.75832800  0.07265800  1
  C  C18  1  0.00000000  0.74155200  0.57488600  1
  C  C19  1  0.00000000  0.53146200  0.24245900  1
  C  C20  1  0.50000000  0.46374800  0.75153100  1
  C  C21  1  0.50000000  0.25629900  0.42956500  1
  C  C22  1  0.00000000  0.23824800  0.91859700  1
  C  C23  1  0.00000000  0.02874000  0.25443600  1
  Ni  Ni24  1  0.00000000  0.97916000  0.12388200  1
  Ni  Ni25  1  0.20174600  0.98492000  0.31987100  1
  Ni  Ni26  1  0.79825400  0.98492000  0.31987100  1
  Ni  Ni27  1  0.00000000  0.87993600  0.54237000  1
  Ni  Ni28  1  0.50000000  0.83623700  0.72982900  1
  Ni  Ni29  1  0.70502700  0.81849100  0.02392000  1
  Ni  Ni30  1  0.29497300  0.81849100  0.02392000  1
  Ni  Ni31  1  0.50000000  0.78299700  0.20932700  1
  Ni  Ni32  1  0.00000000  0.72422200  0.71323000  1
  Ni  Ni33  1  0.20452700  0.68116400  0.52878500  1
  Ni  Ni34  1  0.79547300  0.68116400  0.52878500  1
  Ni  Ni35  1  0.00000000  0.67300100  0.22969500  1
  Ni  Ni36  1  0.50000000  0.62104400  0.04098700  1
  Ni  Ni37  1  0.31250400  0.52153100  0.82243700  1
  Ni  Ni38  1  0.68749600  0.52153100  0.82243700  1
  Ni  Ni39  1  0.50000000  0.51614800  0.62245200  1
  Ni  Ni40  1  0.00000000  0.48994600  0.37468100  1
  Ni  Ni41  1  0.20171200  0.48460300  0.17830900  1
  Ni  Ni42  1  0.79828800  0.48460300  0.17830900  1
  Ni  Ni43  1  0.00000000  0.37530500  0.95731000  1
  Ni  Ni44  1  0.50000000  0.32305700  0.75213000  1
  Ni  Ni45  1  0.69509100  0.31366400  0.49359500  1
  Ni  Ni46  1  0.30490900  0.31366400  0.49359500  1
  Ni  Ni47  1  0.50000000  0.28418700  0.29605100  1
  Ni  Ni48  1  0.00000000  0.22355800  0.78072600  1
  Ni  Ni49  1  0.20405400  0.18045700  0.97177900  1
  Ni  Ni50  1  0.79594600  0.18045700  0.97177900  1
  Ni  Ni51  1  0.00000000  0.17059200  0.25995800  1
  Ni  Ni52  1  0.50000000  0.11741700  0.45892700  1
  Ni  Ni53  1  0.69987300  0.03249500  0.68118100  1
  Ni  Ni54  1  0.30012700  0.03249500  0.68118100  1
  Ni  Ni55  1  0.50000000  0.01890100  0.87594800  1
  Cu  Cu56  1  0.00000000  0.96386300  0.88923500  1
  Cu  Cu57  1  0.50000000  0.88628900  0.48176100  1
  Cu  Cu58  1  0.00000000  0.61397700  0.98602500  1
  Cu  Cu59  1  0.50000000  0.53056200  0.38996200  1
  Cu  Cu60  1  0.00000000  0.45148200  0.60816900  1
  Cu  Cu61  1  0.50000000  0.38599300  0.01567300  1
  Cu  Cu62  1  0.00000000  0.11778000  0.53480100  1
  Cu  Cu63  1  0.50000000  0.03443900  0.11038200  1
