# generated using pymatgen
data_Cu2NiC11
_symmetry_space_group_name_H-M   'P 1'
_cell_length_a   10.39749559
_cell_length_b   10.39749559
_cell_length_c   10.39749559
_cell_angle_alpha   111.85269042
_cell_angle_beta   111.85269042
_cell_angle_gamma   104.80658852
_symmetry_Int_Tables_number   1
_chemical_formula_structural   Cu2NiC11
_chemical_formula_sum   'Cu8 Ni4 C44'
_cell_volume   861.04012786
_cell_formula_units_Z   4
loop_
 _symmetry_equiv_pos_site_id
 _symmetry_equiv_pos_as_xyz
  1  'x, y, z'
loop_
 _atom_site_type_symbol
 _atom_site_label
 _atom_site_symmetry_multiplicity
 _atom_site_fract_x
 _atom_site_fract_y
 _atom_site_fract_z
 _atom_site_occupancy
  Ni  Ni0  1  0.50624600  0.00624600  0.50000000  1
  Ni  Ni1  1  0.75624600  0.75624600  0.00000000  1
  Ni  Ni2  1  0.00624600  0.50624600  0.50000000  1
  Ni  Ni3  1  0.25624600  0.25624600  0.00000000  1
  Cu  Cu4  1  0.14574100  0.01263600  0.20144300  1
  Cu  Cu5  1  0.81119300  0.94429800  0.79855700  1
  Cu  Cu6  1  0.69429800  0.39574100  0.63310600  1
  Cu  Cu7  1  0.31119300  0.51263600  0.86689400  1
  Cu  Cu8  1  0.76263600  0.06119300  0.36689400  1
  Cu  Cu9  1  0.64574100  0.44429800  0.13310600  1
  Cu  Cu10  1  0.26263600  0.89574100  0.70144300  1
  Cu  Cu11  1  0.19429800  0.56119300  0.29855700  1
  C  C12  1  0.36588300  0.96808400  0.60176000  1
  C  C13  1  0.36632400  0.76412300  0.39824000  1
  C  C14  1  0.51412300  0.61588300  0.89779900  1
  C  C15  1  0.86632400  0.46808400  0.60220100  1
  C  C16  1  0.71808400  0.61632400  0.10220100  1
  C  C17  1  0.86588300  0.26412300  0.39779900  1
  C  C18  1  0.21808400  0.11588300  0.10176000  1
  C  C19  1  0.01412300  0.11632400  0.89824000  1
  C  C20  1  0.99971400  0.83340000  0.18037800  1
  C  C21  1  0.65302200  0.81933500  0.81962200  1
  C  C22  1  0.56933500  0.24971400  0.66631300  1
  C  C23  1  0.15302200  0.33340000  0.83368700  1
  C  C24  1  0.58340000  0.90302200  0.33368700  1
  C  C25  1  0.49971400  0.31933500  0.16631300  1
  C  C26  1  0.08340000  0.74971400  0.68037800  1
  C  C27  1  0.06933500  0.40302200  0.31962200  1
  C  C28  1  0.25981200  0.07992900  0.81908200  1
  C  C29  1  0.26084700  0.44073000  0.18091800  1
  C  C30  1  0.19073000  0.50981200  0.67988300  1
  C  C31  1  0.76084700  0.57992900  0.82011700  1
  C  C32  1  0.82992900  0.51084700  0.32011700  1
  C  C33  1  0.75981200  0.94073000  0.17988300  1
  C  C34  1  0.32992900  0.00981200  0.31908200  1
  C  C35  1  0.69073000  0.01084700  0.68091800  1
  C  C36  1  0.18203000  0.68203000  0.50000000  1
  C  C37  1  0.43203000  0.43203000  0.00000000  1
  C  C38  1  0.68203000  0.18203000  0.50000000  1
  C  C39  1  0.93203000  0.93203000  0.00000000  1
  C  C40  1  0.28285700  0.28953900  0.69299900  1
  C  C41  1  0.59654000  0.58985800  0.30700100  1
  C  C42  1  0.33985800  0.53285700  0.49331800  1
  C  C43  1  0.09654000  0.78953900  0.00668200  1
  C  C44  1  0.03953900  0.84654000  0.50668200  1
  C  C45  1  0.78285700  0.08985800  0.99331800  1
  C  C46  1  0.53953900  0.03285700  0.19299900  1
  C  C47  1  0.83985800  0.34654000  0.80700100  1
  C  C48  1  0.14468100  0.16099400  0.35421400  1
  C  C49  1  0.80678000  0.79046600  0.64578600  1
  C  C50  1  0.54046600  0.39468100  0.48368700  1
  C  C51  1  0.30678000  0.66099400  0.01631300  1
  C  C52  1  0.91099400  0.05678000  0.51631300  1
  C  C53  1  0.64468100  0.29046600  0.98368700  1
  C  C54  1  0.41099400  0.89468100  0.85421400  1
  C  C55  1  0.04046600  0.55678000  0.14578600  1
