# generated using pymatgen
data_Cu8NiC5
_symmetry_space_group_name_H-M   'P 1'
_cell_length_a   7.21674700
_cell_length_b   7.92878500
_cell_length_c   14.32681444
_cell_angle_alpha   58.87970054
_cell_angle_beta   90.00000000
_cell_angle_gamma   90.00000000
_symmetry_Int_Tables_number   1
_chemical_formula_structural   Cu8NiC5
_chemical_formula_sum   'Cu32 Ni4 C20'
_cell_volume   701.80127326
_cell_formula_units_Z   4
loop_
 _symmetry_equiv_pos_site_id
 _symmetry_equiv_pos_as_xyz
  1  'x, y, z'
loop_
 _atom_site_type_symbol
 _atom_site_label
 _atom_site_symmetry_multiplicity
 _atom_site_fract_x
 _atom_site_fract_y
 _atom_site_fract_z
 _atom_site_occupancy
  C  C0  1  0.55617300  0.28989800  0.26718900  1
  C  C1  1  0.44382700  0.28989800  0.76718900  1
  C  C2  1  0.78270000  0.34156400  0.50546200  1
  C  C3  1  0.21730000  0.34156400  0.00546200  1
  Ni  Ni4  1  0.42318200  0.23035200  0.59139700  1
  Ni  Ni5  1  0.57681800  0.23035200  0.09139700  1
  Ni  Ni6  1  0.87857900  0.30152900  0.34096600  1
  Ni  Ni7  1  0.12142100  0.30152900  0.84096600  1
  Cu  Cu8  1  0.52768300  0.66277900  0.16587700  1
  Cu  Cu9  1  0.47231700  0.66277900  0.66587700  1
  Cu  Cu10  1  0.42182200  0.90532200  0.32038100  1
  Cu  Cu11  1  0.57817800  0.90532200  0.82038100  1
  Cu  Cu12  1  0.05777100  0.14381300  0.64156900  1
  Cu  Cu13  1  0.94222900  0.14381300  0.14156900  1
  Cu  Cu14  1  0.07584500  0.52972800  0.58529700  1
  Cu  Cu15  1  0.92415500  0.52972800  0.08529700  1
  Cu  Cu16  1  0.36106300  0.58717000  0.11203500  1
  Cu  Cu17  1  0.63893700  0.58717000  0.61203500  1
  Cu  Cu18  1  0.92254400  0.97064600  0.55667200  1
  Cu  Cu19  1  0.07745600  0.97064600  0.05667200  1
  Cu  Cu20  1  0.32401000  0.58901500  0.22551700  1
  Cu  Cu21  1  0.67599000  0.58901500  0.72551700  1
  Cu  Cu22  1  0.68608900  0.68945200  0.42945400  1
  Cu  Cu23  1  0.31391100  0.68945200  0.92945400  1
  Cu  Cu24  1  0.49846600  0.99702100  0.15332800  1
  Cu  Cu25  1  0.50153400  0.99702100  0.65332800  1
  Cu  Cu26  1  0.01272800  0.83509100  0.67937800  1
  Cu  Cu27  1  0.98727200  0.83509100  0.17937800  1
  Cu  Cu28  1  0.91307000  0.87602500  0.41799300  1
  Cu  Cu29  1  0.08693000  0.87602500  0.91799300  1
  Cu  Cu30  1  0.86015800  0.07416200  0.71494300  1
  Cu  Cu31  1  0.13984200  0.07416200  0.21494300  1
  Cu  Cu32  1  0.25822000  0.13688200  0.39516300  1
  Cu  Cu33  1  0.74178000  0.13688200  0.89516300  1
  Cu  Cu34  1  0.43882400  0.99877700  0.45956900  1
  Cu  Cu35  1  0.56117600  0.99877700  0.95956900  1
  Cu  Cu36  1  0.25344100  0.81662400  0.41834300  1
  Cu  Cu37  1  0.74655900  0.81662400  0.91834300  1
  Cu  Cu38  1  0.17607800  0.57564700  0.35297600  1
  Cu  Cu39  1  0.82392200  0.57564700  0.85297600  1
  C  C40  1  0.92043700  0.10643500  0.64164600  1
  C  C41  1  0.07956300  0.10643500  0.14164600  1
  C  C42  1  0.91318000  0.67613900  0.02627300  1
  C  C43  1  0.08682000  0.67613900  0.52627300  1
  C  C44  1  0.30999000  0.94183200  0.35031700  1
  C  C45  1  0.69001000  0.94183200  0.85031700  1
  C  C46  1  0.77614600  0.60938700  0.49263800  1
  C  C47  1  0.22385400  0.60938700  0.99263800  1
  C  C48  1  0.37505800  0.07389700  0.38439200  1
  C  C49  1  0.62494200  0.07389700  0.88439200  1
  C  C50  1  0.42481500  0.56083800  0.18491600  1
  C  C51  1  0.57518500  0.56083800  0.68491600  1
  C  C52  1  0.90552800  0.92871600  0.63695100  1
  C  C53  1  0.09447200  0.92871600  0.13695100  1
  C  C54  1  0.93677700  0.72591000  0.46230800  1
  C  C55  1  0.06322300  0.72591000  0.96230800  1
