# generated using pymatgen
data_Cu4NiC2
_symmetry_space_group_name_H-M   'P 1'
_cell_length_a   13.22239993
_cell_length_b   13.22239993
_cell_length_c   13.50624855
_cell_angle_alpha   104.92706162
_cell_angle_beta   104.92706162
_cell_angle_gamma   118.27878357
_symmetry_Int_Tables_number   1
_chemical_formula_structural   Cu4NiC2
_chemical_formula_sum   'Cu32 Ni8 C16'
_cell_volume   1798.29050435
_cell_formula_units_Z   8
loop_
 _symmetry_equiv_pos_site_id
 _symmetry_equiv_pos_as_xyz
  1  'x, y, z'
loop_
 _atom_site_type_symbol
 _atom_site_label
 _atom_site_symmetry_multiplicity
 _atom_site_fract_x
 _atom_site_fract_y
 _atom_site_fract_z
 _atom_site_occupancy
  C  C0  1  0.23547666  0.73547666  0.50000000  1
  C  C1  1  0.98547666  0.98547666  -0.00000000  1
  C  C2  1  0.48251589  0.48251589  -0.00000000  1
  C  C3  1  0.73251589  0.23251589  0.50000000  1
  C  C4  1  0.48815088  0.98550359  0.00420873  1
  C  C5  1  0.98129486  0.48394216  0.99579127  1
  C  C6  1  0.23550359  0.23815088  0.50420873  1
  C  C7  1  0.73394216  0.73129486  0.49579127  1
  C  C8  1  0.14405904  0.49689755  0.75108148  1
  C  C9  1  0.74581607  0.39297756  0.24891852  1
  C  C10  1  0.74689755  0.89405904  0.25108148  1
  C  C11  1  0.64297756  0.49581607  0.74891852  1
  C  C12  1  0.71629243  0.99081199  0.74744477  1
  C  C13  1  0.24336722  0.96884766  0.25255523  1
  C  C14  1  0.24081199  0.46629243  0.24744477  1
  C  C15  1  0.21884766  0.99336722  0.75255523  1
  Ni  Ni16  1  0.49562829  0.72334317  0.75054853  1
  Ni  Ni17  1  0.97279464  0.74507976  0.24945147  1
  Ni  Ni18  1  0.97334317  0.24562829  0.25054853  1
  Ni  Ni19  1  0.99507976  0.72279464  0.74945147  1
  Ni  Ni20  1  0.58148408  0.21929196  0.75028114  1
  Ni  Ni21  1  0.46901082  0.83120295  0.24971886  1
  Ni  Ni22  1  0.46929196  0.33148408  0.25028114  1
  Ni  Ni23  1  0.08120295  0.21901082  0.74971886  1
  Cu  Cu24  1  0.29280263  0.70683379  0.75123049  1
  Cu  Cu25  1  0.95560330  0.54157214  0.24876951  1
  Cu  Cu26  1  0.95683379  0.04280263  0.25123049  1
  Cu  Cu27  1  0.79157214  0.70560330  0.74876951  1
  Cu  Cu28  1  0.02409725  0.27335193  0.58271580  1
  Cu  Cu29  1  0.69063613  0.44138145  0.41728420  1
  Cu  Cu30  1  0.52335193  0.77409725  0.08271580  1
  Cu  Cu31  1  0.69138145  0.44063613  0.91728420  1
  Cu  Cu32  1  0.19006224  0.43843706  0.91854353  1
  Cu  Cu33  1  0.51989353  0.27151871  0.08145647  1
  Cu  Cu34  1  0.68843706  0.94006224  0.41854353  1
  Cu  Cu35  1  0.52151871  0.26989353  0.58145647  1
  Cu  Cu36  1  0.46079119  0.51661568  0.75295585  1
  Cu  Cu37  1  0.76365984  0.70783534  0.24704415  1
  Cu  Cu38  1  0.76661568  0.21079119  0.25295585  1
  Cu  Cu39  1  0.95783534  0.51365984  0.74704415  1
  Cu  Cu40  1  0.76718144  0.20069363  0.74885917  1
  Cu  Cu41  1  0.45183446  0.01832227  0.25114083  1
  Cu  Cu42  1  0.45069363  0.51718144  0.24885917  1
  Cu  Cu43  1  0.26832227  0.20183446  0.75114083  1
  Cu  Cu44  1  0.69312538  0.94100437  0.91607881  1
  Cu  Cu45  1  0.02492556  0.77704657  0.08392119  1
  Cu  Cu46  1  0.19100437  0.44312538  0.41607881  1
  Cu  Cu47  1  0.02704657  0.77492556  0.58392119  1
  Cu  Cu48  1  0.52357104  0.76955444  0.58171744  1
  Cu  Cu49  1  0.18783701  0.94185360  0.41828256  1
  Cu  Cu50  1  0.01955444  0.27357104  0.08171744  1
  Cu  Cu51  1  0.19185360  0.93783701  0.91828256  1
  Cu  Cu52  1  0.42180794  0.01243827  0.75294810  1
  Cu  Cu53  1  0.25949017  0.66885984  0.24705190  1
  Cu  Cu54  1  0.26243827  0.17180794  0.25294810  1
  Cu  Cu55  1  0.91885984  0.00949017  0.74705190  1
