# generated using pymatgen
data_Cu(NiC4)2
_symmetry_space_group_name_H-M   'P 1'
_cell_length_a   7.29640944
_cell_length_b   7.29640944
_cell_length_c   12.38062784
_cell_angle_alpha   74.70281923
_cell_angle_beta   74.70281923
_cell_angle_gamma   65.88563068
_symmetry_Int_Tables_number   1
_chemical_formula_structural   Cu(NiC4)2
_chemical_formula_sum   'Cu2 Ni4 C16'
_cell_volume   571.09398472
_cell_formula_units_Z   2
loop_
 _symmetry_equiv_pos_site_id
 _symmetry_equiv_pos_as_xyz
  1  'x, y, z'
loop_
 _atom_site_type_symbol
 _atom_site_label
 _atom_site_symmetry_multiplicity
 _atom_site_fract_x
 _atom_site_fract_y
 _atom_site_fract_z
 _atom_site_occupancy
  C  C0  1  0.90215000  0.53462800  0.34113600  1
  C  C1  1  0.53462800  0.90215000  0.84113600  1
  C  C2  1  0.07025200  0.92955500  0.50308300  1
  C  C3  1  0.92955500  0.07025200  0.00308300  1
  Ni  Ni4  1  0.61775600  0.45117600  0.69391100  1
  Ni  Ni5  1  0.45117600  0.61775600  0.19391100  1
  Ni  Ni6  1  0.29231200  0.41033400  0.99708800  1
  Ni  Ni7  1  0.41033400  0.29231200  0.49708800  1
  Cu  Cu8  1  0.07136500  0.50974700  0.74876600  1
  Cu  Cu9  1  0.50974700  0.07136500  0.24876600  1
  C  C10  1  0.73746100  0.29462900  0.52148200  1
  C  C11  1  0.29462900  0.73746100  0.02148200  1
  C  C12  1  0.61370500  0.21573900  0.87963700  1
  C  C13  1  0.21573900  0.61370500  0.37963700  1
  C  C14  1  0.25117300  0.69804400  0.70029200  1
  C  C15  1  0.69804400  0.25117300  0.20029200  1
  C  C16  1  0.21359900  0.22001100  0.69532300  1
  C  C17  1  0.22001100  0.21359900  0.19532300  1
  C  C18  1  0.80478800  0.69009900  0.67016700  1
  C  C19  1  0.69009900  0.80478800  0.17016700  1
  C  C20  1  0.97414800  0.46540800  0.92981400  1
  C  C21  1  0.46540800  0.97414800  0.42981400  1
