# generated using pymatgen
data_Cu3(NiC6)2
_symmetry_space_group_name_H-M   'P 1'
_cell_length_a   4.79700500
_cell_length_b   14.58849700
_cell_length_c   16.11141300
_cell_angle_alpha   90.00000000
_cell_angle_beta   90.00000000
_cell_angle_gamma   90.00000000
_symmetry_Int_Tables_number   1
_chemical_formula_structural   Cu3(NiC6)2
_chemical_formula_sum   'Cu12 Ni8 C48'
_cell_volume   1127.49429234
_cell_formula_units_Z   4
loop_
 _symmetry_equiv_pos_site_id
 _symmetry_equiv_pos_as_xyz
  1  'x, y, z'
loop_
 _atom_site_type_symbol
 _atom_site_label
 _atom_site_symmetry_multiplicity
 _atom_site_fract_x
 _atom_site_fract_y
 _atom_site_fract_z
 _atom_site_occupancy
  C  C0  1  0.23538700  0.13409200  0.45230000  1
  C  C1  1  0.26461300  0.63409200  0.04770000  1
  C  C2  1  0.76461300  0.86590800  0.95230000  1
  C  C3  1  0.73538700  0.36590800  0.54770000  1
  C  C4  1  0.76461300  0.86590800  0.54770000  1
  C  C5  1  0.73538700  0.36590800  0.95230000  1
  C  C6  1  0.23538700  0.13409200  0.04770000  1
  C  C7  1  0.26461300  0.63409200  0.45230000  1
  Ni  Ni8  1  0.73853800  0.99032200  0.33070700  1
  Ni  Ni9  1  0.76146200  0.49032200  0.16929300  1
  Ni  Ni10  1  0.26146200  0.00967800  0.83070700  1
  Ni  Ni11  1  0.23853800  0.50967800  0.66929300  1
  Ni  Ni12  1  0.26146200  0.00967800  0.66929300  1
  Ni  Ni13  1  0.23853800  0.50967800  0.83070700  1
  Ni  Ni14  1  0.73853800  0.99032200  0.16929300  1
  Ni  Ni15  1  0.76146200  0.49032200  0.33070700  1
  Cu  Cu16  1  0.23922700  0.88683400  0.35889700  1
  Cu  Cu17  1  0.26077300  0.38683400  0.14110300  1
  Cu  Cu18  1  0.76077300  0.11316600  0.85889700  1
  Cu  Cu19  1  0.73922700  0.61316600  0.64110300  1
  Cu  Cu20  1  0.76077300  0.11316600  0.64110300  1
  Cu  Cu21  1  0.73922700  0.61316600  0.85889700  1
  Cu  Cu22  1  0.23922700  0.88683400  0.14110300  1
  Cu  Cu23  1  0.26077300  0.38683400  0.35889700  1
  Cu  Cu24  1  0.76116900  0.16700100  0.25000000  1
  Cu  Cu25  1  0.73883100  0.66700100  0.25000000  1
  Cu  Cu26  1  0.23883100  0.83299900  0.75000000  1
  Cu  Cu27  1  0.26116900  0.33299900  0.75000000  1
  C  C28  1  0.30104300  0.82518000  0.44427800  1
  C  C29  1  0.19895700  0.32518000  0.05572200  1
  C  C30  1  0.69895700  0.17482000  0.94427800  1
  C  C31  1  0.80104300  0.67482000  0.55572200  1
  C  C32  1  0.69895700  0.17482000  0.55572200  1
  C  C33  1  0.80104300  0.67482000  0.94427800  1
  C  C34  1  0.30104300  0.82518000  0.05572200  1
  C  C35  1  0.19895700  0.32518000  0.44427800  1
  C  C36  1  0.92878200  0.94279000  0.39190400  1
  C  C37  1  0.57121800  0.44279000  0.10809600  1
  C  C38  1  0.07121800  0.05721000  0.89190400  1
  C  C39  1  0.42878200  0.55721000  0.60809600  1
  C  C40  1  0.07121800  0.05721000  0.60809600  1
  C  C41  1  0.42878200  0.55721000  0.89190400  1
  C  C42  1  0.92878200  0.94279000  0.10809600  1
  C  C43  1  0.57121800  0.44279000  0.39190400  1
  C  C44  1  0.45583300  0.98557500  0.37116000  1
  C  C45  1  0.04416700  0.48557500  0.12884000  1
  C  C46  1  0.54416700  0.01442500  0.87116000  1
  C  C47  1  0.95583300  0.51442500  0.62884000  1
  C  C48  1  0.54416700  0.01442500  0.62884000  1
  C  C49  1  0.95583300  0.51442500  0.87116000  1
  C  C50  1  0.45583300  0.98557500  0.12884000  1
  C  C51  1  0.04416700  0.48557500  0.37116000  1
  C  C52  1  0.81505500  0.09020300  0.33514200  1
  C  C53  1  0.68494500  0.59020300  0.16485800  1
  C  C54  1  0.18494500  0.90979700  0.83514200  1
  C  C55  1  0.31505500  0.40979700  0.66485800  1
  C  C56  1  0.18494500  0.90979700  0.66485800  1
  C  C57  1  0.31505500  0.40979700  0.83514200  1
  C  C58  1  0.81505500  0.09020300  0.16485800  1
  C  C59  1  0.68494500  0.59020300  0.33514200  1
  C  C60  1  0.42151800  0.19029100  0.25000000  1
  C  C61  1  0.07848200  0.69029100  0.25000000  1
  C  C62  1  0.57848200  0.80970900  0.75000000  1
  C  C63  1  0.92151800  0.30970900  0.75000000  1
  C  C64  1  0.75572800  0.94933900  0.25000000  1
  C  C65  1  0.74427200  0.44933900  0.25000000  1
  C  C66  1  0.24427200  0.05066100  0.75000000  1
  C  C67  1  0.25572800  0.55066100  0.75000000  1
