# generated using pymatgen
data_CuNiC7
_symmetry_space_group_name_H-M   'P 1'
_cell_length_a   5.62529000
_cell_length_b   8.92492134
_cell_length_c   11.40360200
_cell_angle_alpha   108.62765675
_cell_angle_beta   90.00036421
_cell_angle_gamma   108.36900562
_symmetry_Int_Tables_number   1
_chemical_formula_structural   CuNiC7
_chemical_formula_sum   'Cu4 Ni4 C28'
_cell_volume   511.64960613
_cell_formula_units_Z   4
loop_
 _symmetry_equiv_pos_site_id
 _symmetry_equiv_pos_as_xyz
  1  'x, y, z'
loop_
 _atom_site_type_symbol
 _atom_site_label
 _atom_site_symmetry_multiplicity
 _atom_site_fract_x
 _atom_site_fract_y
 _atom_site_fract_z
 _atom_site_occupancy
  C  C0  1  0.61213900  0.22497300  0.54992800  1
  C  C1  1  0.61214100  0.22497400  0.04991800  1
  C  C2  1  0.38718400  0.77503200  0.45007500  1
  C  C3  1  0.38717600  0.77503200  0.95008700  1
  C  C4  1  0.11213700  0.22497100  0.31256100  1
  C  C5  1  0.11213600  0.22497500  0.81257300  1
  C  C6  1  0.88717400  0.77502900  0.68744100  1
  C  C7  1  0.88716500  0.77502300  0.18742600  1
  Ni  Ni8  1  0.99625000  0.00000000  0.50000200  1
  Ni  Ni9  1  0.99625100  0.00000400  0.00000200  1
  Ni  Ni10  1  0.49624100  0.00000300  0.25000600  1
  Ni  Ni11  1  0.49624400  0.00000700  0.75000600  1
  Cu  Cu12  1  0.22343800  0.50001600  0.65500300  1
  Cu  Cu13  1  0.72340600  0.50000200  0.34499600  1
  Cu  Cu14  1  0.22341600  0.50002200  0.15500500  1
  Cu  Cu15  1  0.72338600  0.50002200  0.84499900  1
  C  C16  1  0.86211600  0.49999700  0.67806300  1
  C  C17  1  0.86211200  0.49999600  0.17805700  1
  C  C18  1  0.36210800  0.49999500  0.32194000  1
  C  C19  1  0.36210300  0.49999300  0.82194600  1
  C  C20  1  0.25535300  0.98185700  0.86738300  1
  C  C21  1  0.25535600  0.98185200  0.36738100  1
  C  C22  1  0.27351000  0.01812800  0.13260800  1
  C  C23  1  0.27351100  0.01813300  0.63261100  1
  C  C24  1  0.75535800  0.98186200  0.87355300  1
  C  C25  1  0.75536300  0.98186400  0.37355000  1
  C  C26  1  0.77351900  0.01813100  0.12644700  1
  C  C27  1  0.77352100  0.01812900  0.62644700  1
  C  C28  1  0.15084200  0.24762400  0.54125700  1
  C  C29  1  0.15083800  0.24762400  0.04125700  1
  C  C30  1  0.90319600  0.75236700  0.45873800  1
  C  C31  1  0.90319000  0.75236900  0.95874100  1
  C  C32  1  0.65084200  0.24760900  0.33255200  1
  C  C33  1  0.65084500  0.24761800  0.83255700  1
  C  C34  1  0.40321900  0.75238400  0.66744400  1
  C  C35  1  0.40321300  0.75238300  0.16744100  1
