# generated using pymatgen
data_CuNiC8
_symmetry_space_group_name_H-M   'P 1'
_cell_length_a   5.90359687
_cell_length_b   6.08077422
_cell_length_c   8.47719274
_cell_angle_alpha   89.78280112
_cell_angle_beta   90.68204648
_cell_angle_gamma   89.96092617
_symmetry_Int_Tables_number   1
_chemical_formula_structural   CuNiC8
_chemical_formula_sum   'Cu2 Ni2 C16'
_cell_volume   304.29416389
_cell_formula_units_Z   2
loop_
 _symmetry_equiv_pos_site_id
 _symmetry_equiv_pos_as_xyz
  1  'x, y, z'
loop_
 _atom_site_type_symbol
 _atom_site_label
 _atom_site_symmetry_multiplicity
 _atom_site_fract_x
 _atom_site_fract_y
 _atom_site_fract_z
 _atom_site_occupancy
  C  C0  1  0.98716379  0.05006166  0.25013434  1
  C  C1  1  0.01283621  0.94993834  0.74986566  1
  Ni  Ni2  1  0.00000000  0.50000000  -0.00000000  1
  Ni  Ni3  1  0.50000000  -0.00000000  0.50000000  1
  Cu  Cu4  1  0.51629597  0.55274678  0.24858730  1
  Cu  Cu5  1  0.48370403  0.44725322  0.75141270  1
  C  C6  1  0.50000000  -0.00000000  -0.00000000  1
  C  C7  1  0.00000000  0.50000000  0.50000000  1
  C  C8  1  0.22153464  0.18286506  0.94604041  1
  C  C9  1  0.27794273  0.68123525  0.55864111  1
  C  C10  1  0.77846536  0.81713494  0.05395959  1
  C  C11  1  0.72205727  0.31876475  0.44135889  1
  C  C12  1  0.32785932  0.71862759  0.93887358  1
  C  C13  1  0.17552091  0.22155601  0.56010793  1
  C  C14  1  0.67214068  0.28137241  0.06112642  1
  C  C15  1  0.82447909  0.77844399  0.43989207  1
  C  C16  1  0.39668664  0.95452765  0.22698150  1
  C  C17  1  0.11291295  0.46231151  0.27376924  1
  C  C18  1  0.60331336  0.04547235  0.77301850  1
  C  C19  1  0.88708705  0.53768849  0.72623076  1
