# generated using pymatgen
data_CuNiC11
_symmetry_space_group_name_H-M   'P 1'
_cell_length_a   7.28713700
_cell_length_b   6.83018600
_cell_length_c   14.32592520
_cell_angle_alpha   80.40517002
_cell_angle_beta   90.00000000
_cell_angle_gamma   90.00000000
_symmetry_Int_Tables_number   1
_chemical_formula_structural   CuNiC11
_chemical_formula_sum   'Cu4 Ni4 C44'
_cell_volume   703.06250976
_cell_formula_units_Z   4
loop_
 _symmetry_equiv_pos_site_id
 _symmetry_equiv_pos_as_xyz
  1  'x, y, z'
loop_
 _atom_site_type_symbol
 _atom_site_label
 _atom_site_symmetry_multiplicity
 _atom_site_fract_x
 _atom_site_fract_y
 _atom_site_fract_z
 _atom_site_occupancy
  C  C0  1  0.25000000  0.38994600  0.54151400  1
  C  C1  1  0.75000000  0.61005400  0.45848600  1
  C  C2  1  0.25000000  0.74154300  0.12259600  1
  C  C3  1  0.75000000  0.25845700  0.87740400  1
  C  C4  1  0.00427400  0.20823200  0.13708400  1
  C  C5  1  0.50427400  0.79176800  0.86291600  1
  C  C6  1  0.99572600  0.79176800  0.86291600  1
  C  C7  1  0.49572600  0.20823200  0.13708400  1
  C  C8  1  0.75000000  0.12761200  0.33283900  1
  C  C9  1  0.25000000  0.87238800  0.66716100  1
  Ni  Ni10  1  0.35665000  0.24757100  0.36236200  1
  Ni  Ni11  1  0.85665000  0.75242900  0.63763800  1
  Ni  Ni12  1  0.64335000  0.75242900  0.63763800  1
  Ni  Ni13  1  0.14335000  0.24757100  0.36236200  1
  Cu  Cu14  1  0.25000000  0.78854800  0.38215800  1
  Cu  Cu15  1  0.75000000  0.21145200  0.61784200  1
  Cu  Cu16  1  0.75000000  0.74355300  0.18953800  1
  Cu  Cu17  1  0.25000000  0.25644700  0.81046200  1
  C  C18  1  0.07293900  0.64816300  0.44456700  1
  C  C19  1  0.57293900  0.35183700  0.55543300  1
  C  C20  1  0.92706100  0.35183700  0.55543300  1
  C  C21  1  0.42706100  0.64816300  0.44456700  1
  C  C22  1  0.25000000  0.71054300  0.27485900  1
  C  C23  1  0.75000000  0.28945700  0.72514100  1
  C  C24  1  0.75000000  0.79795800  0.30201800  1
  C  C25  1  0.25000000  0.20204200  0.69798200  1
  C  C26  1  0.94020300  0.88184600  0.14219800  1
  C  C27  1  0.44020300  0.11815400  0.85780200  1
  C  C28  1  0.05979700  0.11815400  0.85780200  1
  C  C29  1  0.55979700  0.88184600  0.14219800  1
  C  C30  1  0.25000000  0.08958500  0.12789200  1
  C  C31  1  0.75000000  0.91041500  0.87210800  1
  C  C32  1  0.93233300  0.23649800  0.01781800  1
  C  C33  1  0.43233300  0.76350200  0.98218200  1
  C  C34  1  0.06766700  0.76350200  0.98218200  1
  C  C35  1  0.56766700  0.23649800  0.01781800  1
  C  C36  1  0.07485400  0.45242300  0.14423200  1
  C  C37  1  0.57485400  0.54757700  0.85576800  1
  C  C38  1  0.92514600  0.54757700  0.85576800  1
  C  C39  1  0.42514600  0.45242300  0.14423200  1
  C  C40  1  0.99728400  0.12214100  0.28645200  1
  C  C41  1  0.49728400  0.87785900  0.71354800  1
  C  C42  1  0.00271600  0.87785900  0.71354800  1
  C  C43  1  0.50271600  0.12214100  0.28645200  1
  C  C44  1  0.75000000  0.23015000  0.17770400  1
  C  C45  1  0.25000000  0.76985000  0.82229600  1
  C  C46  1  0.75000000  0.36904600  0.36415200  1
  C  C47  1  0.25000000  0.63095400  0.63584800  1
  C  C48  1  0.75000000  0.96895800  0.44381200  1
  C  C49  1  0.25000000  0.03104200  0.55618800  1
  C  C50  1  0.25000000  0.30011000  0.39278400  1
  C  C51  1  0.75000000  0.69989000  0.60721600  1
