# generated using pymatgen
data_Cu18Ni3C2
_symmetry_space_group_name_H-M   'P 1'
_cell_length_a   8.29798298
_cell_length_b   8.29798298
_cell_length_c   15.71548409
_cell_angle_alpha   86.73279517
_cell_angle_beta   86.73279517
_cell_angle_gamma   50.31542727
_symmetry_Int_Tables_number   1
_chemical_formula_structural   Cu18Ni3C2
_chemical_formula_sum   'Cu36 Ni6 C4'
_cell_volume   831.11133819
_cell_formula_units_Z   2
loop_
 _symmetry_equiv_pos_site_id
 _symmetry_equiv_pos_as_xyz
  1  'x, y, z'
loop_
 _atom_site_type_symbol
 _atom_site_label
 _atom_site_symmetry_multiplicity
 _atom_site_fract_x
 _atom_site_fract_y
 _atom_site_fract_z
 _atom_site_occupancy
  C  C0  1  0.94256600  0.89531300  0.57934800  1
  C  C1  1  0.89531300  0.94256600  0.07934800  1
  C  C2  1  0.05743400  0.10468700  0.42065200  1
  C  C3  1  0.10468700  0.05743400  0.92065200  1
  Ni  Ni4  1  0.27889000  0.33229000  0.08052500  1
  Ni  Ni5  1  0.33229000  0.27889000  0.58052500  1
  Ni  Ni6  1  0.72111000  0.66771000  0.91947500  1
  Ni  Ni7  1  0.66771000  0.72111000  0.41947500  1
  Ni  Ni8  1  0.73249500  0.26750500  0.75000000  1
  Ni  Ni9  1  0.26750500  0.73249500  0.25000000  1
  Cu  Cu10  1  0.19913800  0.28010200  0.48633000  1
  Cu  Cu11  1  0.28010200  0.19913800  0.98633000  1
  Cu  Cu12  1  0.80086200  0.71989800  0.51367000  1
  Cu  Cu13  1  0.71989800  0.80086200  0.01367000  1
  Cu  Cu14  1  0.54538400  0.16838800  0.54739100  1
  Cu  Cu15  1  0.16838800  0.54538300  0.04739100  1
  Cu  Cu16  1  0.45461600  0.83161200  0.45260900  1
  Cu  Cu17  1  0.83161200  0.45461600  0.95260900  1
  Cu  Cu18  1  0.28853500  0.17256000  0.63974300  1
  Cu  Cu19  1  0.17256000  0.28853500  0.13974300  1
  Cu  Cu20  1  0.71146500  0.82744000  0.36025700  1
  Cu  Cu21  1  0.82744000  0.71146500  0.86025700  1
  Cu  Cu22  1  0.21434300  0.50270200  0.59135300  1
  Cu  Cu23  1  0.50270200  0.21434300  0.09135300  1
  Cu  Cu24  1  0.78565700  0.49729800  0.40864700  1
  Cu  Cu25  1  0.49729800  0.78565700  0.90864700  1
  Cu  Cu26  1  0.55383800  0.35365100  0.81168300  1
  Cu  Cu27  1  0.35365100  0.55383800  0.31168300  1
  Cu  Cu28  1  0.44616200  0.64634900  0.18831700  1
  Cu  Cu29  1  0.64634900  0.44616200  0.68831700  1
  Cu  Cu30  1  0.92157500  0.21079300  0.79048900  1
  Cu  Cu31  1  0.21079300  0.92157500  0.29048900  1
  Cu  Cu32  1  0.07842500  0.78920700  0.20951100  1
  Cu  Cu33  1  0.78920700  0.07842500  0.70951100  1
  Cu  Cu34  1  0.22049100  0.81566700  0.64895400  1
  Cu  Cu35  1  0.81566700  0.22049100  0.14895400  1
  Cu  Cu36  1  0.77950900  0.18433300  0.35104600  1
  Cu  Cu37  1  0.18433300  0.77950900  0.85104600  1
  Cu  Cu38  1  0.27943000  0.26865000  0.90846000  1
  Cu  Cu39  1  0.26865000  0.27943000  0.40846000  1
  Cu  Cu40  1  0.72057000  0.73135000  0.09154000  1
  Cu  Cu41  1  0.73135000  0.72057000  0.59154000  1
  Cu  Cu42  1  0.94955100  0.14092900  0.54806100  1
  Cu  Cu43  1  0.14092900  0.94955100  0.04806100  1
  Cu  Cu44  1  0.05044900  0.85907100  0.45193900  1
  Cu  Cu45  1  0.85907100  0.05044900  0.95193900  1
