# generated using pymatgen
data_CuNiC6
_symmetry_space_group_name_H-M   'P 1'
_cell_length_a   3.84144500
_cell_length_b   6.54656400
_cell_length_c   19.32636100
_cell_angle_alpha   90.00000000
_cell_angle_beta   90.00000000
_cell_angle_gamma   90.00000000
_symmetry_Int_Tables_number   1
_chemical_formula_structural   CuNiC6
_chemical_formula_sum   'Cu4 Ni4 C24'
_cell_volume   486.02445845
_cell_formula_units_Z   4
loop_
 _symmetry_equiv_pos_site_id
 _symmetry_equiv_pos_as_xyz
  1  'x, y, z'
loop_
 _atom_site_type_symbol
 _atom_site_label
 _atom_site_symmetry_multiplicity
 _atom_site_fract_x
 _atom_site_fract_y
 _atom_site_fract_z
 _atom_site_occupancy
  C  C0  1  0.25000000  0.79654900  0.19585900  1
  C  C1  1  0.25000000  0.29654900  0.30414100  1
  C  C2  1  0.75000000  0.20345100  0.80414100  1
  C  C3  1  0.75000000  0.70345100  0.69585900  1
  Ni  Ni4  1  0.25000000  0.76921400  0.89526700  1
  Ni  Ni5  1  0.25000000  0.26921400  0.60473300  1
  Ni  Ni6  1  0.75000000  0.23078600  0.10473300  1
  Ni  Ni7  1  0.75000000  0.73078600  0.39526700  1
  Cu  Cu8  1  0.25000000  0.31438900  0.96628700  1
  Cu  Cu9  1  0.25000000  0.81438900  0.53371300  1
  Cu  Cu10  1  0.75000000  0.68561100  0.03371300  1
  Cu  Cu11  1  0.75000000  0.18561100  0.46628700  1
  C  C12  1  0.25000000  0.06471200  0.92772900  1
  C  C13  1  0.25000000  0.56471200  0.57227100  1
  C  C14  1  0.75000000  0.93528800  0.07227100  1
  C  C15  1  0.75000000  0.43528800  0.42772900  1
  C  C16  1  0.25000000  0.46476300  0.88523600  1
  C  C17  1  0.25000000  0.96476300  0.61476400  1
  C  C18  1  0.75000000  0.53523700  0.11476400  1
  C  C19  1  0.75000000  0.03523700  0.38523600  1
  C  C20  1  0.25000000  0.23792800  0.07709200  1
  C  C21  1  0.25000000  0.73792800  0.42290800  1
  C  C22  1  0.75000000  0.76207200  0.92290800  1
  C  C23  1  0.75000000  0.26207200  0.57709200  1
  C  C24  1  0.25000000  0.65030800  0.00883100  1
  C  C25  1  0.25000000  0.15030800  0.49116900  1
  C  C26  1  0.75000000  0.34969200  0.99116900  1
  C  C27  1  0.75000000  0.84969200  0.50883100  1
  C  C28  1  0.25000000  0.82798800  0.80362000  1
  C  C29  1  0.25000000  0.32798800  0.69638000  1
  C  C30  1  0.75000000  0.17201200  0.19638000  1
  C  C31  1  0.75000000  0.67201200  0.30362000  1
