# generated using pymatgen
data_CuNiC11
_symmetry_space_group_name_H-M   'P 1'
_cell_length_a   6.10545377
_cell_length_b   6.10545377
_cell_length_c   9.94432100
_cell_angle_alpha   90.00000000
_cell_angle_beta   90.00000000
_cell_angle_gamma   119.99999751
_symmetry_Int_Tables_number   1
_chemical_formula_structural   CuNiC11
_chemical_formula_sum   'Cu2 Ni2 C22'
_cell_volume   321.02708231
_cell_formula_units_Z   2
loop_
 _symmetry_equiv_pos_site_id
 _symmetry_equiv_pos_as_xyz
  1  'x, y, z'
loop_
 _atom_site_type_symbol
 _atom_site_label
 _atom_site_symmetry_multiplicity
 _atom_site_fract_x
 _atom_site_fract_y
 _atom_site_fract_z
 _atom_site_occupancy
  Ni  Ni0  1  0.33333300  0.66666700  0.36290600  1
  Ni  Ni1  1  0.66666700  0.33333300  0.86290600  1
  Cu  Cu2  1  0.33333300  0.66666700  0.73624300  1
  Cu  Cu3  1  0.66666700  0.33333300  0.23624300  1
  C  C4  1  0.82561200  0.65122300  0.54607200  1
  C  C5  1  0.17438800  0.82561200  0.04607200  1
  C  C6  1  0.65122300  0.82561200  0.04607200  1
  C  C7  1  0.34877700  0.17438800  0.54607200  1
  C  C8  1  0.82561200  0.17438800  0.54607200  1
  C  C9  1  0.17438800  0.34877700  0.04607200  1
  C  C10  1  0.00000000  0.00000000  0.81483400  1
  C  C11  1  0.00000000  0.00000000  0.31483400  1
  C  C12  1  0.00000000  0.00000000  0.62371200  1
  C  C13  1  0.00000000  0.00000000  0.12371200  1
  C  C14  1  0.15255200  0.30510400  0.87413000  1
  C  C15  1  0.84744800  0.15255200  0.37413000  1
  C  C16  1  0.30510400  0.15255200  0.37413000  1
  C  C17  1  0.69489600  0.84744800  0.87413000  1
  C  C18  1  0.15255200  0.84744800  0.87413000  1
  C  C19  1  0.84744800  0.69489600  0.37413000  1
  C  C20  1  0.97505700  0.48752900  0.59853300  1
  C  C21  1  0.48752900  0.97505700  0.09853300  1
  C  C22  1  0.48752900  0.51247100  0.09853300  1
  C  C23  1  0.51247100  0.48752900  0.59853300  1
  C  C24  1  0.02494300  0.51247100  0.09853300  1
  C  C25  1  0.51247100  0.02494300  0.59853300  1
