# generated using pymatgen
data_CuNi2C15
_symmetry_space_group_name_H-M   'P 1'
_cell_length_a   24.63702900
_cell_length_b   8.75719100
_cell_length_c   12.20664900
_cell_angle_alpha   90.00000000
_cell_angle_beta   90.00000000
_cell_angle_gamma   90.00000000
_symmetry_Int_Tables_number   1
_chemical_formula_structural   CuNi2C15
_chemical_formula_sum   'Cu8 Ni16 C120'
_cell_volume   2633.59878675
_cell_formula_units_Z   8
loop_
 _symmetry_equiv_pos_site_id
 _symmetry_equiv_pos_as_xyz
  1  'x, y, z'
loop_
 _atom_site_type_symbol
 _atom_site_label
 _atom_site_symmetry_multiplicity
 _atom_site_fract_x
 _atom_site_fract_y
 _atom_site_fract_z
 _atom_site_occupancy
  Ni  Ni0  1  0.83646900  0.25000000  0.62270000  1
  Ni  Ni1  1  0.33646900  0.25000000  0.87730000  1
  Ni  Ni2  1  0.16353100  0.75000000  0.37730000  1
  Ni  Ni3  1  0.66353100  0.75000000  0.12270000  1
  Ni  Ni4  1  0.82551300  0.25000000  0.92967900  1
  Ni  Ni5  1  0.32551300  0.25000000  0.57032100  1
  Ni  Ni6  1  0.17448700  0.75000000  0.07032100  1
  Ni  Ni7  1  0.67448700  0.75000000  0.42967900  1
  Ni  Ni8  1  0.90295600  0.75000000  0.12355000  1
  Ni  Ni9  1  0.40295600  0.75000000  0.37645000  1
  Ni  Ni10  1  0.09704400  0.25000000  0.87645000  1
  Ni  Ni11  1  0.59704400  0.25000000  0.62355000  1
  Ni  Ni12  1  0.93529200  0.75000000  0.42947700  1
  Ni  Ni13  1  0.43529200  0.75000000  0.07052300  1
  Ni  Ni14  1  0.06470800  0.25000000  0.57052300  1
  Ni  Ni15  1  0.56470800  0.25000000  0.92947700  1
  Cu  Cu16  1  0.74500400  0.25000000  0.31491200  1
  Cu  Cu17  1  0.24500400  0.25000000  0.18508800  1
  Cu  Cu18  1  0.25499600  0.75000000  0.68508800  1
  Cu  Cu19  1  0.75499600  0.75000000  0.81491200  1
  Cu  Cu20  1  0.48898100  0.25000000  0.32090200  1
  Cu  Cu21  1  0.98898100  0.25000000  0.17909800  1
  Cu  Cu22  1  0.51101900  0.75000000  0.67909800  1
  Cu  Cu23  1  0.01101900  0.75000000  0.82090200  1
  C  C24  1  0.72605000  0.25000000  0.42404500  1
  C  C25  1  0.22605000  0.25000000  0.07595500  1
  C  C26  1  0.27395000  0.75000000  0.57595500  1
  C  C27  1  0.77395000  0.75000000  0.92404500  1
  C  C28  1  0.45718900  0.25000000  0.41689500  1
  C  C29  1  0.95718900  0.25000000  0.08310500  1
  C  C30  1  0.54281100  0.75000000  0.58310500  1
  C  C31  1  0.04281100  0.75000000  0.91689500  1
  C  C32  1  0.78849100  0.06707000  0.29061000  1
  C  C33  1  0.28849100  0.43293000  0.20939000  1
  C  C34  1  0.21150900  0.56707000  0.70939000  1
  C  C35  1  0.71150900  0.93293000  0.79061000  1
  C  C36  1  0.21150900  0.93293000  0.70939000  1
  C  C37  1  0.71150900  0.56707000  0.79061000  1
  C  C38  1  0.78849100  0.43293000  0.29061000  1
  C  C39  1  0.28849100  0.06707000  0.20939000  1
  C  C40  1  0.68187300  0.25000000  0.21794600  1
  C  C41  1  0.18187300  0.25000000  0.28205400  1
  C  C42  1  0.31812700  0.75000000  0.78205400  1
  C  C43  1  0.81812700  0.75000000  0.71794600  1
  C  C44  1  0.53440000  0.06722100  0.31986300  1
  C  C45  1  0.03440000  0.43277900  0.18013700  1
  C  C46  1  0.46560000  0.56722100  0.68013700  1
  C  C47  1  0.96560000  0.93277900  0.81986300  1
  C  C48  1  0.46560000  0.93277900  0.68013700  1
  C  C49  1  0.96560000  0.56722100  0.81986300  1
  C  C50  1  0.53440000  0.43277900  0.31986300  1
  C  C51  1  0.03440000  0.06722100  0.18013700  1
  C  C52  1  0.44041900  0.25000000  0.19482500  1
  C  C53  1  0.94041900  0.25000000  0.30517500  1
  C  C54  1  0.55958100  0.75000000  0.80517500  1
  C  C55  1  0.05958100  0.75000000  0.69482500  1
  C  C56  1  0.85969300  0.25000000  0.48747400  1
  C  C57  1  0.35969300  0.25000000  0.01252600  1
  C  C58  1  0.14030700  0.75000000  0.51252600  1
  C  C59  1  0.64030700  0.75000000  0.98747400  1
  C  C60  1  0.78693800  0.10997200  0.59743500  1
  C  C61  1  0.28693800  0.39002800  0.90256500  1
  C  C62  1  0.21306200  0.60997200  0.40256500  1
  C  C63  1  0.71306200  0.89002800  0.09743500  1
  C  C64  1  0.21306200  0.89002800  0.40256500  1
  C  C65  1  0.71306200  0.60997200  0.09743500  1
  C  C66  1  0.78693800  0.39002800  0.59743500  1
  C  C67  1  0.28693800  0.10997200  0.90256500  1
  C  C68  1  0.88129100  0.10796900  0.66677900  1
  C  C69  1  0.38129100  0.39203100  0.83322100  1
  C  C70  1  0.11870900  0.60796900  0.33322100  1
  C  C71  1  0.61870900  0.89203100  0.16677900  1
  C  C72  1  0.11870900  0.89203100  0.33322100  1
  C  C73  1  0.61870900  0.60796900  0.16677900  1
  C  C74  1  0.88129100  0.39203100  0.66677900  1
  C  C75  1  0.38129100  0.10796900  0.83322100  1
  C  C76  1  0.80658200  0.25000000  0.77315500  1
  C  C77  1  0.30658200  0.25000000  0.72684500  1
  C  C78  1  0.19341800  0.75000000  0.22684500  1
  C  C79  1  0.69341800  0.75000000  0.27315500  1
  C  C80  1  0.75521500  0.25000000  0.94878400  1
  C  C81  1  0.25521500  0.25000000  0.55121600  1
  C  C82  1  0.24478500  0.75000000  0.05121600  1
  C  C83  1  0.74478500  0.75000000  0.44878400  1
  C  C84  1  0.83977700  0.25000000  0.06974900  1
  C  C85  1  0.33977700  0.25000000  0.43025100  1
  C  C86  1  0.16022300  0.75000000  0.93025100  1
  C  C87  1  0.66022300  0.75000000  0.56974900  1
  C  C88  1  0.82488100  0.05011400  0.91832200  1
  C  C89  1  0.32488100  0.44988600  0.58167800  1
  C  C90  1  0.17511900  0.55011400  0.08167800  1
  C  C91  1  0.67511900  0.94988600  0.41832200  1
  C  C92  1  0.17511900  0.94988600  0.08167800  1
  C  C93  1  0.67511900  0.55011400  0.41832200  1
  C  C94  1  0.82488100  0.44988600  0.91832200  1
  C  C95  1  0.32488100  0.05011400  0.58167800  1
  C  C96  1  0.94079500  0.75000000  0.25912000  1
  C  C97  1  0.44079500  0.75000000  0.24088000  1
  C  C98  1  0.05920500  0.25000000  0.74088000  1
  C  C99  1  0.55920500  0.25000000  0.75912000  1
  C  C100  1  0.84137500  0.75000000  0.19501000  1
  C  C101  1  0.34137500  0.75000000  0.30499000  1
  C  C102  1  0.15862500  0.25000000  0.80499000  1
  C  C103  1  0.65862500  0.25000000  0.69501000  1
  C  C104  1  0.93351500  0.75000000  0.57206600  1
  C  C105  1  0.43351500  0.75000000  0.92793400  1
  C  C106  1  0.06648500  0.25000000  0.42793400  1
  C  C107  1  0.56648500  0.25000000  0.07206600  1
  C  C108  1  0.96856100  0.75000000  0.06348300  1
  C  C109  1  0.46856100  0.75000000  0.43651700  1
  C  C110  1  0.03143900  0.25000000  0.93651700  1
  C  C111  1  0.53143900  0.25000000  0.56348300  1
  C  C112  1  0.87134900  0.75000000  0.99491100  1
  C  C113  1  0.37134900  0.75000000  0.50508900  1
  C  C114  1  0.12865100  0.25000000  0.00508900  1
  C  C115  1  0.62865100  0.25000000  0.49491100  1
  C  C116  1  0.90549800  0.95071700  0.12974300  1
  C  C117  1  0.40549800  0.54928300  0.37025700  1
  C  C118  1  0.09450200  0.45071700  0.87025700  1
  C  C119  1  0.59450200  0.04928300  0.62974300  1
  C  C120  1  0.09450200  0.04928300  0.87025700  1
  C  C121  1  0.59450200  0.45071700  0.62974300  1
  C  C122  1  0.90549800  0.54928300  0.12974300  1
  C  C123  1  0.40549800  0.95071700  0.37025700  1
  C  C124  1  0.89463300  0.25000000  0.89307400  1
  C  C125  1  0.39463300  0.25000000  0.60692600  1
  C  C126  1  0.10536700  0.75000000  0.10692600  1
  C  C127  1  0.60536700  0.75000000  0.39307400  1
  C  C128  1  0.88566400  0.89041700  0.41340400  1
  C  C129  1  0.38566400  0.60958300  0.08659600  1
  C  C130  1  0.11433600  0.39041700  0.58659600  1
  C  C131  1  0.61433600  0.10958300  0.91340400  1
  C  C132  1  0.11433600  0.10958300  0.58659600  1
  C  C133  1  0.61433600  0.39041700  0.91340400  1
  C  C134  1  0.88566400  0.60958300  0.41340400  1
  C  C135  1  0.38566400  0.89041700  0.08659600  1
  C  C136  1  0.98540600  0.89018300  0.41737000  1
  C  C137  1  0.48540600  0.60981700  0.08263000  1
  C  C138  1  0.01459400  0.39018300  0.58263000  1
  C  C139  1  0.51459400  0.10981700  0.91737000  1
  C  C140  1  0.01459400  0.10981700  0.58263000  1
  C  C141  1  0.51459400  0.39018300  0.91737000  1
  C  C142  1  0.98540600  0.60981700  0.41737000  1
  C  C143  1  0.48540600  0.89018300  0.08263000  1
