# generated using pymatgen
data_Cu4Ni5C21
_symmetry_space_group_name_H-M   'P 1'
_cell_length_a   8.69637464
_cell_length_b   8.69637464
_cell_length_c   8.69637464
_cell_angle_alpha   95.60702401
_cell_angle_beta   95.60702401
_cell_angle_gamma   143.57069608
_symmetry_Int_Tables_number   1
_chemical_formula_structural   Cu4Ni5C21
_chemical_formula_sum   'Cu4 Ni5 C21'
_cell_volume   370.98085701
_cell_formula_units_Z   1
loop_
 _symmetry_equiv_pos_site_id
 _symmetry_equiv_pos_as_xyz
  1  'x, y, z'
loop_
 _atom_site_type_symbol
 _atom_site_label
 _atom_site_symmetry_multiplicity
 _atom_site_fract_x
 _atom_site_fract_y
 _atom_site_fract_z
 _atom_site_occupancy
  Ni  Ni0  1  0.59786300  0.90377300  0.51548500  1
  Ni  Ni1  1  0.38828800  0.08237800  0.48451500  1
  Ni  Ni2  1  0.09622700  0.61171200  0.69409000  1
  Ni  Ni3  1  0.91762200  0.40213700  0.30591000  1
  Ni  Ni4  1  0.50000000  0.50000000  0.00000000  1
  Cu  Cu5  1  0.16025900  0.86185800  0.06720800  1
  Cu  Cu6  1  0.79465000  0.09305100  0.93279200  1
  Cu  Cu7  1  0.13814200  0.20535000  0.29840100  1
  Cu  Cu8  1  0.90694900  0.83974100  0.70159900  1
  C  C9  1  0.40734000  0.75755500  0.14340800  1
  C  C10  1  0.61414700  0.26393200  0.85659200  1
  C  C11  1  0.24244500  0.38585300  0.64978500  1
  C  C12  1  0.73606800  0.59266000  0.35021500  1
  C  C13  1  0.37805600  0.87422100  0.27837900  1
  C  C14  1  0.59584200  0.09967700  0.72162100  1
  C  C15  1  0.12577900  0.40415800  0.50383500  1
  C  C16  1  0.90032300  0.62194400  0.49616500  1
  C  C17  1  0.21611600  0.45176500  0.13884800  1
  C  C18  1  0.31291700  0.07726800  0.86115200  1
  C  C19  1  0.54823500  0.68708300  0.76435100  1
  C  C20  1  0.92273200  0.78388400  0.23564900  1
  C  C21  1  0.72432100  0.96385000  0.17162600  1
  C  C22  1  0.79222500  0.55269600  0.82837400  1
  C  C23  1  0.03615000  0.20777500  0.76047100  1
  C  C24  1  0.44730400  0.27567900  0.23952900  1
  C  C25  1  0.32895200  0.76781000  0.96743900  1
  C  C26  1  0.80037100  0.36151300  0.03256100  1
  C  C27  1  0.23219000  0.19962900  0.56114200  1
  C  C28  1  0.63848700  0.67104800  0.43885800  1
  C  C29  1  0.00000000  0.00000000  0.00000000  1
