# generated using pymatgen
data_Cu2Ni7C
_symmetry_space_group_name_H-M   'P 1'
_cell_length_a   5.78793400
_cell_length_b   7.46134000
_cell_length_c   8.17530400
_cell_angle_alpha   90.00000000
_cell_angle_beta   90.00000000
_cell_angle_gamma   90.00000000
_symmetry_Int_Tables_number   1
_chemical_formula_structural   Cu2Ni7C
_chemical_formula_sum   'Cu8 Ni28 C4'
_cell_volume   353.05658135
_cell_formula_units_Z   4
loop_
 _symmetry_equiv_pos_site_id
 _symmetry_equiv_pos_as_xyz
  1  'x, y, z'
loop_
 _atom_site_type_symbol
 _atom_site_label
 _atom_site_symmetry_multiplicity
 _atom_site_fract_x
 _atom_site_fract_y
 _atom_site_fract_z
 _atom_site_occupancy
  Ni  Ni0  1  0.79265700  0.02981600  0.72087900  1
  Ni  Ni1  1  0.20734300  0.52981600  0.27912100  1
  Ni  Ni2  1  0.79265700  0.52981600  0.77912100  1
  Ni  Ni3  1  0.20734300  0.02981600  0.22087900  1
  Ni  Ni4  1  0.04259600  0.15028100  0.74577600  1
  Ni  Ni5  1  0.95740400  0.65028100  0.25422400  1
  Ni  Ni6  1  0.04259600  0.65028100  0.75422400  1
  Ni  Ni7  1  0.95740400  0.15028100  0.24577600  1
  Ni  Ni8  1  0.04548700  0.95688400  0.63286200  1
  Ni  Ni9  1  0.95451300  0.45688400  0.36713800  1
  Ni  Ni10  1  0.04548700  0.45688400  0.86713800  1
  Ni  Ni11  1  0.95451300  0.95688400  0.13286200  1
  Ni  Ni12  1  0.90770100  0.14551000  0.55757900  1
  Ni  Ni13  1  0.09229900  0.64551000  0.44242100  1
  Ni  Ni14  1  0.90770100  0.64551000  0.94242100  1
  Ni  Ni15  1  0.09229900  0.14551000  0.05757900  1
  Ni  Ni16  1  0.43354300  0.56060900  0.63100800  1
  Ni  Ni17  1  0.56645700  0.06060900  0.36899200  1
  Ni  Ni18  1  0.43354300  0.06060900  0.86899200  1
  Ni  Ni19  1  0.56645700  0.56060900  0.13100800  1
  Ni  Ni20  1  0.43093500  0.37144000  0.73342200  1
  Ni  Ni21  1  0.56906500  0.87144000  0.26657800  1
  Ni  Ni22  1  0.43093500  0.87144000  0.76657800  1
  Ni  Ni23  1  0.56906500  0.37144000  0.23342200  1
  Ni  Ni24  1  0.58837400  0.38833600  0.56408000  1
  Ni  Ni25  1  0.41162600  0.88833600  0.43592000  1
  Ni  Ni26  1  0.58837400  0.88833600  0.93592000  1
  Ni  Ni27  1  0.41162600  0.38833600  0.06408000  1
  Cu  Cu28  1  0.94856500  0.07115600  0.66284600  1
  Cu  Cu29  1  0.05143500  0.57115600  0.33715400  1
  Cu  Cu30  1  0.94856500  0.57115600  0.83715400  1
  Cu  Cu31  1  0.05143500  0.07115600  0.16284600  1
  Cu  Cu32  1  0.53621700  0.45531400  0.66711900  1
  Cu  Cu33  1  0.46378300  0.95531400  0.33288100  1
  Cu  Cu34  1  0.53621700  0.95531400  0.83288100  1
  Cu  Cu35  1  0.46378300  0.45531400  0.16711900  1
  C  C36  1  0.18646500  0.76085400  0.60650800  1
  C  C37  1  0.81353500  0.26085400  0.39349200  1
  C  C38  1  0.18646500  0.26085400  0.89349200  1
  C  C39  1  0.81353500  0.76085400  0.10650800  1
