# generated using pymatgen
data_Cu12Ni5C2
_symmetry_space_group_name_H-M   'P 1'
_cell_length_a   6.83310833
_cell_length_b   6.83310833
_cell_length_c   6.83310900
_cell_angle_alpha   83.49176295
_cell_angle_beta   83.49176295
_cell_angle_gamma   83.49176074
_symmetry_Int_Tables_number   1
_chemical_formula_structural   Cu12Ni5C2
_chemical_formula_sum   'Cu12 Ni5 C2'
_cell_volume   313.31190332
_cell_formula_units_Z   1
loop_
 _symmetry_equiv_pos_site_id
 _symmetry_equiv_pos_as_xyz
  1  'x, y, z'
loop_
 _atom_site_type_symbol
 _atom_site_label
 _atom_site_symmetry_multiplicity
 _atom_site_fract_x
 _atom_site_fract_y
 _atom_site_fract_z
 _atom_site_occupancy
  C  C0  1  0.65713400  0.65713400  0.65713400  1
  C  C1  1  0.34286600  0.34286600  0.34286600  1
  Ni  Ni2  1  0.00000000  0.00000000  0.50000000  1
  Ni  Ni3  1  0.00000000  0.50000000  0.00000000  1
  Ni  Ni4  1  0.50000000  0.00000000  0.00000000  1
  Ni  Ni5  1  0.90242100  0.90242100  0.90242100  1
  Ni  Ni6  1  0.09757900  0.09757900  0.09757900  1
  Cu  Cu7  1  0.28242400  0.71757600  0.00000000  1
  Cu  Cu8  1  0.71757600  0.00000000  0.28242400  1
  Cu  Cu9  1  0.00000000  0.28242400  0.71757600  1
  Cu  Cu10  1  0.28242400  0.00000000  0.71757600  1
  Cu  Cu11  1  0.00000000  0.71757600  0.28242400  1
  Cu  Cu12  1  0.71757600  0.28242400  0.00000000  1
  Cu  Cu13  1  0.33581500  0.33581500  0.87903700  1
  Cu  Cu14  1  0.33581500  0.87903700  0.33581500  1
  Cu  Cu15  1  0.87903700  0.33581500  0.33581500  1
  Cu  Cu16  1  0.66418500  0.66418500  0.12096300  1
  Cu  Cu17  1  0.66418500  0.12096300  0.66418500  1
  Cu  Cu18  1  0.12096300  0.66418500  0.66418500  1
