# generated using pymatgen
data_Cu2Ni3C8
_symmetry_space_group_name_H-M   'P 1'
_cell_length_a   5.85975638
_cell_length_b   5.85975638
_cell_length_c   9.38420700
_cell_angle_alpha   90.00000000
_cell_angle_beta   90.00000000
_cell_angle_gamma   120.00000434
_symmetry_Int_Tables_number   1
_chemical_formula_structural   Cu2Ni3C8
_chemical_formula_sum   'Cu4 Ni6 C16'
_cell_volume   279.05339689
_cell_formula_units_Z   2
loop_
 _symmetry_equiv_pos_site_id
 _symmetry_equiv_pos_as_xyz
  1  'x, y, z'
loop_
 _atom_site_type_symbol
 _atom_site_label
 _atom_site_symmetry_multiplicity
 _atom_site_fract_x
 _atom_site_fract_y
 _atom_site_fract_z
 _atom_site_occupancy
  Ni  Ni0  1  0.67187100  0.83593500  0.24501400  1
  Ni  Ni1  1  0.83593500  0.16406500  0.74501400  1
  Ni  Ni2  1  0.16406500  0.32812900  0.24501400  1
  Ni  Ni3  1  0.83593500  0.67187100  0.74501400  1
  Ni  Ni4  1  0.32812900  0.16406500  0.74501400  1
  Ni  Ni5  1  0.16406500  0.83593500  0.24501400  1
  Cu  Cu6  1  0.66666700  0.33333300  0.03321800  1
  Cu  Cu7  1  0.33333300  0.66666700  0.53321800  1
  Cu  Cu8  1  0.66666700  0.33333300  0.41524900  1
  Cu  Cu9  1  0.33333300  0.66666700  0.91524900  1
  C  C10  1  0.84081900  0.15918100  0.14370600  1
  C  C11  1  0.68163800  0.84081900  0.64370600  1
  C  C12  1  0.15918100  0.31836200  0.64370600  1
  C  C13  1  0.84081900  0.68163800  0.14370600  1
  C  C14  1  0.31836200  0.15918100  0.14370600  1
  C  C15  1  0.15918100  0.84081900  0.64370600  1
  C  C16  1  0.51857200  0.48142800  0.86413100  1
  C  C17  1  0.03714300  0.51857200  0.36413100  1
  C  C18  1  0.48142800  0.96285700  0.36413100  1
  C  C19  1  0.51857200  0.03714300  0.86413100  1
  C  C20  1  0.00000000  0.00000000  0.34971700  1
  C  C21  1  0.00000000  0.00000000  0.84971700  1
  C  C22  1  0.33333300  0.66666700  0.13676200  1
  C  C23  1  0.96285700  0.48142800  0.86413100  1
  C  C24  1  0.48142800  0.51857200  0.36413100  1
  C  C25  1  0.66666700  0.33333300  0.63676200  1
