# generated using pymatgen
data_Cu4NiC20
_symmetry_space_group_name_H-M   'P 1'
_cell_length_a   6.51718500
_cell_length_b   11.57476368
_cell_length_c   14.04506204
_cell_angle_alpha   113.21533410
_cell_angle_beta   103.41542586
_cell_angle_gamma   90.00000000
_symmetry_Int_Tables_number   1
_chemical_formula_structural   Cu4NiC20
_chemical_formula_sum   'Cu8 Ni2 C40'
_cell_volume   942.16226276
_cell_formula_units_Z   2
loop_
 _symmetry_equiv_pos_site_id
 _symmetry_equiv_pos_as_xyz
  1  'x, y, z'
loop_
 _atom_site_type_symbol
 _atom_site_label
 _atom_site_symmetry_multiplicity
 _atom_site_fract_x
 _atom_site_fract_y
 _atom_site_fract_z
 _atom_site_occupancy
  C  C0  1  0.02875700  0.85105100  0.54864800  1
  C  C1  1  0.48010900  0.64894900  0.45135200  1
  C  C2  1  0.97124300  0.14894900  0.45135200  1
  C  C3  1  0.51989100  0.35105100  0.54864800  1
  C  C4  1  0.85730100  0.70273400  0.21929400  1
  C  C5  1  0.63800700  0.79726600  0.78070600  1
  C  C6  1  0.14269900  0.29726600  0.78070600  1
  C  C7  1  0.36199300  0.20273400  0.21929400  1
  Ni  Ni8  1  0.24972500  0.75000000  0.00000000  1
  Ni  Ni9  1  0.75027500  0.25000000  0.00000000  1
  Cu  Cu10  1  0.20198600  0.02718400  0.89907000  1
  Cu  Cu11  1  0.30291600  0.47281600  0.10093000  1
  Cu  Cu12  1  0.79801400  0.97281600  0.10093000  1
  Cu  Cu13  1  0.69708400  0.52718400  0.89907000  1
  Cu  Cu14  1  0.44436400  0.91605200  0.32644400  1
  Cu  Cu15  1  0.11792100  0.58394800  0.67355600  1
  Cu  Cu16  1  0.55563600  0.08394800  0.67355600  1
  Cu  Cu17  1  0.88207900  0.41605200  0.32644400  1
  C  C18  1  0.11008300  0.90785100  0.93771600  1
  C  C19  1  0.17236700  0.59214900  0.06228400  1
  C  C20  1  0.88991700  0.09214900  0.06228400  1
  C  C21  1  0.82763300  0.40785100  0.93771600  1
  C  C22  1  0.99779100  0.86630400  0.10891400  1
  C  C23  1  0.88887700  0.63369600  0.89108600  1
  C  C24  1  0.00220900  0.13369600  0.89108600  1
  C  C25  1  0.11112300  0.36630400  0.10891400  1
  C  C26  1  0.54787400  0.61939200  0.99269200  1
  C  C27  1  0.55518200  0.88060800  0.00730800  1
  C  C28  1  0.45212600  0.38060800  0.00730800  1
  C  C29  1  0.44481800  0.11939200  0.99269200  1
  C  C30  1  0.24713100  0.94647800  0.77173100  1
  C  C31  1  0.47539900  0.55352200  0.22826900  1
  C  C32  1  0.75286900  0.05352200  0.22826900  1
  C  C33  1  0.52460100  0.44647800  0.77173100  1
  C  C34  1  0.42851100  0.83823100  0.18048700  1
  C  C35  1  0.24802400  0.66176900  0.81951300  1
  C  C36  1  0.57148900  0.16176900  0.81951300  1
  C  C37  1  0.75197600  0.33823100  0.18048700  1
  C  C38  1  0.40643500  0.07989900  0.36779900  1
  C  C39  1  0.03863700  0.42010100  0.63220100  1
  C  C40  1  0.59356500  0.92010100  0.63220100  1
  C  C41  1  0.96136300  0.57989900  0.36779900  1
  C  C42  1  0.25223200  0.83980900  0.36004600  1
  C  C43  1  0.89218600  0.66019100  0.63995400  1
  C  C44  1  0.74776800  0.16019100  0.63995400  1
  C  C45  1  0.10781400  0.33980900  0.36004600  1
  C  C46  1  0.70234400  0.89884000  0.39487700  1
  C  C47  1  0.30746700  0.60116000  0.60512300  1
  C  C48  1  0.29765600  0.10116000  0.60512300  1
  C  C49  1  0.69253300  0.39884000  0.39487700  1
