# generated using pymatgen
data_Cu4NiC9
_symmetry_space_group_name_H-M   'P 1'
_cell_length_a   5.73821300
_cell_length_b   8.24372900
_cell_length_c   11.39656345
_cell_angle_alpha   51.16744819
_cell_angle_beta   90.00000000
_cell_angle_gamma   90.00000000
_symmetry_Int_Tables_number   1
_chemical_formula_structural   Cu4NiC9
_chemical_formula_sum   'Cu8 Ni2 C18'
_cell_volume   419.95390054
_cell_formula_units_Z   2
loop_
 _symmetry_equiv_pos_site_id
 _symmetry_equiv_pos_as_xyz
  1  'x, y, z'
loop_
 _atom_site_type_symbol
 _atom_site_label
 _atom_site_symmetry_multiplicity
 _atom_site_fract_x
 _atom_site_fract_y
 _atom_site_fract_z
 _atom_site_occupancy
  Ni  Ni0  1  0.28757800  0.00000000  0.75000000  1
  Ni  Ni1  1  0.71242200  0.00000000  0.25000000  1
  Cu  Cu2  1  0.77414800  0.62012400  0.85728100  1
  Cu  Cu3  1  0.31534200  0.20733000  0.93644500  1
  Cu  Cu4  1  0.68465800  0.20733000  0.43644500  1
  Cu  Cu5  1  0.22585200  0.62012400  0.35728100  1
  Cu  Cu6  1  0.77414800  0.37987600  0.64271900  1
  Cu  Cu7  1  0.68465800  0.79267000  0.06355500  1
  Cu  Cu8  1  0.22585200  0.37987600  0.14271900  1
  Cu  Cu9  1  0.31534200  0.79267000  0.56355500  1
  C  C10  1  0.46994200  0.50000000  0.75000000  1
  C  C11  1  0.53005800  0.50000000  0.25000000  1
  C  C12  1  0.04315600  0.69232600  0.49698600  1
  C  C13  1  0.87689500  0.17909900  0.29268100  1
  C  C14  1  0.87689500  0.82090100  0.20731900  1
  C  C15  1  0.04315600  0.30767400  0.00301400  1
  C  C16  1  0.95684400  0.30767400  0.50301400  1
  C  C17  1  0.12310500  0.82090100  0.70731900  1
  C  C18  1  0.12310500  0.17909900  0.79268100  1
  C  C19  1  0.95684400  0.69232600  0.99698600  1
  C  C20  1  0.63682000  0.11662500  0.88045000  1
  C  C21  1  0.48587000  0.25424300  0.57601200  1
  C  C22  1  0.48587000  0.74575700  0.92398800  1
  C  C23  1  0.63682000  0.88337500  0.61955000  1
  C  C24  1  0.36318000  0.11662500  0.38045000  1
  C  C25  1  0.51413000  0.74575700  0.42398800  1
  C  C26  1  0.51413000  0.25424300  0.07601200  1
  C  C27  1  0.36318000  0.88337500  0.11955000  1
