# generated using pymatgen
data_Cu(NiC2)2
_symmetry_space_group_name_H-M   'P 1'
_cell_length_a   10.23936826
_cell_length_b   10.23936826
_cell_length_c   9.49115522
_cell_angle_alpha   89.70952058
_cell_angle_beta   89.70952058
_cell_angle_gamma   55.83631228
_symmetry_Int_Tables_number   1
_chemical_formula_structural   Cu(NiC2)2
_chemical_formula_sum   'Cu4 Ni8 C16'
_cell_volume   823.36613588
_cell_formula_units_Z   4
loop_
 _symmetry_equiv_pos_site_id
 _symmetry_equiv_pos_as_xyz
  1  'x, y, z'
loop_
 _atom_site_type_symbol
 _atom_site_label
 _atom_site_symmetry_multiplicity
 _atom_site_fract_x
 _atom_site_fract_y
 _atom_site_fract_z
 _atom_site_occupancy
  C  C0  1  0.35590200  0.89319600  0.29906700  1
  C  C1  1  0.64409800  0.10680400  0.70093300  1
  C  C2  1  0.10680400  0.64409800  0.70093300  1
  C  C3  1  0.89319600  0.35590200  0.29906700  1
  C  C4  1  0.47813000  0.47813000  0.28325900  1
  C  C5  1  0.52187000  0.52187000  0.71674100  1
  C  C6  1  0.50000000  0.00000000  0.00000000  1
  C  C7  1  0.00000000  0.50000000  0.00000000  1
  C  C8  1  0.77113000  0.77113000  0.28904100  1
  C  C9  1  0.22887000  0.22887000  0.71095900  1
  C  C10  1  0.75476200  0.24523800  0.00000000  1
  C  C11  1  0.24523800  0.75476200  0.00000000  1
  Ni  Ni12  1  0.50787600  0.01030800  0.25768200  1
  Ni  Ni13  1  0.49212400  0.98969200  0.74231800  1
  Ni  Ni14  1  0.98969200  0.49212400  0.74231800  1
  Ni  Ni15  1  0.01030800  0.50787600  0.25768200  1
  Ni  Ni16  1  0.74389000  0.23716500  0.25671300  1
  Ni  Ni17  1  0.25611000  0.76283500  0.74328700  1
  Ni  Ni18  1  0.76283500  0.25611000  0.74328700  1
  Ni  Ni19  1  0.23716500  0.74389000  0.25671300  1
  Cu  Cu20  1  0.12497200  0.12497200  0.02230400  1
  Cu  Cu21  1  0.87502800  0.87502800  0.97769600  1
  Cu  Cu22  1  0.62517200  0.62517200  0.00637700  1
  Cu  Cu23  1  0.37482800  0.37482800  0.99362300  1
  C  C24  1  0.61629100  0.61629100  0.47209600  1
  C  C25  1  0.38370900  0.38370900  0.52790400  1
  C  C26  1  0.87181500  0.87181500  0.51899100  1
  C  C27  1  0.12818500  0.12818500  0.48100900  1
