# generated using pymatgen
data_Cu3NiC34
_symmetry_space_group_name_H-M   'P 1'
_cell_length_a   8.24254400
_cell_length_b   8.49786564
_cell_length_c   8.49786564
_cell_angle_alpha   119.99256976
_cell_angle_beta   90.00000000
_cell_angle_gamma   90.00000000
_symmetry_Int_Tables_number   1
_chemical_formula_structural   Cu3NiC34
_chemical_formula_sum   'Cu3 Ni1 C34'
_cell_volume   515.51836067
_cell_formula_units_Z   1
loop_
 _symmetry_equiv_pos_site_id
 _symmetry_equiv_pos_as_xyz
  1  'x, y, z'
loop_
 _atom_site_type_symbol
 _atom_site_label
 _atom_site_symmetry_multiplicity
 _atom_site_fract_x
 _atom_site_fract_y
 _atom_site_fract_z
 _atom_site_occupancy
  Ni  Ni0  1  0.25000000  0.66663400  0.33336600  1
  Cu  Cu1  1  0.75000000  0.33326300  0.66673700  1
  Cu  Cu2  1  0.75000000  0.00004700  0.99995300  1
  Cu  Cu3  1  0.25000000  0.00001200  0.99998800  1
  C  C4  1  0.48468800  0.83496000  0.66997000  1
  C  C5  1  0.48463000  0.83499800  0.16500200  1
  C  C6  1  0.48468800  0.33003000  0.16504000  1
  C  C7  1  0.51725100  0.16596300  0.33184400  1
  C  C8  1  0.51725900  0.16590800  0.83409200  1
  C  C9  1  0.51725100  0.66815600  0.83403700  1
  C  C10  1  0.98274900  0.16596300  0.33184400  1
  C  C11  1  0.98274100  0.16590800  0.83409200  1
  C  C12  1  0.98274900  0.66815600  0.83403700  1
  C  C13  1  0.01531200  0.83496000  0.66997000  1
  C  C14  1  0.01537000  0.83499800  0.16500200  1
  C  C15  1  0.01531200  0.33003000  0.16504000  1
  C  C16  1  0.75000000  0.67126600  0.04017800  1
  C  C17  1  0.75000000  0.36896600  0.32877400  1
  C  C18  1  0.75000000  0.95974900  0.63106700  1
  C  C19  1  0.75000000  0.36893300  0.04025100  1
  C  C20  1  0.75000000  0.95982200  0.32873400  1
  C  C21  1  0.75000000  0.67122600  0.63103400  1
  C  C22  1  0.25000000  0.32751000  0.95792100  1
  C  C23  1  0.25000000  0.63037700  0.67244700  1
  C  C24  1  0.25000000  0.04213800  0.36960400  1
  C  C25  1  0.25000000  0.63039600  0.95786200  1
  C  C26  1  0.25000000  0.04207900  0.67249000  1
  C  C27  1  0.25000000  0.32755300  0.36962300  1
  C  C28  1  0.60737500  0.66666600  0.33333400  1
  C  C29  1  0.39409200  0.33333900  0.66666100  1
  C  C30  1  0.10590800  0.33333900  0.66666100  1
  C  C31  1  0.89262500  0.66666600  0.33333400  1
  C  C32  1  0.50118500  0.49921600  0.99844000  1
  C  C33  1  0.50120400  0.49921900  0.50078100  1
  C  C34  1  0.50118500  0.00156000  0.50078400  1
  C  C35  1  0.99881500  0.49921600  0.99844000  1
  C  C36  1  0.99879600  0.49921900  0.50078100  1
  C  C37  1  0.99881500  0.00156000  0.50078400  1
