# generated using pymatgen
data_Cu2NiC6
_symmetry_space_group_name_H-M   'P 1'
_cell_length_a   7.31152900
_cell_length_b   9.98983500
_cell_length_c   14.00287400
_cell_angle_alpha   90.00000000
_cell_angle_beta   90.00000000
_cell_angle_gamma   90.00000000
_symmetry_Int_Tables_number   1
_chemical_formula_structural   Cu2NiC6
_chemical_formula_sum   'Cu16 Ni8 C48'
_cell_volume   1022.78347605
_cell_formula_units_Z   8
loop_
 _symmetry_equiv_pos_site_id
 _symmetry_equiv_pos_as_xyz
  1  'x, y, z'
loop_
 _atom_site_type_symbol
 _atom_site_label
 _atom_site_symmetry_multiplicity
 _atom_site_fract_x
 _atom_site_fract_y
 _atom_site_fract_z
 _atom_site_occupancy
  Ni  Ni0  1  0.54108200  0.99592600  0.29388200  1
  Ni  Ni1  1  0.04108200  0.50407400  0.70611800  1
  Ni  Ni2  1  0.45891800  0.49592600  0.20611800  1
  Ni  Ni3  1  0.95891800  0.00407400  0.79388200  1
  Ni  Ni4  1  0.45891800  0.00407400  0.70611800  1
  Ni  Ni5  1  0.95891800  0.49592600  0.29388200  1
  Ni  Ni6  1  0.54108200  0.50407400  0.79388200  1
  Ni  Ni7  1  0.04108200  0.99592600  0.20611800  1
  Cu  Cu8  1  0.07494100  0.29787900  0.09778000  1
  Cu  Cu9  1  0.57494100  0.20212100  0.90222000  1
  Cu  Cu10  1  0.92505900  0.79787900  0.40222000  1
  Cu  Cu11  1  0.42505900  0.70212100  0.59778000  1
  Cu  Cu12  1  0.92505900  0.70212100  0.90222000  1
  Cu  Cu13  1  0.42505900  0.79787900  0.09778000  1
  Cu  Cu14  1  0.07494100  0.20212100  0.59778000  1
  Cu  Cu15  1  0.57494100  0.29787900  0.40222000  1
  Cu  Cu16  1  0.68098900  0.21463600  0.10326300  1
  Cu  Cu17  1  0.18098900  0.28536400  0.89673700  1
  Cu  Cu18  1  0.31901100  0.71463600  0.39673700  1
  Cu  Cu19  1  0.81901100  0.78536400  0.60326300  1
  Cu  Cu20  1  0.31901100  0.78536400  0.89673700  1
  Cu  Cu21  1  0.81901100  0.71463600  0.10326300  1
  Cu  Cu22  1  0.68098900  0.28536400  0.60326300  1
  Cu  Cu23  1  0.18098900  0.21463600  0.39673700  1
  C  C24  1  0.65138600  0.14158200  0.00090800  1
  C  C25  1  0.15138600  0.35841800  0.99909200  1
  C  C26  1  0.34861400  0.64158200  0.49909200  1
  C  C27  1  0.84861400  0.85841800  0.50090800  1
  C  C28  1  0.34861400  0.85841800  0.99909200  1
  C  C29  1  0.84861400  0.64158200  0.00090800  1
  C  C30  1  0.65138600  0.35841800  0.50090800  1
  C  C31  1  0.15138600  0.14158200  0.49909200  1
  C  C32  1  0.85603800  0.31040600  0.08594600  1
  C  C33  1  0.35603800  0.18959400  0.91405400  1
  C  C34  1  0.14396200  0.81040600  0.41405400  1
  C  C35  1  0.64396200  0.68959400  0.58594600  1
  C  C36  1  0.14396200  0.68959400  0.91405400  1
  C  C37  1  0.64396200  0.81040600  0.08594600  1
  C  C38  1  0.85603800  0.18959400  0.58594600  1
  C  C39  1  0.35603800  0.31040600  0.41405400  1
  C  C40  1  0.13380800  0.15394700  0.10502500  1
  C  C41  1  0.13060500  0.39738600  0.17427300  1
  C  C42  1  0.63380800  0.34605300  0.89497500  1
  C  C43  1  0.36619200  0.84605300  0.60502500  1
  C  C44  1  0.86619200  0.84605300  0.89497500  1
  C  C45  1  0.36619200  0.65394700  0.10502500  1
  C  C46  1  0.13380800  0.34605300  0.60502500  1
  C  C47  1  0.63380800  0.15394700  0.39497500  1
  C  C48  1  0.01901500  0.30213200  0.37751600  1
  C  C49  1  0.51901500  0.19786800  0.62248400  1
  C  C50  1  0.98098500  0.80213200  0.12248400  1
  C  C51  1  0.48098500  0.69786800  0.87751600  1
  C  C52  1  0.98098500  0.69786800  0.62248400  1
  C  C53  1  0.48098500  0.80213200  0.37751600  1
  C  C54  1  0.01901500  0.19786800  0.87751600  1
  C  C55  1  0.51901500  0.30213200  0.12248400  1
  C  C56  1  0.23086700  0.10524100  0.32680400  1
  C  C57  1  0.73086800  0.39475900  0.67319600  1
  C  C58  1  0.76913200  0.60524100  0.17319600  1
  C  C59  1  0.26913200  0.89475900  0.82680400  1
  C  C60  1  0.76913200  0.89475900  0.67319600  1
  C  C61  1  0.26913200  0.60524100  0.32680400  1
  C  C62  1  0.23086700  0.39475900  0.82680400  1
  C  C63  1  0.73086800  0.10524100  0.17319600  1
  C  C64  1  0.63060500  0.39738600  0.32572700  1
  C  C65  1  0.13060500  0.10261400  0.67427300  1
  C  C66  1  0.36939500  0.89738600  0.17427300  1
  C  C67  1  0.86939500  0.60261400  0.82572700  1
  C  C68  1  0.36939500  0.60261400  0.67427300  1
  C  C69  1  0.86939500  0.89738600  0.32572700  1
  C  C70  1  0.63060500  0.10261400  0.82572700  1
  C  C71  1  0.86619200  0.65394700  0.39497500  1
