# generated using pymatgen
data_Cu14Ni2C3
_symmetry_space_group_name_H-M   'P 1'
_cell_length_a   13.10050700
_cell_length_b   6.60730300
_cell_length_c   9.36914528
_cell_angle_alpha   74.76976058
_cell_angle_beta   90.00000000
_cell_angle_gamma   90.00000000
_symmetry_Int_Tables_number   1
_chemical_formula_structural   Cu14Ni2C3
_chemical_formula_sum   'Cu28 Ni4 C6'
_cell_volume   782.50063143
_cell_formula_units_Z   2
loop_
 _symmetry_equiv_pos_site_id
 _symmetry_equiv_pos_as_xyz
  1  'x, y, z'
loop_
 _atom_site_type_symbol
 _atom_site_label
 _atom_site_symmetry_multiplicity
 _atom_site_fract_x
 _atom_site_fract_y
 _atom_site_fract_z
 _atom_site_occupancy
  C  C0  1  0.65498700  0.84522600  0.85984500  1
  C  C1  1  0.34501300  0.15477400  0.14015500  1
  C  C2  1  0.15498700  0.15477400  0.64015500  1
  C  C3  1  0.84501300  0.84522600  0.35984500  1
  C  C4  1  0.50000000  0.50000000  0.50000000  1
  C  C5  1  0.00000000  0.50000000  0.00000000  1
  Ni  Ni6  1  0.35649800  0.75783300  0.90508100  1
  Ni  Ni7  1  0.64350200  0.24216700  0.09491900  1
  Ni  Ni8  1  0.85649800  0.24216700  0.59491900  1
  Ni  Ni9  1  0.14350200  0.75783300  0.40508100  1
  Cu  Cu10  1  0.32068700  0.56286700  0.86669500  1
  Cu  Cu11  1  0.67931300  0.43713300  0.13330500  1
  Cu  Cu12  1  0.82068700  0.43713300  0.63330500  1
  Cu  Cu13  1  0.17931300  0.56286700  0.36669500  1
  Cu  Cu14  1  0.08008900  0.71056100  0.53892100  1
  Cu  Cu15  1  0.91991100  0.28943900  0.46107900  1
  Cu  Cu16  1  0.58008900  0.28943900  0.96107900  1
  Cu  Cu17  1  0.41991100  0.71056100  0.03892100  1
  Cu  Cu18  1  0.41222000  0.34130200  0.62507000  1
  Cu  Cu19  1  0.58778000  0.65869800  0.37493000  1
  Cu  Cu20  1  0.91222000  0.65869800  0.87493000  1
  Cu  Cu21  1  0.08778000  0.34130200  0.12507000  1
  Cu  Cu22  1  0.41981100  0.85653000  0.76982600  1
  Cu  Cu23  1  0.58018900  0.14347000  0.23017400  1
  Cu  Cu24  1  0.91981100  0.14347000  0.73017400  1
  Cu  Cu25  1  0.08018900  0.85653000  0.26982600  1
  Cu  Cu26  1  0.09056200  0.43296700  0.87889700  1
  Cu  Cu27  1  0.90943800  0.56703300  0.12110300  1
  Cu  Cu28  1  0.59056200  0.56703300  0.62110300  1
  Cu  Cu29  1  0.40943800  0.43296700  0.37889700  1
  Cu  Cu30  1  0.46185400  0.75803600  0.50138900  1
  Cu  Cu31  1  0.53814600  0.24196400  0.49861100  1
  Cu  Cu32  1  0.96185400  0.24196400  0.99861100  1
  Cu  Cu33  1  0.03814600  0.75803600  0.00138900  1
  Cu  Cu34  1  0.26983700  0.89635700  0.91443200  1
  Cu  Cu35  1  0.73016300  0.10364300  0.08556800  1
  Cu  Cu36  1  0.76983700  0.10364300  0.58556800  1
  Cu  Cu37  1  0.23016300  0.89635700  0.41443200  1
