# generated using pymatgen
data_Cu2NiC10
_symmetry_space_group_name_H-M   'P 1'
_cell_length_a   4.43027400
_cell_length_b   9.35751700
_cell_length_c   13.54343200
_cell_angle_alpha   90.00000000
_cell_angle_beta   90.00000000
_cell_angle_gamma   90.00000000
_symmetry_Int_Tables_number   1
_chemical_formula_structural   Cu2NiC10
_chemical_formula_sum   'Cu8 Ni4 C40'
_cell_volume   561.46145045
_cell_formula_units_Z   4
loop_
 _symmetry_equiv_pos_site_id
 _symmetry_equiv_pos_as_xyz
  1  'x, y, z'
loop_
 _atom_site_type_symbol
 _atom_site_label
 _atom_site_symmetry_multiplicity
 _atom_site_fract_x
 _atom_site_fract_y
 _atom_site_fract_z
 _atom_site_occupancy
  C  C0  1  0.45920100  0.52589200  0.64005500  1
  C  C1  1  0.04079900  0.02589200  0.85994500  1
  C  C2  1  0.04079900  0.47410800  0.14005500  1
  C  C3  1  0.45920100  0.97410800  0.35994500  1
  C  C4  1  0.54079900  0.47410800  0.35994500  1
  C  C5  1  0.95920100  0.97410800  0.14005500  1
  C  C6  1  0.95920100  0.52589200  0.85994500  1
  C  C7  1  0.54079900  0.02589200  0.64005500  1
  Ni  Ni8  1  0.92382600  0.75000000  0.50000000  1
  Ni  Ni9  1  0.57617400  0.25000000  0.00000000  1
  Ni  Ni10  1  0.07617400  0.25000000  0.50000000  1
  Ni  Ni11  1  0.42382600  0.75000000  0.00000000  1
  Cu  Cu12  1  0.53021100  0.70312600  0.20050600  1
  Cu  Cu13  1  0.96978900  0.20312600  0.29949400  1
  Cu  Cu14  1  0.96978900  0.29687400  0.70050600  1
  Cu  Cu15  1  0.53021100  0.79687400  0.79949400  1
  Cu  Cu16  1  0.46978900  0.29687400  0.79949400  1
  Cu  Cu17  1  0.03021100  0.79687400  0.70050600  1
  Cu  Cu18  1  0.03021100  0.70312600  0.29949400  1
  Cu  Cu19  1  0.46978900  0.20312600  0.20050600  1
  C  C20  1  0.53744500  0.54856800  0.19255400  1
  C  C21  1  0.96255500  0.04856800  0.30744600  1
  C  C22  1  0.96255500  0.45143200  0.69255400  1
  C  C23  1  0.53744500  0.95143200  0.80744600  1
  C  C24  1  0.46255500  0.45143200  0.80744600  1
  C  C25  1  0.03744500  0.95143200  0.69255400  1
  C  C26  1  0.03744500  0.54856800  0.30744600  1
  C  C27  1  0.46255500  0.04856800  0.19255400  1
  C  C28  1  0.65993200  0.76822700  0.10727900  1
  C  C29  1  0.84006800  0.26822700  0.39272100  1
  C  C30  1  0.84006800  0.23177300  0.60727900  1
  C  C31  1  0.65993200  0.73177300  0.89272100  1
  C  C32  1  0.34006800  0.23177300  0.89272100  1
  C  C33  1  0.15993200  0.73177300  0.60727900  1
  C  C34  1  0.15993200  0.76822700  0.39272100  1
  C  C35  1  0.34006800  0.26822700  0.10727900  1
  C  C36  1  0.21575000  0.75887500  0.21497100  1
  C  C37  1  0.28425000  0.25887500  0.28502900  1
  C  C38  1  0.28425000  0.24112500  0.71497100  1
  C  C39  1  0.21575000  0.74112500  0.78502900  1
  C  C40  1  0.78425000  0.24112500  0.78502900  1
  C  C41  1  0.71575000  0.74112500  0.71497100  1
  C  C42  1  0.71575000  0.75887500  0.28502900  1
  C  C43  1  0.78425000  0.25887500  0.21497100  1
  C  C44  1  0.70128500  0.59655300  0.49532800  1
  C  C45  1  0.79871500  0.09655300  0.00467200  1
  C  C46  1  0.79871500  0.40344700  0.99532800  1
  C  C47  1  0.70128500  0.90344700  0.50467200  1
  C  C48  1  0.29871500  0.40344700  0.50467200  1
  C  C49  1  0.20128500  0.90344700  0.99532800  1
  C  C50  1  0.20128500  0.59655300  0.00467200  1
  C  C51  1  0.29871500  0.09655300  0.49532800  1
