# generated using pymatgen
data_CuNi13C10
_symmetry_space_group_name_H-M   'P 1'
_cell_length_a   7.63467500
_cell_length_b   15.50782500
_cell_length_c   11.61534670
_cell_angle_alpha   90.00000000
_cell_angle_beta   116.90412634
_cell_angle_gamma   90.00000000
_symmetry_Int_Tables_number   1
_chemical_formula_structural   CuNi13C10
_chemical_formula_sum   'Cu4 Ni52 C40'
_cell_volume   1226.37706245
_cell_formula_units_Z   4
loop_
 _symmetry_equiv_pos_site_id
 _symmetry_equiv_pos_as_xyz
  1  'x, y, z'
loop_
 _atom_site_type_symbol
 _atom_site_label
 _atom_site_symmetry_multiplicity
 _atom_site_fract_x
 _atom_site_fract_y
 _atom_site_fract_z
 _atom_site_occupancy
  C  C0  1  0.75904300  0.81243400  0.53384200  1
  C  C1  1  0.75904300  0.68756600  0.03384200  1
  C  C2  1  0.24095700  0.18756600  0.46615800  1
  C  C3  1  0.24095700  0.31243400  0.96615800  1
  C  C4  1  0.77209000  0.91801600  0.59634600  1
  C  C5  1  0.77209000  0.58198400  0.09634600  1
  C  C6  1  0.22791000  0.08198400  0.40365400  1
  C  C7  1  0.22791000  0.41801600  0.90365400  1
  C  C8  1  0.98607500  0.86835900  0.60317600  1
  C  C9  1  0.98607500  0.63164100  0.10317600  1
  C  C10  1  0.01392500  0.13164100  0.39682400  1
  C  C11  1  0.01392500  0.36835900  0.89682400  1
  C  C12  1  0.98267300  0.75399300  0.60618000  1
  C  C13  1  0.98267300  0.74600700  0.10618000  1
  C  C14  1  0.01732700  0.24600700  0.39382000  1
  C  C15  1  0.01732700  0.25399300  0.89382000  1
  C  C16  1  0.63839900  0.83331800  0.62788200  1
  C  C17  1  0.63839900  0.66668200  0.12788200  1
  C  C18  1  0.36160100  0.16668200  0.37211800  1
  C  C19  1  0.36160100  0.33331800  0.87211800  1
  C  C20  1  0.77326900  0.91385200  0.74494900  1
  C  C21  1  0.77326900  0.58614800  0.24494900  1
  C  C22  1  0.22673100  0.08614800  0.25505100  1
  C  C23  1  0.22673100  0.41385200  0.75505100  1
  C  C24  1  0.00336700  0.92272900  0.73983200  1
  C  C25  1  0.00336700  0.57727100  0.23983200  1
  C  C26  1  0.99663300  0.07727100  0.26016800  1
  C  C27  1  0.99663300  0.42272900  0.76016800  1
  C  C28  1  0.14079700  0.81449000  0.74590400  1
  C  C29  1  0.14079700  0.68551000  0.24590400  1
  C  C30  1  0.85920300  0.18551000  0.25409600  1
  C  C31  1  0.85920300  0.31449000  0.75409600  1
  C  C32  1  0.02682200  0.71615100  0.75610000  1
  C  C33  1  0.02682200  0.78384900  0.25610000  1
  C  C34  1  0.97317800  0.28384900  0.24390000  1
  C  C35  1  0.97317800  0.21615100  0.74390000  1
  C  C36  1  0.77819700  0.72501800  0.63420400  1
  C  C37  1  0.77819700  0.77498200  0.13420400  1
  C  C38  1  0.22180300  0.27498200  0.36579600  1
  C  C39  1  0.22180300  0.22501800  0.86579600  1
  Ni  Ni40  1  0.65159200  0.80159100  0.42200800  1
  Ni  Ni41  1  0.65159200  0.69840900  0.92200800  1
  Ni  Ni42  1  0.34840800  0.19840900  0.57799200  1
  Ni  Ni43  1  0.34840800  0.30159100  0.07799200  1
  Ni  Ni44  1  0.69723200  0.97742500  0.52611000  1
  Ni  Ni45  1  0.69723200  0.52257500  0.02611000  1
  Ni  Ni46  1  0.30276800  0.02257500  0.47389000  1
  Ni  Ni47  1  0.30276800  0.47742500  0.97389000  1
  Ni  Ni48  1  0.06693900  0.90355700  0.54920100  1
  Ni  Ni49  1  0.06693900  0.59644300  0.04920100  1
  Ni  Ni50  1  0.93306100  0.09644300  0.45079900  1
  Ni  Ni51  1  0.93306100  0.40355700  0.95079900  1
  Ni  Ni52  1  0.03800900  0.71403900  0.54119000  1
  Ni  Ni53  1  0.03800900  0.78596100  0.04119000  1
  Ni  Ni54  1  0.96199100  0.28596100  0.45881000  1
  Ni  Ni55  1  0.96199100  0.21403900  0.95881000  1
  Ni  Ni56  1  0.46488000  0.83039500  0.58830700  1
  Ni  Ni57  1  0.46488000  0.66960500  0.08830700  1
  Ni  Ni58  1  0.53512000  0.16960500  0.41169300  1
  Ni  Ni59  1  0.53512000  0.33039500  0.91169300  1
  Ni  Ni60  1  0.10106800  0.98551200  0.78278200  1
  Ni  Ni61  1  0.10106800  0.51448800  0.28278200  1
  Ni  Ni62  1  0.89893200  0.01448800  0.21721800  1
  Ni  Ni63  1  0.89893200  0.48551200  0.71721800  1
  Ni  Ni64  1  0.31482800  0.81787600  0.79124500  1
  Ni  Ni65  1  0.31482800  0.68212400  0.29124500  1
  Ni  Ni66  1  0.68517200  0.18212400  0.20875500  1
  Ni  Ni67  1  0.68517200  0.31787600  0.70875500  1
  Ni  Ni68  1  0.68003600  0.66184800  0.59499100  1
  Ni  Ni69  1  0.68003600  0.83815200  0.09499100  1
  Ni  Ni70  1  0.31996400  0.33815200  0.40500900  1
  Ni  Ni71  1  0.31996400  0.16184800  0.90500900  1
  Ni  Ni72  1  0.10845600  0.65261600  0.81213500  1
  Ni  Ni73  1  0.10845600  0.84738400  0.31213500  1
  Ni  Ni74  1  0.89154400  0.34738400  0.18786500  1
  Ni  Ni75  1  0.89154400  0.15261600  0.68786500  1
  Ni  Ni76  1  0.70912200  0.83399500  0.75499300  1
  Ni  Ni77  1  0.70912200  0.66600500  0.25499300  1
  Ni  Ni78  1  0.29087800  0.16600500  0.24500700  1
  Ni  Ni79  1  0.29087800  0.33399500  0.74500700  1
  Ni  Ni80  1  0.95974900  0.89605500  0.83229700  1
  Ni  Ni81  1  0.95974900  0.60394500  0.33229700  1
  Ni  Ni82  1  0.04025100  0.10394500  0.16770300  1
  Ni  Ni83  1  0.04025100  0.39605500  0.66770300  1
  Ni  Ni84  1  0.10629600  0.78180000  0.83924900  1
  Ni  Ni85  1  0.10629600  0.71820000  0.33924900  1
  Ni  Ni86  1  0.89370400  0.21820000  0.16075100  1
  Ni  Ni87  1  0.89370400  0.28180000  0.66075100  1
  Ni  Ni88  1  0.85446300  0.71971300  0.76159800  1
  Ni  Ni89  1  0.85446300  0.78028700  0.26159800  1
  Ni  Ni90  1  0.14553700  0.28028700  0.23840200  1
  Ni  Ni91  1  0.14553700  0.21971300  0.73840200  1
  Cu  Cu92  1  0.65499500  0.00279400  0.83388300  1
  Cu  Cu93  1  0.65499500  0.49720600  0.33388300  1
  Cu  Cu94  1  0.34500500  0.99720600  0.16611700  1
  Cu  Cu95  1  0.34500500  0.50279400  0.66611700  1
