# generated using pymatgen
data_Cu2Ni3C19
_symmetry_space_group_name_H-M   'P 1'
_cell_length_a   5.22974000
_cell_length_b   10.66955400
_cell_length_c   18.65118200
_cell_angle_alpha   90.00000000
_cell_angle_beta   90.00000000
_cell_angle_gamma   90.00000000
_symmetry_Int_Tables_number   1
_chemical_formula_structural   Cu2Ni3C19
_chemical_formula_sum   'Cu8 Ni12 C76'
_cell_volume   1040.71718013
_cell_formula_units_Z   4
loop_
 _symmetry_equiv_pos_site_id
 _symmetry_equiv_pos_as_xyz
  1  'x, y, z'
loop_
 _atom_site_type_symbol
 _atom_site_label
 _atom_site_symmetry_multiplicity
 _atom_site_fract_x
 _atom_site_fract_y
 _atom_site_fract_z
 _atom_site_occupancy
  Ni  Ni0  1  0.04478800  0.85485700  0.99874200  1
  Ni  Ni1  1  0.95521200  0.35485700  0.50125800  1
  Ni  Ni2  1  0.45521200  0.14514300  0.49874200  1
  Ni  Ni3  1  0.54478800  0.64514300  0.00125800  1
  Ni  Ni4  1  0.46243100  0.14438200  0.00025800  1
  Ni  Ni5  1  0.53756900  0.64438200  0.49974200  1
  Ni  Ni6  1  0.03756900  0.85561800  0.50025800  1
  Ni  Ni7  1  0.96243100  0.35561800  0.99974200  1
  Ni  Ni8  1  0.82974100  0.23255900  0.75087800  1
  Ni  Ni9  1  0.17025900  0.73255900  0.74912200  1
  Ni  Ni10  1  0.67025900  0.76744100  0.25087800  1
  Ni  Ni11  1  0.32974100  0.26744100  0.24912200  1
  Cu  Cu12  1  0.98127200  0.10373600  0.90571300  1
  Cu  Cu13  1  0.01872800  0.60373600  0.59428700  1
  Cu  Cu14  1  0.51872800  0.89626400  0.40571300  1
  Cu  Cu15  1  0.48127200  0.39626400  0.09428700  1
  Cu  Cu16  1  0.52837500  0.89727600  0.09398600  1
  Cu  Cu17  1  0.47162500  0.39727600  0.40601400  1
  Cu  Cu18  1  0.97162500  0.10272400  0.59398600  1
  Cu  Cu19  1  0.02837500  0.60272400  0.90601400  1
  C  C20  1  0.53144700  0.02646500  0.75254300  1
  C  C21  1  0.46855300  0.52646500  0.74745700  1
  C  C22  1  0.96855300  0.97353500  0.25254300  1
  C  C23  1  0.03144700  0.47353500  0.24745700  1
  C  C24  1  0.26258000  0.36199600  0.74971600  1
  C  C25  1  0.73742000  0.86199600  0.75028400  1
  C  C26  1  0.23742000  0.63800400  0.24971600  1
  C  C27  1  0.76258000  0.13800400  0.25028400  1
  C  C28  1  0.04734200  0.47047700  0.74988000  1
  C  C29  1  0.95265800  0.97047700  0.75012000  1
  C  C30  1  0.45265800  0.52952300  0.24988000  1
  C  C31  1  0.54734200  0.02952300  0.25012000  1
  C  C32  1  0.70826100  0.39640700  0.64315900  1
  C  C33  1  0.29173900  0.89640700  0.85684100  1
  C  C34  1  0.79173900  0.60359300  0.14315900  1
  C  C35  1  0.20826100  0.10359300  0.35684100  1
  C  C36  1  0.79309400  0.60253800  0.35673600  1
  C  C37  1  0.20690600  0.10253800  0.14326400  1
  C  C38  1  0.70690600  0.39746200  0.85673600  1
  C  C39  1  0.29309400  0.89746200  0.64326400  1
  C  C40  1  0.56247800  0.26729100  0.63865900  1
  C  C41  1  0.43752200  0.76729100  0.86134100  1
  C  C42  1  0.93752200  0.73270900  0.13865900  1
  C  C43  1  0.06247800  0.23270900  0.36134100  1
  C  C44  1  0.93354600  0.73297000  0.36179800  1
  C  C45  1  0.06645400  0.23297000  0.13820200  1
  C  C46  1  0.56645400  0.26703000  0.86179800  1
  C  C47  1  0.43354600  0.76703000  0.63820200  1
  C  C48  1  0.09782700  0.97254900  0.92152400  1
  C  C49  1  0.90217300  0.47254900  0.57847600  1
  C  C50  1  0.40217300  0.02745100  0.42152400  1
  C  C51  1  0.59782700  0.52745100  0.07847600  1
  C  C52  1  0.40842000  0.02772500  0.07840200  1
  C  C53  1  0.59158000  0.52772500  0.42159800  1
  C  C54  1  0.09158000  0.97227500  0.57840200  1
  C  C55  1  0.90842000  0.47227500  0.92159800  1
  C  C56  1  0.88149400  0.69830600  0.95755400  1
  C  C57  1  0.11850600  0.19830600  0.54244600  1
  C  C58  1  0.61850600  0.30169400  0.45755400  1
  C  C59  1  0.38149400  0.80169400  0.04244600  1
  C  C60  1  0.62239100  0.30220500  0.04068600  1
  C  C61  1  0.37760900  0.80220500  0.45931400  1
  C  C62  1  0.87760900  0.69779500  0.54068600  1
  C  C63  1  0.12239100  0.19779500  0.95931400  1
  C  C64  1  0.81603800  0.88913700  0.07708500  1
  C  C65  1  0.18396200  0.38913700  0.42291500  1
  C  C66  1  0.68396200  0.11086300  0.57708500  1
  C  C67  1  0.31603800  0.61086300  0.92291500  1
  C  C68  1  0.69103700  0.11235600  0.92063500  1
  C  C69  1  0.30896300  0.61235600  0.57936500  1
  C  C70  1  0.80896300  0.88764400  0.42063500  1
  C  C71  1  0.19103700  0.38764400  0.07936500  1
  C  C72  1  0.03633900  0.13619700  0.82736000  1
  C  C73  1  0.96366100  0.63619700  0.67264000  1
  C  C74  1  0.46366100  0.86380300  0.32736000  1
  C  C75  1  0.53633900  0.36380300  0.17264000  1
  C  C76  1  0.48279300  0.86577700  0.17305800  1
  C  C77  1  0.51720700  0.36577700  0.32694200  1
  C  C78  1  0.01720700  0.13422300  0.67305800  1
  C  C79  1  0.98279300  0.63422300  0.82694200  1
  C  C80  1  0.52749000  0.11746200  0.74761300  1
  C  C81  1  0.47251000  0.61746200  0.75238700  1
  C  C82  1  0.97251000  0.88253800  0.24761300  1
  C  C83  1  0.02749000  0.38253800  0.25238700  1
  C  C84  1  0.08011000  0.37994700  0.74998400  1
  C  C85  1  0.91989000  0.87994700  0.75001600  1
  C  C86  1  0.41989000  0.62005300  0.24998400  1
  C  C87  1  0.58011000  0.12005300  0.25001600  1
  C  C88  1  0.60169500  0.33686000  0.67140200  1
  C  C89  1  0.39830500  0.83686000  0.82859800  1
  C  C90  1  0.89830500  0.66314000  0.17140200  1
  C  C91  1  0.10169500  0.16314000  0.32859800  1
  C  C92  1  0.89628700  0.66365000  0.32871300  1
  C  C93  1  0.10371300  0.16365000  0.17128700  1
  C  C94  1  0.60371300  0.33635000  0.82871300  1
  C  C95  1  0.39628700  0.83635000  0.67128700  1
