# generated using pymatgen
data_Cu5(NiC29)2
_symmetry_space_group_name_H-M   'P 1'
_cell_length_a   3.85035400
_cell_length_b   3.94434200
_cell_length_c   58.66747400
_cell_angle_alpha   90.00000000
_cell_angle_beta   90.00000000
_cell_angle_gamma   90.00000000
_symmetry_Int_Tables_number   1
_chemical_formula_structural   Cu5(NiC29)2
_chemical_formula_sum   'Cu5 Ni2 C58'
_cell_volume   890.98955689
_cell_formula_units_Z   1
loop_
 _symmetry_equiv_pos_site_id
 _symmetry_equiv_pos_as_xyz
  1  'x, y, z'
loop_
 _atom_site_type_symbol
 _atom_site_label
 _atom_site_symmetry_multiplicity
 _atom_site_fract_x
 _atom_site_fract_y
 _atom_site_fract_z
 _atom_site_occupancy
  C  C0  1  0.50000000  0.50000000  0.03570700  1
  C  C1  1  0.50000000  0.50000000  0.23583900  1
  C  C2  1  0.50000000  0.50000000  0.43590500  1
  C  C3  1  0.50000000  0.50000000  0.63598300  1
  C  C4  1  0.50000000  0.50000000  0.83560500  1
  C  C5  1  0.50000000  0.50000000  0.16399700  1
  C  C6  1  0.50000000  0.50000000  0.36407000  1
  C  C7  1  0.50000000  0.50000000  0.56409800  1
  Ni  Ni8  1  0.50000000  0.50000000  0.76397600  1
  Ni  Ni9  1  0.50000000  0.50000000  0.96399200  1
  Cu  Cu10  1  0.50000000  0.50000000  0.09997500  1
  Cu  Cu11  1  0.50000000  0.50000000  0.30002000  1
  Cu  Cu12  1  0.50000000  0.50000000  0.50001000  1
  Cu  Cu13  1  0.50000000  0.50000000  0.70050000  1
  Cu  Cu14  1  0.50000000  0.50000000  0.90052500  1
  C  C15  1  0.00000000  0.00000000  0.06961900  1
  C  C16  1  0.00000000  0.00000000  0.26960600  1
  C  C17  1  0.00000000  0.00000000  0.46961800  1
  C  C18  1  0.00000000  0.00000000  0.66979600  1
  C  C19  1  0.00000000  0.00000000  0.86977000  1
  C  C20  1  0.00000000  0.00000000  0.13036100  1
  C  C21  1  0.00000000  0.00000000  0.33038500  1
  C  C22  1  0.00000000  0.00000000  0.53039800  1
  C  C23  1  0.00000000  0.00000000  0.73110700  1
  C  C24  1  0.00000000  0.00000000  0.93109800  1
  C  C25  1  0.00000000  0.00000000  0.99945500  1
  C  C26  1  0.00000000  0.00000000  0.20001700  1
  C  C27  1  0.00000000  0.00000000  0.40001100  1
  C  C28  1  0.00000000  0.00000000  0.60000000  1
  C  C29  1  0.00000000  0.00000000  0.79946700  1
  C  C30  1  0.00000000  0.00000000  0.03135900  1
  C  C31  1  0.00000000  0.00000000  0.23186200  1
  C  C32  1  0.00000000  0.00000000  0.43184500  1
  C  C33  1  0.00000000  0.00000000  0.63188800  1
  C  C34  1  0.00000000  0.00000000  0.83144200  1
  C  C35  1  0.00000000  0.00000000  0.16816900  1
  C  C36  1  0.00000000  0.00000000  0.36816300  1
  C  C37  1  0.00000000  0.00000000  0.56815500  1
  C  C38  1  0.00000000  0.00000000  0.76758500  1
  C  C39  1  0.00000000  0.00000000  0.96758700  1
  C  C40  1  0.00000000  0.50000000  0.99820500  1
  C  C41  1  0.00000000  0.50000000  0.19997100  1
  C  C42  1  0.00000000  0.50000000  0.39999500  1
  C  C43  1  0.00000000  0.50000000  0.60003100  1
  C  C44  1  0.00000000  0.50000000  0.79821700  1
  C  C45  1  0.00000000  0.50000000  0.07450200  1
  C  C46  1  0.00000000  0.50000000  0.27457900  1
  C  C47  1  0.00000000  0.50000000  0.47455900  1
  C  C48  1  0.00000000  0.50000000  0.67504500  1
  C  C49  1  0.00000000  0.50000000  0.87493300  1
  C  C50  1  0.00000000  0.50000000  0.12538900  1
  C  C51  1  0.00000000  0.50000000  0.32544500  1
  C  C52  1  0.00000000  0.50000000  0.52542500  1
  C  C53  1  0.00000000  0.50000000  0.72656000  1
  C  C54  1  0.00000000  0.50000000  0.92653400  1
  C  C55  1  0.50000000  0.00000000  0.07499800  1
  C  C56  1  0.50000000  0.00000000  0.27505200  1
  C  C57  1  0.50000000  0.00000000  0.47503300  1
  C  C58  1  0.50000000  0.00000000  0.67533000  1
  C  C59  1  0.50000000  0.00000000  0.87528900  1
  C  C60  1  0.50000000  0.00000000  0.12493500  1
  C  C61  1  0.50000000  0.00000000  0.32496600  1
  C  C62  1  0.50000000  0.00000000  0.52496200  1
  C  C63  1  0.50000000  0.00000000  0.72554900  1
  C  C64  1  0.50000000  0.00000000  0.92553400  1
