# generated using pymatgen
data_Cu2NiC4
_symmetry_space_group_name_H-M   'P 1'
_cell_length_a   8.37655400
_cell_length_b   8.37655400
_cell_length_c   6.29465700
_cell_angle_alpha   90.00000000
_cell_angle_beta   90.00000000
_cell_angle_gamma   90.00000000
_symmetry_Int_Tables_number   1
_chemical_formula_structural   Cu2NiC4
_chemical_formula_sum   'Cu8 Ni4 C16'
_cell_volume   441.67503812
_cell_formula_units_Z   4
loop_
 _symmetry_equiv_pos_site_id
 _symmetry_equiv_pos_as_xyz
  1  'x, y, z'
loop_
 _atom_site_type_symbol
 _atom_site_label
 _atom_site_symmetry_multiplicity
 _atom_site_fract_x
 _atom_site_fract_y
 _atom_site_fract_z
 _atom_site_occupancy
  Ni  Ni0  1  0.00000000  0.50000000  0.06911700  1
  Ni  Ni1  1  0.50000000  0.00000000  0.43088300  1
  Ni  Ni2  1  0.50000000  0.00000000  0.93088300  1
  Ni  Ni3  1  0.00000000  0.50000000  0.56911700  1
  Cu  Cu4  1  0.66668200  0.66668200  0.25000000  1
  Cu  Cu5  1  0.16668200  0.83331800  0.25000000  1
  Cu  Cu6  1  0.83331800  0.16668200  0.25000000  1
  Cu  Cu7  1  0.33331800  0.33331800  0.25000000  1
  Cu  Cu8  1  0.83331800  0.83331800  0.75000000  1
  Cu  Cu9  1  0.33331800  0.66668200  0.75000000  1
  Cu  Cu10  1  0.66668200  0.33331800  0.75000000  1
  Cu  Cu11  1  0.16668200  0.16668200  0.75000000  1
  C  C12  1  0.59881000  0.80073900  0.91584100  1
  C  C13  1  0.30073900  0.90119000  0.91584100  1
  C  C14  1  0.69926100  0.09881000  0.91584100  1
  C  C15  1  0.40119000  0.19926100  0.91584100  1
  C  C16  1  0.90119000  0.30073900  0.58415900  1
  C  C17  1  0.09881000  0.69926100  0.58415900  1
  C  C18  1  0.80073900  0.59881000  0.58415900  1
  C  C19  1  0.19926100  0.40119000  0.58415900  1
  C  C20  1  0.90119000  0.69926100  0.08415900  1
  C  C21  1  0.19926100  0.59881000  0.08415900  1
  C  C22  1  0.80073900  0.40119000  0.08415900  1
  C  C23  1  0.09881000  0.30073900  0.08415900  1
  C  C24  1  0.59881000  0.19926100  0.41584100  1
  C  C25  1  0.40119000  0.80073900  0.41584100  1
  C  C26  1  0.69926100  0.90119000  0.41584100  1
  C  C27  1  0.30073900  0.09881000  0.41584100  1
