# generated using pymatgen
data_Cu3Ni2C15
_symmetry_space_group_name_H-M   'P 1'
_cell_length_a   10.97450428
_cell_length_b   10.97450428
_cell_length_c   10.97450428
_cell_angle_alpha   109.47122063
_cell_angle_beta   109.47122063
_cell_angle_gamma   109.47122063
_symmetry_Int_Tables_number   1
_chemical_formula_structural   Cu3Ni2C15
_chemical_formula_sum   'Cu12 Ni8 C60'
_cell_volume   1017.49631682
_cell_formula_units_Z   4
loop_
 _symmetry_equiv_pos_site_id
 _symmetry_equiv_pos_as_xyz
  1  'x, y, z'
loop_
 _atom_site_type_symbol
 _atom_site_label
 _atom_site_symmetry_multiplicity
 _atom_site_fract_x
 _atom_site_fract_y
 _atom_site_fract_z
 _atom_site_occupancy
  C  C0  1  0.87500000  0.62500000  0.25000000  1
  C  C1  1  0.62500000  0.25000000  0.87500000  1
  C  C2  1  0.87500000  0.75000000  0.62500000  1
  C  C3  1  0.75000000  0.62500000  0.87500000  1
  C  C4  1  0.25000000  0.87500000  0.62500000  1
  C  C5  1  0.62500000  0.87500000  0.75000000  1
  C  C6  1  0.12500000  0.37500000  0.75000000  1
  C  C7  1  0.37500000  0.75000000  0.12500000  1
  C  C8  1  0.12500000  0.25000000  0.37500000  1
  C  C9  1  0.25000000  0.37500000  0.12500000  1
  C  C10  1  0.75000000  0.12500000  0.37500000  1
  C  C11  1  0.37500000  0.12500000  0.25000000  1
  Ni  Ni12  1  0.50000000  0.50000000  0.00000000  1
  Ni  Ni13  1  0.00000000  0.50000000  0.50000000  1
  Ni  Ni14  1  0.50000000  0.50000000  0.50000000  1
  Ni  Ni15  1  0.00000000  0.00000000  0.50000000  1
  Ni  Ni16  1  0.00000000  0.50000000  0.00000000  1
  Ni  Ni17  1  0.50000000  0.00000000  0.00000000  1
  Ni  Ni18  1  0.00000000  0.00000000  0.00000000  1
  Ni  Ni19  1  0.50000000  0.00000000  0.50000000  1
  Cu  Cu20  1  0.87500000  0.25000000  0.12500000  1
  Cu  Cu21  1  0.62500000  0.75000000  0.37500000  1
  Cu  Cu22  1  0.75000000  0.37500000  0.62500000  1
  Cu  Cu23  1  0.62500000  0.37500000  0.25000000  1
  Cu  Cu24  1  0.37500000  0.62500000  0.75000000  1
  Cu  Cu25  1  0.12500000  0.75000000  0.87500000  1
  Cu  Cu26  1  0.75000000  0.87500000  0.12500000  1
  Cu  Cu27  1  0.37500000  0.25000000  0.62500000  1
  Cu  Cu28  1  0.25000000  0.62500000  0.37500000  1
  Cu  Cu29  1  0.87500000  0.12500000  0.75000000  1
  Cu  Cu30  1  0.25000000  0.12500000  0.87500000  1
  Cu  Cu31  1  0.12500000  0.87500000  0.25000000  1
  C  C32  1  0.69538600  0.08193200  0.68447000  1
  C  C33  1  0.11345500  0.01091600  0.69538600  1
  C  C34  1  0.68447000  0.48908400  0.60253900  1
  C  C35  1  0.60253900  0.68447000  0.48908400  1
  C  C36  1  0.89746100  0.38654500  0.08193200  1
  C  C37  1  0.08193200  0.89746100  0.38654500  1
  C  C38  1  0.01091600  0.69538600  0.11345500  1
  C  C39  1  0.41806800  0.11345500  0.60253900  1
  C  C40  1  0.38654500  0.80461400  0.48908400  1
  C  C41  1  0.01091600  0.81553000  0.89746100  1
  C  C42  1  0.11345500  0.60253900  0.41806800  1
  C  C43  1  0.48908400  0.38654500  0.80461400  1
  C  C44  1  0.81553000  0.89746100  0.01091600  1
  C  C45  1  0.68447000  0.69538600  0.08193200  1
  C  C46  1  0.08193200  0.68447000  0.69538600  1
  C  C47  1  0.60253900  0.41806800  0.11345500  1
  C  C48  1  0.81553000  0.41806800  0.80461400  1
  C  C49  1  0.80461400  0.48908400  0.38654500  1
  C  C50  1  0.80461400  0.81553000  0.41806800  1
  C  C51  1  0.89746100  0.01091600  0.81553000  1
  C  C52  1  0.41806800  0.80461400  0.81553000  1
  C  C53  1  0.38654500  0.08193200  0.89746100  1
  C  C54  1  0.69538600  0.11345500  0.01091600  1
  C  C55  1  0.48908400  0.60253900  0.68447000  1
  C  C56  1  0.30461400  0.91806800  0.31553000  1
  C  C57  1  0.88654500  0.98908400  0.30461400  1
  C  C58  1  0.31553000  0.51091600  0.39746100  1
  C  C59  1  0.39746100  0.31553000  0.51091600  1
  C  C60  1  0.10253900  0.61345500  0.91806800  1
  C  C61  1  0.91806800  0.10253900  0.61345500  1
  C  C62  1  0.98908400  0.30461400  0.88654500  1
  C  C63  1  0.58193200  0.88654500  0.39746100  1
  C  C64  1  0.61345500  0.19538600  0.51091600  1
  C  C65  1  0.98908400  0.18447000  0.10253900  1
  C  C66  1  0.88654500  0.39746100  0.58193200  1
  C  C67  1  0.51091600  0.61345500  0.19538600  1
  C  C68  1  0.18447000  0.10253900  0.98908400  1
  C  C69  1  0.31553000  0.30461400  0.91806800  1
  C  C70  1  0.91806800  0.31553000  0.30461400  1
  C  C71  1  0.39746100  0.58193200  0.88654500  1
  C  C72  1  0.18447000  0.58193200  0.19538600  1
  C  C73  1  0.19538600  0.51091600  0.61345500  1
  C  C74  1  0.19538600  0.18447000  0.58193200  1
  C  C75  1  0.10253900  0.98908400  0.18447000  1
  C  C76  1  0.58193200  0.19538600  0.18447000  1
  C  C77  1  0.61345500  0.91806800  0.10253900  1
  C  C78  1  0.30461400  0.88654500  0.98908400  1
  C  C79  1  0.51091600  0.39746100  0.31553000  1
