# generated using pymatgen
data_Cu(NiC6)2
_symmetry_space_group_name_H-M   'P 1'
_cell_length_a   10.07867489
_cell_length_b   9.14431041
_cell_length_c   6.58792227
_cell_angle_alpha   77.81061322
_cell_angle_beta   62.47856484
_cell_angle_gamma   39.71082194
_symmetry_Int_Tables_number   1
_chemical_formula_structural   Cu(NiC6)2
_chemical_formula_sum   'Cu2 Ni4 C24'
_cell_volume   332.67690866
_cell_formula_units_Z   2
loop_
 _symmetry_equiv_pos_site_id
 _symmetry_equiv_pos_as_xyz
  1  'x, y, z'
loop_
 _atom_site_type_symbol
 _atom_site_label
 _atom_site_symmetry_multiplicity
 _atom_site_fract_x
 _atom_site_fract_y
 _atom_site_fract_z
 _atom_site_occupancy
  Ni  Ni0  1  0.62500000  0.62500000  0.12500000  1
  Ni  Ni1  1  0.62500000  0.12500000  0.62500000  1
  Ni  Ni2  1  0.62500000  0.62500000  0.62500000  1
  Ni  Ni3  1  0.12500000  0.62500000  0.62500000  1
  Cu  Cu4  1  0.25000000  0.25000000  0.25000000  1
  Cu  Cu5  1  0.00000000  0.00000000  0.00000000  1
  C  C6  1  0.79251500  0.79251500  0.20748500  1
  C  C7  1  0.45748500  0.45748500  0.04251500  1
  C  C8  1  0.20748500  0.20748500  0.79251500  1
  C  C9  1  0.04251500  0.04251500  0.45748500  1
  C  C10  1  0.96816700  0.33832000  0.00219800  1
  C  C11  1  0.41885800  0.41885800  0.58114200  1
  C  C12  1  0.91328700  0.06162500  0.36204200  1
  C  C13  1  0.24780200  0.55868500  0.28183300  1
  C  C14  1  0.33832000  0.96816700  0.69131500  1
  C  C15  1  0.33671300  0.18837500  0.88795800  1
  C  C16  1  0.83114200  0.83114200  0.66885800  1
  C  C17  1  0.58114200  0.58114200  0.41885800  1
  C  C18  1  0.66885800  0.66885800  0.83114200  1
  C  C19  1  0.28183300  0.91168000  0.24780200  1
  C  C20  1  0.69131500  0.00219800  0.33832000  1
  C  C21  1  0.55868500  0.24780200  0.91168000  1
  C  C22  1  0.00219800  0.69131500  0.96816700  1
  C  C23  1  0.06162500  0.91328700  0.66304700  1
  C  C24  1  0.58695300  0.88795800  0.18837500  1
  C  C25  1  0.36204200  0.66304700  0.91328700  1
  C  C26  1  0.88795800  0.58695300  0.33671300  1
  C  C27  1  0.66304700  0.36204200  0.06162500  1
  C  C28  1  0.91168000  0.28183300  0.55868500  1
  C  C29  1  0.18837500  0.33671300  0.58695300  1
