# generated using pymatgen
data_Cu5(Ni2C3)3
_symmetry_space_group_name_H-M   'P 1'
_cell_length_a   18.51945900
_cell_length_b   9.71682000
_cell_length_c   11.58676611
_cell_angle_alpha   68.82684746
_cell_angle_beta   90.00000000
_cell_angle_gamma   90.00000000
_symmetry_Int_Tables_number   1
_chemical_formula_structural   Cu5(Ni2C3)3
_chemical_formula_sum   'Cu20 Ni24 C36'
_cell_volume   1944.28686783
_cell_formula_units_Z   4
loop_
 _symmetry_equiv_pos_site_id
 _symmetry_equiv_pos_as_xyz
  1  'x, y, z'
loop_
 _atom_site_type_symbol
 _atom_site_label
 _atom_site_symmetry_multiplicity
 _atom_site_fract_x
 _atom_site_fract_y
 _atom_site_fract_z
 _atom_site_occupancy
  C  C0  1  0.23369900  0.98422000  0.10060700  1
  C  C1  1  0.73369900  0.01578000  0.39939300  1
  C  C2  1  0.76630100  0.01578000  0.89939300  1
  C  C3  1  0.26630100  0.98422000  0.60060700  1
  C  C4  1  0.10008600  0.56466700  0.46483500  1
  C  C5  1  0.60008600  0.43533300  0.03516500  1
  C  C6  1  0.89991400  0.43533300  0.53516500  1
  C  C7  1  0.39991400  0.56466700  0.96483500  1
  C  C8  1  0.21161000  0.59422200  0.42292800  1
  C  C9  1  0.71161000  0.40577800  0.07707200  1
  C  C10  1  0.78839000  0.40577800  0.57707200  1
  C  C11  1  0.28839000  0.59422200  0.92292800  1
  C  C12  1  0.05334900  0.68222200  0.95461900  1
  C  C13  1  0.55334900  0.31777800  0.54538100  1
  C  C14  1  0.94665100  0.31777800  0.04538100  1
  C  C15  1  0.44665100  0.68222200  0.45461900  1
  C  C16  1  0.06824900  0.90868000  0.92303900  1
  C  C17  1  0.56824900  0.09132000  0.57696100  1
  C  C18  1  0.93175100  0.09132000  0.07696100  1
  C  C19  1  0.43175100  0.90868000  0.42303900  1
  C  C20  1  0.11315700  0.38576800  0.73800900  1
  C  C21  1  0.61315700  0.61423200  0.76199100  1
  C  C22  1  0.88684300  0.61423200  0.26199100  1
  C  C23  1  0.38684300  0.38576800  0.23800900  1
  C  C24  1  0.23132800  0.42480000  0.17818000  1
  C  C25  1  0.73132800  0.57520000  0.32182000  1
  C  C26  1  0.76867200  0.57520000  0.82182000  1
  C  C27  1  0.26867200  0.42480000  0.67818000  1
  C  C28  1  0.02926900  0.28382600  0.27765300  1
  C  C29  1  0.52926900  0.71617400  0.22234700  1
  C  C30  1  0.97073100  0.71617400  0.72234700  1
  C  C31  1  0.47073100  0.28382600  0.77765300  1
  C  C32  1  0.00663000  0.96797200  0.32342300  1
  C  C33  1  0.50663000  0.03202800  0.17657700  1
  C  C34  1  0.99337000  0.03202800  0.67657700  1
  C  C35  1  0.49337000  0.96797200  0.82342300  1
  Ni  Ni36  1  0.08353400  0.47328500  0.60545100  1
  Ni  Ni37  1  0.58353400  0.52671500  0.89454900  1
  Ni  Ni38  1  0.91646600  0.52671500  0.39454900  1
  Ni  Ni39  1  0.41646600  0.47328500  0.10545100  1
  Ni  Ni40  1  0.19744100  0.37468800  0.75624600  1
  Ni  Ni41  1  0.69744100  0.62531200  0.74375400  1
  Ni  Ni42  1  0.80255900  0.62531200  0.24375400  1
  Ni  Ni43  1  0.30255900  0.37468800  0.25624600  1
  Ni  Ni44  1  0.23933400  0.51851000  0.03847200  1
  Ni  Ni45  1  0.73933400  0.48149000  0.46152800  1
  Ni  Ni46  1  0.76066600  0.48149000  0.96152800  1
  Ni  Ni47  1  0.26066600  0.51851000  0.53847200  1
  Ni  Ni48  1  0.01086700  0.65168000  0.84870500  1
  Ni  Ni49  1  0.51086700  0.34832000  0.65129500  1
  Ni  Ni50  1  0.98913300  0.34832000  0.15129500  1
  Ni  Ni51  1  0.48913300  0.65168000  0.34870500  1
  Ni  Ni52  1  0.03187100  0.11148000  0.34588400  1
  Ni  Ni53  1  0.53187100  0.88852000  0.15411600  1
  Ni  Ni54  1  0.96812900  0.88852000  0.65411600  1
  Ni  Ni55  1  0.46812900  0.11148000  0.84588400  1
  Ni  Ni56  1  0.03670800  0.01222100  0.79561000  1
  Ni  Ni57  1  0.53670800  0.98777900  0.70439000  1
  Ni  Ni58  1  0.96329200  0.98777900  0.20439000  1
  Ni  Ni59  1  0.46329200  0.01222100  0.29561000  1
  Cu  Cu60  1  0.16317900  0.78535700  0.66505800  1
  Cu  Cu61  1  0.66317900  0.21464300  0.83494200  1
  Cu  Cu62  1  0.83682100  0.21464300  0.33494200  1
  Cu  Cu63  1  0.33682100  0.78535700  0.16505800  1
  Cu  Cu64  1  0.12172200  0.73357700  0.18650700  1
  Cu  Cu65  1  0.62172200  0.26642300  0.31349300  1
  Cu  Cu66  1  0.87827800  0.26642300  0.81349300  1
  Cu  Cu67  1  0.37827800  0.73357700  0.68650700  1
  Cu  Cu68  1  0.12707300  0.17820100  0.04883000  1
  Cu  Cu69  1  0.62707300  0.82179900  0.45117000  1
  Cu  Cu70  1  0.87292700  0.82179900  0.95117000  1
  Cu  Cu71  1  0.37292700  0.17820100  0.54883000  1
  Cu  Cu72  1  0.17500800  0.18635000  0.53393100  1
  Cu  Cu73  1  0.67500800  0.81365000  0.96606900  1
  Cu  Cu74  1  0.82499200  0.81365000  0.46606900  1
  Cu  Cu75  1  0.32499200  0.18635000  0.03393100  1
  Cu  Cu76  1  0.23126100  0.98465400  0.30947600  1
  Cu  Cu77  1  0.73126100  0.01534600  0.19052400  1
  Cu  Cu78  1  0.76873900  0.01534600  0.69052400  1
  Cu  Cu79  1  0.26873900  0.98465400  0.80947600  1
