# generated using pymatgen
data_CuNiC8
_symmetry_space_group_name_H-M   'P 1'
_cell_length_a   9.22124100
_cell_length_b   5.53131600
_cell_length_c   9.83326268
_cell_angle_alpha   77.18991108
_cell_angle_beta   90.00000000
_cell_angle_gamma   90.00000000
_symmetry_Int_Tables_number   1
_chemical_formula_structural   CuNiC8
_chemical_formula_sum   'Cu4 Ni4 C32'
_cell_volume   489.06799139
_cell_formula_units_Z   4
loop_
 _symmetry_equiv_pos_site_id
 _symmetry_equiv_pos_as_xyz
  1  'x, y, z'
loop_
 _atom_site_type_symbol
 _atom_site_label
 _atom_site_symmetry_multiplicity
 _atom_site_fract_x
 _atom_site_fract_y
 _atom_site_fract_z
 _atom_site_occupancy
  Ni  Ni0  1  0.49131100  0.46742600  0.25473500  1
  Ni  Ni1  1  0.99131100  0.03257400  0.74526500  1
  Ni  Ni2  1  0.50868900  0.53257400  0.74526500  1
  Ni  Ni3  1  0.00868900  0.96742600  0.25473500  1
  Cu  Cu4  1  0.14652900  0.53087400  0.74906800  1
  Cu  Cu5  1  0.64652900  0.96912600  0.25093200  1
  Cu  Cu6  1  0.85347100  0.46912600  0.25093200  1
  Cu  Cu7  1  0.35347100  0.03087400  0.74906800  1
  C  C8  1  0.33897300  0.24510600  0.04930100  1
  C  C9  1  0.83897300  0.25489400  0.95069900  1
  C  C10  1  0.66102700  0.75489400  0.95069900  1
  C  C11  1  0.16102700  0.74510600  0.04930100  1
  C  C12  1  0.33689900  0.81001400  0.44658900  1
  C  C13  1  0.83689900  0.68998600  0.55341100  1
  C  C14  1  0.66310100  0.18998600  0.55341100  1
  C  C15  1  0.16310100  0.31001400  0.44658900  1
  C  C16  1  0.51174600  0.19042400  0.11920600  1
  C  C17  1  0.01174600  0.30957600  0.88079400  1
  C  C18  1  0.48825400  0.80957600  0.88079400  1
  C  C19  1  0.98825400  0.69042400  0.11920600  1
  C  C20  1  0.32938500  0.31181400  0.86446400  1
  C  C21  1  0.82938500  0.18818600  0.13553600  1
  C  C22  1  0.67061500  0.68818600  0.13553600  1
  C  C23  1  0.17061500  0.81181400  0.86446400  1
  C  C24  1  0.21494500  0.00203800  0.12005700  1
  C  C25  1  0.71494500  0.49796200  0.87994300  1
  C  C26  1  0.78505500  0.99796200  0.87994300  1
  C  C27  1  0.28505500  0.50203800  0.12005700  1
  C  C28  1  0.49535000  0.74278500  0.36687400  1
  C  C29  1  0.99535000  0.75721500  0.63312600  1
  C  C30  1  0.50465000  0.25721500  0.63312600  1
  C  C31  1  0.00465000  0.24278500  0.36687400  1
  C  C32  1  0.33174800  0.74769800  0.63251300  1
  C  C33  1  0.83174800  0.75230200  0.36748700  1
  C  C34  1  0.66825200  0.25230200  0.36748700  1
  C  C35  1  0.16825200  0.24769800  0.63251300  1
  C  C36  1  0.30803200  0.13861100  0.39050800  1
  C  C37  1  0.80803200  0.36138900  0.60949200  1
  C  C38  1  0.69196800  0.86138900  0.60949200  1
  C  C39  1  0.19196800  0.63861100  0.39050800  1
