# generated using pymatgen
data_Cu4NiC13
_symmetry_space_group_name_H-M   'P 1'
_cell_length_a   5.72379460
_cell_length_b   5.72379460
_cell_length_c   8.13252823
_cell_angle_alpha   90.00000000
_cell_angle_beta   90.00000000
_cell_angle_gamma   90.73404821
_symmetry_Int_Tables_number   1
_chemical_formula_structural   Cu4NiC13
_chemical_formula_sum   'Cu4 Ni1 C13'
_cell_volume   266.41459841
_cell_formula_units_Z   1
loop_
 _symmetry_equiv_pos_site_id
 _symmetry_equiv_pos_as_xyz
  1  'x, y, z'
loop_
 _atom_site_type_symbol
 _atom_site_label
 _atom_site_symmetry_multiplicity
 _atom_site_fract_x
 _atom_site_fract_y
 _atom_site_fract_z
 _atom_site_occupancy
  Ni  Ni0  1  0.03163880  0.96836120  0.50000000  1
  C  C1  1  0.48439684  0.51560316  0.00000000  1
  Cu  Cu2  1  0.51085725  0.01076425  0.24874972  1
  Cu  Cu3  1  0.51085725  0.01076425  0.75125028  1
  Cu  Cu4  1  0.98923575  0.48914275  0.75125028  1
  Cu  Cu5  1  0.98923575  0.48914275  0.24874972  1
  C  C6  1  0.29723911  0.30300836  0.22587378  1
  C  C7  1  0.69699164  0.70276089  0.22587378  1
  C  C8  1  0.69699164  0.70276089  0.77412622  1
  C  C9  1  0.29723911  0.30300836  0.77412622  1
  C  C10  1  0.22060564  0.77939436  0.22157125  1
  C  C11  1  0.81562459  0.18437541  0.30714366  1
  C  C12  1  0.81562459  0.18437541  0.69285634  1
  C  C13  1  0.22060564  0.77939436  0.77842875  1
  C  C14  1  0.54195894  0.06598225  0.00000000  1
  C  C15  1  0.43230689  0.99642719  0.50000000  1
  C  C16  1  0.93401775  0.45804106  0.00000000  1
  C  C17  1  0.00357281  0.56769311  0.50000000  1
