# generated using pymatgen
data_CuNiC16
_symmetry_space_group_name_H-M   'P 1'
_cell_length_a   5.45495836
_cell_length_b   5.45495836
_cell_length_c   7.40846093
_cell_angle_alpha   90.00000000
_cell_angle_beta   90.00000000
_cell_angle_gamma   97.41933931
_symmetry_Int_Tables_number   1
_chemical_formula_structural   CuNiC16
_chemical_formula_sum   'Cu1 Ni1 C16'
_cell_volume   218.60470023
_cell_formula_units_Z   1
loop_
 _symmetry_equiv_pos_site_id
 _symmetry_equiv_pos_as_xyz
  1  'x, y, z'
loop_
 _atom_site_type_symbol
 _atom_site_label
 _atom_site_symmetry_multiplicity
 _atom_site_fract_x
 _atom_site_fract_y
 _atom_site_fract_z
 _atom_site_occupancy
  Ni  Ni0  1  0.99886251  0.00113749  0.50000000  1
  Cu  Cu1  1  0.47054618  0.52945382  -0.00000000  1
  C  C2  1  0.47999707  0.03402492  0.25963497  1
  C  C3  1  0.47999707  0.03402492  0.74036503  1
  C  C4  1  0.96597508  0.52000293  0.74036503  1
  C  C5  1  0.96597508  0.52000293  0.25963497  1
  C  C6  1  0.30306389  0.26841985  0.25578105  1
  C  C7  1  0.73158015  0.69693611  0.25578105  1
  C  C8  1  0.73158015  0.69693611  0.74421895  1
  C  C9  1  0.30306389  0.26841985  0.74421895  1
  C  C10  1  0.24266363  0.75733637  0.20770935  1
  C  C11  1  0.79560353  0.20439647  0.30425751  1
  C  C12  1  0.79560353  0.20439647  0.69574249  1
  C  C13  1  0.24266363  0.75733637  0.79229065  1
  C  C14  1  0.54919566  0.04012916  0.00000000  1
  C  C15  1  0.43732322  0.95856511  0.50000000  1
  C  C16  1  0.95987084  0.45080434  -0.00000000  1
  C  C17  1  0.04143489  0.56267678  0.50000000  1
