# generated using pymatgen
data_Cu2(NiC5)3
_symmetry_space_group_name_H-M   'P 1'
_cell_length_a   9.26284855
_cell_length_b   9.26284855
_cell_length_c   7.29261762
_cell_angle_alpha   75.83817594
_cell_angle_beta   75.83817594
_cell_angle_gamma   96.31808343
_symmetry_Int_Tables_number   1
_chemical_formula_structural   Cu2(NiC5)3
_chemical_formula_sum   'Cu4 Ni6 C30'
_cell_volume   578.56835804
_cell_formula_units_Z   2
loop_
 _symmetry_equiv_pos_site_id
 _symmetry_equiv_pos_as_xyz
  1  'x, y, z'
loop_
 _atom_site_type_symbol
 _atom_site_label
 _atom_site_symmetry_multiplicity
 _atom_site_fract_x
 _atom_site_fract_y
 _atom_site_fract_z
 _atom_site_occupancy
  Ni  Ni0  1  0.22811900  0.77188100  0.25000000  1
  Ni  Ni1  1  0.77188100  0.22811900  0.75000000  1
  Ni  Ni2  1  0.00000000  0.00000000  0.00000000  1
  Ni  Ni3  1  0.00000000  0.00000000  0.50000000  1
  Ni  Ni4  1  0.51044600  0.48955400  0.25000000  1
  Ni  Ni5  1  0.48955400  0.51044600  0.75000000  1
  Cu  Cu6  1  0.55354200  0.86550900  0.37757100  1
  Cu  Cu7  1  0.44645800  0.13449100  0.62242900  1
  Cu  Cu8  1  0.13449100  0.44645800  0.12242900  1
  Cu  Cu9  1  0.86550900  0.55354200  0.87757100  1
  C  C10  1  0.78028500  0.21971500  0.25000000  1
  C  C11  1  0.21971500  0.78028500  0.75000000  1
  C  C12  1  0.38304400  0.15605800  0.12245100  1
  C  C13  1  0.61695600  0.84394200  0.87754900  1
  C  C14  1  0.84394200  0.61695600  0.37754900  1
  C  C15  1  0.15605800  0.38304400  0.62245100  1
  C  C16  1  0.46803700  0.08426900  0.33998500  1
  C  C17  1  0.53196300  0.91573100  0.66001500  1
  C  C18  1  0.91573100  0.53196300  0.16001500  1
  C  C19  1  0.08426900  0.46803700  0.83998500  1
  C  C20  1  0.49453200  0.84000000  0.12896600  1
  C  C21  1  0.50546800  0.16000000  0.87103400  1
  C  C22  1  0.16000000  0.50546800  0.37103400  1
  C  C23  1  0.84000000  0.49453200  0.62896600  1
  C  C24  1  0.19979900  0.03345600  0.21905500  1
  C  C25  1  0.80020100  0.96654400  0.78094500  1
  C  C26  1  0.96654400  0.80020100  0.28094500  1
  C  C27  1  0.03345600  0.19979900  0.71905500  1
  C  C28  1  0.75955200  0.01928600  0.22821800  1
  C  C29  1  0.24044800  0.98071400  0.77178200  1
  C  C30  1  0.98071400  0.24044800  0.27178200  1
  C  C31  1  0.01928600  0.75955200  0.72821800  1
  C  C32  1  0.66503200  0.27264200  0.46877900  1
  C  C33  1  0.33496800  0.72735800  0.53122100  1
  C  C34  1  0.72735800  0.33496800  0.03122100  1
  C  C35  1  0.27264200  0.66503200  0.96877900  1
  C  C36  1  0.64433500  0.66746200  0.42439300  1
  C  C37  1  0.35566500  0.33253800  0.57560700  1
  C  C38  1  0.33253800  0.35566500  0.07560700  1
  C  C39  1  0.66746200  0.64433500  0.92439300  1
