# generated using pymatgen
data_Cu2Ni4C15
_symmetry_space_group_name_H-M   'P 1'
_cell_length_a   5.81705048
_cell_length_b   6.13650843
_cell_length_c   8.36926100
_cell_angle_alpha   87.35512531
_cell_angle_beta   92.19720275
_cell_angle_gamma   92.03648305
_symmetry_Int_Tables_number   1
_chemical_formula_structural   Cu2Ni4C15
_chemical_formula_sum   'Cu2 Ni4 C15'
_cell_volume   298.04398003
_cell_formula_units_Z   1
loop_
 _symmetry_equiv_pos_site_id
 _symmetry_equiv_pos_as_xyz
  1  'x, y, z'
loop_
 _atom_site_type_symbol
 _atom_site_label
 _atom_site_symmetry_multiplicity
 _atom_site_fract_x
 _atom_site_fract_y
 _atom_site_fract_z
 _atom_site_occupancy
  Ni  Ni0  1  0.98729500  0.44531000  0.73501900  1
  Ni  Ni1  1  0.50754600  0.92421900  0.74290900  1
  Ni  Ni2  1  0.45195000  0.12075700  0.30507400  1
  Ni  Ni3  1  0.06532000  0.56349500  0.24352700  1
  Cu  Cu4  1  0.51686800  0.42435800  0.97640500  1
  Cu  Cu5  1  0.98410500  0.00161200  0.50443800  1
  C  C6  1  0.63516100  0.80510900  0.13055700  1
  C  C7  1  0.02205400  0.99121400  0.99688900  1
  C  C8  1  0.49533600  0.51664800  0.50316200  1
  C  C9  1  0.72309400  0.14776900  0.95463900  1
  C  C10  1  0.76599600  0.70757100  0.55018500  1
  C  C11  1  0.31290400  0.82156900  0.05287100  1
  C  C12  1  0.20779200  0.31639300  0.46533600  1
  C  C13  1  0.81489800  0.69293500  0.95964200  1
  C  C14  1  0.69019700  0.23491500  0.54353500  1
  C  C15  1  0.19089600  0.26990700  0.05310900  1
  C  C16  1  0.29728200  0.79184300  0.46503000  1
  C  C17  1  0.41446300  0.51258400  0.73389500  1
  C  C18  1  0.08773000  0.02183900  0.76848000  1
  C  C19  1  0.57638900  0.51403300  0.25134800  1
  C  C20  1  0.89855800  0.95717000  0.23582400  1
