# generated using pymatgen
data_CuNi2C11
_symmetry_space_group_name_H-M   'P 1'
_cell_length_a   5.47245100
_cell_length_b   5.47245100
_cell_length_c   11.74070200
_cell_angle_alpha   90.00000000
_cell_angle_beta   90.00000000
_cell_angle_gamma   90.00000000
_symmetry_Int_Tables_number   1
_chemical_formula_structural   CuNi2C11
_chemical_formula_sum   'Cu2 Ni4 C22'
_cell_volume   351.60725548
_cell_formula_units_Z   2
loop_
 _symmetry_equiv_pos_site_id
 _symmetry_equiv_pos_as_xyz
  1  'x, y, z'
loop_
 _atom_site_type_symbol
 _atom_site_label
 _atom_site_symmetry_multiplicity
 _atom_site_fract_x
 _atom_site_fract_y
 _atom_site_fract_z
 _atom_site_occupancy
  C  C0  1  0.50000000  0.00000000  0.81013600  1
  C  C1  1  0.00000000  0.50000000  0.18986400  1
  C  C2  1  0.50000000  0.00000000  0.18986400  1
  C  C3  1  0.00000000  0.50000000  0.81013600  1
  C  C4  1  0.50000000  0.00000000  0.50000000  1
  C  C5  1  0.00000000  0.50000000  0.50000000  1
  Ni  Ni6  1  0.50000000  0.50000000  0.64302100  1
  Ni  Ni7  1  0.00000000  0.00000000  0.35697900  1
  Ni  Ni8  1  0.50000000  0.50000000  0.35697900  1
  Ni  Ni9  1  0.00000000  0.00000000  0.64302100  1
  Cu  Cu10  1  0.50000000  0.50000000  0.00000000  1
  Cu  Cu11  1  0.00000000  0.00000000  0.00000000  1
  C  C12  1  0.50000000  0.50000000  0.83280800  1
  C  C13  1  0.00000000  0.00000000  0.16719200  1
  C  C14  1  0.50000000  0.50000000  0.16719200  1
  C  C15  1  0.00000000  0.00000000  0.83280800  1
  C  C16  1  0.81704400  0.31704400  0.00000000  1
  C  C17  1  0.18295600  0.68295600  0.00000000  1
  C  C18  1  0.31704400  0.18295600  0.00000000  1
  C  C19  1  0.68295600  0.81704400  0.00000000  1
  C  C20  1  0.74954400  0.24954400  0.37319300  1
  C  C21  1  0.25045600  0.75045600  0.37319300  1
  C  C22  1  0.24954400  0.25045600  0.62680700  1
  C  C23  1  0.75045600  0.74954400  0.62680700  1
  C  C24  1  0.25045600  0.75045600  0.62680700  1
  C  C25  1  0.74954400  0.24954400  0.62680700  1
  C  C26  1  0.75045600  0.74954400  0.37319300  1
  C  C27  1  0.24954400  0.25045600  0.37319300  1
