# generated using pymatgen
data_CuNiC5
_symmetry_space_group_name_H-M   'P 1'
_cell_length_a   5.85011643
_cell_length_b   8.33999300
_cell_length_c   5.87688820
_cell_angle_alpha   90.00001461
_cell_angle_beta   89.99999311
_cell_angle_gamma   90.00000486
_symmetry_Int_Tables_number   1
_chemical_formula_structural   CuNiC5
_chemical_formula_sum   'Cu4 Ni4 C20'
_cell_volume   286.73296455
_cell_formula_units_Z   4
loop_
 _symmetry_equiv_pos_site_id
 _symmetry_equiv_pos_as_xyz
  1  'x, y, z'
loop_
 _atom_site_type_symbol
 _atom_site_label
 _atom_site_symmetry_multiplicity
 _atom_site_fract_x
 _atom_site_fract_y
 _atom_site_fract_z
 _atom_site_occupancy
  Ni  Ni0  1  0.50000000  0.87500200  0.75000300  1
  Ni  Ni1  1  0.00000000  0.37499900  0.24999600  1
  Ni  Ni2  1  0.99999900  0.37499900  0.75000400  1
  Ni  Ni3  1  0.50000000  0.87500200  0.24999600  1
  C  C4  1  0.25000000  0.62499900  0.00000000  1
  C  C5  1  0.75000000  0.12500000  0.50000000  1
  C  C6  1  0.25000000  0.12500000  0.50000000  1
  C  C7  1  0.75000000  0.62500000  0.00000000  1
  Cu  Cu8  1  0.99999900  0.75814700  0.49999900  1
  Cu  Cu9  1  0.50000100  0.49185200  0.49999900  1
  Cu  Cu10  1  0.50000000  0.25812500  0.00000200  1
  Cu  Cu11  1  0.00000200  0.99187300  0.00000000  1
  C  C12  1  0.24200100  0.35400800  0.50000000  1
  C  C13  1  0.74200000  0.85401200  0.00000000  1
  C  C14  1  0.75799900  0.35400800  0.50000000  1
  C  C15  1  0.25800000  0.85401100  0.00000000  1
  C  C16  1  0.25799900  0.89599200  0.50000000  1
  C  C17  1  0.75799800  0.39598800  0.00000000  1
  C  C18  1  0.24200300  0.39598800  0.00000000  1
  C  C19  1  0.74200100  0.89599200  0.50000000  1
  C  C20  1  0.00000000  0.12560400  0.72488100  1
  C  C21  1  0.50000000  0.62560300  0.22488200  1
  C  C22  1  0.00000000  0.12560400  0.27511900  1
  C  C23  1  0.50000000  0.62560300  0.77511800  1
  C  C24  1  0.00000000  0.62439800  0.77511800  1
  C  C25  1  0.50000000  0.12439600  0.27512000  1
  C  C26  1  0.50000000  0.12439600  0.72488000  1
  C  C27  1  0.00000000  0.62439800  0.22488200  1
