# generated using pymatgen
data_Cu2Ni4C11
_symmetry_space_group_name_H-M   'P 1'
_cell_length_a   7.38318011
_cell_length_b   7.38318011
_cell_length_c   8.19018402
_cell_angle_alpha   88.41709408
_cell_angle_beta   88.41709408
_cell_angle_gamma   62.79690974
_symmetry_Int_Tables_number   1
_chemical_formula_structural   Cu2Ni4C11
_chemical_formula_sum   'Cu4 Ni8 C22'
_cell_volume   396.86803725
_cell_formula_units_Z   2
loop_
 _symmetry_equiv_pos_site_id
 _symmetry_equiv_pos_as_xyz
  1  'x, y, z'
loop_
 _atom_site_type_symbol
 _atom_site_label
 _atom_site_symmetry_multiplicity
 _atom_site_fract_x
 _atom_site_fract_y
 _atom_site_fract_z
 _atom_site_occupancy
  C  C0  1  0.00000000  0.50000000  0.50000000  1
  C  C1  1  0.50000000  0.00000000  0.00000000  1
  C  C2  1  0.88849300  0.17536200  0.46895300  1
  C  C3  1  0.82463800  0.11150700  0.03104700  1
  C  C4  1  0.11150700  0.82463800  0.53104700  1
  C  C5  1  0.17536200  0.88849300  0.96895300  1
  C  C6  1  0.25175900  0.35943300  0.78824400  1
  C  C7  1  0.64056700  0.74824100  0.71175600  1
  C  C8  1  0.74824100  0.64056700  0.21175600  1
  C  C9  1  0.35943300  0.25175900  0.28824400  1
  Ni  Ni10  1  0.73822800  0.31293100  0.48976400  1
  Ni  Ni11  1  0.68706900  0.26177200  0.01023600  1
  Ni  Ni12  1  0.26177200  0.68706900  0.51023600  1
  Ni  Ni13  1  0.31293100  0.73822800  0.98976400  1
  Ni  Ni14  1  0.25211200  0.22454700  0.73492700  1
  Ni  Ni15  1  0.77545300  0.74788800  0.76507300  1
  Ni  Ni16  1  0.74788800  0.77545300  0.26507300  1
  Ni  Ni17  1  0.22454700  0.25211200  0.23492700  1
  Cu  Cu18  1  0.60034600  0.25772700  0.47483200  1
  Cu  Cu19  1  0.74227300  0.39965400  0.02516800  1
  Cu  Cu20  1  0.39965400  0.74227300  0.52516800  1
  Cu  Cu21  1  0.25772700  0.60034600  0.97483200  1
  C  C22  1  0.14518900  0.24262700  0.60977900  1
  C  C23  1  0.75737300  0.85481100  0.89022100  1
  C  C24  1  0.85481100  0.75737300  0.39022100  1
  C  C25  1  0.24262700  0.14518900  0.10977900  1
  C  C26  1  0.74610800  0.48069800  0.52106700  1
  C  C27  1  0.51930200  0.25389200  0.97893300  1
  C  C28  1  0.25389200  0.51930200  0.47893300  1
  C  C29  1  0.48069800  0.74610800  0.02106700  1
  C  C30  1  0.35653900  0.04888900  0.79937700  1
  C  C31  1  0.95111100  0.64346100  0.70062300  1
  C  C32  1  0.64346100  0.95111100  0.20062300  1
  C  C33  1  0.04888900  0.35653900  0.29937700  1
