# generated using pymatgen
data_CuNiC8
_symmetry_space_group_name_H-M   'P 1'
_cell_length_a   5.75621507
_cell_length_b   5.90923974
_cell_length_c   5.75621507
_cell_angle_alpha   60.85299285
_cell_angle_beta   90.00000000
_cell_angle_gamma   119.14700715
_symmetry_Int_Tables_number   1
_chemical_formula_structural   CuNiC8
_chemical_formula_sum   'Cu1 Ni1 C8'
_cell_volume   141.94398919
_cell_formula_units_Z   1
loop_
 _symmetry_equiv_pos_site_id
 _symmetry_equiv_pos_as_xyz
  1  'x, y, z'
loop_
 _atom_site_type_symbol
 _atom_site_label
 _atom_site_symmetry_multiplicity
 _atom_site_fract_x
 _atom_site_fract_y
 _atom_site_fract_z
 _atom_site_occupancy
  Ni  Ni0  1  0.25000000  0.50000000  0.25000000  1
  Cu  Cu1  1  0.50000000  -0.00000000  0.50000000  1
  C  C2  1  0.00000000  -0.00000000  0.00000000  1
  C  C3  1  0.75000000  0.50000000  0.75000000  1
  C  C4  1  0.76550241  0.53100481  0.23449759  1
  C  C5  1  0.23449759  0.46899519  0.76550241  1
  C  C6  1  0.86411660  0.99138830  0.69183794  1
  C  C7  1  0.12727170  0.99138830  0.31677376  1
  C  C8  1  0.31677376  0.00861170  0.86411660  1
  C  C9  1  0.69183794  0.00861170  0.12727170  1
