# generated using pymatgen
data_Cu6Ni2C5
_symmetry_space_group_name_H-M   'P 1'
_cell_length_a   9.16126167
_cell_length_b   9.16126167
_cell_length_c   9.16126167
_cell_angle_alpha   103.92240499
_cell_angle_beta   103.92240499
_cell_angle_gamma   121.25077167
_symmetry_Int_Tables_number   1
_chemical_formula_structural   Cu6Ni2C5
_chemical_formula_sum   'Cu24 Ni8 C20'
_cell_volume   572.81816316
_cell_formula_units_Z   4
loop_
 _symmetry_equiv_pos_site_id
 _symmetry_equiv_pos_as_xyz
  1  'x, y, z'
loop_
 _atom_site_type_symbol
 _atom_site_label
 _atom_site_symmetry_multiplicity
 _atom_site_fract_x
 _atom_site_fract_y
 _atom_site_fract_z
 _atom_site_occupancy
  C  C0  1  0.50000000  0.50000000  0.00000000  1
  C  C1  1  0.75000000  0.25000000  0.50000000  1
  C  C2  1  0.00000000  0.00000000  0.00000000  1
  C  C3  1  0.25000000  0.75000000  0.50000000  1
  C  C4  1  0.11526700  0.19489100  0.58305100  1
  C  C5  1  0.61184000  0.53221600  0.41694900  1
  C  C6  1  0.78221600  0.86526700  0.42037600  1
  C  C7  1  0.44489100  0.36184000  0.57962400  1
  C  C8  1  0.13473300  0.55510900  0.91694900  1
  C  C9  1  0.63816000  0.21778400  0.08305100  1
  C  C10  1  0.46778400  0.88473300  0.07962400  1
  C  C11  1  0.80510900  0.38816000  0.92037600  1
  C  C12  1  0.84466900  0.99242900  0.32501500  1
  C  C13  1  0.66741400  0.51965400  0.67498500  1
  C  C14  1  0.76965400  0.59466900  0.35224000  1
  C  C15  1  0.24242900  0.41741400  0.64776000  1
  C  C16  1  0.40533100  0.75757100  0.17498500  1
  C  C17  1  0.58258600  0.23034600  0.82501500  1
  C  C18  1  0.48034600  0.15533100  0.14776000  1
  C  C19  1  0.00757100  0.33258600  0.85224000  1
  Ni  Ni20  1  0.02173900  0.79714000  0.22968900  1
  Ni  Ni21  1  0.56745100  0.79205000  0.77031100  1
  Ni  Ni22  1  0.04205000  0.77173900  0.72459900  1
  Ni  Ni23  1  0.04714000  0.31745100  0.27540100  1
  Ni  Ni24  1  0.22826100  0.95286000  0.27031100  1
  Ni  Ni25  1  0.68254900  0.95795000  0.72968900  1
  Ni  Ni26  1  0.20795000  0.97826100  0.77540100  1
  Ni  Ni27  1  0.20286000  0.43254900  0.22459900  1
  Cu  Cu28  1  0.89366700  0.78467400  0.12413000  1
  Cu  Cu29  1  0.66054400  0.76953600  0.87587000  1
  Cu  Cu30  1  0.01953600  0.64366700  0.60899200  1
  Cu  Cu31  1  0.03467400  0.41054400  0.39100800  1
  Cu  Cu32  1  0.35633300  0.96532600  0.37586900  1
  Cu  Cu33  1  0.58945600  0.98046400  0.62413000  1
  Cu  Cu34  1  0.23046400  0.10633300  0.89100800  1
  Cu  Cu35  1  0.21532600  0.33945600  0.10899200  1
  Cu  Cu36  1  0.99533900  0.69285800  0.30611200  1
  Cu  Cu37  1  0.38674500  0.68922700  0.69388800  1
  Cu  Cu38  1  0.93922700  0.74533900  0.80248100  1
  Cu  Cu39  1  0.94285800  0.13674500  0.19751900  1
  Cu  Cu40  1  0.25466100  0.05714200  0.19388800  1
  Cu  Cu41  1  0.86325500  0.06077300  0.80611200  1
  Cu  Cu42  1  0.31077300  0.00466100  0.69751900  1
  Cu  Cu43  1  0.30714200  0.61325500  0.30248100  1
  Cu  Cu44  1  0.24801600  0.31286500  0.64583400  1
  Cu  Cu45  1  0.66703100  0.60218200  0.35416600  1
  Cu  Cu46  1  0.85218200  0.99801600  0.43515000  1
  Cu  Cu47  1  0.56286500  0.41703100  0.56485000  1
  Cu  Cu48  1  0.00198400  0.43713500  0.85416600  1
  Cu  Cu49  1  0.58296900  0.14781800  0.14583400  1
  Cu  Cu50  1  0.39781800  0.75198400  0.06485000  1
  Cu  Cu51  1  0.68713500  0.33296900  0.93515000  1
