# generated using pymatgen
data_Cu8Ni8C3
_symmetry_space_group_name_H-M   'P 1'
_cell_length_a   7.47707387
_cell_length_b   13.21977724
_cell_length_c   14.29909283
_cell_angle_alpha   90.00000000
_cell_angle_beta   102.47649451
_cell_angle_gamma   90.00000000
_symmetry_Int_Tables_number   1
_chemical_formula_structural   Cu8Ni8C3
_chemical_formula_sum   'Cu16 Ni16 C6'
_cell_volume   1380.01964227
_cell_formula_units_Z   2
loop_
 _symmetry_equiv_pos_site_id
 _symmetry_equiv_pos_as_xyz
  1  'x, y, z'
loop_
 _atom_site_type_symbol
 _atom_site_label
 _atom_site_symmetry_multiplicity
 _atom_site_fract_x
 _atom_site_fract_y
 _atom_site_fract_z
 _atom_site_occupancy
  C  C0  1  0.50000000  0.50000000  0.00000000  1
  C  C1  1  0.50000000  0.00000000  0.50000000  1
  C  C2  1  0.77890271  0.03827508  0.07310688  1
  C  C3  1  0.22109729  0.53827508  0.42689312  1
  C  C4  1  0.22109729  0.96172492  0.92689312  1
  C  C5  1  0.77890271  0.46172492  0.57310688  1
  Ni  Ni6  1  0.71905132  0.14923264  0.23803608  1
  Ni  Ni7  1  0.28094868  0.64923264  0.26196392  1
  Ni  Ni8  1  0.28094868  0.85076736  0.76196392  1
  Ni  Ni9  1  0.71905132  0.35076736  0.73803608  1
  Ni  Ni10  1  0.53934435  0.13279355  0.90846453  1
  Ni  Ni11  1  0.46065565  0.63279355  0.59153547  1
  Ni  Ni12  1  0.46065565  0.86720645  0.09153547  1
  Ni  Ni13  1  0.53934435  0.36720645  0.40846453  1
  Ni  Ni14  1  0.88736595  0.84603788  0.94081658  1
  Ni  Ni15  1  0.11263405  0.34603788  0.55918342  1
  Ni  Ni16  1  0.11263405  0.15396212  0.05918342  1
  Ni  Ni17  1  0.88736595  0.65396212  0.44081658  1
  Ni  Ni18  1  0.14649716  0.93257597  0.38455506  1
  Ni  Ni19  1  0.85350284  0.43257597  0.11544494  1
  Ni  Ni20  1  0.85350284  0.06742403  0.61544494  1
  Ni  Ni21  1  0.14649716  0.56742403  0.88455506  1
  Cu  Cu22  1  0.65816325  0.47669878  0.16213516  1
  Cu  Cu23  1  0.34183675  0.97669878  0.33786484  1
  Cu  Cu24  1  0.34183675  0.52330122  0.83786484  1
  Cu  Cu25  1  0.65816325  0.02330122  0.66213516  1
  Cu  Cu26  1  0.72263622  0.58376830  0.98006605  1
  Cu  Cu27  1  0.27736378  0.08376830  0.51993395  1
  Cu  Cu28  1  0.27736378  0.41623170  0.01993395  1
  Cu  Cu29  1  0.72263622  0.91623170  0.48006605  1
  Cu  Cu30  1  0.28837444  0.61576992  0.99491635  1
  Cu  Cu31  1  0.71162556  0.11576992  0.50508365  1
  Cu  Cu32  1  0.71162556  0.38423008  0.00508365  1
  Cu  Cu33  1  0.28837444  0.88423008  0.49491635  1
  Cu  Cu34  1  0.12390525  0.07599436  0.44588542  1
  Cu  Cu35  1  0.87609475  0.57599436  0.05411458  1
  Cu  Cu36  1  0.87609475  0.92400564  0.55411458  1
  Cu  Cu37  1  0.12390525  0.42400564  0.94588542  1
