# generated using pymatgen
data_Cu(NiC2)2
_symmetry_space_group_name_H-M   'P 1'
_cell_length_a   6.71552067
_cell_length_b   6.71552067
_cell_length_c   6.01060901
_cell_angle_alpha   64.07738331
_cell_angle_beta   64.07738331
_cell_angle_gamma   28.95604356
_symmetry_Int_Tables_number   1
_chemical_formula_structural   Cu(NiC2)2
_chemical_formula_sum   'Cu1 Ni2 C4'
_cell_volume   117.09695704
_cell_formula_units_Z   1
loop_
 _symmetry_equiv_pos_site_id
 _symmetry_equiv_pos_as_xyz
  1  'x, y, z'
loop_
 _atom_site_type_symbol
 _atom_site_label
 _atom_site_symmetry_multiplicity
 _atom_site_fract_x
 _atom_site_fract_y
 _atom_site_fract_z
 _atom_site_occupancy
  Ni  Ni0  1  0.74472300  0.74472300  0.28059700  1
  Ni  Ni1  1  0.25527700  0.25527700  0.71940300  1
  Cu  Cu2  1  0.00000000  0.00000000  0.00000000  1
  C  C3  1  0.88369400  0.88369400  0.44458400  1
  C  C4  1  0.11630600  0.11630600  0.55541600  1
  C  C5  1  0.62844400  0.62844400  0.03452800  1
  C  C6  1  0.37155600  0.37155600  0.96547200  1
