# generated using pymatgen
data_Cu4NiC7
_symmetry_space_group_name_H-M   'P 1'
_cell_length_a   9.19807900
_cell_length_b   10.49429200
_cell_length_c   10.79799500
_cell_angle_alpha   90.00000000
_cell_angle_beta   90.00000000
_cell_angle_gamma   90.00000000
_symmetry_Int_Tables_number   1
_chemical_formula_structural   Cu4NiC7
_chemical_formula_sum   'Cu32 Ni8 C56'
_cell_volume   1042.30159285
_cell_formula_units_Z   8
loop_
 _symmetry_equiv_pos_site_id
 _symmetry_equiv_pos_as_xyz
  1  'x, y, z'
loop_
 _atom_site_type_symbol
 _atom_site_label
 _atom_site_symmetry_multiplicity
 _atom_site_fract_x
 _atom_site_fract_y
 _atom_site_fract_z
 _atom_site_occupancy
  C  C0  1  0.35263400  0.81491400  0.62569500  1
  C  C1  1  0.85263400  0.68508600  0.37430500  1
  C  C2  1  0.64736600  0.31491400  0.87430500  1
  C  C3  1  0.14736600  0.18508600  0.12569500  1
  C  C4  1  0.64736600  0.18508600  0.37430500  1
  C  C5  1  0.14736600  0.31491400  0.62569500  1
  C  C6  1  0.35263400  0.68508600  0.12569500  1
  C  C7  1  0.85263400  0.81491400  0.87430500  1
  Ni  Ni8  1  0.03492500  0.63089300  0.65451600  1
  Ni  Ni9  1  0.53492500  0.86910700  0.34548400  1
  Ni  Ni10  1  0.96507500  0.13089300  0.84548400  1
  Ni  Ni11  1  0.46507500  0.36910700  0.15451600  1
  Ni  Ni12  1  0.96507500  0.36910700  0.34548400  1
  Ni  Ni13  1  0.46507500  0.13089300  0.65451600  1
  Ni  Ni14  1  0.03492500  0.86910700  0.15451600  1
  Ni  Ni15  1  0.53492500  0.63089300  0.84548400  1
  Cu  Cu16  1  0.13273200  0.59157400  0.96461200  1
  Cu  Cu17  1  0.63273200  0.90842600  0.03538800  1
  Cu  Cu18  1  0.86726800  0.09157400  0.53538800  1
  Cu  Cu19  1  0.36726800  0.40842600  0.46461200  1
  Cu  Cu20  1  0.86726800  0.40842600  0.03538800  1
  Cu  Cu21  1  0.36726800  0.09157400  0.96461200  1
  Cu  Cu22  1  0.13273200  0.90842600  0.46461200  1
  Cu  Cu23  1  0.63273200  0.59157400  0.53538800  1
  Cu  Cu24  1  0.19961600  0.47979900  0.05301500  1
  Cu  Cu25  1  0.69961600  0.02020100  0.94698500  1
  Cu  Cu26  1  0.80038400  0.97979900  0.44698500  1
  Cu  Cu27  1  0.30038400  0.52020100  0.55301500  1
  Cu  Cu28  1  0.80038400  0.52020100  0.94698500  1
  Cu  Cu29  1  0.30038400  0.97979900  0.05301500  1
  Cu  Cu30  1  0.19961600  0.02020100  0.55301500  1
  Cu  Cu31  1  0.69961600  0.47979900  0.44698500  1
  Cu  Cu32  1  0.31798200  0.67558900  0.36837500  1
  Cu  Cu33  1  0.81798200  0.82441100  0.63162500  1
  Cu  Cu34  1  0.68201800  0.17558900  0.13162500  1
  Cu  Cu35  1  0.18201800  0.32441100  0.86837500  1
  Cu  Cu36  1  0.68201800  0.32441100  0.63162500  1
  Cu  Cu37  1  0.18201800  0.17558900  0.36837500  1
  Cu  Cu38  1  0.31798200  0.82441100  0.86837500  1
  Cu  Cu39  1  0.81798200  0.67558900  0.13162500  1
  Cu  Cu40  1  0.17362000  0.59172600  0.32281300  1
  Cu  Cu41  1  0.67362000  0.90827400  0.67718700  1
  Cu  Cu42  1  0.82638000  0.09172600  0.17718700  1
  Cu  Cu43  1  0.32638000  0.40827400  0.82281300  1
  Cu  Cu44  1  0.82638000  0.40827400  0.67718700  1
  Cu  Cu45  1  0.32638000  0.09172600  0.32281300  1
  Cu  Cu46  1  0.17362000  0.90827400  0.82281300  1
  Cu  Cu47  1  0.67362000  0.59172600  0.17718700  1
  C  C48  1  0.01864400  0.68630000  0.80360500  1
  C  C49  1  0.51864400  0.81370000  0.19639500  1
  C  C50  1  0.98135600  0.18630000  0.69639500  1
  C  C51  1  0.48135600  0.31370000  0.30360500  1
  C  C52  1  0.98135600  0.31370000  0.19639500  1
  C  C53  1  0.48135600  0.18630000  0.80360500  1
  C  C54  1  0.01864400  0.81370000  0.30360500  1
  C  C55  1  0.51864400  0.68630000  0.69639500  1
  C  C56  1  0.91709200  0.71882400  0.56304400  1
  C  C57  1  0.41709200  0.78117600  0.43695600  1
  C  C58  1  0.08290800  0.21882400  0.93695600  1
  C  C59  1  0.58290800  0.28117600  0.06304400  1
  C  C60  1  0.08290800  0.28117600  0.43695600  1
  C  C61  1  0.58290800  0.21882400  0.56304400  1
  C  C62  1  0.91709200  0.78117600  0.06304400  1
  C  C63  1  0.41709200  0.71882400  0.93695600  1
  C  C64  1  0.21219200  0.64946200  0.60414900  1
  C  C65  1  0.71219200  0.85053800  0.39585100  1
  C  C66  1  0.78780800  0.14946200  0.89585100  1
  C  C67  1  0.28780800  0.35053800  0.10414900  1
  C  C68  1  0.78780800  0.35053800  0.39585100  1
  C  C69  1  0.28780800  0.14946200  0.60414900  1
  C  C70  1  0.21219200  0.85053800  0.10414900  1
  C  C71  1  0.71219200  0.64946200  0.89585100  1
  C  C72  1  0.99150900  0.47135100  0.64113700  1
  C  C73  1  0.49150900  0.02864900  0.35886300  1
  C  C74  1  0.00849100  0.97135100  0.85886300  1
  C  C75  1  0.50849100  0.52864900  0.14113700  1
  C  C76  1  0.00849100  0.52864900  0.35886300  1
  C  C77  1  0.50849100  0.97135100  0.64113700  1
  C  C78  1  0.99150900  0.02864900  0.14113700  1
  C  C79  1  0.49150900  0.47135100  0.85886300  1
  C  C80  1  0.16588200  0.57079900  0.04875200  1
  C  C81  1  0.66588200  0.92920100  0.95124800  1
  C  C82  1  0.83411800  0.07079900  0.45124800  1
  C  C83  1  0.33411800  0.42920100  0.54875200  1
  C  C84  1  0.83411800  0.42920100  0.95124800  1
  C  C85  1  0.33411800  0.07079900  0.04875200  1
  C  C86  1  0.16588200  0.92920100  0.54875200  1
  C  C87  1  0.66588200  0.57079900  0.45124800  1
  C  C88  1  0.27778600  0.61307800  0.30574400  1
  C  C89  1  0.77778600  0.88692200  0.69425600  1
  C  C90  1  0.72221400  0.11307800  0.19425600  1
  C  C91  1  0.22221400  0.38692200  0.80574400  1
  C  C92  1  0.72221400  0.38692200  0.69425600  1
  C  C93  1  0.22221400  0.11307800  0.30574400  1
  C  C94  1  0.27778600  0.88692200  0.80574400  1
  C  C95  1  0.77778600  0.61307800  0.19425600  1
