# generated using pymatgen
data_CuNi4C9
_symmetry_space_group_name_H-M   'P 1'
_cell_length_a   8.56037456
_cell_length_b   8.56037456
_cell_length_c   8.69944300
_cell_angle_alpha   90.00000000
_cell_angle_beta   90.00000000
_cell_angle_gamma   120.00000435
_symmetry_Int_Tables_number   1
_chemical_formula_structural   CuNi4C9
_chemical_formula_sum   'Cu2 Ni8 C18'
_cell_volume   552.08709447
_cell_formula_units_Z   2
loop_
 _symmetry_equiv_pos_site_id
 _symmetry_equiv_pos_as_xyz
  1  'x, y, z'
loop_
 _atom_site_type_symbol
 _atom_site_label
 _atom_site_symmetry_multiplicity
 _atom_site_fract_x
 _atom_site_fract_y
 _atom_site_fract_z
 _atom_site_occupancy
  C  C0  1  0.19550100  0.80449900  0.45302100  1
  C  C1  1  0.19550100  0.39100200  0.45302100  1
  C  C2  1  0.60899800  0.80449900  0.45302100  1
  C  C3  1  0.80449900  0.19550100  0.54697900  1
  C  C4  1  0.80449900  0.60899800  0.54697900  1
  C  C5  1  0.39100200  0.19550100  0.54697900  1
  C  C6  1  0.80449900  0.19550100  0.95302100  1
  C  C7  1  0.80449900  0.60899800  0.95302100  1
  C  C8  1  0.39100200  0.19550100  0.95302100  1
  C  C9  1  0.19550100  0.80449900  0.04697900  1
  C  C10  1  0.19550100  0.39100200  0.04697900  1
  C  C11  1  0.60899800  0.80449900  0.04697900  1
  C  C12  1  0.53943400  0.46056600  0.25000000  1
  C  C13  1  0.53943400  0.07886700  0.25000000  1
  C  C14  1  0.92113300  0.46056600  0.25000000  1
  C  C15  1  0.46056600  0.53943400  0.75000000  1
  C  C16  1  0.46056600  0.92113300  0.75000000  1
  C  C17  1  0.07886700  0.53943400  0.75000000  1
  Ni  Ni18  1  0.89090400  0.10909600  0.25000000  1
  Ni  Ni19  1  0.89090400  0.78180700  0.25000000  1
  Ni  Ni20  1  0.21819300  0.10909600  0.25000000  1
  Ni  Ni21  1  0.10909600  0.89090400  0.75000000  1
  Ni  Ni22  1  0.10909600  0.21819300  0.75000000  1
  Ni  Ni23  1  0.78180700  0.89090400  0.75000000  1
  Ni  Ni24  1  0.00000000  0.00000000  0.50000000  1
  Ni  Ni25  1  0.00000000  0.00000000  0.00000000  1
  Cu  Cu26  1  0.33333300  0.66666700  0.25000000  1
  Cu  Cu27  1  0.66666700  0.33333300  0.75000000  1
