# generated using pymatgen
data_Cu3NiC
_symmetry_space_group_name_H-M   'P 1'
_cell_length_a   6.65356498
_cell_length_b   6.65356498
_cell_length_c   15.23170800
_cell_angle_alpha   90.00000000
_cell_angle_beta   90.00000000
_cell_angle_gamma   119.99998982
_symmetry_Int_Tables_number   1
_chemical_formula_structural   Cu3NiC
_chemical_formula_sum   'Cu12 Ni4 C4'
_cell_volume   583.96670515
_cell_formula_units_Z   4
loop_
 _symmetry_equiv_pos_site_id
 _symmetry_equiv_pos_as_xyz
  1  'x, y, z'
loop_
 _atom_site_type_symbol
 _atom_site_label
 _atom_site_symmetry_multiplicity
 _atom_site_fract_x
 _atom_site_fract_y
 _atom_site_fract_z
 _atom_site_occupancy
  C  C0  1  0.00000000  0.00000000  0.75000000  1
  C  C1  1  0.00000000  0.00000000  0.25000000  1
  C  C2  1  0.33333300  0.66666700  0.75000000  1
  C  C3  1  0.66666700  0.33333300  0.25000000  1
  Ni  Ni4  1  0.66666700  0.33333300  0.67532800  1
  Ni  Ni5  1  0.66666700  0.33333300  0.82467200  1
  Ni  Ni6  1  0.33333300  0.66666700  0.32467200  1
  Ni  Ni7  1  0.33333300  0.66666700  0.17532800  1
  Cu  Cu8  1  0.02213100  0.34378500  0.13156500  1
  Cu  Cu9  1  0.65621500  0.67834700  0.13156500  1
  Cu  Cu10  1  0.32165300  0.97786900  0.13156500  1
  Cu  Cu11  1  0.65621500  0.97786900  0.36843500  1
  Cu  Cu12  1  0.32165300  0.34378500  0.36843500  1
  Cu  Cu13  1  0.02213100  0.67834700  0.36843500  1
  Cu  Cu14  1  0.97786900  0.65621500  0.86843500  1
  Cu  Cu15  1  0.34378500  0.32165300  0.86843500  1
  Cu  Cu16  1  0.67834700  0.02213100  0.86843500  1
  Cu  Cu17  1  0.34378500  0.02213100  0.63156500  1
  Cu  Cu18  1  0.67834700  0.65621500  0.63156500  1
  Cu  Cu19  1  0.97786900  0.32165300  0.63156500  1
