# generated using pymatgen
data_CuNiC3
_symmetry_space_group_name_H-M   'P 1'
_cell_length_a   5.12954340
_cell_length_b   15.17136500
_cell_length_c   6.41986247
_cell_angle_alpha   90.00000000
_cell_angle_beta   87.41962911
_cell_angle_gamma   90.00000000
_symmetry_Int_Tables_number   1
_chemical_formula_structural   CuNiC3
_chemical_formula_sum   'Cu8 Ni8 C24'
_cell_volume   499.10108596
_cell_formula_units_Z   8
loop_
 _symmetry_equiv_pos_site_id
 _symmetry_equiv_pos_as_xyz
  1  'x, y, z'
loop_
 _atom_site_type_symbol
 _atom_site_label
 _atom_site_symmetry_multiplicity
 _atom_site_fract_x
 _atom_site_fract_y
 _atom_site_fract_z
 _atom_site_occupancy
  Ni  Ni0  1  0.35864700  0.33533600  0.89357500  1
  Ni  Ni1  1  0.58814200  0.88155200  0.33342200  1
  Ni  Ni2  1  0.14135300  0.83533600  0.10642500  1
  Ni  Ni3  1  0.64135300  0.66466400  0.10642500  1
  Ni  Ni4  1  0.41185800  0.11844800  0.66657800  1
  Ni  Ni5  1  0.08814200  0.61844800  0.33342200  1
  Ni  Ni6  1  0.91185800  0.38155200  0.66657800  1
  Ni  Ni7  1  0.85864700  0.16466400  0.89357500  1
  Cu  Cu8  1  0.29592200  0.40658000  0.37361100  1
  Cu  Cu9  1  0.66409400  0.86184600  0.89680000  1
  Cu  Cu10  1  0.33590600  0.13815400  0.10320000  1
  Cu  Cu11  1  0.20407800  0.90658000  0.62638900  1
  Cu  Cu12  1  0.70407800  0.59342000  0.62638900  1
  Cu  Cu13  1  0.79592200  0.09342000  0.37361100  1
  Cu  Cu14  1  0.16409400  0.63815400  0.89680000  1
  Cu  Cu15  1  0.83590600  0.36184600  0.10320000  1
  C  C16  1  0.25537500  0.50959700  0.38161700  1
  C  C17  1  0.47194700  0.61658100  0.81136600  1
  C  C18  1  0.81624100  0.14497200  0.59466000  1
  C  C19  1  0.52805300  0.38341900  0.18863400  1
  C  C20  1  0.97194700  0.88341900  0.81136600  1
  C  C21  1  0.00546200  0.34890100  0.31604100  1
  C  C22  1  0.45508500  0.91274400  0.04935500  1
  C  C23  1  0.02805300  0.11658100  0.18863400  1
  C  C24  1  0.99453800  0.65109900  0.68395900  1
  C  C25  1  0.26611400  0.70941100  0.07998500  1
  C  C26  1  0.75537500  0.99040300  0.38161700  1
  C  C27  1  0.49453800  0.84890100  0.68395900  1
  C  C28  1  0.74462500  0.49040300  0.61838300  1
  C  C29  1  0.95508500  0.58725600  0.04935500  1
  C  C30  1  0.68375900  0.64497200  0.40534000  1
  C  C31  1  0.50546200  0.15109900  0.31604100  1
  C  C32  1  0.31624100  0.35502800  0.59466000  1
  C  C33  1  0.23388600  0.20941100  0.92001500  1
  C  C34  1  0.54491500  0.08725600  0.95064500  1
  C  C35  1  0.24462500  0.00959700  0.61838300  1
  C  C36  1  0.73388600  0.29058900  0.92001500  1
  C  C37  1  0.18375900  0.85502800  0.40534000  1
  C  C38  1  0.04491500  0.41274400  0.95064500  1
  C  C39  1  0.76611400  0.79058900  0.07998500  1
