# generated using pymatgen
data_Cu4Ni4C3
_symmetry_space_group_name_H-M   'P 1'
_cell_length_a   6.41519000
_cell_length_b   6.36016200
_cell_length_c   18.56795386
_cell_angle_alpha   84.55618656
_cell_angle_beta   90.00000000
_cell_angle_gamma   90.00000000
_symmetry_Int_Tables_number   1
_chemical_formula_structural   Cu4Ni4C3
_chemical_formula_sum   'Cu16 Ni16 C12'
_cell_volume   754.18610130
_cell_formula_units_Z   4
loop_
 _symmetry_equiv_pos_site_id
 _symmetry_equiv_pos_as_xyz
  1  'x, y, z'
loop_
 _atom_site_type_symbol
 _atom_site_label
 _atom_site_symmetry_multiplicity
 _atom_site_fract_x
 _atom_site_fract_y
 _atom_site_fract_z
 _atom_site_occupancy
  C  C0  1  0.64852800  0.68951000  0.89965500  1
  C  C1  1  0.14852800  0.31049000  0.60034500  1
  C  C2  1  0.35147200  0.31049000  0.10034500  1
  C  C3  1  0.85147200  0.68951000  0.39965500  1
  C  C4  1  0.65097700  0.25194200  0.75360700  1
  C  C5  1  0.15097700  0.74805800  0.74639300  1
  C  C6  1  0.34902300  0.74805800  0.24639300  1
  C  C7  1  0.84902300  0.25194200  0.25360700  1
  C  C8  1  0.66716700  0.78377900  0.63036400  1
  C  C9  1  0.16716700  0.21622100  0.86963600  1
  C  C10  1  0.33283300  0.21622100  0.36963600  1
  C  C11  1  0.83283300  0.78377900  0.13036400  1
  Ni  Ni12  1  0.40111000  0.95179800  0.62599000  1
  Ni  Ni13  1  0.90111000  0.04820200  0.87401000  1
  Ni  Ni14  1  0.59889000  0.04820200  0.37401000  1
  Ni  Ni15  1  0.09889000  0.95179800  0.12599000  1
  Ni  Ni16  1  0.57477600  0.08683500  0.61780900  1
  Ni  Ni17  1  0.07477600  0.91316500  0.88219100  1
  Ni  Ni18  1  0.42522400  0.91316500  0.38219100  1
  Ni  Ni19  1  0.92522400  0.08683500  0.11780900  1
  Ni  Ni20  1  0.68094900  0.73928300  0.54115600  1
  Ni  Ni21  1  0.18094900  0.26071700  0.95884400  1
  Ni  Ni22  1  0.31905100  0.26071700  0.45884400  1
  Ni  Ni23  1  0.81905100  0.73928300  0.04115600  1
  Ni  Ni24  1  0.65954700  0.30519000  0.98820600  1
  Ni  Ni25  1  0.15954700  0.69481000  0.51179400  1
  Ni  Ni26  1  0.34045300  0.69481000  0.01179400  1
  Ni  Ni27  1  0.84045300  0.30519000  0.48820600  1
  Cu  Cu28  1  0.66753900  0.81617900  0.74131900  1
  Cu  Cu29  1  0.16753900  0.18382100  0.75868100  1
  Cu  Cu30  1  0.33246100  0.18382100  0.25868100  1
  Cu  Cu31  1  0.83246100  0.81617900  0.24131900  1
  Cu  Cu32  1  0.85717600  0.54296800  0.66270000  1
  Cu  Cu33  1  0.35717600  0.45703200  0.83730000  1
  Cu  Cu34  1  0.14282400  0.45703200  0.33730000  1
  Cu  Cu35  1  0.64282400  0.54296800  0.16270000  1
  Cu  Cu36  1  0.45643500  0.55836600  0.66009600  1
  Cu  Cu37  1  0.95643500  0.44163400  0.83990400  1
  Cu  Cu38  1  0.54356500  0.44163400  0.33990400  1
  Cu  Cu39  1  0.04356500  0.55836600  0.16009600  1
  Cu  Cu40  1  0.93782200  0.93383200  0.63400800  1
  Cu  Cu41  1  0.43782200  0.06616800  0.86599200  1
  Cu  Cu42  1  0.06217800  0.06616800  0.36599200  1
  Cu  Cu43  1  0.56217800  0.93383200  0.13400800  1
