# generated using pymatgen
data_CuNi27
_symmetry_space_group_name_H-M   'P 1'
_cell_length_a   14.16732842
_cell_length_b   14.16732842
_cell_length_c   14.16732842
_cell_angle_alpha   60.00000000
_cell_angle_beta   60.00000000
_cell_angle_gamma   60.00000000
_symmetry_Int_Tables_number   1
_chemical_formula_structural   CuNi27
_chemical_formula_sum   'Cu2 Ni54'
_cell_volume   2010.70745162
_cell_formula_units_Z   2
loop_
 _symmetry_equiv_pos_site_id
 _symmetry_equiv_pos_as_xyz
  1  'x, y, z'
loop_
 _atom_site_type_symbol
 _atom_site_label
 _atom_site_symmetry_multiplicity
 _atom_site_fract_x
 _atom_site_fract_y
 _atom_site_fract_z
 _atom_site_occupancy
  Ni  Ni0  1  0.12500000  0.12500000  0.12500000  1
  Ni  Ni1  1  0.12500000  0.12500000  0.62500000  1
  Ni  Ni2  1  0.12500000  0.62500000  0.12500000  1
  Ni  Ni3  1  0.62500000  0.12500000  0.12500000  1
  Ni  Ni4  1  0.31453700  0.31453700  0.77813700  1
  Ni  Ni5  1  0.31453700  0.31453700  0.59278900  1
  Ni  Ni6  1  0.77813700  0.59278900  0.31453700  1
  Ni  Ni7  1  0.77813700  0.31453700  0.31453700  1
  Ni  Ni8  1  0.93546300  0.93546300  0.65721100  1
  Ni  Ni9  1  0.93546300  0.93546300  0.47186300  1
  Ni  Ni10  1  0.59278900  0.77813700  0.31453700  1
  Ni  Ni11  1  0.59278900  0.31453700  0.31453700  1
  Ni  Ni12  1  0.31453700  0.77813700  0.59278900  1
  Ni  Ni13  1  0.47186300  0.65721100  0.93546300  1
  Ni  Ni14  1  0.31453700  0.59278900  0.77813700  1
  Ni  Ni15  1  0.65721100  0.47186300  0.93546300  1
  Ni  Ni16  1  0.31453700  0.77813700  0.31453700  1
  Ni  Ni17  1  0.47186300  0.93546300  0.65721100  1
  Ni  Ni18  1  0.47186300  0.93546300  0.93546300  1
  Ni  Ni19  1  0.59278900  0.31453700  0.77813700  1
  Ni  Ni20  1  0.93546300  0.47186300  0.93546300  1
  Ni  Ni21  1  0.93546300  0.47186300  0.65721100  1
  Ni  Ni22  1  0.77813700  0.31453700  0.59278900  1
  Ni  Ni23  1  0.93546300  0.65721100  0.93546300  1
  Ni  Ni24  1  0.93546300  0.65721100  0.47186300  1
  Ni  Ni25  1  0.31453700  0.59278900  0.31453700  1
  Ni  Ni26  1  0.65721100  0.93546300  0.47186300  1
  Ni  Ni27  1  0.65721100  0.93546300  0.93546300  1
  Ni  Ni28  1  0.00000000  0.00000000  0.00000000  1
  Ni  Ni29  1  0.25000000  0.25000000  0.25000000  1
  Ni  Ni30  1  0.75538100  0.52212500  0.52212500  1
  Ni  Ni31  1  0.52212500  0.75538100  0.20036900  1
  Ni  Ni32  1  0.52212500  0.20036900  0.75538100  1
  Ni  Ni33  1  0.52212500  0.75538100  0.52212500  1
  Ni  Ni34  1  0.49461900  0.72787500  0.04963100  1
  Ni  Ni35  1  0.49461900  0.72787500  0.72787500  1
  Ni  Ni36  1  0.20036900  0.52212500  0.52212500  1
  Ni  Ni37  1  0.20036900  0.52212500  0.75538100  1
  Ni  Ni38  1  0.72787500  0.49461900  0.72787500  1
  Ni  Ni39  1  0.72787500  0.49461900  0.04963100  1
  Ni  Ni40  1  0.75538100  0.52212500  0.20036900  1
  Ni  Ni41  1  0.72787500  0.04963100  0.72787500  1
  Ni  Ni42  1  0.72787500  0.04963100  0.49461900  1
  Ni  Ni43  1  0.52212500  0.20036900  0.52212500  1
  Ni  Ni44  1  0.04963100  0.72787500  0.49461900  1
  Ni  Ni45  1  0.04963100  0.72787500  0.72787500  1
  Ni  Ni46  1  0.52212500  0.52212500  0.75538100  1
  Ni  Ni47  1  0.20036900  0.75538100  0.52212500  1
  Ni  Ni48  1  0.52212500  0.52212500  0.20036900  1
  Ni  Ni49  1  0.75538100  0.20036900  0.52212500  1
  Ni  Ni50  1  0.04963100  0.49461900  0.72787500  1
  Ni  Ni51  1  0.72787500  0.72787500  0.49461900  1
  Ni  Ni52  1  0.49461900  0.04963100  0.72787500  1
  Ni  Ni53  1  0.72787500  0.72787500  0.04963100  1
  Cu  Cu54  1  0.50000000  0.50000000  0.50000000  1
  Cu  Cu55  1  0.75000000  0.75000000  0.75000000  1
