# generated using pymatgen
data_CuNiC17
_symmetry_space_group_name_H-M   'P 1'
_cell_length_a   8.63782400
_cell_length_b   8.73027700
_cell_length_c   12.11515100
_cell_angle_alpha   90.00000000
_cell_angle_beta   90.00000000
_cell_angle_gamma   90.00000000
_symmetry_Int_Tables_number   1
_chemical_formula_structural   CuNiC17
_chemical_formula_sum   'Cu4 Ni4 C68'
_cell_volume   913.61075993
_cell_formula_units_Z   4
loop_
 _symmetry_equiv_pos_site_id
 _symmetry_equiv_pos_as_xyz
  1  'x, y, z'
loop_
 _atom_site_type_symbol
 _atom_site_label
 _atom_site_symmetry_multiplicity
 _atom_site_fract_x
 _atom_site_fract_y
 _atom_site_fract_z
 _atom_site_occupancy
  C  C0  1  0.46550300  0.78397600  0.68201000  1
  C  C1  1  0.53327100  0.28075100  0.81956600  1
  C  C2  1  0.53449700  0.21602400  0.18201000  1
  C  C3  1  0.46672900  0.71924900  0.31956600  1
  C  C4  1  0.03327100  0.21924900  0.31956600  1
  C  C5  1  0.96550300  0.71602400  0.18201000  1
  C  C6  1  0.96672900  0.78075100  0.81956600  1
  C  C7  1  0.03449700  0.28397600  0.68201000  1
  Ni  Ni8  1  0.50248800  0.46445600  0.61133900  1
  Ni  Ni9  1  0.49751200  0.53554400  0.11133900  1
  Ni  Ni10  1  0.00248800  0.03554400  0.11133900  1
  Ni  Ni11  1  0.99751200  0.96445600  0.61133900  1
  Cu  Cu12  1  0.49881200  0.96513400  0.88657100  1
  Cu  Cu13  1  0.50118800  0.03486600  0.38657100  1
  Cu  Cu14  1  0.99881200  0.53486600  0.38657100  1
  Cu  Cu15  1  0.00118800  0.46513400  0.88657100  1
  C  C16  1  0.71313900  0.74949500  0.49845800  1
  C  C17  1  0.28686100  0.25050500  0.99845800  1
  C  C18  1  0.78686100  0.24949500  0.49845800  1
  C  C19  1  0.21313900  0.75050500  0.99845800  1
  C  C20  1  0.64622900  0.60964600  0.85273600  1
  C  C21  1  0.35513000  0.10764000  0.64619800  1
  C  C22  1  0.35377100  0.39035400  0.35273600  1
  C  C23  1  0.64487000  0.89236000  0.14619800  1
  C  C24  1  0.85513000  0.39236000  0.14619800  1
  C  C25  1  0.14622900  0.89035400  0.35273600  1
  C  C26  1  0.14487000  0.60764000  0.64619800  1
  C  C27  1  0.85377100  0.10964600  0.85273600  1
  C  C28  1  0.59043200  0.56245800  0.97089900  1
  C  C29  1  0.40496700  0.06217100  0.53090800  1
  C  C30  1  0.40956800  0.43754200  0.47089900  1
  C  C31  1  0.59503300  0.93782900  0.03090800  1
  C  C32  1  0.90496700  0.43782900  0.03090800  1
  C  C33  1  0.09043200  0.93754200  0.47089900  1
  C  C34  1  0.09503300  0.56217100  0.53090800  1
  C  C35  1  0.90956800  0.06245800  0.97089900  1
  C  C36  1  0.60580300  0.66067900  0.58120200  1
  C  C37  1  0.39673400  0.16371500  0.92088000  1
  C  C38  1  0.39419700  0.33932100  0.08120200  1
  C  C39  1  0.60326600  0.83628500  0.42088000  1
  C  C40  1  0.89673400  0.33628500  0.42088000  1
  C  C41  1  0.10580300  0.83932100  0.08120200  1
  C  C42  1  0.10326600  0.66371500  0.92088000  1
  C  C43  1  0.89419700  0.16067900  0.58120200  1
  C  C44  1  0.58894200  0.77061300  0.82228700  1
  C  C45  1  0.41013000  0.27410200  0.67587600  1
  C  C46  1  0.41105800  0.22938700  0.32228700  1
  C  C47  1  0.58987000  0.72589800  0.17587600  1
  C  C48  1  0.91013000  0.22589800  0.17587600  1
  C  C49  1  0.08894200  0.72938700  0.32228700  1
  C  C50  1  0.08987000  0.77410200  0.67587600  1
  C  C51  1  0.91105800  0.27061300  0.82228700  1
  C  C52  1  0.30914000  0.85875500  0.92901000  1
  C  C53  1  0.68696600  0.35850700  0.57067000  1
  C  C54  1  0.69086000  0.14124500  0.42901000  1
  C  C55  1  0.31303400  0.64149300  0.07067000  1
  C  C56  1  0.18696600  0.14149300  0.07067000  1
  C  C57  1  0.80914000  0.64124500  0.42901000  1
  C  C58  1  0.81303400  0.85850700  0.57067000  1
  C  C59  1  0.19086000  0.35875500  0.92901000  1
  C  C60  1  0.42369900  0.99115000  0.72876300  1
  C  C61  1  0.57547200  0.48972600  0.77211900  1
  C  C62  1  0.57630100  0.00885000  0.22876300  1
  C  C63  1  0.42452800  0.51027400  0.27211900  1
  C  C64  1  0.07547200  0.01027400  0.27211900  1
  C  C65  1  0.92369900  0.50885000  0.22876300  1
  C  C66  1  0.92452800  0.98972600  0.77211900  1
  C  C67  1  0.07630100  0.49115000  0.72876300  1
  C  C68  1  0.32513500  0.60574600  0.65536800  1
  C  C69  1  0.67620000  0.10760700  0.84514100  1
  C  C70  1  0.67486500  0.39425400  0.15536800  1
  C  C71  1  0.32380000  0.89239300  0.34514100  1
  C  C72  1  0.17620000  0.39239300  0.34514100  1
  C  C73  1  0.82513500  0.89425400  0.15536800  1
  C  C74  1  0.82380000  0.60760700  0.84514100  1
  C  C75  1  0.17486500  0.10574600  0.65536800  1
