# generated using pymatgen
data_Cu3NiC18
_symmetry_space_group_name_H-M   'P 1'
_cell_length_a   8.26691500
_cell_length_b   8.13510600
_cell_length_c   10.04028329
_cell_angle_alpha   76.23165587
_cell_angle_beta   90.00000000
_cell_angle_gamma   90.00000000
_symmetry_Int_Tables_number   1
_chemical_formula_structural   Cu3NiC18
_chemical_formula_sum   'Cu6 Ni2 C36'
_cell_volume   655.82928596
_cell_formula_units_Z   2
loop_
 _symmetry_equiv_pos_site_id
 _symmetry_equiv_pos_as_xyz
  1  'x, y, z'
loop_
 _atom_site_type_symbol
 _atom_site_label
 _atom_site_symmetry_multiplicity
 _atom_site_fract_x
 _atom_site_fract_y
 _atom_site_fract_z
 _atom_site_occupancy
  Ni  Ni0  1  0.00000000  0.50000000  0.00000000  1
  Ni  Ni1  1  0.50000000  0.50000000  0.50000000  1
  Cu  Cu2  1  0.13737000  0.80305600  0.51716400  1
  Cu  Cu3  1  0.63737000  0.19694400  0.98283600  1
  Cu  Cu4  1  0.86263000  0.19694400  0.48283600  1
  Cu  Cu5  1  0.36263000  0.80305600  0.01716400  1
  Cu  Cu6  1  0.00000000  0.00000000  0.00000000  1
  Cu  Cu7  1  0.50000000  0.00000000  0.50000000  1
  C  C8  1  0.96185900  0.43930200  0.70590900  1
  C  C9  1  0.46185900  0.56069800  0.79409100  1
  C  C10  1  0.03814100  0.56069800  0.29409100  1
  C  C11  1  0.53814100  0.43930200  0.20590900  1
  C  C12  1  0.20308600  0.18072300  0.67407100  1
  C  C13  1  0.70308600  0.81927700  0.82592900  1
  C  C14  1  0.79691400  0.81927700  0.32592900  1
  C  C15  1  0.29691400  0.18072300  0.17407100  1
  C  C16  1  0.36571800  0.21759100  0.59981100  1
  C  C17  1  0.86571800  0.78240900  0.90018900  1
  C  C18  1  0.63428200  0.78240900  0.40018900  1
  C  C19  1  0.13428200  0.21759100  0.09981100  1
  C  C20  1  0.44299400  0.60959200  0.63536200  1
  C  C21  1  0.94299400  0.39040800  0.86463800  1
  C  C22  1  0.55700600  0.39040800  0.36463800  1
  C  C23  1  0.05700600  0.60959200  0.13536200  1
  C  C24  1  0.83082500  0.34845200  0.64253600  1
  C  C25  1  0.33082500  0.65154800  0.85746400  1
  C  C26  1  0.16917500  0.65154800  0.35746400  1
  C  C27  1  0.66917500  0.34845200  0.14253600  1
  C  C28  1  0.13588900  0.37071100  0.67105300  1
  C  C29  1  0.63588900  0.62928900  0.82894700  1
  C  C30  1  0.86411100  0.62928900  0.32894700  1
  C  C31  1  0.36411100  0.37071100  0.17105300  1
  C  C32  1  0.53009600  0.62965000  0.14862800  1
  C  C33  1  0.03009600  0.37035000  0.35137200  1
  C  C34  1  0.46990400  0.37035000  0.85137200  1
  C  C35  1  0.96990400  0.62965000  0.64862800  1
  C  C36  1  0.79256700  0.92183500  0.17853300  1
  C  C37  1  0.29256700  0.07816500  0.32146700  1
  C  C38  1  0.20743300  0.07816500  0.82146700  1
  C  C39  1  0.70743300  0.92183500  0.67853300  1
  C  C40  1  0.42203900  0.09964300  0.09162800  1
  C  C41  1  0.92203900  0.90035700  0.40837200  1
  C  C42  1  0.57796100  0.90035700  0.90837200  1
  C  C43  1  0.07796100  0.09964300  0.59162800  1
