# generated using pymatgen
data_Cu2Ni2C9
_symmetry_space_group_name_H-M   'P 1'
_cell_length_a   5.33276584
_cell_length_b   5.33276584
_cell_length_c   12.74836300
_cell_angle_alpha   90.00000000
_cell_angle_beta   90.00000000
_cell_angle_gamma   107.67325752
_symmetry_Int_Tables_number   1
_chemical_formula_structural   Cu2Ni2C9
_chemical_formula_sum   'Cu4 Ni4 C18'
_cell_volume   345.43210188
_cell_formula_units_Z   2
loop_
 _symmetry_equiv_pos_site_id
 _symmetry_equiv_pos_as_xyz
  1  'x, y, z'
loop_
 _atom_site_type_symbol
 _atom_site_label
 _atom_site_symmetry_multiplicity
 _atom_site_fract_x
 _atom_site_fract_y
 _atom_site_fract_z
 _atom_site_occupancy
  C  C0  1  0.86219100  0.65280800  0.25000000  1
  C  C1  1  0.34719200  0.13780900  0.75000000  1
  Ni  Ni2  1  0.99971400  0.00028600  0.50000000  1
  Ni  Ni3  1  0.99971400  0.00028600  0.00000000  1
  Ni  Ni4  1  0.49209600  0.50790400  0.50000000  1
  Ni  Ni5  1  0.49209600  0.50790400  0.00000000  1
  Cu  Cu6  1  0.49358800  0.02550000  0.36723200  1
  Cu  Cu7  1  0.97450000  0.50641200  0.63276800  1
  Cu  Cu8  1  0.49358800  0.02550000  0.13276800  1
  Cu  Cu9  1  0.97450000  0.50641200  0.86723200  1
  C  C10  1  0.62968000  0.87743400  0.45454400  1
  C  C11  1  0.12256600  0.37032000  0.54545600  1
  C  C12  1  0.62968000  0.87743400  0.04545600  1
  C  C13  1  0.12256600  0.37032000  0.95454400  1
  C  C14  1  0.60947500  0.34469400  0.37634200  1
  C  C15  1  0.65530600  0.39052500  0.62365800  1
  C  C16  1  0.60947500  0.34469400  0.12365800  1
  C  C17  1  0.65530600  0.39052500  0.87634200  1
  C  C18  1  0.17328400  0.90896600  0.37523600  1
  C  C19  1  0.09103400  0.82671600  0.62476400  1
  C  C20  1  0.17328400  0.90896600  0.12476400  1
  C  C21  1  0.09103400  0.82671600  0.87523600  1
  C  C22  1  0.58439200  0.93531000  0.25000000  1
  C  C23  1  0.06469000  0.41560800  0.75000000  1
  C  C24  1  0.12147100  0.34222200  0.25000000  1
  C  C25  1  0.65777800  0.87852900  0.75000000  1
