# generated using pymatgen
data_CuNiC6
_symmetry_space_group_name_H-M   'P 1'
_cell_length_a   3.61945700
_cell_length_b   6.79750400
_cell_length_c   14.82989300
_cell_angle_alpha   90.00000000
_cell_angle_beta   90.00000000
_cell_angle_gamma   90.00000000
_symmetry_Int_Tables_number   1
_chemical_formula_structural   CuNiC6
_chemical_formula_sum   'Cu4 Ni4 C24'
_cell_volume   364.86391250
_cell_formula_units_Z   4
loop_
 _symmetry_equiv_pos_site_id
 _symmetry_equiv_pos_as_xyz
  1  'x, y, z'
loop_
 _atom_site_type_symbol
 _atom_site_label
 _atom_site_symmetry_multiplicity
 _atom_site_fract_x
 _atom_site_fract_y
 _atom_site_fract_z
 _atom_site_occupancy
  Ni  Ni0  1  0.92432100  0.83769500  0.90420500  1
  Ni  Ni1  1  0.57567900  0.16230500  0.40420500  1
  Ni  Ni2  1  0.42432100  0.66230500  0.09579500  1
  Ni  Ni3  1  0.07567900  0.33769500  0.59579500  1
  Cu  Cu4  1  0.40849800  0.14583500  0.07509600  1
  Cu  Cu5  1  0.09150200  0.85416500  0.57509600  1
  Cu  Cu6  1  0.90849800  0.35416500  0.92490400  1
  Cu  Cu7  1  0.59150200  0.64583500  0.42490400  1
  C  C8  1  0.50084900  0.09917800  0.75412800  1
  C  C9  1  0.99915100  0.90082200  0.25412800  1
  C  C10  1  0.00084900  0.40082200  0.24587200  1
  C  C11  1  0.49915100  0.59917800  0.74587200  1
  C  C12  1  0.42992200  0.84481300  0.80912800  1
  C  C13  1  0.07007800  0.15518700  0.30912800  1
  C  C14  1  0.92992200  0.65518700  0.19087200  1
  C  C15  1  0.57007800  0.34481300  0.69087200  1
  C  C16  1  0.88898900  0.13521900  0.85085700  1
  C  C17  1  0.61101100  0.86478100  0.35085700  1
  C  C18  1  0.38898900  0.36478100  0.14914300  1
  C  C19  1  0.11101100  0.63521900  0.64914300  1
  C  C20  1  0.42261700  0.88202700  0.98294000  1
  C  C21  1  0.07738300  0.11797300  0.48294000  1
  C  C22  1  0.92261700  0.61797300  0.01706000  1
  C  C23  1  0.57738300  0.38202700  0.51706000  1
  C  C24  1  0.90891800  0.14764500  0.03644400  1
  C  C25  1  0.59108200  0.85235500  0.53644400  1
  C  C26  1  0.40891800  0.35235500  0.96355600  1
  C  C27  1  0.09108200  0.64764500  0.46355600  1
  C  C28  1  0.39110000  0.93991100  0.15875900  1
  C  C29  1  0.10890000  0.06008900  0.65875900  1
  C  C30  1  0.89110000  0.56008900  0.84124100  1
  C  C31  1  0.60890000  0.43991100  0.34124100  1
