# generated using pymatgen
data_CuNiC4
_symmetry_space_group_name_H-M   'P 1'
_cell_length_a   4.73575960
_cell_length_b   4.73575960
_cell_length_c   7.84504200
_cell_angle_alpha   90.00000000
_cell_angle_beta   90.00000000
_cell_angle_gamma   119.99999436
_symmetry_Int_Tables_number   1
_chemical_formula_structural   CuNiC4
_chemical_formula_sum   'Cu2 Ni2 C8'
_cell_volume   152.37202010
_cell_formula_units_Z   2
loop_
 _symmetry_equiv_pos_site_id
 _symmetry_equiv_pos_as_xyz
  1  'x, y, z'
loop_
 _atom_site_type_symbol
 _atom_site_label
 _atom_site_symmetry_multiplicity
 _atom_site_fract_x
 _atom_site_fract_y
 _atom_site_fract_z
 _atom_site_occupancy
  Ni  Ni0  1  0.66666700  0.33333300  0.93874000  1
  Ni  Ni1  1  0.33333300  0.66666700  0.06126000  1
  Cu  Cu2  1  0.33333300  0.66666700  0.42904400  1
  Cu  Cu3  1  0.66666700  0.33333300  0.57095600  1
  C  C4  1  0.00000000  0.00000000  0.50000000  1
  C  C5  1  0.00000000  0.00000000  0.00000000  1
  C  C6  1  0.82971200  0.17028800  0.24719600  1
  C  C7  1  0.82971200  0.65942300  0.24719600  1
  C  C8  1  0.34057700  0.17028800  0.24719600  1
  C  C9  1  0.17028800  0.82971200  0.75280400  1
  C  C10  1  0.17028800  0.34057700  0.75280400  1
  C  C11  1  0.65942300  0.82971200  0.75280400  1
