# generated using pymatgen
data_Cu(NiC2)2
_symmetry_space_group_name_H-M   'P 1'
_cell_length_a   6.22735277
_cell_length_b   6.22735277
_cell_length_c   14.93097957
_cell_angle_alpha   84.83797928
_cell_angle_beta   84.83797928
_cell_angle_gamma   56.17300559
_symmetry_Int_Tables_number   1
_chemical_formula_structural   Cu(NiC2)2
_chemical_formula_sum   'Cu6 Ni12 C24'
_cell_volume   478.49881620
_cell_formula_units_Z   6
loop_
 _symmetry_equiv_pos_site_id
 _symmetry_equiv_pos_as_xyz
  1  'x, y, z'
loop_
 _atom_site_type_symbol
 _atom_site_label
 _atom_site_symmetry_multiplicity
 _atom_site_fract_x
 _atom_site_fract_y
 _atom_site_fract_z
 _atom_site_occupancy
  Ni  Ni0  1  0.17162800  0.67044600  0.83355200  1
  Ni  Ni1  1  0.66859500  0.66859500  0.83280600  1
  Ni  Ni2  1  0.50007200  0.00003100  0.50001300  1
  Ni  Ni3  1  0.67044600  0.17162800  0.83355200  1
  Ni  Ni4  1  0.83469100  0.83469100  0.66673500  1
  Ni  Ni5  1  0.00001100  0.00001100  0.50041200  1
  Ni  Ni6  1  0.82879200  0.32829700  0.16599000  1
  Ni  Ni7  1  0.00003100  0.50007200  0.50001300  1
  Ni  Ni8  1  0.32829700  0.82879200  0.16599000  1
  Ni  Ni9  1  0.16414300  0.16414300  0.33360800  1
  Ni  Ni10  1  0.33179300  0.33179300  0.16827900  1
  Ni  Ni11  1  0.83400100  0.83400100  0.04389300  1
  Cu  Cu12  1  0.16740500  0.16740500  0.95391700  1
  Cu  Cu13  1  0.50024500  0.50024500  0.62455700  1
  Cu  Cu14  1  0.50050700  0.50050700  0.99890700  1
  Cu  Cu15  1  0.83021700  0.83021700  0.29067600  1
  Cu  Cu16  1  0.16814700  0.16814700  0.70991100  1
  Cu  Cu17  1  0.49977300  0.49977300  0.37615900  1
  C  C18  1  0.34766700  0.34766700  0.90947700  1
  C  C19  1  0.49743200  0.49743200  0.75897500  1
  C  C20  1  0.35164700  0.81507600  0.90805500  1
  C  C21  1  0.81507600  0.35164700  0.90805500  1
  C  C22  1  0.53150400  0.98129900  0.75075600  1
  C  C23  1  0.67840600  0.67840600  0.57612500  1
  C  C24  1  0.98129900  0.53150400  0.75075600  1
  C  C25  1  0.83912600  0.83912600  0.90510100  1
  C  C26  1  0.68896600  0.13865600  0.58112300  1
  C  C27  1  0.82683800  0.82683800  0.42606300  1
  C  C28  1  0.98906400  0.98906400  0.75546800  1
  C  C29  1  0.13865600  0.68896600  0.58112300  1
  C  C30  1  0.86153500  0.31014800  0.41872900  1
  C  C31  1  0.00986400  0.00986400  0.24376500  1
  C  C32  1  0.31014800  0.86153500  0.41872900  1
  C  C33  1  0.17302800  0.17302800  0.57358600  1
  C  C34  1  0.16048400  0.16048400  0.09281600  1
  C  C35  1  0.01559700  0.46645200  0.24838700  1
  C  C36  1  0.32117100  0.32117100  0.42316300  1
  C  C37  1  0.46645200  0.01559700  0.24838700  1
  C  C38  1  0.19007400  0.64892600  0.09376500  1
  C  C39  1  0.50347800  0.50347800  0.24159400  1
  C  C40  1  0.64892600  0.19007400  0.09376500  1
  C  C41  1  0.65216200  0.65216200  0.09269200  1
