# generated using pymatgen
data_Cu6Ni14C19
_symmetry_space_group_name_H-M   'P 1'
_cell_length_a   9.06027136
_cell_length_b   8.81444960
_cell_length_c   8.87964383
_cell_angle_alpha   72.79552886
_cell_angle_beta   107.87839175
_cell_angle_gamma   109.00599122
_symmetry_Int_Tables_number   1
_chemical_formula_structural   Cu6Ni14C19
_chemical_formula_sum   'Cu6 Ni14 C19'
_cell_volume   622.81309978
_cell_formula_units_Z   1
loop_
 _symmetry_equiv_pos_site_id
 _symmetry_equiv_pos_as_xyz
  1  'x, y, z'
loop_
 _atom_site_type_symbol
 _atom_site_label
 _atom_site_symmetry_multiplicity
 _atom_site_fract_x
 _atom_site_fract_y
 _atom_site_fract_z
 _atom_site_occupancy
  C  C0  1  0.16802330  0.79605688  0.87778791  1
  Ni  Ni1  1  0.82663189  0.17050198  0.66363153  1
  Ni  Ni2  1  0.17389567  0.33894279  0.83421522  1
  Ni  Ni3  1  0.65288057  0.82415029  0.82397600  1
  Ni  Ni4  1  0.49568583  0.01385625  0.48654209  1
  Ni  Ni5  1  0.00197196  0.98098512  0.94000287  1
  Ni  Ni6  1  0.29543582  0.73027865  0.66483156  1
  Ni  Ni7  1  0.46510917  0.57008697  0.58583131  1
  Ni  Ni8  1  0.59452832  0.41510711  0.41481741  1
  Ni  Ni9  1  0.73612122  0.25076129  0.26658747  1
  Ni  Ni10  1  0.89177557  0.10005882  0.12097504  1
  Ni  Ni11  1  0.01163328  0.49796727  0.50173662  1
  Ni  Ni12  1  0.83006181  0.66098522  0.16120972  1
  Ni  Ni13  1  0.15892123  0.84840554  0.30522500  1
  Ni  Ni14  1  0.50183182  0.49096150  0.01183762  1
  Cu  Cu15  1  0.49076289  0.15594842  0.84320001  1
  Cu  Cu16  1  0.84181738  0.49075245  0.84266650  1
  Cu  Cu17  1  0.16916521  0.16476398  0.50448214  1
  Cu  Cu18  1  0.83504348  0.82774517  0.50525118  1
  Cu  Cu19  1  0.16964082  0.48461396  0.17906106  1
  Cu  Cu20  1  0.49537325  0.83072288  0.16813736  1
  C  C21  1  0.75966323  0.21425076  0.85479852  1
  C  C22  1  0.57137449  0.43370310  0.82995372  1
  C  C23  1  0.90616571  0.11630448  0.48778303  1
  C  C24  1  0.21853389  0.12812758  0.78382572  1
  C  C25  1  0.92194677  0.77319399  0.80221062  1
  C  C26  1  0.41715587  0.87105700  0.88508811  1
  C  C27  1  0.12166370  0.53680231  0.89890935  1
  C  C28  1  0.43540160  0.18855318  0.56686088  1
  C  C29  1  0.82722249  0.54043036  0.57250635  1
  C  C30  1  0.52985777  0.09881465  0.10943271  1
  C  C31  1  0.20188511  0.44279401  0.44905966  1
  C  C32  1  0.90406477  0.47227504  0.11662773  1
  C  C33  1  0.54796538  0.81987447  0.43176301  1
  C  C34  1  0.14059548  0.22022639  0.23623855  1
  C  C35  1  0.75385059  0.83894945  0.21487930  1
  C  C36  1  0.43487815  0.55237738  0.19380510  1
  C  C37  1  0.11301519  0.89399430  0.51414197  1
  C  C38  1  0.21930134  0.76948201  0.12609802  1
