# generated using pymatgen
data_Cu12Ni24C17
_symmetry_space_group_name_H-M   'P 1'
_cell_length_a   15.22804500
_cell_length_b   12.26918000
_cell_length_c   10.54289800
_cell_angle_alpha   90.00000000
_cell_angle_beta   90.00000000
_cell_angle_gamma   90.00000000
_symmetry_Int_Tables_number   1
_chemical_formula_structural   Cu12Ni24C17
_chemical_formula_sum   'Cu48 Ni96 C68'
_cell_volume   1969.78893876
_cell_formula_units_Z   4
loop_
 _symmetry_equiv_pos_site_id
 _symmetry_equiv_pos_as_xyz
  1  'x, y, z'
loop_
 _atom_site_type_symbol
 _atom_site_label
 _atom_site_symmetry_multiplicity
 _atom_site_fract_x
 _atom_site_fract_y
 _atom_site_fract_z
 _atom_site_occupancy
  Ni  Ni0  1  0.53391200  0.87220500  0.82712500  1
  Ni  Ni1  1  0.46608800  0.12779500  0.32712500  1
  Ni  Ni2  1  0.96608800  0.37220500  0.32712500  1
  Ni  Ni3  1  0.03391200  0.62779500  0.82712500  1
  Ni  Ni4  1  0.49514600  0.83822600  0.68746900  1
  Ni  Ni5  1  0.50485400  0.16177400  0.18746900  1
  Ni  Ni6  1  0.00485400  0.33822600  0.18746900  1
  Ni  Ni7  1  0.99514600  0.66177400  0.68746900  1
  Ni  Ni8  1  0.46735800  0.76643700  0.81138400  1
  Ni  Ni9  1  0.53264200  0.23356300  0.31138400  1
  Ni  Ni10  1  0.03264200  0.26643700  0.31138400  1
  Ni  Ni11  1  0.96735800  0.73356300  0.81138400  1
  Ni  Ni12  1  0.66932900  0.85573400  0.90978300  1
  Ni  Ni13  1  0.33067100  0.14426600  0.40978300  1
  Ni  Ni14  1  0.83067100  0.35573400  0.40978300  1
  Ni  Ni15  1  0.16932900  0.64426600  0.90978300  1
  Ni  Ni16  1  0.74715900  0.76383500  0.91175700  1
  Ni  Ni17  1  0.25284100  0.23616500  0.41175700  1
  Ni  Ni18  1  0.75284100  0.26383500  0.41175700  1
  Ni  Ni19  1  0.24715900  0.73616500  0.91175700  1
  Ni  Ni20  1  0.74511600  0.85395700  0.79364200  1
  Ni  Ni21  1  0.25488400  0.14604300  0.29364200  1
  Ni  Ni22  1  0.75488400  0.35395700  0.29364200  1
  Ni  Ni23  1  0.24511600  0.64604300  0.79364200  1
  Ni  Ni24  1  0.63949800  0.63286600  0.98145700  1
  Ni  Ni25  1  0.36050200  0.36713400  0.48145700  1
  Ni  Ni26  1  0.86050200  0.13286600  0.48145700  1
  Ni  Ni27  1  0.13949800  0.86713400  0.98145700  1
  Ni  Ni28  1  0.53225600  0.64237600  0.95081800  1
  Ni  Ni29  1  0.46774400  0.35762400  0.45081800  1
  Ni  Ni30  1  0.96774400  0.14237600  0.45081800  1
  Ni  Ni31  1  0.03225600  0.85762400  0.95081800  1
  Ni  Ni32  1  0.59034800  0.53541400  0.90263300  1
  Ni  Ni33  1  0.40965200  0.46458600  0.40263300  1
  Ni  Ni34  1  0.90965200  0.03541400  0.40263300  1
  Ni  Ni35  1  0.09034800  0.96458600  0.90263300  1
  Ni  Ni36  1  0.72647800  0.52972400  0.68927900  1
  Ni  Ni37  1  0.27352200  0.47027600  0.18927900  1
  Ni  Ni38  1  0.77352200  0.02972400  0.18927900  1
  Ni  Ni39  1  0.22647800  0.97027600  0.68927900  1
  Ni  Ni40  1  0.78710200  0.64543300  0.69263200  1
  Ni  Ni41  1  0.21289800  0.35456700  0.19263200  1
  Ni  Ni42  1  0.71289800  0.14543300  0.19263200  1
  Ni  Ni43  1  0.28710200  0.85456700  0.69263200  1
  Ni  Ni44  1  0.76262100  0.58202300  0.82676300  1
  Ni  Ni45  1  0.23737900  0.41797700  0.32676300  1
  Ni  Ni46  1  0.73737900  0.08202300  0.32676300  1
  Ni  Ni47  1  0.26262100  0.91797700  0.82676300  1
  Ni  Ni48  1  0.53111800  0.86634200  0.33091000  1
  Ni  Ni49  1  0.46888200  0.13365800  0.83091000  1
  Ni  Ni50  1  0.96888200  0.36634200  0.83091000  1
  Ni  Ni51  1  0.03111800  0.63365800  0.33091000  1
  Ni  Ni52  1  0.46331200  0.76747900  0.37605600  1
  Ni  Ni53  1  0.53668800  0.23252100  0.87605600  1
  Ni  Ni54  1  0.03668800  0.26747900  0.87605600  1
  Ni  Ni55  1  0.96331200  0.73252100  0.37605600  1
  Ni  Ni56  1  0.49799100  0.85890000  0.47859800  1
  Ni  Ni57  1  0.50200900  0.14110000  0.97859800  1
  Ni  Ni58  1  0.00200900  0.35890000  0.97859800  1
  Ni  Ni59  1  0.99799100  0.64110000  0.47859800  1
  Ni  Ni60  1  0.66901900  0.89488900  0.32954500  1
  Ni  Ni61  1  0.33098100  0.10511100  0.82954500  1
  Ni  Ni62  1  0.83098100  0.39488900  0.82954500  1
  Ni  Ni63  1  0.16901900  0.60511100  0.32954500  1
  Ni  Ni64  1  0.76139500  0.83529600  0.37559700  1
  Ni  Ni65  1  0.23860500  0.16470400  0.87559700  1
  Ni  Ni66  1  0.73860500  0.33529600  0.87559700  1
  Ni  Ni67  1  0.26139500  0.66470400  0.37559700  1
  Ni  Ni68  1  0.71392200  0.80062100  0.23873700  1
  Ni  Ni69  1  0.28607800  0.19937900  0.73873700  1
  Ni  Ni70  1  0.78607800  0.30062100  0.73873700  1
  Ni  Ni71  1  0.21392200  0.69937900  0.23873700  1
  Ni  Ni72  1  0.53087400  0.65611100  0.22253800  1
  Ni  Ni73  1  0.46912600  0.34388900  0.72253800  1
  Ni  Ni74  1  0.96912600  0.15611100  0.72253800  1
  Ni  Ni75  1  0.03087400  0.84388900  0.22253800  1
  Ni  Ni76  1  0.63635800  0.62525300  0.19512400  1
  Ni  Ni77  1  0.36364200  0.37474700  0.69512400  1
  Ni  Ni78  1  0.86364200  0.12525300  0.69512400  1
  Ni  Ni79  1  0.13635800  0.87474700  0.19512400  1
  Ni  Ni80  1  0.57466800  0.54494000  0.28251800  1
  Ni  Ni81  1  0.42533200  0.45506000  0.78251800  1
  Ni  Ni82  1  0.92533200  0.04494000  0.78251800  1
  Ni  Ni83  1  0.07466800  0.95506000  0.28251800  1
  Ni  Ni84  1  0.72351000  0.53005700  0.46390400  1
  Ni  Ni85  1  0.27649000  0.46994300  0.96390400  1
  Ni  Ni86  1  0.77649000  0.03005700  0.96390400  1
  Ni  Ni87  1  0.22351000  0.96994300  0.46390400  1
  Ni  Ni88  1  0.76243900  0.59406000  0.33566000  1
  Ni  Ni89  1  0.23756100  0.40594000  0.83566000  1
  Ni  Ni90  1  0.73756100  0.09406000  0.83566000  1
  Ni  Ni91  1  0.26243900  0.90594000  0.33566000  1
  Ni  Ni92  1  0.78819700  0.63935200  0.47843700  1
  Ni  Ni93  1  0.21180300  0.36064800  0.97843700  1
  Ni  Ni94  1  0.71180300  0.13935200  0.97843700  1
  Ni  Ni95  1  0.28819700  0.86064800  0.47843700  1
  C  C96  1  0.62733600  0.70151900  0.74476300  1
  C  C97  1  0.37266400  0.29848100  0.24476300  1
  C  C98  1  0.87266400  0.20151900  0.24476300  1
  C  C99  1  0.12733600  0.79848100  0.74476300  1
  C  C100  1  0.62651000  0.70738800  0.43014100  1
  C  C101  1  0.37349000  0.29261200  0.93014100  1
  C  C102  1  0.87349000  0.20738800  0.93014100  1
  C  C103  1  0.12651000  0.79261200  0.43014100  1
  Cu  Cu104  1  0.51906500  0.80650000  0.77025600  1
  Cu  Cu105  1  0.48093500  0.19350000  0.27025600  1
  Cu  Cu106  1  0.98093500  0.30650000  0.27025600  1
  Cu  Cu107  1  0.01906500  0.69350000  0.77025600  1
  Cu  Cu108  1  0.70644700  0.80648600  0.85188700  1
  Cu  Cu109  1  0.29355300  0.19351400  0.35188700  1
  Cu  Cu110  1  0.79355300  0.30648600  0.35188700  1
  Cu  Cu111  1  0.20644700  0.69351400  0.85188700  1
  Cu  Cu112  1  0.59195500  0.61858400  0.91390000  1
  Cu  Cu113  1  0.40804500  0.38141600  0.41390000  1
  Cu  Cu114  1  0.90804500  0.11858400  0.41390000  1
  Cu  Cu115  1  0.09195500  0.88141600  0.91390000  1
  Cu  Cu116  1  0.73845500  0.60156900  0.73788400  1
  Cu  Cu117  1  0.26154500  0.39843100  0.23788400  1
  Cu  Cu118  1  0.76154500  0.10156900  0.23788400  1
  Cu  Cu119  1  0.23845500  0.89843100  0.73788400  1
  Cu  Cu120  1  0.51737000  0.81174800  0.40319500  1
  Cu  Cu121  1  0.48263000  0.18825200  0.90319500  1
  Cu  Cu122  1  0.98263000  0.31174800  0.90319500  1
  Cu  Cu123  1  0.01737000  0.68825200  0.40319500  1
  Cu  Cu124  1  0.70178300  0.82196400  0.33111600  1
  Cu  Cu125  1  0.29821700  0.17803600  0.83111600  1
  Cu  Cu126  1  0.79821700  0.32196400  0.83111600  1
  Cu  Cu127  1  0.20178300  0.67803600  0.33111600  1
  Cu  Cu128  1  0.58744700  0.62509500  0.26245800  1
  Cu  Cu129  1  0.41255300  0.37490500  0.76245800  1
  Cu  Cu130  1  0.91255300  0.12509500  0.76245800  1
  Cu  Cu131  1  0.08744700  0.87490500  0.26245800  1
  Cu  Cu132  1  0.73773100  0.60590000  0.42639400  1
  Cu  Cu133  1  0.26226900  0.39410000  0.92639400  1
  Cu  Cu134  1  0.76226900  0.10590000  0.92639400  1
  Cu  Cu135  1  0.23773100  0.89410000  0.42639400  1
  Cu  Cu136  1  0.92604800  0.42791000  0.59059200  1
  Cu  Cu137  1  0.07395200  0.57209000  0.09059200  1
  Cu  Cu138  1  0.57395200  0.92791000  0.09059200  1
  Cu  Cu139  1  0.42604800  0.07209000  0.59059200  1
  Cu  Cu140  1  0.63036500  0.36412300  0.59351800  1
  Cu  Cu141  1  0.36963500  0.63587700  0.09351800  1
  Cu  Cu142  1  0.86963500  0.86412300  0.09351800  1
  Cu  Cu143  1  0.13036500  0.13587700  0.59351800  1
  Cu  Cu144  1  0.64496100  0.34373200  0.08189700  1
  Cu  Cu145  1  0.35503900  0.65626800  0.58189700  1
  Cu  Cu146  1  0.85503900  0.84373200  0.58189700  1
  Cu  Cu147  1  0.14496100  0.15626800  0.08189700  1
  Cu  Cu148  1  0.80410900  0.57622800  0.08589100  1
  Cu  Cu149  1  0.19589100  0.42377200  0.58589100  1
  Cu  Cu150  1  0.69589100  0.07622800  0.58589100  1
  Cu  Cu151  1  0.30410900  0.92377200  0.08589100  1
  C  C152  1  0.55256300  0.59665500  0.64982300  1
  C  C153  1  0.44743700  0.40334500  0.14982300  1
  C  C154  1  0.94743700  0.09665500  0.14982300  1
  C  C155  1  0.05256300  0.90334500  0.64982300  1
  C  C156  1  0.55419100  0.59670400  0.52109100  1
  C  C157  1  0.44580900  0.40329600  0.02109100  1
  C  C158  1  0.94580900  0.09670400  0.02109100  1
  C  C159  1  0.05419100  0.90329600  0.52109100  1
  C  C160  1  0.66327300  0.77532000  0.58874800  1
  C  C161  1  0.33672700  0.22468000  0.08874800  1
  C  C162  1  0.83672700  0.27532000  0.08874800  1
  C  C163  1  0.16327300  0.72468000  0.58874800  1
  C  C164  1  0.91883400  0.32541400  0.58822000  1
  C  C165  1  0.08116600  0.67458600  0.08822000  1
  C  C166  1  0.58116600  0.82541400  0.08822000  1
  C  C167  1  0.41883400  0.17458600  0.58822000  1
  C  C168  1  0.93451500  0.47788900  0.69579500  1
  C  C169  1  0.06548500  0.52211100  0.19579500  1
  C  C170  1  0.56548500  0.97788900  0.19579500  1
  C  C171  1  0.43451500  0.02211100  0.69579500  1
  C  C172  1  0.92331400  0.48193700  0.48726800  1
  C  C173  1  0.07668600  0.51806300  0.98726800  1
  C  C174  1  0.57668600  0.98193700  0.98726800  1
  C  C175  1  0.42331400  0.01806300  0.48726800  1
  C  C176  1  0.59961100  0.35208200  0.70340100  1
  C  C177  1  0.40038900  0.64791800  0.20340100  1
  C  C178  1  0.90038900  0.85208200  0.20340100  1
  C  C179  1  0.09961100  0.14791800  0.70340100  1
  C  C180  1  0.59080800  0.32929200  0.49655900  1
  C  C181  1  0.40919200  0.67070800  0.99655900  1
  C  C182  1  0.90919200  0.82929200  0.99655900  1
  C  C183  1  0.09080800  0.17070800  0.49655900  1
  C  C184  1  0.70468900  0.41276500  0.58016800  1
  C  C185  1  0.29531100  0.58723500  0.08016800  1
  C  C186  1  0.79531100  0.91276500  0.08016800  1
  C  C187  1  0.20468900  0.08723500  0.58016800  1
  C  C188  1  0.63687200  0.24176000  0.10610100  1
  C  C189  1  0.36312800  0.75824000  0.60610100  1
  C  C190  1  0.86312800  0.74176000  0.60610100  1
  C  C191  1  0.13687200  0.25824000  0.10610100  1
  C  C192  1  0.63839300  0.37491900  0.96757600  1
  C  C193  1  0.36160700  0.62508100  0.46757600  1
  C  C194  1  0.86160700  0.87491900  0.46757600  1
  C  C195  1  0.13839300  0.12508100  0.96757600  1
  C  C196  1  0.65859300  0.41068900  0.16983800  1
  C  C197  1  0.34140700  0.58931100  0.66983800  1
  C  C198  1  0.84140700  0.91068900  0.66983800  1
  C  C199  1  0.15859300  0.08931100  0.16983800  1
  C  C200  1  0.83405800  0.54465900  0.19074600  1
  C  C201  1  0.16594200  0.45534100  0.69074600  1
  C  C202  1  0.66594200  0.04465900  0.69074600  1
  C  C203  1  0.33405800  0.95534100  0.19074600  1
  C  C204  1  0.83186700  0.53788800  0.98238700  1
  C  C205  1  0.16813300  0.46211200  0.48238700  1
  C  C206  1  0.66813300  0.03788800  0.48238700  1
  C  C207  1  0.33186700  0.96211200  0.98238700  1
  C  C208  1  0.74381600  0.65045400  0.08392500  1
  C  C209  1  0.25618400  0.34954600  0.58392500  1
  C  C210  1  0.75618400  0.15045400  0.58392500  1
  C  C211  1  0.24381600  0.84954600  0.08392500  1
