# generated using pymatgen
data_Cu5(Ni4C11)2
_symmetry_space_group_name_H-M   'P 1'
_cell_length_a   7.19575808
_cell_length_b   7.19575808
_cell_length_c   18.52709917
_cell_angle_alpha   80.94478580
_cell_angle_beta   80.94478580
_cell_angle_gamma   78.07156839
_symmetry_Int_Tables_number   1
_chemical_formula_structural   Cu5(Ni4C11)2
_chemical_formula_sum   'Cu10 Ni16 C44'
_cell_volume   919.12948321
_cell_formula_units_Z   2
loop_
 _symmetry_equiv_pos_site_id
 _symmetry_equiv_pos_as_xyz
  1  'x, y, z'
loop_
 _atom_site_type_symbol
 _atom_site_label
 _atom_site_symmetry_multiplicity
 _atom_site_fract_x
 _atom_site_fract_y
 _atom_site_fract_z
 _atom_site_occupancy
  C  C0  1  0.05357000  0.86758500  0.62264000  1
  C  C1  1  0.86758500  0.05357000  0.12264000  1
  C  C2  1  0.64315600  0.45617500  0.57054800  1
  C  C3  1  0.45617500  0.64315600  0.07054800  1
  C  C4  1  0.30527600  0.20036700  0.39864400  1
  C  C5  1  0.20036700  0.30527600  0.89864400  1
  Ni  Ni6  1  0.10076000  0.83395800  0.42111200  1
  Ni  Ni7  1  0.83395800  0.10076000  0.92111200  1
  Ni  Ni8  1  0.93353900  0.00559600  0.43871600  1
  Ni  Ni9  1  0.00559600  0.93353900  0.93871600  1
  Ni  Ni10  1  0.67227200  0.40531600  0.37284600  1
  Ni  Ni11  1  0.40531600  0.67227200  0.87284600  1
  Ni  Ni12  1  0.50285300  0.57753500  0.35833200  1
  Ni  Ni13  1  0.57753500  0.50285300  0.85833200  1
  Ni  Ni14  1  0.78162300  0.47875700  0.18126300  1
  Ni  Ni15  1  0.47875700  0.78162300  0.68126300  1
  Ni  Ni16  1  0.62495500  0.37880100  0.23007000  1
  Ni  Ni17  1  0.37880100  0.62495500  0.73007000  1
  Ni  Ni18  1  0.23252000  0.88892700  0.20889700  1
  Ni  Ni19  1  0.88892700  0.23252000  0.70889700  1
  Ni  Ni20  1  0.19227000  0.67947700  0.22495900  1
  Ni  Ni21  1  0.67947700  0.19227000  0.72495900  1
  Cu  Cu22  1  0.95466700  0.54010200  0.40208800  1
  Cu  Cu23  1  0.54010200  0.95466700  0.90208800  1
  Cu  Cu24  1  0.91741200  0.56763400  0.79963000  1
  Cu  Cu25  1  0.56763400  0.91741200  0.29963000  1
  Cu  Cu26  1  0.36286400  0.15639700  0.05093300  1
  Cu  Cu27  1  0.15639700  0.36286400  0.55093300  1
  Cu  Cu28  1  0.29790700  0.17773500  0.74227100  1
  Cu  Cu29  1  0.17773500  0.29790700  0.24227100  1
  Cu  Cu30  1  0.96504100  0.58161200  0.00855100  1
  Cu  Cu31  1  0.58161200  0.96504100  0.50855100  1
  C  C32  1  0.81167300  0.66454500  0.41599900  1
  C  C33  1  0.66454500  0.81167300  0.91599900  1
  C  C34  1  0.56641000  0.12433200  0.90458100  1
  C  C35  1  0.12433200  0.56641000  0.40458100  1
  C  C36  1  0.37699400  0.93932600  0.88604200  1
  C  C37  1  0.93932600  0.37699400  0.38604200  1
  C  C38  1  0.81595100  0.66231900  0.75359300  1
  C  C39  1  0.66231900  0.81595100  0.25359300  1
  C  C40  1  0.09472500  0.57706100  0.79592700  1
  C  C41  1  0.57706100  0.09472500  0.29592700  1
  C  C42  1  0.85145300  0.45314400  0.85360000  1
  C  C43  1  0.45314400  0.85145300  0.35360000  1
  C  C44  1  0.45737700  0.08483500  0.10263800  1
  C  C45  1  0.08483500  0.45737700  0.60263800  1
  C  C46  1  0.26177400  0.05960600  0.02587700  1
  C  C47  1  0.05960600  0.26177400  0.52587700  1
  C  C48  1  0.36385600  0.32695800  0.01922900  1
  C  C49  1  0.32695800  0.36385600  0.51922900  1
  C  C50  1  0.34311300  0.11202800  0.68255900  1
  C  C51  1  0.11202800  0.34311300  0.18255900  1
  C  C52  1  0.13268800  0.17729100  0.77971400  1
  C  C53  1  0.17729100  0.13268800  0.27971400  1
  C  C54  1  0.41624100  0.24922300  0.77006400  1
  C  C55  1  0.24922300  0.41624100  0.27006400  1
  C  C56  1  0.87710300  0.68345200  0.05611300  1
  C  C57  1  0.68345200  0.87710300  0.55611300  1
  C  C58  1  0.94229700  0.40947200  0.01019300  1
  C  C59  1  0.40947200  0.94229700  0.51019300  1
  C  C60  1  0.08272000  0.64488000  0.95549700  1
  C  C61  1  0.64488000  0.08272000  0.45549700  1
  C  C62  1  0.07288500  0.96195000  0.43734300  1
  C  C63  1  0.96195000  0.07288500  0.93734300  1
  C  C64  1  0.53824400  0.43639500  0.36267700  1
  C  C65  1  0.43639500  0.53824400  0.86267700  1
  C  C66  1  0.67671800  0.41427400  0.17890300  1
  C  C67  1  0.41427400  0.67671800  0.67890300  1
  C  C68  1  0.18354400  0.79470200  0.18826900  1
  C  C69  1  0.79470200  0.18354400  0.68826900  1
