# generated using pymatgen
data_Cu(NiC4)2
_symmetry_space_group_name_H-M   'P 1'
_cell_length_a   6.84246660
_cell_length_b   11.28713949
_cell_length_c   14.64379000
_cell_angle_alpha   90.00000000
_cell_angle_beta   90.00000000
_cell_angle_gamma   99.51034972
_symmetry_Int_Tables_number   1
_chemical_formula_structural   Cu(NiC4)2
_chemical_formula_sum   'Cu8 Ni16 C64'
_cell_volume   1115.42308466
_cell_formula_units_Z   8
loop_
 _symmetry_equiv_pos_site_id
 _symmetry_equiv_pos_as_xyz
  1  'x, y, z'
loop_
 _atom_site_type_symbol
 _atom_site_label
 _atom_site_symmetry_multiplicity
 _atom_site_fract_x
 _atom_site_fract_y
 _atom_site_fract_z
 _atom_site_occupancy
  C  C0  1  0.07778200  0.72778500  0.50249600  1
  C  C1  1  0.33022800  0.96219400  0.87987300  1
  C  C2  1  0.66977200  0.53780600  0.37987300  1
  C  C3  1  0.66977200  0.03780600  0.12012700  1
  C  C4  1  0.33022800  0.46219400  0.62012700  1
  C  C5  1  0.07778200  0.22778500  0.99750400  1
  C  C6  1  0.92221800  0.27221500  0.49750400  1
  C  C7  1  0.92221800  0.77221500  0.00249600  1
  Ni  Ni8  1  0.84136700  0.98469700  0.86900700  1
  Ni  Ni9  1  0.42256500  0.68948200  0.01537600  1
  Ni  Ni10  1  0.42256500  0.18948200  0.48462400  1
  Ni  Ni11  1  0.57743500  0.31051800  0.98462400  1
  Ni  Ni12  1  0.50560600  0.78611000  0.70411800  1
  Ni  Ni13  1  0.49439400  0.71389000  0.20411800  1
  Ni  Ni14  1  0.49439400  0.21389000  0.29588200  1
  Ni  Ni15  1  0.50560600  0.28611000  0.79588200  1
  Ni  Ni16  1  0.57743500  0.81051800  0.51537600  1
  Ni  Ni17  1  0.86890300  0.48283200  0.13674300  1
  Ni  Ni18  1  0.13109700  0.01716800  0.63674300  1
  Ni  Ni19  1  0.13109700  0.51716800  0.86325700  1
  Ni  Ni20  1  0.15863300  0.51530300  0.36900700  1
  Ni  Ni21  1  0.84136700  0.48469700  0.63099300  1
  Ni  Ni22  1  0.15863300  0.01530300  0.13099300  1
  Ni  Ni23  1  0.86890300  0.98283200  0.36325700  1
  Cu  Cu24  1  0.63404800  0.07326800  0.67209100  1
  Cu  Cu25  1  0.36595200  0.42673200  0.17209100  1
  Cu  Cu26  1  0.36595200  0.92673200  0.32790900  1
  Cu  Cu27  1  0.63404800  0.57326800  0.82790900  1
  Cu  Cu28  1  0.99893300  0.24880800  0.75402500  1
  Cu  Cu29  1  0.00106700  0.25119200  0.25402500  1
  Cu  Cu30  1  0.00106700  0.75119200  0.24597500  1
  Cu  Cu31  1  0.99893300  0.74880800  0.74597500  1
  C  C32  1  0.75895600  0.95634500  0.97746000  1
  C  C33  1  0.24104400  0.54365500  0.47746000  1
  C  C34  1  0.24104400  0.04365500  0.02254000  1
  C  C35  1  0.75895600  0.45634500  0.52254000  1
  C  C36  1  0.99172000  0.87503400  0.85156800  1
  C  C37  1  0.00828000  0.62496600  0.35156700  1
  C  C38  1  0.00828000  0.12496600  0.14843200  1
  C  C39  1  0.99172000  0.37503400  0.64843200  1
  C  C40  1  0.99569200  0.12104300  0.85748800  1
  C  C41  1  0.00430800  0.37895700  0.35748800  1
  C  C42  1  0.00430800  0.87895700  0.14251200  1
  C  C43  1  0.99569200  0.62104300  0.64251200  1
  C  C44  1  0.68529200  0.95566500  0.28843400  1
  C  C45  1  0.31470800  0.54433500  0.78843400  1
  C  C46  1  0.31470800  0.04433500  0.71156600  1
  C  C47  1  0.68529200  0.45566500  0.21156600  1
  C  C48  1  0.96694800  0.12934200  0.36306400  1
  C  C49  1  0.03305200  0.37065800  0.86306400  1
  C  C50  1  0.03305200  0.87065800  0.63693600  1
  C  C51  1  0.96694800  0.62934200  0.13693600  1
  C  C52  1  0.04393800  0.89589600  0.33960300  1
  C  C53  1  0.37891400  0.83017900  0.44162100  1
  C  C54  1  0.95606200  0.60410400  0.83960300  1
  C  C55  1  0.04393800  0.39589600  0.16039700  1
  C  C56  1  0.73158400  0.70960700  0.47916500  1
  C  C57  1  0.26841600  0.79039300  0.97916500  1
  C  C58  1  0.26841600  0.29039300  0.52083500  1
  C  C59  1  0.73158400  0.20960700  0.02083500  1
  C  C60  1  0.77586500  0.95025600  0.46619800  1
  C  C61  1  0.22413500  0.54974400  0.96619800  1
  C  C62  1  0.22413500  0.04974400  0.53380200  1
  C  C63  1  0.77586500  0.45025700  0.03380200  1
  C  C64  1  0.42428700  0.19842800  0.89407800  1
  C  C65  1  0.57571300  0.30157200  0.39407800  1
  C  C66  1  0.57571300  0.80157200  0.10592200  1
  C  C67  1  0.42428700  0.69842800  0.60592200  1
  C  C68  1  0.69365400  0.22037900  0.75102600  1
  C  C69  1  0.30634600  0.27962100  0.25102600  1
  C  C70  1  0.30634600  0.77962100  0.24897400  1
  C  C71  1  0.69365400  0.72037900  0.74897400  1
  C  C72  1  0.63536000  0.46844700  0.70220500  1
  C  C73  1  0.36464000  0.03155300  0.20220500  1
  C  C74  1  0.36464000  0.53155300  0.29779500  1
  C  C75  1  0.63536000  0.96844700  0.79779500  1
  C  C76  1  0.29716500  0.29658400  0.73685200  1
  C  C77  1  0.70283500  0.20341600  0.23685200  1
  C  C78  1  0.70283500  0.70341600  0.26314800  1
  C  C79  1  0.29716500  0.79658400  0.76314800  1
  C  C80  1  0.59583500  0.40486700  0.87651500  1
  C  C81  1  0.40416500  0.09513300  0.37651500  1
  C  C82  1  0.40416500  0.59513300  0.12348500  1
  C  C83  1  0.59583500  0.90486700  0.62348500  1
  C  C84  1  0.37891400  0.33017900  0.05837900  1
  C  C85  1  0.62108600  0.16982100  0.55837900  1
  C  C86  1  0.62108600  0.66982100  0.94162100  1
  C  C87  1  0.95606200  0.10410400  0.66039700  1
