# generated using pymatgen
data_Cu2NiC16
_symmetry_space_group_name_H-M   'P 1'
_cell_length_a   5.22163900
_cell_length_b   9.63553500
_cell_length_c   18.50604500
_cell_angle_alpha   90.00000000
_cell_angle_beta   90.00000000
_cell_angle_gamma   90.00000000
_symmetry_Int_Tables_number   1
_chemical_formula_structural   Cu2NiC16
_chemical_formula_sum   'Cu8 Ni4 C64'
_cell_volume   931.09992263
_cell_formula_units_Z   4
loop_
 _symmetry_equiv_pos_site_id
 _symmetry_equiv_pos_as_xyz
  1  'x, y, z'
loop_
 _atom_site_type_symbol
 _atom_site_label
 _atom_site_symmetry_multiplicity
 _atom_site_fract_x
 _atom_site_fract_y
 _atom_site_fract_z
 _atom_site_occupancy
  Ni  Ni0  1  0.14331900  0.83903500  0.37625400  1
  Ni  Ni1  1  0.85668100  0.83903500  0.87625400  1
  Ni  Ni2  1  0.14331900  0.33903500  0.12374600  1
  Ni  Ni3  1  0.85668100  0.33903500  0.62374600  1
  Cu  Cu4  1  0.12564400  0.02897500  0.12450700  1
  Cu  Cu5  1  0.36177700  0.97992700  0.87442000  1
  Cu  Cu6  1  0.63822300  0.97992700  0.37442000  1
  Cu  Cu7  1  0.87435600  0.02897500  0.62450700  1
  Cu  Cu8  1  0.12564400  0.52897500  0.37549300  1
  Cu  Cu9  1  0.36177700  0.47992700  0.62558000  1
  Cu  Cu10  1  0.63822300  0.47992700  0.12558000  1
  Cu  Cu11  1  0.87435600  0.52897500  0.87549300  1
  C  C12  1  0.32507800  0.65983200  0.22771300  1
  C  C13  1  0.47980100  0.83097400  0.52878100  1
  C  C14  1  0.52019900  0.83097400  0.02878100  1
  C  C15  1  0.67492200  0.15983200  0.77228700  1
  C  C16  1  0.83205300  0.33519100  0.27611600  1
  C  C17  1  0.16794700  0.83519100  0.72388400  1
  C  C18  1  0.97857000  0.66795200  0.52770100  1
  C  C19  1  0.47980100  0.33097400  0.97121900  1
  C  C20  1  0.52019900  0.33097400  0.47121900  1
  C  C21  1  0.67492200  0.65983200  0.72771300  1
  C  C22  1  0.16794700  0.33519100  0.77611600  1
  C  C23  1  0.32507800  0.15983200  0.27228700  1
  C  C24  1  0.02143000  0.16795200  0.47229900  1
  C  C25  1  0.83205300  0.83519100  0.22388400  1
  C  C26  1  0.02143000  0.66795200  0.02770100  1
  C  C27  1  0.97857000  0.16795200  0.97229900  1
  C  C28  1  0.65697500  0.50719000  0.68723900  1
  C  C29  1  0.06310500  0.02480000  0.92985400  1
  C  C30  1  0.84525400  0.48248400  0.31663400  1
  C  C31  1  0.45457400  0.36458600  0.05890900  1
  C  C32  1  0.00328300  0.17067400  0.06035600  1
  C  C33  1  0.67119900  0.19564200  0.95497300  1
  C  C34  1  0.70820700  0.66615500  0.81496900  1
  C  C35  1  0.83198400  0.85835200  0.31231400  1
  C  C36  1  0.45457400  0.86458600  0.44109100  1
  C  C37  1  0.70820700  0.16615500  0.68503100  1
  C  C38  1  0.15474600  0.48248400  0.81663400  1
  C  C39  1  0.54542600  0.36458600  0.55890900  1
  C  C40  1  0.39994300  0.95811300  0.07215400  1
  C  C41  1  0.16801600  0.85835200  0.81231400  1
  C  C42  1  0.34302500  0.00719000  0.31276100  1
  C  C43  1  0.06310500  0.52480000  0.57014600  1
  C  C44  1  0.15474600  0.98248400  0.68336600  1
  C  C45  1  0.91307400  0.75038300  0.69545700  1
  C  C46  1  0.08692600  0.75038300  0.19545700  1
  C  C47  1  0.32880100  0.69564200  0.04502700  1
  C  C48  1  0.54542600  0.86458600  0.94109100  1
  C  C49  1  0.29179300  0.66615500  0.31496900  1
  C  C50  1  0.60005700  0.45811300  0.92784600  1
  C  C51  1  0.91307400  0.25038300  0.80454300  1
  C  C52  1  0.99671700  0.17067400  0.56035600  1
  C  C53  1  0.29179300  0.16615500  0.18503100  1
  C  C54  1  0.39994300  0.45811300  0.42784600  1
  C  C55  1  0.00328300  0.67067400  0.43964400  1
  C  C56  1  0.93689500  0.52480000  0.07014600  1
  C  C57  1  0.40843500  0.73443200  0.70108500  1
  C  C58  1  0.84525400  0.98248400  0.18336600  1
  C  C59  1  0.59156500  0.73443200  0.20108500  1
  C  C60  1  0.59156500  0.23443200  0.29891500  1
  C  C61  1  0.60005700  0.95811300  0.57215400  1
  C  C62  1  0.99671700  0.67067400  0.93964400  1
  C  C63  1  0.93689500  0.02480000  0.42985400  1
  C  C64  1  0.08692600  0.25038300  0.30454300  1
  C  C65  1  0.81800300  0.79128200  0.05413500  1
  C  C66  1  0.18199700  0.79128200  0.55413500  1
  C  C67  1  0.40843500  0.23443200  0.79891500  1
  C  C68  1  0.18199700  0.29128200  0.94586500  1
  C  C69  1  0.32880100  0.19564200  0.45497300  1
  C  C70  1  0.81800300  0.29128200  0.44586500  1
  C  C71  1  0.16801600  0.35835200  0.68768600  1
  C  C72  1  0.34302500  0.50719000  0.18723900  1
  C  C73  1  0.67119900  0.69564200  0.54502700  1
  C  C74  1  0.83198400  0.35835200  0.18768600  1
  C  C75  1  0.65697500  0.00719000  0.81276100  1
