# generated using pymatgen
data_CuNi2C3
_symmetry_space_group_name_H-M   'P 1'
_cell_length_a   6.23366420
_cell_length_b   11.09102144
_cell_length_c   7.72439188
_cell_angle_alpha   89.99999682
_cell_angle_beta   89.38749786
_cell_angle_gamma   152.82390384
_symmetry_Int_Tables_number   1
_chemical_formula_structural   CuNi2C3
_chemical_formula_sum   'Cu4 Ni8 C12'
_cell_volume   243.84663790
_cell_formula_units_Z   4
loop_
 _symmetry_equiv_pos_site_id
 _symmetry_equiv_pos_as_xyz
  1  'x, y, z'
loop_
 _atom_site_type_symbol
 _atom_site_label
 _atom_site_symmetry_multiplicity
 _atom_site_fract_x
 _atom_site_fract_y
 _atom_site_fract_z
 _atom_site_occupancy
  Ni  Ni0  1  0.71168500  0.15510500  0.86894000  1
  Ni  Ni1  1  0.28831500  0.44342000  0.63106000  1
  Ni  Ni2  1  0.28831500  0.84489500  0.13106000  1
  Ni  Ni3  1  0.71168500  0.55658000  0.36894000  1
  Ni  Ni4  1  0.61062000  0.96055700  0.61662100  1
  Ni  Ni5  1  0.38938000  0.34993800  0.88337900  1
  Ni  Ni6  1  0.38938000  0.03944300  0.38337900  1
  Ni  Ni7  1  0.61062000  0.65006200  0.11662100  1
  Cu  Cu8  1  0.61297700  0.31848600  0.63531000  1
  Cu  Cu9  1  0.38702300  0.70551000  0.86469000  1
  Cu  Cu10  1  0.38702300  0.68151400  0.36469000  1
  Cu  Cu11  1  0.61297700  0.29449000  0.13531000  1
  C  C12  1  0.00000000  0.63558300  0.75000000  1
  C  C13  1  0.00000000  0.36441700  0.25000000  1
  C  C14  1  0.64415200  0.15368000  0.62856200  1
  C  C15  1  0.35584800  0.50952800  0.87143800  1
  C  C16  1  0.35584800  0.84632000  0.37143800  1
  C  C17  1  0.64415200  0.49047200  0.12856200  1
  C  C18  1  0.24438400  0.97344500  0.00749000  1
  C  C19  1  0.75561600  0.72906200  0.49251000  1
  C  C20  1  0.75561600  0.02655500  0.99251000  1
  C  C21  1  0.24438400  0.27093800  0.50749000  1
  C  C22  1  0.00000000  0.04905900  0.75000000  1
  C  C23  1  0.00000000  0.95094100  0.25000000  1
