# generated using pymatgen
data_Cu4Ni2C17
_symmetry_space_group_name_H-M   'P 1'
_cell_length_a   6.83976008
_cell_length_b   6.83976008
_cell_length_c   14.10349400
_cell_angle_alpha   90.00000000
_cell_angle_beta   90.00000000
_cell_angle_gamma   91.44821260
_symmetry_Int_Tables_number   1
_chemical_formula_structural   Cu4Ni2C17
_chemical_formula_sum   'Cu8 Ni4 C34'
_cell_volume   659.58338676
_cell_formula_units_Z   2
loop_
 _symmetry_equiv_pos_site_id
 _symmetry_equiv_pos_as_xyz
  1  'x, y, z'
loop_
 _atom_site_type_symbol
 _atom_site_label
 _atom_site_symmetry_multiplicity
 _atom_site_fract_x
 _atom_site_fract_y
 _atom_site_fract_z
 _atom_site_occupancy
  C  C0  1  0.22560400  0.22560400  0.00000000  1
  C  C1  1  0.77439600  0.77439600  0.50000000  1
  Ni  Ni2  1  0.85025900  0.14974100  0.75000000  1
  Ni  Ni3  1  0.14974100  0.85025900  0.25000000  1
  Ni  Ni4  1  0.64203300  0.64203300  0.00000000  1
  Ni  Ni5  1  0.35796700  0.35796700  0.50000000  1
  Cu  Cu6  1  0.74479000  0.14969100  0.99205500  1
  Cu  Cu7  1  0.14969100  0.74479000  0.00794500  1
  Cu  Cu8  1  0.25521000  0.85030900  0.49205500  1
  Cu  Cu9  1  0.85030900  0.25521000  0.50794500  1
  Cu  Cu10  1  0.35250200  0.24707100  0.73819100  1
  Cu  Cu11  1  0.24707100  0.35250200  0.26180900  1
  Cu  Cu12  1  0.64749800  0.75292900  0.23819100  1
  Cu  Cu13  1  0.75292900  0.64749800  0.76180900  1
  C  C14  1  0.17084400  0.88195900  0.92165600  1
  C  C15  1  0.88195900  0.17084400  0.07834400  1
  C  C16  1  0.82915600  0.11804100  0.42165600  1
  C  C17  1  0.11804100  0.82915600  0.57834400  1
  C  C18  1  0.83076700  0.12056100  0.59688300  1
  C  C19  1  0.12056100  0.83076700  0.40311700  1
  C  C20  1  0.16923300  0.87943900  0.09688300  1
  C  C21  1  0.87943900  0.16923300  0.90311700  1
  C  C22  1  0.62039400  0.95824000  0.99420300  1
  C  C23  1  0.95824000  0.62039400  0.00579700  1
  C  C24  1  0.37960600  0.04176000  0.49420300  1
  C  C25  1  0.04176000  0.37960600  0.50579700  1
  C  C26  1  0.59925900  0.32038200  0.99279800  1
  C  C27  1  0.32038200  0.59925900  0.00720200  1
  C  C28  1  0.40074100  0.67961800  0.49279800  1
  C  C29  1  0.67961800  0.40074100  0.50720200  1
  C  C30  1  0.53531700  0.12657800  0.75488600  1
  C  C31  1  0.12657800  0.53531700  0.24511400  1
  C  C32  1  0.46468300  0.87342200  0.25488600  1
  C  C33  1  0.87342200  0.46468300  0.74511400  1
  C  C34  1  0.64103400  0.70169900  0.66985300  1
  C  C35  1  0.70169900  0.64103400  0.33014700  1
  C  C36  1  0.35896600  0.29830100  0.16985300  1
  C  C37  1  0.29830100  0.35896600  0.83014700  1
  C  C38  1  0.61859200  0.62332100  0.84831500  1
  C  C39  1  0.62332100  0.61859200  0.15168500  1
  C  C40  1  0.38140800  0.37667900  0.34831500  1
  C  C41  1  0.37667900  0.38140800  0.65168500  1
  C  C42  1  0.16495800  0.11686600  0.73056800  1
  C  C43  1  0.11686600  0.16495800  0.26943200  1
  C  C44  1  0.83504200  0.88313400  0.23056800  1
  C  C45  1  0.88313400  0.83504200  0.76943200  1
