# generated using pymatgen
data_Cu6Ni14C73
_symmetry_space_group_name_H-M   'P 1'
_cell_length_a   14.08049085
_cell_length_b   14.08049085
_cell_length_c   14.79477943
_cell_angle_alpha   61.58463378
_cell_angle_beta   61.58463378
_cell_angle_gamma   59.99999947
_symmetry_Int_Tables_number   1
_chemical_formula_structural   Cu6Ni14C73
_chemical_formula_sum   'Cu12 Ni28 C146'
_cell_volume   2122.39460958
_cell_formula_units_Z   2
loop_
 _symmetry_equiv_pos_site_id
 _symmetry_equiv_pos_as_xyz
  1  'x, y, z'
loop_
 _atom_site_type_symbol
 _atom_site_label
 _atom_site_symmetry_multiplicity
 _atom_site_fract_x
 _atom_site_fract_y
 _atom_site_fract_z
 _atom_site_occupancy
  C  C0  1  0.24999700  0.25000000  0.25000300  1
  C  C1  1  0.74999700  0.75000000  0.75000300  1
  C  C2  1  0.41816927  0.03370863  0.17954828  1
  C  C3  1  0.03370863  0.36857383  0.17954828  1
  C  C4  1  0.36857383  0.41816927  0.17954828  1
  C  C5  1  0.91816927  0.86857383  0.67954828  1
  C  C6  1  0.86857383  0.53370863  0.67954828  1
  C  C7  1  0.53370863  0.91816927  0.67954828  1
  C  C8  1  0.58183073  0.96629137  0.82045172  1
  C  C9  1  0.96629137  0.63142617  0.82045172  1
  C  C10  1  0.63142617  0.58183073  0.82045172  1
  C  C11  1  0.08183073  0.13142617  0.32045172  1
  C  C12  1  0.13142617  0.46629137  0.32045172  1
  C  C13  1  0.46629137  0.08183073  0.32045172  1
  C  C14  1  0.38104241  0.76796117  0.35756072  1
  C  C15  1  0.76796117  0.49343570  0.35756072  1
  C  C16  1  0.49343570  0.38104241  0.35756072  1
  C  C17  1  0.88104241  0.99343570  0.85756072  1
  C  C18  1  0.99343570  0.26796117  0.85756072  1
  C  C19  1  0.26796117  0.88104241  0.85756072  1
  C  C20  1  0.61895759  0.23203883  0.64243928  1
  C  C21  1  0.23203883  0.50656430  0.64243928  1
  C  C22  1  0.50656430  0.61895759  0.64243928  1
  C  C23  1  0.11895759  0.00656430  0.14243928  1
  C  C24  1  0.00656430  0.73203883  0.14243928  1
  C  C25  1  0.73203883  0.11895759  0.14243928  1
  C  C26  1  0.52287939  0.79299836  0.19901884  1
  C  C27  1  0.79299836  0.48510341  0.19901884  1
  C  C28  1  0.48510341  0.52287939  0.19901884  1
  C  C29  1  0.02287939  0.98510341  0.69901884  1
  C  C30  1  0.98510341  0.29299836  0.69901884  1
  C  C31  1  0.29299836  0.02287939  0.69901884  1
  C  C32  1  0.47712061  0.20700164  0.80098116  1
  C  C33  1  0.20700164  0.51489659  0.80098116  1
  C  C34  1  0.51489659  0.47712061  0.80098116  1
  C  C35  1  0.97712061  0.01489659  0.30098116  1
  C  C36  1  0.01489659  0.70700164  0.30098116  1
  C  C37  1  0.70700164  0.97712061  0.30098116  1
  C  C38  1  0.49460796  0.91042844  0.08166129  1
  C  C39  1  0.91042844  0.51330230  0.08166129  1
  C  C40  1  0.51330230  0.49460796  0.08166129  1
  C  C41  1  0.99460796  0.01330230  0.58166129  1
  C  C42  1  0.01330230  0.41042844  0.58166129  1
  C  C43  1  0.41042844  0.99460796  0.58166129  1
  C  C44  1  0.50539204  0.08957156  0.91833871  1
  C  C45  1  0.08957156  0.48669770  0.91833871  1
  C  C46  1  0.48669770  0.50539204  0.91833871  1
  C  C47  1  0.00539204  0.98669770  0.41833871  1
  C  C48  1  0.98669770  0.58957156  0.41833871  1
  C  C49  1  0.58957156  0.00539204  0.41833871  1
  C  C50  1  0.38859060  0.84629674  0.17704692  1
  C  C51  1  0.84629674  0.58806574  0.17704692  1
  C  C52  1  0.58806574  0.38859060  0.17704692  1
  C  C53  1  0.88859060  0.08806574  0.67704692  1
  C  C54  1  0.08806574  0.34629674  0.67704692  1
  C  C55  1  0.34629674  0.88859060  0.67704692  1
  C  C56  1  0.61140940  0.15370326  0.82295308  1
  C  C57  1  0.15370326  0.41193426  0.82295308  1
  C  C58  1  0.41193426  0.61140940  0.82295308  1
  C  C59  1  0.11140940  0.91193426  0.32295308  1
  C  C60  1  0.91193426  0.65370326  0.32295308  1
  C  C61  1  0.65370326  0.11140940  0.32295308  1
  C  C62  1  0.28528627  0.83466273  0.54819594  1
  C  C63  1  0.83466273  0.33185506  0.54819594  1
  C  C64  1  0.33185506  0.28528627  0.54819594  1
  C  C65  1  0.78528627  0.83185506  0.04819594  1
  C  C66  1  0.83185506  0.33466273  0.04819594  1
  C  C67  1  0.33466273  0.78528627  0.04819594  1
  C  C68  1  0.71471373  0.16533727  0.45180406  1
  C  C69  1  0.16533727  0.66814494  0.45180406  1
  C  C70  1  0.66814494  0.71471373  0.45180406  1
  C  C71  1  0.21471373  0.16814494  0.95180406  1
  C  C72  1  0.16814494  0.66533727  0.95180406  1
  C  C73  1  0.66533727  0.21471373  0.95180406  1
  C  C74  1  0.28510990  0.71515998  0.53566370  1
  C  C75  1  0.71515998  0.46406641  0.53566370  1
  C  C76  1  0.46406641  0.28510990  0.53566370  1
  C  C77  1  0.78510990  0.96406641  0.03566370  1
  C  C78  1  0.96406641  0.21515998  0.03566370  1
  C  C79  1  0.21515998  0.78510990  0.03566370  1
  C  C80  1  0.71489010  0.28484002  0.46433630  1
  C  C81  1  0.28484002  0.53593359  0.46433630  1
  C  C82  1  0.53593359  0.71489010  0.46433630  1
  C  C83  1  0.21489010  0.03593359  0.96433630  1
  C  C84  1  0.03593359  0.78484002  0.96433630  1
  C  C85  1  0.78484002  0.21489010  0.96433630  1
  C  C86  1  0.17239924  0.85267244  0.51188793  1
  C  C87  1  0.85267244  0.46304039  0.51188793  1
  C  C88  1  0.46304039  0.17239924  0.51188793  1
  C  C89  1  0.67239924  0.96304039  0.01188793  1
  C  C90  1  0.96304039  0.35267244  0.01188793  1
  C  C91  1  0.35267244  0.67239924  0.01188793  1
  C  C92  1  0.82760076  0.14732756  0.48811207  1
  C  C93  1  0.14732756  0.53695961  0.48811207  1
  C  C94  1  0.53695961  0.82760076  0.48811207  1
  C  C95  1  0.32760076  0.03695961  0.98811207  1
  C  C96  1  0.03695961  0.64732756  0.98811207  1
  C  C97  1  0.64732756  0.32760076  0.98811207  1
  C  C98  1  0.34603664  0.93901504  0.32821607  1
  C  C99  1  0.93901504  0.38673225  0.32821607  1
  C  C100  1  0.38673225  0.34603664  0.32821607  1
  C  C101  1  0.84603664  0.88673225  0.82821607  1
  C  C102  1  0.88673225  0.43901504  0.82821607  1
  C  C103  1  0.43901504  0.84603664  0.82821607  1
  C  C104  1  0.65396336  0.06098496  0.67178393  1
  C  C105  1  0.06098496  0.61326775  0.67178393  1
  C  C106  1  0.61326775  0.65396336  0.67178393  1
  C  C107  1  0.15396336  0.11326775  0.17178393  1
  C  C108  1  0.11326775  0.56098496  0.17178393  1
  C  C109  1  0.56098496  0.15396336  0.17178393  1
  C  C110  1  0.45592382  0.87147845  0.16793332  1
  C  C111  1  0.87147845  0.50466441  0.16793332  1
  C  C112  1  0.50466441  0.45592382  0.16793332  1
  C  C113  1  0.95592382  0.00466441  0.66793332  1
  C  C114  1  0.00466441  0.37147845  0.66793332  1
  C  C115  1  0.37147845  0.95592382  0.66793332  1
  C  C116  1  0.54407618  0.12852155  0.83206668  1
  C  C117  1  0.12852155  0.49533559  0.83206668  1
  C  C118  1  0.49533559  0.54407618  0.83206668  1
  C  C119  1  0.04407618  0.99533559  0.33206668  1
  C  C120  1  0.99533559  0.62852155  0.33206668  1
  C  C121  1  0.62852155  0.04407618  0.33206668  1
  C  C122  1  0.26517593  0.80855556  0.50221394  1
  C  C123  1  0.80855556  0.42405457  0.50221394  1
  C  C124  1  0.42405457  0.26517593  0.50221394  1
  C  C125  1  0.76517593  0.92405457  0.00221394  1
  C  C126  1  0.92405457  0.30855556  0.00221394  1
  C  C127  1  0.30855556  0.76517593  0.00221394  1
  C  C128  1  0.73482407  0.19144444  0.49778606  1
  C  C129  1  0.19144444  0.57594543  0.49778606  1
  C  C130  1  0.57594543  0.73482407  0.49778606  1
  C  C131  1  0.23482407  0.07594543  0.99778606  1
  C  C132  1  0.07594543  0.69144444  0.99778606  1
  C  C133  1  0.69144444  0.23482407  0.99778606  1
  C  C134  1  0.28551109  0.04662766  0.38505659  1
  C  C135  1  0.04662766  0.28280466  0.38505659  1
  C  C136  1  0.28280466  0.28551109  0.38505659  1
  C  C137  1  0.78551109  0.78280466  0.88505659  1
  C  C138  1  0.78280466  0.54662766  0.88505659  1
  C  C139  1  0.54662766  0.78551109  0.88505659  1
  C  C140  1  0.71448891  0.95337234  0.61494341  1
  C  C141  1  0.95337234  0.71719534  0.61494341  1
  C  C142  1  0.71719534  0.71448891  0.61494341  1
  C  C143  1  0.21448891  0.21719534  0.11494341  1
  C  C144  1  0.21719534  0.45337234  0.11494341  1
  C  C145  1  0.45337234  0.21448891  0.11494341  1
  Ni  Ni146  1  0.40777233  0.95544769  0.22287055  1
  Ni  Ni147  1  0.95544769  0.41390942  0.22287055  1
  Ni  Ni148  1  0.41390942  0.40777233  0.22287055  1
  Ni  Ni149  1  0.90777233  0.91390942  0.72287055  1
  Ni  Ni150  1  0.91390942  0.45544769  0.72287055  1
  Ni  Ni151  1  0.45544769  0.90777233  0.72287055  1
  Ni  Ni152  1  0.59222767  0.04455231  0.77712945  1
  Ni  Ni153  1  0.04455231  0.58609058  0.77712945  1
  Ni  Ni154  1  0.58609058  0.59222767  0.77712945  1
  Ni  Ni155  1  0.09222767  0.08609058  0.27712945  1
  Ni  Ni156  1  0.08609058  0.54455231  0.27712945  1
  Ni  Ni157  1  0.54455231  0.09222767  0.27712945  1
  Ni  Ni158  1  0.33390768  0.83592503  0.38874627  1
  Ni  Ni159  1  0.83592503  0.44142102  0.38874627  1
  Ni  Ni160  1  0.44142102  0.33390768  0.38874627  1
  Ni  Ni161  1  0.83390768  0.94142102  0.88874627  1
  Ni  Ni162  1  0.94142102  0.33592503  0.88874627  1
  Ni  Ni163  1  0.33592503  0.83390768  0.88874627  1
  Ni  Ni164  1  0.66609232  0.16407497  0.61125373  1
  Ni  Ni165  1  0.16407497  0.55857898  0.61125373  1
  Ni  Ni166  1  0.55857898  0.66609232  0.61125373  1
  Ni  Ni167  1  0.16609232  0.05857898  0.11125373  1
  Ni  Ni168  1  0.05857898  0.66407497  0.11125373  1
  Ni  Ni169  1  0.66407497  0.16609232  0.11125373  1
  Ni  Ni170  1  0.55267445  0.55267445  0.34197665  1
  Ni  Ni171  1  0.05267445  0.05267445  0.84197665  1
  Ni  Ni172  1  0.44732555  0.44732555  0.65802335  1
  Ni  Ni173  1  0.94732555  0.94732555  0.15802335  1
  Cu  Cu174  1  0.61129846  0.59817159  0.34171623  1
  Cu  Cu175  1  0.59817159  0.44881372  0.34171623  1
  Cu  Cu176  1  0.44881372  0.61129846  0.34171623  1
  Cu  Cu177  1  0.11129846  0.94881372  0.84171623  1
  Cu  Cu178  1  0.94881372  0.09817159  0.84171623  1
  Cu  Cu179  1  0.09817159  0.11129846  0.84171623  1
  Cu  Cu180  1  0.38870154  0.40182841  0.65828377  1
  Cu  Cu181  1  0.40182841  0.55118628  0.65828377  1
  Cu  Cu182  1  0.55118628  0.38870154  0.65828377  1
  Cu  Cu183  1  0.88870154  0.05118628  0.15828377  1
  Cu  Cu184  1  0.05118628  0.90182841  0.15828377  1
  Cu  Cu185  1  0.90182841  0.88870154  0.15828377  1
