# generated using pymatgen
data_Cu2NiC13
_symmetry_space_group_name_H-M   'P 1'
_cell_length_a   9.64888789
_cell_length_b   9.64888789
_cell_length_c   15.40194900
_cell_angle_alpha   90.00000000
_cell_angle_beta   90.00000000
_cell_angle_gamma   119.99999925
_symmetry_Int_Tables_number   1
_chemical_formula_structural   Cu2NiC13
_chemical_formula_sum   'Cu12 Ni6 C78'
_cell_volume   1241.82625278
_cell_formula_units_Z   6
loop_
 _symmetry_equiv_pos_site_id
 _symmetry_equiv_pos_as_xyz
  1  'x, y, z'
loop_
 _atom_site_type_symbol
 _atom_site_label
 _atom_site_symmetry_multiplicity
 _atom_site_fract_x
 _atom_site_fract_y
 _atom_site_fract_z
 _atom_site_occupancy
  C  C0  1  0.69785700  0.88838200  0.54222300  1
  C  C1  1  0.19052500  0.30214300  0.20889000  1
  C  C2  1  0.30214300  0.11161800  0.04222300  1
  C  C3  1  0.11161800  0.80947500  0.87555600  1
  C  C4  1  0.80947500  0.69785700  0.70889000  1
  C  C5  1  0.88838200  0.19052500  0.37555600  1
  C  C6  1  0.93662800  0.47093600  0.45821500  1
  C  C7  1  0.53430700  0.06337200  0.12488200  1
  C  C8  1  0.06337200  0.52906400  0.95821500  1
  C  C9  1  0.52906400  0.46569300  0.79154900  1
  C  C10  1  0.46569300  0.93662800  0.62488200  1
  C  C11  1  0.47093600  0.53430700  0.29154900  1
  Ni  Ni12  1  0.68239300  0.84582200  0.96015200  1
  Ni  Ni13  1  0.16342900  0.31760700  0.62681900  1
  Ni  Ni14  1  0.31760700  0.15417800  0.46015200  1
  Ni  Ni15  1  0.15417800  0.83657100  0.29348600  1
  Ni  Ni16  1  0.83657100  0.68239300  0.12681900  1
  Ni  Ni17  1  0.84582200  0.16342900  0.79348600  1
  Cu  Cu18  1  0.77206300  0.16623400  0.96485300  1
  Cu  Cu19  1  0.39417200  0.22793700  0.63152000  1
  Cu  Cu20  1  0.22793700  0.83376600  0.46485300  1
  Cu  Cu21  1  0.83376600  0.60582800  0.29818600  1
  Cu  Cu22  1  0.60582800  0.77206300  0.13152000  1
  Cu  Cu23  1  0.16623400  0.39417200  0.79818600  1
  Cu  Cu24  1  0.61527600  0.84620300  0.78637700  1
  Cu  Cu25  1  0.23092800  0.38472400  0.45304300  1
  Cu  Cu26  1  0.38472400  0.15379700  0.28637700  1
  Cu  Cu27  1  0.15379700  0.76907200  0.11971000  1
  Cu  Cu28  1  0.76907200  0.61527600  0.95304300  1
  Cu  Cu29  1  0.84620300  0.23092800  0.61971000  1
  C  C30  1  0.92474800  0.31019100  0.99870700  1
  C  C31  1  0.38544300  0.07525200  0.66537400  1
  C  C32  1  0.07525200  0.68980900  0.49870700  1
  C  C33  1  0.68980900  0.61455700  0.33204100  1
  C  C34  1  0.61455700  0.92474800  0.16537400  1
  C  C35  1  0.31019100  0.38544300  0.83204100  1
  C  C36  1  0.50817600  0.74153400  0.61135700  1
  C  C37  1  0.23335900  0.49182400  0.27802400  1
  C  C38  1  0.49182400  0.25846600  0.11135700  1
  C  C39  1  0.25846600  0.76664100  0.94469000  1
  C  C40  1  0.76664100  0.50817600  0.77802400  1
  C  C41  1  0.74153400  0.23335900  0.44469000  1
  C  C42  1  0.48369400  0.87023800  0.74520300  1
  C  C43  1  0.38654500  0.51630600  0.41187000  1
  C  C44  1  0.51630600  0.12976200  0.24520300  1
  C  C45  1  0.12976200  0.61345500  0.07853700  1
  C  C46  1  0.61345500  0.48369400  0.91187000  1
  C  C47  1  0.87023800  0.38654500  0.57853700  1
  C  C48  1  0.75289500  0.17948400  0.86464300  1
  C  C49  1  0.42659000  0.24710500  0.53131000  1
  C  C50  1  0.24710500  0.82051600  0.36464300  1
  C  C51  1  0.82051600  0.57341000  0.19797700  1
  C  C52  1  0.57341000  0.75289500  0.03131000  1
  C  C53  1  0.17948400  0.42659000  0.69797700  1
  C  C54  1  0.26342300  0.39584800  0.01784700  1
  C  C55  1  0.13242500  0.73657700  0.68451400  1
  C  C56  1  0.73657700  0.60415200  0.51784700  1
  C  C57  1  0.60415200  0.86757500  0.35118000  1
  C  C58  1  0.86757500  0.26342300  0.18451400  1
  C  C59  1  0.39584800  0.13242500  0.85118000  1
  C  C60  1  0.78679800  0.99245600  0.77091200  1
  C  C61  1  0.20565800  0.21320200  0.43757900  1
  C  C62  1  0.21320200  0.00754400  0.27091200  1
  C  C63  1  0.00754400  0.79434200  0.10424600  1
  C  C64  1  0.79434200  0.78679800  0.93757900  1
  C  C65  1  0.99245600  0.20565800  0.60424600  1
  C  C66  1  0.61804200  0.14362700  0.00767800  1
  C  C67  1  0.52558400  0.38195800  0.67434500  1
  C  C68  1  0.38195800  0.85637300  0.50767800  1
  C  C69  1  0.85637300  0.47441600  0.34101100  1
  C  C70  1  0.47441600  0.61804200  0.17434500  1
  C  C71  1  0.14362700  0.52558400  0.84101100  1
  C  C72  1  0.72589600  0.92598000  0.39693600  1
  C  C73  1  0.20008400  0.27410400  0.06360300  1
  C  C74  1  0.27410400  0.07402000  0.89693600  1
  C  C75  1  0.07402000  0.79991600  0.73026900  1
  C  C76  1  0.79991600  0.72589600  0.56360300  1
  C  C77  1  0.92598000  0.20008400  0.23026900  1
  C  C78  1  0.57663900  0.82154900  0.88477500  1
  C  C79  1  0.24491000  0.42336100  0.55144100  1
  C  C80  1  0.42336100  0.17845100  0.38477500  1
  C  C81  1  0.17845100  0.75509000  0.21810800  1
  C  C82  1  0.75509000  0.57663900  0.05144100  1
  C  C83  1  0.82154900  0.24491000  0.71810800  1
  C  C84  1  0.78864200  0.01470100  0.98246700  1
  C  C85  1  0.22606000  0.21135800  0.64913400  1
  C  C86  1  0.21135800  0.98529900  0.48246700  1
  C  C87  1  0.98529900  0.77394000  0.31580100  1
  C  C88  1  0.77394000  0.78864200  0.14913400  1
  C  C89  1  0.01470100  0.22606000  0.81580100  1
  C  C90  1  0.62507900  0.70306100  0.74784400  1
  C  C91  1  0.07798200  0.37492100  0.41451000  1
  C  C92  1  0.37492100  0.29693900  0.24784400  1
  C  C93  1  0.29693900  0.92201800  0.08117700  1
  C  C94  1  0.92201800  0.62507900  0.91451000  1
  C  C95  1  0.70306100  0.07798200  0.58117700  1
