# generated using pymatgen
data_CuNiC6
_symmetry_space_group_name_H-M   'P 1'
_cell_length_a   3.82744900
_cell_length_b   6.48201400
_cell_length_c   18.96781200
_cell_angle_alpha   90.00000000
_cell_angle_beta   90.00000000
_cell_angle_gamma   90.00000000
_symmetry_Int_Tables_number   1
_chemical_formula_structural   CuNiC6
_chemical_formula_sum   'Cu4 Ni4 C24'
_cell_volume   470.58341135
_cell_formula_units_Z   4
loop_
 _symmetry_equiv_pos_site_id
 _symmetry_equiv_pos_as_xyz
  1  'x, y, z'
loop_
 _atom_site_type_symbol
 _atom_site_label
 _atom_site_symmetry_multiplicity
 _atom_site_fract_x
 _atom_site_fract_y
 _atom_site_fract_z
 _atom_site_occupancy
  C  C0  1  0.25000000  0.77690600  0.19516600  1
  C  C1  1  0.25000000  0.27690600  0.30483400  1
  C  C2  1  0.75000000  0.22309400  0.80483400  1
  C  C3  1  0.75000000  0.72309400  0.69516600  1
  Ni  Ni4  1  0.25000000  0.77228900  0.89223400  1
  Ni  Ni5  1  0.25000000  0.27228900  0.60776600  1
  Ni  Ni6  1  0.75000000  0.22771100  0.10776600  1
  Ni  Ni7  1  0.75000000  0.72771100  0.39223400  1
  Cu  Cu8  1  0.25000000  0.31852600  0.96605000  1
  Cu  Cu9  1  0.25000000  0.81852600  0.53395000  1
  Cu  Cu10  1  0.75000000  0.68147400  0.03395000  1
  Cu  Cu11  1  0.75000000  0.18147400  0.46605000  1
  C  C12  1  0.25000000  0.64719900  0.00909800  1
  C  C13  1  0.25000000  0.14719900  0.49090200  1
  C  C14  1  0.75000000  0.35280100  0.99090200  1
  C  C15  1  0.75000000  0.85280100  0.50909800  1
  C  C16  1  0.25000000  0.84121100  0.79942000  1
  C  C17  1  0.25000000  0.34121100  0.70058000  1
  C  C18  1  0.75000000  0.15878900  0.20058000  1
  C  C19  1  0.75000000  0.65878900  0.29942000  1
  C  C20  1  0.25000000  0.06394700  0.92938600  1
  C  C21  1  0.25000000  0.56394700  0.57061400  1
  C  C22  1  0.75000000  0.93605300  0.07061400  1
  C  C23  1  0.75000000  0.43605300  0.42938600  1
  C  C24  1  0.25000000  0.23820800  0.07971900  1
  C  C25  1  0.25000000  0.73820800  0.42028100  1
  C  C26  1  0.75000000  0.76179200  0.92028100  1
  C  C27  1  0.75000000  0.26179200  0.57971900  1
  C  C28  1  0.25000000  0.46357500  0.88153700  1
  C  C29  1  0.25000000  0.96357500  0.61846300  1
  C  C30  1  0.75000000  0.53642500  0.11846300  1
  C  C31  1  0.75000000  0.03642500  0.38153700  1
