# generated using pymatgen
data_Cu4NiC
_symmetry_space_group_name_H-M   'P 1'
_cell_length_a   4.75958169
_cell_length_b   4.75958169
_cell_length_c   7.29764616
_cell_angle_alpha   87.61815012
_cell_angle_beta   87.61815012
_cell_angle_gamma   65.72754864
_symmetry_Int_Tables_number   1
_chemical_formula_structural   Cu4NiC
_chemical_formula_sum   'Cu8 Ni2 C2'
_cell_volume   150.51956396
_cell_formula_units_Z   2
loop_
 _symmetry_equiv_pos_site_id
 _symmetry_equiv_pos_as_xyz
  1  'x, y, z'
loop_
 _atom_site_type_symbol
 _atom_site_label
 _atom_site_symmetry_multiplicity
 _atom_site_fract_x
 _atom_site_fract_y
 _atom_site_fract_z
 _atom_site_occupancy
  C  C0  1  0.00000000  0.00000000  0.50000000  1
  C  C1  1  0.00000000  0.00000000  0.00000000  1
  Ni  Ni2  1  0.36455000  0.36455000  0.78523000  1
  Ni  Ni3  1  0.63545000  0.63545000  0.21477000  1
  Cu  Cu4  1  0.29134400  0.29134400  0.60789900  1
  Cu  Cu5  1  0.70865600  0.70865600  0.39210100  1
  Cu  Cu6  1  0.71085800  0.23852400  0.80098700  1
  Cu  Cu7  1  0.28914200  0.76147600  0.19901300  1
  Cu  Cu8  1  0.76147600  0.28914200  0.19901300  1
  Cu  Cu9  1  0.23852400  0.71085800  0.80098700  1
  Cu  Cu10  1  0.24205300  0.24205300  0.94580600  1
  Cu  Cu11  1  0.75794700  0.75794700  0.05419400  1
