# generated using pymatgen
data_CuNi2C5
_symmetry_space_group_name_H-M   'P 1'
_cell_length_a   7.76635000
_cell_length_b   9.47157600
_cell_length_c   14.57146648
_cell_angle_alpha   90.00000000
_cell_angle_beta   113.75573556
_cell_angle_gamma   90.00000000
_symmetry_Int_Tables_number   1
_chemical_formula_structural   CuNi2C5
_chemical_formula_sum   'Cu12 Ni24 C60'
_cell_volume   981.05249315
_cell_formula_units_Z   12
loop_
 _symmetry_equiv_pos_site_id
 _symmetry_equiv_pos_as_xyz
  1  'x, y, z'
loop_
 _atom_site_type_symbol
 _atom_site_label
 _atom_site_symmetry_multiplicity
 _atom_site_fract_x
 _atom_site_fract_y
 _atom_site_fract_z
 _atom_site_occupancy
  C  C0  1  0.10999200  0.56742500  0.13544600  1
  C  C1  1  0.10999200  0.93257500  0.63544600  1
  C  C2  1  0.89000800  0.43257500  0.86455400  1
  C  C3  1  0.89000800  0.06742500  0.36455400  1
  C  C4  1  0.11131100  0.65007000  0.94816100  1
  C  C5  1  0.11131100  0.84993000  0.44816100  1
  C  C6  1  0.88868900  0.34993000  0.05183900  1
  C  C7  1  0.88868900  0.15007000  0.55183900  1
  C  C8  1  0.80146100  0.68921800  0.77467900  1
  C  C9  1  0.80146100  0.81078200  0.27467900  1
  C  C10  1  0.19853900  0.31078200  0.22532100  1
  C  C11  1  0.19853900  0.18921800  0.72532100  1
  C  C12  1  0.54808800  0.74926800  0.86457100  1
  C  C13  1  0.54808800  0.75073200  0.36457100  1
  C  C14  1  0.45191200  0.25073200  0.13542900  1
  C  C15  1  0.45191200  0.24926800  0.63542900  1
  C  C16  1  0.52876000  0.73352900  0.98027500  1
  C  C17  1  0.52876000  0.76647100  0.48027500  1
  C  C18  1  0.47124000  0.26647100  0.01972500  1
  C  C19  1  0.47124000  0.23352900  0.51972500  1
  C  C20  1  0.73962300  0.58874400  0.09628100  1
  C  C21  1  0.73962300  0.91125600  0.59628100  1
  C  C22  1  0.26037700  0.41125600  0.90371900  1
  C  C23  1  0.26037700  0.08874400  0.40371900  1
  C  C24  1  0.99061500  0.90121000  0.12422100  1
  C  C25  1  0.99061500  0.59879000  0.62422100  1
  C  C26  1  0.00938500  0.09879000  0.87577900  1
  C  C27  1  0.00938500  0.40121000  0.37577900  1
  C  C28  1  0.04968000  0.05573300  0.08614900  1
  C  C29  1  0.04968000  0.44426700  0.58614900  1
  C  C30  1  0.95032000  0.94426700  0.91385100  1
  C  C31  1  0.95032000  0.55573300  0.41385100  1
  C  C32  1  0.85648500  0.26094000  0.21875200  1
  C  C33  1  0.85648500  0.23906000  0.71875200  1
  C  C34  1  0.14351500  0.73906000  0.78124800  1
  C  C35  1  0.14351500  0.76094000  0.28124800  1
  C  C36  1  0.69424000  0.05265800  0.95918400  1
  C  C37  1  0.69424000  0.44734200  0.45918400  1
  C  C38  1  0.30576000  0.94734200  0.04081600  1
  C  C39  1  0.30576000  0.55265800  0.54081600  1
  C  C40  1  0.45657000  0.05047900  0.87612500  1
  C  C41  1  0.45657000  0.44952100  0.37612500  1
  C  C42  1  0.54343000  0.94952100  0.12387500  1
  C  C43  1  0.54343000  0.55047900  0.62387500  1
  C  C44  1  0.48837100  0.38611200  0.78263700  1
  C  C45  1  0.48837100  0.11388800  0.28263700  1
  C  C46  1  0.51162900  0.61388800  0.21736300  1
  C  C47  1  0.51162900  0.88611200  0.71736300  1
  C  C48  1  0.75570700  0.63055400  0.96925900  1
  C  C49  1  0.75570700  0.86944600  0.46925900  1
  C  C50  1  0.24429300  0.36944600  0.03074100  1
  C  C51  1  0.24429300  0.13055400  0.53074100  1
  C  C52  1  0.89959100  0.07891500  0.17346600  1
  C  C53  1  0.89959100  0.42108500  0.67346600  1
  C  C54  1  0.10040900  0.92108500  0.82653400  1
  C  C55  1  0.10040900  0.57891500  0.32653400  1
  C  C56  1  0.60389300  0.23138000  0.87127000  1
  C  C57  1  0.60389300  0.26862000  0.37127000  1
  C  C58  1  0.39610700  0.76862000  0.12873000  1
  C  C59  1  0.39610700  0.73138000  0.62873000  1
  Ni  Ni60  1  0.60156700  0.71654100  0.93710800  1
  Ni  Ni61  1  0.60156700  0.78345900  0.43710800  1
  Ni  Ni62  1  0.39843300  0.28345900  0.06289200  1
  Ni  Ni63  1  0.39843300  0.21654100  0.56289200  1
  Ni  Ni64  1  0.82134700  0.56591800  0.05791500  1
  Ni  Ni65  1  0.82134700  0.93408200  0.55791500  1
  Ni  Ni66  1  0.17865300  0.43408200  0.94208500  1
  Ni  Ni67  1  0.17865300  0.06591800  0.44208500  1
  Ni  Ni68  1  0.95788200  0.00496000  0.10842300  1
  Ni  Ni69  1  0.95788200  0.49504000  0.60842300  1
  Ni  Ni70  1  0.04211800  0.99504000  0.89157700  1
  Ni  Ni71  1  0.04211800  0.50496000  0.39157700  1
  Ni  Ni72  1  0.91857800  0.21920700  0.17477500  1
  Ni  Ni73  1  0.91857800  0.28079300  0.67477500  1
  Ni  Ni74  1  0.08142200  0.78079300  0.82522500  1
  Ni  Ni75  1  0.08142200  0.71920700  0.32522500  1
  Ni  Ni76  1  0.57936900  0.10441200  0.91046400  1
  Ni  Ni77  1  0.57936900  0.39558800  0.41046400  1
  Ni  Ni78  1  0.42063100  0.89558800  0.08953600  1
  Ni  Ni79  1  0.42063100  0.60441200  0.58953600  1
  Ni  Ni80  1  0.45419400  0.28723100  0.79823600  1
  Ni  Ni81  1  0.45419400  0.21276900  0.29823600  1
  Ni  Ni82  1  0.54580600  0.71276900  0.20176400  1
  Ni  Ni83  1  0.54580600  0.78723100  0.70176400  1
  Cu  Cu84  1  0.83854200  0.61694300  0.90801100  1
  Cu  Cu85  1  0.83854200  0.88305700  0.40801100  1
  Cu  Cu86  1  0.16145800  0.38305700  0.09198900  1
  Cu  Cu87  1  0.16145800  0.11694300  0.59198900  1
  Cu  Cu88  1  0.82598800  0.00665700  0.22370000  1
  Cu  Cu89  1  0.82598800  0.49334300  0.72370000  1
  Cu  Cu90  1  0.17401200  0.99334300  0.77630000  1
  Cu  Cu91  1  0.17401200  0.50665700  0.27630000  1
  Cu  Cu92  1  0.77234000  0.28598200  0.91213700  1
  Cu  Cu93  1  0.77234000  0.21401800  0.41213700  1
  Cu  Cu94  1  0.22766000  0.71401800  0.08786300  1
  Cu  Cu95  1  0.22766000  0.78598200  0.58786300  1
