# generated using pymatgen
data_CuNi11C23
_symmetry_space_group_name_H-M   'P 1'
_cell_length_a   7.76838100
_cell_length_b   8.30819900
_cell_length_c   17.89477700
_cell_angle_alpha   90.00000000
_cell_angle_beta   90.00000000
_cell_angle_gamma   90.00000000
_symmetry_Int_Tables_number   1
_chemical_formula_structural   CuNi11C23
_chemical_formula_sum   'Cu4 Ni44 C92'
_cell_volume   1154.95137010
_cell_formula_units_Z   4
loop_
 _symmetry_equiv_pos_site_id
 _symmetry_equiv_pos_as_xyz
  1  'x, y, z'
loop_
 _atom_site_type_symbol
 _atom_site_label
 _atom_site_symmetry_multiplicity
 _atom_site_fract_x
 _atom_site_fract_y
 _atom_site_fract_z
 _atom_site_occupancy
  C  C0  1  0.00000000  0.67210500  0.83993600  1
  C  C1  1  0.50000000  0.32789500  0.33993600  1
  C  C2  1  0.50000000  0.95955800  0.20296800  1
  C  C3  1  0.00000000  0.04044200  0.70296800  1
  C  C4  1  0.50000000  0.84243800  0.75704800  1
  C  C5  1  0.00000000  0.15756200  0.25704800  1
  C  C6  1  0.50000000  0.23074600  0.62793700  1
  C  C7  1  0.00000000  0.76925400  0.12793700  1
  C  C8  1  0.00000000  0.26680900  0.96015300  1
  C  C9  1  0.50000000  0.73319100  0.46015300  1
  C  C10  1  0.50000000  0.44784600  0.89797600  1
  C  C11  1  0.00000000  0.55215400  0.39797600  1
  Ni  Ni12  1  0.66568600  0.79076100  0.91186000  1
  Ni  Ni13  1  0.33431400  0.79076100  0.91186000  1
  Ni  Ni14  1  0.83431400  0.20923900  0.41186000  1
  Ni  Ni15  1  0.16568600  0.20923900  0.41186000  1
  Ni  Ni16  1  0.82611100  0.01544800  0.84586300  1
  Ni  Ni17  1  0.17388900  0.01544800  0.84586300  1
  Ni  Ni18  1  0.67388900  0.98455200  0.34586300  1
  Ni  Ni19  1  0.32611100  0.98455200  0.34586300  1
  Ni  Ni20  1  0.83054900  0.60284700  0.99937700  1
  Ni  Ni21  1  0.16945100  0.60284700  0.99937700  1
  Ni  Ni22  1  0.66945100  0.39715300  0.49937700  1
  Ni  Ni23  1  0.33054900  0.39715300  0.49937700  1
  Ni  Ni24  1  0.66287800  0.08538200  0.96226000  1
  Ni  Ni25  1  0.33712200  0.08538200  0.96226000  1
  Ni  Ni26  1  0.83712200  0.91461800  0.46226000  1
  Ni  Ni27  1  0.16287800  0.91461800  0.46226000  1
  Ni  Ni28  1  0.66764400  0.35211700  0.03850100  1
  Ni  Ni29  1  0.33235600  0.35211700  0.03850100  1
  Ni  Ni30  1  0.83235600  0.64788300  0.53850100  1
  Ni  Ni31  1  0.16764400  0.64788300  0.53850100  1
  Ni  Ni32  1  0.83521100  0.14689700  0.55798600  1
  Ni  Ni33  1  0.16478900  0.14689700  0.55798600  1
  Ni  Ni34  1  0.66478900  0.85310300  0.05798600  1
  Ni  Ni35  1  0.33521100  0.85310300  0.05798600  1
  Ni  Ni36  1  0.83255700  0.10332900  0.09525300  1
  Ni  Ni37  1  0.16744300  0.10332900  0.09525300  1
  Ni  Ni38  1  0.66744300  0.89667100  0.59525300  1
  Ni  Ni39  1  0.33255700  0.89667100  0.59525300  1
  Ni  Ni40  1  0.66649300  0.49957300  0.74846100  1
  Ni  Ni41  1  0.33350700  0.49957300  0.74846100  1
  Ni  Ni42  1  0.83350700  0.50042700  0.24846100  1
  Ni  Ni43  1  0.16649300  0.50042700  0.24846100  1
  Ni  Ni44  1  0.83152000  0.71089900  0.68355500  1
  Ni  Ni45  1  0.16848000  0.71089900  0.68355500  1
  Ni  Ni46  1  0.66848000  0.28910100  0.18355500  1
  Ni  Ni47  1  0.33152000  0.28910100  0.18355500  1
  Ni  Ni48  1  0.66155500  0.58673400  0.13321900  1
  Ni  Ni49  1  0.33844500  0.58673400  0.13321900  1
  Ni  Ni50  1  0.83844500  0.41326600  0.63321900  1
  Ni  Ni51  1  0.16155500  0.41326600  0.63321900  1
  Ni  Ni52  1  0.66640200  0.23077800  0.77126300  1
  Ni  Ni53  1  0.33359800  0.23077800  0.77126300  1
  Ni  Ni54  1  0.83359800  0.76922200  0.27126300  1
  Ni  Ni55  1  0.16640200  0.76922200  0.27126300  1
  Cu  Cu56  1  0.89478600  0.36659700  0.83070100  1
  Cu  Cu57  1  0.10521400  0.36659700  0.83070100  1
  Cu  Cu58  1  0.60521400  0.63340300  0.33070100  1
  Cu  Cu59  1  0.39478600  0.63340300  0.33070100  1
  C  C60  1  0.80447400  0.67675400  0.92594800  1
  C  C61  1  0.19552600  0.67675400  0.92594800  1
  C  C62  1  0.69552600  0.32324600  0.42594800  1
  C  C63  1  0.30447400  0.32324600  0.42594800  1
  C  C64  1  0.69881400  0.87761900  0.27623400  1
  C  C65  1  0.30118600  0.87761900  0.27623400  1
  C  C66  1  0.80118600  0.12238100  0.77623400  1
  C  C67  1  0.19881400  0.12238100  0.77623400  1
  C  C68  1  0.69691600  0.82920600  0.67048200  1
  C  C69  1  0.30308400  0.82920600  0.67048200  1
  C  C70  1  0.80308400  0.17079400  0.17048200  1
  C  C71  1  0.19691600  0.17079400  0.17048200  1
  C  C72  1  0.50000000  0.57871300  0.74515900  1
  C  C73  1  0.00000000  0.42128700  0.24515900  1
  C  C74  1  0.50000000  0.20898300  0.18615900  1
  C  C75  1  0.00000000  0.79101700  0.68615900  1
  C  C76  1  0.00000000  0.94190800  0.83702400  1
  C  C77  1  0.50000000  0.05809200  0.33702400  1
  C  C78  1  0.50000000  0.89255700  0.09198600  1
  C  C79  1  0.00000000  0.10744300  0.59198600  1
  C  C80  1  0.80415900  0.61567200  0.75109900  1
  C  C81  1  0.19584100  0.61567200  0.75109900  1
  C  C82  1  0.69584100  0.38432800  0.25109900  1
  C  C83  1  0.30415900  0.38432800  0.25109900  1
  C  C84  1  0.50000000  0.39463100  0.00786800  1
  C  C85  1  0.00000000  0.60536900  0.50786800  1
  C  C86  1  0.80709700  0.11692900  0.91261800  1
  C  C87  1  0.19290300  0.11692900  0.91261800  1
  C  C88  1  0.69290300  0.88307100  0.41261800  1
  C  C89  1  0.30709700  0.88307100  0.41261800  1
  C  C90  1  0.00000000  0.14473700  0.06504200  1
  C  C91  1  0.50000000  0.85526300  0.56504200  1
  C  C92  1  0.80057700  0.42937700  0.99483300  1
  C  C93  1  0.19942300  0.42937700  0.99483300  1
  C  C94  1  0.69942300  0.57062300  0.49483300  1
  C  C95  1  0.30057700  0.57062300  0.49483300  1
  C  C96  1  0.50000000  0.70417900  0.90828100  1
  C  C97  1  0.00000000  0.29582100  0.40828100  1
  C  C98  1  0.69327000  0.88783300  0.84474500  1
  C  C99  1  0.30673000  0.88783300  0.84474500  1
  C  C100  1  0.80673000  0.11216700  0.34474500  1
  C  C101  1  0.19327000  0.11216700  0.34474500  1
  C  C102  1  0.67346700  0.37977600  0.81264200  1
  C  C103  1  0.32653300  0.37977600  0.81264200  1
  C  C104  1  0.82653300  0.62022400  0.31264200  1
  C  C105  1  0.17346700  0.62022400  0.31264200  1
  C  C106  1  0.69508900  0.37368200  0.68613900  1
  C  C107  1  0.30491100  0.37368200  0.68613900  1
  C  C108  1  0.80491100  0.62631800  0.18613900  1
  C  C109  1  0.19508900  0.62631800  0.18613900  1
  C  C110  1  0.50000000  0.35890100  0.53011000  1
  C  C111  1  0.00000000  0.64109900  0.03011000  1
  C  C112  1  0.69640000  0.07137100  0.59898100  1
  C  C113  1  0.30360000  0.07137100  0.59898100  1
  C  C114  1  0.80360000  0.92862900  0.09898100  1
  C  C115  1  0.19640000  0.92862900  0.09898100  1
  C  C116  1  0.66686000  0.90721900  0.97919300  1
  C  C117  1  0.33314000  0.90721900  0.97919300  1
  C  C118  1  0.83314000  0.09278100  0.47919300  1
  C  C119  1  0.16686000  0.09278100  0.47919300  1
  C  C120  1  0.69785900  0.17251600  0.03869900  1
  C  C121  1  0.30214100  0.17251600  0.03869900  1
  C  C122  1  0.80214100  0.82748400  0.53869900  1
  C  C123  1  0.19785900  0.82748400  0.53869900  1
  C  C124  1  0.67663500  0.40898100  0.11764800  1
  C  C125  1  0.32336500  0.40898100  0.11764800  1
  C  C126  1  0.82336500  0.59101900  0.61764800  1
  C  C127  1  0.17663500  0.59101900  0.61764800  1
  C  C128  1  0.69801900  0.67221500  0.05789300  1
  C  C129  1  0.30198100  0.67221500  0.05789300  1
  C  C130  1  0.80198100  0.32778500  0.55789300  1
  C  C131  1  0.19801900  0.32778500  0.55789300  1
  C  C132  1  0.50000000  0.13405100  0.93213600  1
  C  C133  1  0.00000000  0.86594900  0.43213600  1
  C  C134  1  0.50000000  0.16352700  0.75349800  1
  C  C135  1  0.00000000  0.83647300  0.25349800  1
  C  C136  1  0.00000000  0.40475700  0.85632600  1
  C  C137  1  0.50000000  0.59524300  0.35632600  1
  C  C138  1  0.50000000  0.62988900  0.16390500  1
  C  C139  1  0.00000000  0.37011100  0.66390500  1
