# generated using pymatgen
data_Cu2Ni2C45
_symmetry_space_group_name_H-M   'P 1'
_cell_length_a   11.61202499
_cell_length_b   11.61202499
_cell_length_c   8.94328852
_cell_angle_alpha   87.42624402
_cell_angle_beta   87.42624402
_cell_angle_gamma   152.51888127
_symmetry_Int_Tables_number   1
_chemical_formula_structural   Cu2Ni2C45
_chemical_formula_sum   'Cu2 Ni2 C45'
_cell_volume   546.43739666
_cell_formula_units_Z   1
loop_
 _symmetry_equiv_pos_site_id
 _symmetry_equiv_pos_as_xyz
  1  'x, y, z'
loop_
 _atom_site_type_symbol
 _atom_site_label
 _atom_site_symmetry_multiplicity
 _atom_site_fract_x
 _atom_site_fract_y
 _atom_site_fract_z
 _atom_site_occupancy
  C  C0  1  0.05729800  0.48644700  0.67230500  1
  C  C1  1  0.51355300  0.94270200  0.32769500  1
  C  C2  1  0.94270200  0.51355300  0.32769500  1
  C  C3  1  0.48644700  0.05729800  0.67230500  1
  C  C4  1  0.92903900  0.64136500  0.64814100  1
  C  C5  1  0.65175000  0.79192500  0.34550800  1
  C  C6  1  0.35863500  0.07096100  0.35185900  1
  C  C7  1  0.07096100  0.35863500  0.35185900  1
  C  C8  1  0.34825000  0.20807500  0.65449200  1
  C  C9  1  0.28707300  0.71292700  0.00000000  1
  C  C10  1  0.20807500  0.34825000  0.65449200  1
  C  C11  1  0.00000000  0.00000000  0.00000000  1
  C  C12  1  0.42908200  0.57091800  0.00000000  1
  C  C13  1  0.79192500  0.65175000  0.34550800  1
  C  C14  1  0.64136500  0.92903900  0.64814100  1
  C  C15  1  0.57091800  0.42908200  0.00000000  1
  C  C16  1  0.71292700  0.28707300  0.00000000  1
  Ni  Ni17  1  0.23378300  0.23378300  0.31406600  1
  Ni  Ni18  1  0.76621700  0.76621700  0.68593400  1
  Cu  Cu19  1  0.85873000  0.14127000  0.00000000  1
  Cu  Cu20  1  0.14127000  0.85873000  0.00000000  1
  C  C21  1  0.68727300  0.98529800  0.40103500  1
  C  C22  1  0.17974200  0.62488700  0.36343500  1
  C  C23  1  0.93226500  0.93226500  0.35675500  1
  C  C24  1  0.30869500  0.30869500  0.12535200  1
  C  C25  1  0.82025800  0.37511300  0.63656500  1
  C  C26  1  0.31272700  0.01470200  0.59896500  1
  C  C27  1  0.01465500  0.59508000  0.11888400  1
  C  C28  1  0.98534500  0.40492000  0.88111600  1
  C  C29  1  0.69130500  0.69130500  0.87464800  1
  C  C30  1  0.12492100  0.27604200  0.88425300  1
  C  C31  1  0.28900700  0.40880400  0.38335700  1
  C  C32  1  0.01470200  0.31272700  0.59896500  1
  C  C33  1  0.40492000  0.98534500  0.88111600  1
  C  C34  1  0.72395800  0.87507900  0.11574700  1
  C  C35  1  0.59119600  0.71099300  0.61664300  1
  C  C36  1  0.06773500  0.06773500  0.64324500  1
  C  C37  1  0.27604200  0.12492100  0.88425300  1
  C  C38  1  0.87507900  0.72395800  0.11574700  1
  C  C39  1  0.59508000  0.01465500  0.11888400  1
  C  C40  1  0.12990100  0.41850700  0.12083000  1
  C  C41  1  0.87009900  0.58149300  0.87917000  1
  C  C42  1  0.40880400  0.28900700  0.38335700  1
  C  C43  1  0.41850700  0.12990100  0.12083000  1
  C  C44  1  0.62488700  0.17974200  0.36343500  1
  C  C45  1  0.71099300  0.59119600  0.61664300  1
  C  C46  1  0.58149300  0.87009900  0.87917000  1
  C  C47  1  0.98529800  0.68727300  0.40103500  1
  C  C48  1  0.37511300  0.82025800  0.63656500  1
