# generated using pymatgen
data_Cu2Ni4C9
_symmetry_space_group_name_H-M   'P 1'
_cell_length_a   6.04225264
_cell_length_b   5.84964287
_cell_length_c   6.04225403
_cell_angle_alpha   61.04900457
_cell_angle_beta   56.90180592
_cell_angle_gamma   61.04899754
_symmetry_Int_Tables_number   1
_chemical_formula_structural   Cu2Ni4C9
_chemical_formula_sum   'Cu2 Ni4 C9'
_cell_volume   149.35386689
_cell_formula_units_Z   1
loop_
 _symmetry_equiv_pos_site_id
 _symmetry_equiv_pos_as_xyz
  1  'x, y, z'
loop_
 _atom_site_type_symbol
 _atom_site_label
 _atom_site_symmetry_multiplicity
 _atom_site_fract_x
 _atom_site_fract_y
 _atom_site_fract_z
 _atom_site_occupancy
  C  C0  1  0.12498500  0.62501500  0.12498500  1
  Ni  Ni1  1  0.16119000  0.08881000  0.16119000  1
  Ni  Ni2  1  0.51630300  0.49024000  0.51630300  1
  Ni  Ni3  1  0.51630300  0.97715400  0.51630300  1
  Ni  Ni4  1  0.85350000  0.89650000  0.85350000  1
  Cu  Cu5  1  0.03019800  0.43948000  0.59084200  1
  Cu  Cu6  1  0.59084200  0.43948000  0.03019800  1
  C  C7  1  0.28193800  0.22611600  0.28193800  1
  C  C8  1  0.30070300  0.21585700  0.76758400  1
  C  C9  1  0.28193800  0.71001000  0.28193800  1
  C  C10  1  0.76758400  0.21585700  0.30070300  1
  C  C11  1  0.25139100  0.75812900  0.73235100  1
  C  C12  1  0.73288800  0.26555300  0.73288800  1
  C  C13  1  0.73235100  0.75812900  0.25139100  1
  C  C14  1  0.73288800  0.76867000  0.73288800  1
