# generated using pymatgen
data_Cu5Ni2C21
_symmetry_space_group_name_H-M   'P 1'
_cell_length_a   10.85950600
_cell_length_b   16.02186500
_cell_length_c   11.52859706
_cell_angle_alpha   90.00000000
_cell_angle_beta   113.39165532
_cell_angle_gamma   90.00000000
_symmetry_Int_Tables_number   1
_chemical_formula_structural   Cu5Ni2C21
_chemical_formula_sum   'Cu20 Ni8 C84'
_cell_volume   1840.99897226
_cell_formula_units_Z   4
loop_
 _symmetry_equiv_pos_site_id
 _symmetry_equiv_pos_as_xyz
  1  'x, y, z'
loop_
 _atom_site_type_symbol
 _atom_site_label
 _atom_site_symmetry_multiplicity
 _atom_site_fract_x
 _atom_site_fract_y
 _atom_site_fract_z
 _atom_site_occupancy
  C  C0  1  0.23517000  0.87616800  0.36056500  1
  C  C1  1  0.76483000  0.37616800  0.13943500  1
  C  C2  1  0.76483000  0.12383200  0.63943500  1
  C  C3  1  0.23517000  0.62383200  0.86056500  1
  C  C4  1  0.60751400  0.72404400  0.32774800  1
  C  C5  1  0.39248600  0.22404400  0.17225200  1
  C  C6  1  0.39248600  0.27595600  0.67225200  1
  C  C7  1  0.60751400  0.77595600  0.82774800  1
  C  C8  1  0.60758600  0.77903300  0.20147300  1
  C  C9  1  0.39241400  0.27903300  0.29852700  1
  C  C10  1  0.39241400  0.22096700  0.79852700  1
  C  C11  1  0.60758600  0.72096700  0.70147300  1
  C  C12  1  0.64782600  0.09552300  0.04210300  1
  C  C13  1  0.35217400  0.59552300  0.45789700  1
  C  C14  1  0.35217400  0.90447700  0.95789700  1
  C  C15  1  0.64782600  0.40447700  0.54210300  1
  C  C16  1  0.68078900  0.99317700  0.05872900  1
  C  C17  1  0.31921100  0.49317700  0.44127100  1
  C  C18  1  0.31921100  0.00682300  0.94127100  1
  C  C19  1  0.68078900  0.50682300  0.55872900  1
  C  C20  1  0.83527100  0.81974900  0.31568200  1
  C  C21  1  0.16472900  0.31974900  0.18431800  1
  C  C22  1  0.16472900  0.18025100  0.68431800  1
  C  C23  1  0.83527100  0.68025100  0.81568200  1
  C  C24  1  0.72976800  0.85006100  0.39567900  1
  C  C25  1  0.27023200  0.35006100  0.10432100  1
  C  C26  1  0.27023200  0.14993900  0.60432100  1
  C  C27  1  0.72976800  0.64993900  0.89567900  1
  C  C28  1  0.83693100  0.76043100  0.44865900  1
  C  C29  1  0.16306900  0.26043100  0.05134100  1
  C  C30  1  0.16306900  0.23956900  0.55134100  1
  C  C31  1  0.83693100  0.73956900  0.94865900  1
  C  C32  1  0.77877200  0.63307200  0.31817600  1
  C  C33  1  0.22122800  0.13307200  0.18182400  1
  C  C34  1  0.22122800  0.36692800  0.68182400  1
  C  C35  1  0.77877200  0.86692800  0.81817600  1
  C  C36  1  0.62824300  0.63157700  0.17694200  1
  C  C37  1  0.37175700  0.13157700  0.32305800  1
  C  C38  1  0.37175700  0.36842300  0.82305800  1
  C  C39  1  0.62824300  0.86842300  0.67694200  1
  C  C40  1  0.77136700  0.68941800  0.18065600  1
  C  C41  1  0.22863300  0.18941800  0.31934400  1
  C  C42  1  0.22863300  0.31058200  0.81934400  1
  C  C43  1  0.77136700  0.81058200  0.68065600  1
  C  C44  1  0.78518600  0.12125900  0.26208300  1
  C  C45  1  0.21481400  0.62125900  0.23791700  1
  C  C46  1  0.21481400  0.87874100  0.73791700  1
  C  C47  1  0.78518600  0.37874100  0.76208300  1
  C  C48  1  0.65160500  0.04866700  0.23733200  1
  C  C49  1  0.34839500  0.54866700  0.26266800  1
  C  C50  1  0.34839500  0.95133300  0.76266800  1
  C  C51  1  0.65160500  0.45133300  0.73733200  1
  C  C52  1  0.82043400  0.01177600  0.28008500  1
  C  C53  1  0.17956600  0.51177600  0.21991500  1
  C  C54  1  0.17956600  0.98822400  0.71991500  1
  C  C55  1  0.82043400  0.48822400  0.78008500  1
  C  C56  1  0.91572000  0.01534600  0.11477700  1
  C  C57  1  0.08428000  0.51534600  0.38522300  1
  C  C58  1  0.08428000  0.98465400  0.88522300  1
  C  C59  1  0.91572000  0.48465400  0.61477700  1
  C  C60  1  0.81785300  0.06396800  0.96523300  1
  C  C61  1  0.18214700  0.56396800  0.53476700  1
  C  C62  1  0.18214700  0.93603200  0.03476700  1
  C  C63  1  0.81785300  0.43603200  0.46523300  1
  C  C64  1  0.88815500  0.12597600  0.10516400  1
  C  C65  1  0.11184500  0.62597600  0.39483600  1
  C  C66  1  0.11184500  0.87402400  0.89483600  1
  C  C67  1  0.88815500  0.37402400  0.60516400  1
  C  C68  1  0.77530400  0.79765600  0.36655300  1
  C  C69  1  0.22469600  0.29765600  0.13344700  1
  C  C70  1  0.22469600  0.20234400  0.63344700  1
  C  C71  1  0.77530400  0.70234400  0.86655300  1
  C  C72  1  0.71480800  0.66883000  0.23549000  1
  C  C73  1  0.28519200  0.16883000  0.26451000  1
  C  C74  1  0.28519200  0.33117000  0.76451000  1
  C  C75  1  0.71480800  0.83117000  0.73549000  1
  C  C76  1  0.74646900  0.05901000  0.22778700  1
  C  C77  1  0.25353100  0.55901000  0.27221300  1
  C  C78  1  0.25353100  0.94099000  0.77221300  1
  C  C79  1  0.74646900  0.44099000  0.72778700  1
  C  C80  1  0.84474700  0.06528800  0.06710800  1
  C  C81  1  0.15525300  0.56528800  0.43289200  1
  C  C82  1  0.15525300  0.93471200  0.93289200  1
  C  C83  1  0.84474700  0.43471200  0.56710800  1
  Ni  Ni84  1  0.66550200  0.74386500  0.28001500  1
  Ni  Ni85  1  0.33449800  0.24386500  0.21998500  1
  Ni  Ni86  1  0.33449800  0.25613500  0.71998500  1
  Ni  Ni87  1  0.66550200  0.75613500  0.78001500  1
  Ni  Ni88  1  0.72160800  0.05253800  0.09164900  1
  Ni  Ni89  1  0.27839200  0.55253800  0.40835100  1
  Ni  Ni90  1  0.27839200  0.94746200  0.90835100  1
  Ni  Ni91  1  0.72160800  0.44746200  0.59164900  1
  Cu  Cu92  1  0.15880000  0.99242900  0.41097600  1
  Cu  Cu93  1  0.84120000  0.49242900  0.08902400  1
  Cu  Cu94  1  0.84120000  0.00757100  0.58902400  1
  Cu  Cu95  1  0.15880000  0.50757100  0.91097600  1
  Cu  Cu96  1  0.30773400  0.79080100  0.52366100  1
  Cu  Cu97  1  0.69226600  0.29080100  0.97633900  1
  Cu  Cu98  1  0.69226600  0.20919900  0.47633900  1
  Cu  Cu99  1  0.30773400  0.70919900  0.02366100  1
  Cu  Cu100  1  0.06622800  0.81703600  0.20373700  1
  Cu  Cu101  1  0.93377200  0.31703600  0.29626300  1
  Cu  Cu102  1  0.93377200  0.18296400  0.79626300  1
  Cu  Cu103  1  0.06622800  0.68296400  0.70373700  1
  Cu  Cu104  1  0.39901200  0.90541900  0.29932700  1
  Cu  Cu105  1  0.60098800  0.40541900  0.20067300  1
  Cu  Cu106  1  0.60098800  0.09458100  0.70067300  1
  Cu  Cu107  1  0.39901200  0.59458100  0.79932700  1
  Cu  Cu108  1  0.60022700  0.86633500  0.01425300  1
  Cu  Cu109  1  0.39977300  0.36633500  0.48574700  1
  Cu  Cu110  1  0.39977300  0.13366500  0.98574700  1
  Cu  Cu111  1  0.60022700  0.63366500  0.51425300  1
