# generated using pymatgen
data_Cu4NiC6
_symmetry_space_group_name_H-M   'P 1'
_cell_length_a   9.12876600
_cell_length_b   12.31238200
_cell_length_c   13.29316400
_cell_angle_alpha   90.00000000
_cell_angle_beta   90.00000000
_cell_angle_gamma   90.00000000
_symmetry_Int_Tables_number   1
_chemical_formula_structural   Cu4NiC6
_chemical_formula_sum   'Cu16 Ni4 C24'
_cell_volume   1494.10981571
_cell_formula_units_Z   4
loop_
 _symmetry_equiv_pos_site_id
 _symmetry_equiv_pos_as_xyz
  1  'x, y, z'
loop_
 _atom_site_type_symbol
 _atom_site_label
 _atom_site_symmetry_multiplicity
 _atom_site_fract_x
 _atom_site_fract_y
 _atom_site_fract_z
 _atom_site_occupancy
  Ni  Ni0  1  0.46709200  0.75000000  0.13814300  1
  Ni  Ni1  1  0.03290800  0.75000000  0.63814300  1
  Ni  Ni2  1  0.53290800  0.25000000  0.86185700  1
  Ni  Ni3  1  0.96709200  0.25000000  0.36185700  1
  Cu  Cu4  1  0.67965200  0.75000000  0.11305100  1
  Cu  Cu5  1  0.82034800  0.75000000  0.61305100  1
  Cu  Cu6  1  0.32034800  0.25000000  0.88694900  1
  Cu  Cu7  1  0.17965200  0.25000000  0.38694900  1
  Cu  Cu8  1  0.01541900  0.75000000  0.17609700  1
  Cu  Cu9  1  0.48458100  0.75000000  0.67609700  1
  Cu  Cu10  1  0.98458100  0.25000000  0.82390300  1
  Cu  Cu11  1  0.51541900  0.25000000  0.32390300  1
  Cu  Cu12  1  0.98045400  0.65754800  0.02910600  1
  Cu  Cu13  1  0.51954600  0.84245200  0.52910600  1
  Cu  Cu14  1  0.01954600  0.15754800  0.97089400  1
  Cu  Cu15  1  0.48045400  0.34245200  0.47089400  1
  Cu  Cu16  1  0.01954600  0.34245200  0.97089400  1
  Cu  Cu17  1  0.48045400  0.15754800  0.47089400  1
  Cu  Cu18  1  0.98045400  0.84245200  0.02910600  1
  Cu  Cu19  1  0.51954600  0.65754800  0.52910600  1
  C  C20  1  0.80692800  0.75000000  0.24432500  1
  C  C21  1  0.69307200  0.75000000  0.74432500  1
  C  C22  1  0.19307200  0.25000000  0.75567500  1
  C  C23  1  0.30692800  0.25000000  0.25567500  1
  C  C24  1  0.75605500  0.61594500  0.03213900  1
  C  C25  1  0.74394500  0.88405500  0.53213900  1
  C  C26  1  0.24394500  0.11594500  0.96786100  1
  C  C27  1  0.25605500  0.38405500  0.46786100  1
  C  C28  1  0.24394500  0.38405500  0.96786100  1
  C  C29  1  0.25605500  0.11594500  0.46786100  1
  C  C30  1  0.75605500  0.88405500  0.03213900  1
  C  C31  1  0.74394500  0.61594500  0.53213900  1
  C  C32  1  0.36390700  0.75000000  0.98474600  1
  C  C33  1  0.13609300  0.75000000  0.48474600  1
  C  C34  1  0.63609300  0.25000000  0.01525400  1
  C  C35  1  0.86390700  0.25000000  0.51525400  1
  C  C36  1  0.42014200  0.59809700  0.22295400  1
  C  C37  1  0.07985800  0.90190300  0.72295400  1
  C  C38  1  0.57985800  0.09809700  0.77704600  1
  C  C39  1  0.92014200  0.40190300  0.27704600  1
  C  C40  1  0.57985800  0.40190300  0.77704600  1
  C  C41  1  0.92014200  0.09809700  0.27704600  1
  C  C42  1  0.42014200  0.90190300  0.22295400  1
  C  C43  1  0.07985800  0.59809700  0.72295400  1
