# generated using pymatgen
data_Cu8Ni2C9
_symmetry_space_group_name_H-M   'P 1'
_cell_length_a   14.78802200
_cell_length_b   5.52165100
_cell_length_c   7.10203526
_cell_angle_alpha   71.61759513
_cell_angle_beta   90.00000000
_cell_angle_gamma   90.00000000
_symmetry_Int_Tables_number   1
_chemical_formula_structural   Cu8Ni2C9
_chemical_formula_sum   'Cu16 Ni4 C18'
_cell_volume   550.32048097
_cell_formula_units_Z   2
loop_
 _symmetry_equiv_pos_site_id
 _symmetry_equiv_pos_as_xyz
  1  'x, y, z'
loop_
 _atom_site_type_symbol
 _atom_site_label
 _atom_site_symmetry_multiplicity
 _atom_site_fract_x
 _atom_site_fract_y
 _atom_site_fract_z
 _atom_site_occupancy
  C  C0  1  0.00000000  0.50000000  0.50000000  1
  C  C1  1  0.50000000  0.00000000  0.50000000  1
  C  C2  1  0.11226500  0.71056800  0.24381700  1
  C  C3  1  0.88773500  0.28943200  0.75618300  1
  C  C4  1  0.61226500  0.78943200  0.75618300  1
  C  C5  1  0.38773500  0.21056800  0.24381700  1
  C  C6  1  0.08307500  0.05751900  0.86396200  1
  C  C7  1  0.91692500  0.94248100  0.13603800  1
  C  C8  1  0.58307500  0.44248100  0.13603800  1
  C  C9  1  0.41692500  0.55751900  0.86396200  1
  C  C10  1  0.36886500  0.19230800  0.34609300  1
  C  C11  1  0.63113500  0.80769200  0.65390700  1
  C  C12  1  0.86886500  0.30769200  0.65390700  1
  C  C13  1  0.13113500  0.69230800  0.34609300  1
  C  C14  1  0.11896300  0.74503200  0.74732100  1
  C  C15  1  0.88103700  0.25496800  0.25267900  1
  C  C16  1  0.61896300  0.75496800  0.25267900  1
  C  C17  1  0.38103700  0.24503200  0.74732100  1
  Ni  Ni18  1  0.84849200  0.76041400  0.85652600  1
  Ni  Ni19  1  0.15150800  0.23958600  0.14347400  1
  Ni  Ni20  1  0.34849200  0.73958600  0.14347400  1
  Ni  Ni21  1  0.65150800  0.26041400  0.85652600  1
  Cu  Cu22  1  0.45254400  0.05400000  0.72602000  1
  Cu  Cu23  1  0.54745600  0.94600000  0.27398000  1
  Cu  Cu24  1  0.95254400  0.44600000  0.27398000  1
  Cu  Cu25  1  0.04745600  0.55400000  0.72602000  1
  Cu  Cu26  1  0.18042200  0.61128100  0.91435200  1
  Cu  Cu27  1  0.81957800  0.38871900  0.08564800  1
  Cu  Cu28  1  0.68042200  0.88871900  0.08564800  1
  Cu  Cu29  1  0.31957800  0.11128100  0.91435200  1
  Cu  Cu30  1  0.04877100  0.91968200  0.83699900  1
  Cu  Cu31  1  0.95122900  0.08031800  0.16300100  1
  Cu  Cu32  1  0.54877100  0.58031800  0.16300100  1
  Cu  Cu33  1  0.45122900  0.41968200  0.83699900  1
  Cu  Cu34  1  0.18648900  0.24234500  0.28736000  1
  Cu  Cu35  1  0.81351100  0.75765500  0.71264000  1
  Cu  Cu36  1  0.68648900  0.25765500  0.71264000  1
  Cu  Cu37  1  0.31351100  0.74234500  0.28736000  1
