# generated using pymatgen
data_Cu(Ni3C2)4
_symmetry_space_group_name_H-M   'P 1'
_cell_length_a   10.16034845
_cell_length_b   10.16034845
_cell_length_c   7.31893000
_cell_angle_alpha   90.00000000
_cell_angle_beta   90.00000000
_cell_angle_gamma   120.00000294
_symmetry_Int_Tables_number   1
_chemical_formula_structural   Cu(Ni3C2)4
_chemical_formula_sum   'Cu2 Ni24 C16'
_cell_volume   654.32786760
_cell_formula_units_Z   2
loop_
 _symmetry_equiv_pos_site_id
 _symmetry_equiv_pos_as_xyz
  1  'x, y, z'
loop_
 _atom_site_type_symbol
 _atom_site_label
 _atom_site_symmetry_multiplicity
 _atom_site_fract_x
 _atom_site_fract_y
 _atom_site_fract_z
 _atom_site_occupancy
  C  C0  1  0.33333300  0.66666700  0.50116700  1
  C  C1  1  0.66666700  0.33333300  0.00116700  1
  C  C2  1  0.66666700  0.33333300  0.49883300  1
  C  C3  1  0.33333300  0.66666700  0.99883300  1
  C  C4  1  0.23878700  0.23956900  0.75000000  1
  C  C5  1  0.76043100  0.99921700  0.75000000  1
  C  C6  1  0.00078300  0.76121300  0.75000000  1
  C  C7  1  0.76121300  0.76043100  0.25000000  1
  C  C8  1  0.23956900  0.00078300  0.25000000  1
  C  C9  1  0.99921700  0.23878700  0.25000000  1
  C  C10  1  0.40517900  0.03046600  0.75000000  1
  C  C11  1  0.96953400  0.37471300  0.75000000  1
  C  C12  1  0.62528700  0.59482100  0.75000000  1
  C  C13  1  0.59482100  0.96953400  0.25000000  1
  C  C14  1  0.03046600  0.62528700  0.25000000  1
  C  C15  1  0.37471300  0.40517900  0.25000000  1
  Ni  Ni16  1  0.31726500  0.83549900  0.75000000  1
  Ni  Ni17  1  0.16450100  0.48176600  0.75000000  1
  Ni  Ni18  1  0.51823400  0.68273500  0.75000000  1
  Ni  Ni19  1  0.68273500  0.16450100  0.25000000  1
  Ni  Ni20  1  0.83549900  0.51823400  0.25000000  1
  Ni  Ni21  1  0.48176600  0.31726500  0.25000000  1
  Ni  Ni22  1  0.60174700  0.13001500  0.75000000  1
  Ni  Ni23  1  0.86998500  0.47173100  0.75000000  1
  Ni  Ni24  1  0.52826900  0.39825300  0.75000000  1
  Ni  Ni25  1  0.39825300  0.86998500  0.25000000  1
  Ni  Ni26  1  0.13001500  0.52826900  0.25000000  1
  Ni  Ni27  1  0.47173100  0.60174700  0.25000000  1
  Ni  Ni28  1  0.34816600  0.09193100  0.56261000  1
  Ni  Ni29  1  0.90806900  0.25623500  0.56261000  1
  Ni  Ni30  1  0.74376500  0.65183400  0.56261000  1
  Ni  Ni31  1  0.65183400  0.90806900  0.06261000  1
  Ni  Ni32  1  0.09193100  0.74376500  0.06261000  1
  Ni  Ni33  1  0.25623500  0.34816600  0.06261000  1
  Ni  Ni34  1  0.65183400  0.90806900  0.43739000  1
  Ni  Ni35  1  0.09193100  0.74376500  0.43739000  1
  Ni  Ni36  1  0.25623500  0.34816600  0.43739000  1
  Ni  Ni37  1  0.34816600  0.09193100  0.93739000  1
  Ni  Ni38  1  0.90806900  0.25623500  0.93739000  1
  Ni  Ni39  1  0.74376500  0.65183400  0.93739000  1
  Cu  Cu40  1  0.00000000  0.00000000  0.50000000  1
  Cu  Cu41  1  0.00000000  0.00000000  0.00000000  1
