# generated using pymatgen
data_Cu4NiC22
_symmetry_space_group_name_H-M   'P 1'
_cell_length_a   19.89926600
_cell_length_b   5.55370300
_cell_length_c   6.90553306
_cell_angle_alpha   73.38379571
_cell_angle_beta   90.00000000
_cell_angle_gamma   90.00000000
_symmetry_Int_Tables_number   1
_chemical_formula_structural   Cu4NiC22
_chemical_formula_sum   'Cu8 Ni2 C44'
_cell_volume   731.29398357
_cell_formula_units_Z   2
loop_
 _symmetry_equiv_pos_site_id
 _symmetry_equiv_pos_as_xyz
  1  'x, y, z'
loop_
 _atom_site_type_symbol
 _atom_site_label
 _atom_site_symmetry_multiplicity
 _atom_site_fract_x
 _atom_site_fract_y
 _atom_site_fract_z
 _atom_site_occupancy
  Ni  Ni0  1  0.25000000  0.75803900  0.81355600  1
  Ni  Ni1  1  0.75000000  0.24196100  0.18644400  1
  Cu  Cu2  1  0.03862100  0.69826200  0.11739700  1
  Cu  Cu3  1  0.53862100  0.30173800  0.88260300  1
  Cu  Cu4  1  0.96137900  0.30173800  0.88260300  1
  Cu  Cu5  1  0.46137900  0.69826200  0.11739700  1
  Cu  Cu6  1  0.15846300  0.35278200  0.48071800  1
  Cu  Cu7  1  0.65846300  0.64721800  0.51928200  1
  Cu  Cu8  1  0.84153700  0.64721800  0.51928200  1
  Cu  Cu9  1  0.34153700  0.35278200  0.48071800  1
  C  C10  1  0.25000000  0.93603300  0.28118300  1
  C  C11  1  0.75000000  0.06396700  0.71881700  1
  C  C12  1  0.13552300  0.22962600  0.00608800  1
  C  C13  1  0.63552300  0.77037400  0.99391200  1
  C  C14  1  0.86447700  0.77037400  0.99391200  1
  C  C15  1  0.36447700  0.22962600  0.00608800  1
  C  C16  1  0.06102500  0.80337000  0.59522100  1
  C  C17  1  0.56102500  0.19663000  0.40477900  1
  C  C18  1  0.93897500  0.19663000  0.40477900  1
  C  C19  1  0.43897500  0.80337000  0.59522100  1
  C  C20  1  0.25000000  0.13660300  0.41506200  1
  C  C21  1  0.75000000  0.86339700  0.58493800  1
  C  C22  1  0.25000000  0.64158900  0.41849500  1
  C  C23  1  0.75000000  0.35841100  0.58150500  1
  C  C24  1  0.18367800  0.98179900  0.12925300  1
  C  C25  1  0.68367800  0.01820100  0.87074700  1
  C  C26  1  0.81632200  0.01820100  0.87074700  1
  C  C27  1  0.31632200  0.98179900  0.12925300  1
  C  C28  1  0.17358200  0.36241600  0.79406100  1
  C  C29  1  0.67358200  0.63758400  0.20593900  1
  C  C30  1  0.82641800  0.63758400  0.20593900  1
  C  C31  1  0.32641800  0.36241600  0.79406100  1
  C  C32  1  0.06277100  0.10214500  0.98126000  1
  C  C33  1  0.56277100  0.89785500  0.01874000  1
  C  C34  1  0.93722900  0.89785500  0.01874000  1
  C  C35  1  0.43722900  0.10214500  0.98126000  1
  C  C36  1  0.12951900  0.42275800  0.14816200  1
  C  C37  1  0.62951900  0.57724200  0.85183800  1
  C  C38  1  0.87048100  0.57724200  0.85183800  1
  C  C39  1  0.37048100  0.42275800  0.14816200  1
  C  C40  1  0.12856800  0.95990700  0.61400900  1
  C  C41  1  0.62856800  0.04009300  0.38599100  1
  C  C42  1  0.87143200  0.04009300  0.38599100  1
  C  C43  1  0.37143200  0.95990700  0.61400900  1
  C  C44  1  0.03374800  0.62521300  0.81432100  1
  C  C45  1  0.53374800  0.37478700  0.18567900  1
  C  C46  1  0.96625200  0.37478700  0.18567900  1
  C  C47  1  0.46625200  0.62521300  0.81432100  1
  C  C48  1  0.00000000  0.00000000  0.50000000  1
  C  C49  1  0.50000000  0.00000000  0.50000000  1
  C  C50  1  0.07364400  0.62972900  0.43907300  1
  C  C51  1  0.57364400  0.37027100  0.56092700  1
  C  C52  1  0.92635600  0.37027100  0.56092700  1
  C  C53  1  0.42635600  0.62972900  0.43907300  1
