# generated using pymatgen
data_Cu7NiC28
_symmetry_space_group_name_H-M   'P 1'
_cell_length_a   11.03453164
_cell_length_b   11.82867375
_cell_length_c   17.80188812
_cell_angle_alpha   109.41459859
_cell_angle_beta   108.00320449
_cell_angle_gamma   89.93456515
_symmetry_Int_Tables_number   1
_chemical_formula_structural   Cu7NiC28
_chemical_formula_sum   'Cu28 Ni4 C112'
_cell_volume   2070.74183171
_cell_formula_units_Z   4
loop_
 _symmetry_equiv_pos_site_id
 _symmetry_equiv_pos_as_xyz
  1  'x, y, z'
loop_
 _atom_site_type_symbol
 _atom_site_label
 _atom_site_symmetry_multiplicity
 _atom_site_fract_x
 _atom_site_fract_y
 _atom_site_fract_z
 _atom_site_occupancy
  C  C0  1  0.30184500  0.06225200  0.11171800  1
  C  C1  1  0.30535200  0.06404700  0.60961000  1
  C  C2  1  0.30484100  0.56618700  0.61054300  1
  C  C3  1  0.80516900  0.06451800  0.61146600  1
  C  C4  1  0.80482700  0.56480900  0.11085100  1
  C  C5  1  0.80302400  0.56429500  0.61023900  1
  C  C6  1  0.19357100  0.43494100  0.38798700  1
  C  C7  1  0.19184900  0.43592700  0.89277800  1
  C  C8  1  0.19203500  0.93371500  0.38612600  1
  C  C9  1  0.19288900  0.93567600  0.88901800  1
  C  C10  1  0.69359900  0.43534000  0.38831200  1
  C  C11  1  0.69318100  0.93507700  0.38958000  1
  C  C12  1  0.69260100  0.93640700  0.88904100  1
  C  C13  1  0.05367100  0.29697100  0.11140800  1
  C  C14  1  0.05324900  0.29393600  0.60935700  1
  C  C15  1  0.05281600  0.79651700  0.60997900  1
  C  C16  1  0.55511500  0.29600700  0.11137900  1
  C  C17  1  0.55513100  0.29797800  0.61327400  1
  C  C18  1  0.55046400  0.79642200  0.11100200  1
  C  C19  1  0.55487900  0.79643500  0.61133200  1
  C  C20  1  0.44404800  0.20307000  0.38888300  1
  C  C21  1  0.44649900  0.20642500  0.89033400  1
  C  C22  1  0.44293400  0.70254200  0.38693200  1
  C  C23  1  0.44434800  0.70411600  0.88935400  1
  C  C24  1  0.94378600  0.20427500  0.38782000  1
  C  C25  1  0.94052500  0.20396700  0.88929400  1
  C  C26  1  0.94368400  0.70235000  0.38699400  1
  C  C27  1  0.94282600  0.70369800  0.89102800  1
  C  C28  1  0.30170600  0.56575800  0.10994600  1
  C  C29  1  0.80253200  0.06605000  0.10812300  1
  C  C30  1  0.69203000  0.43536400  0.89146900  1
  C  C31  1  0.05451900  0.79411200  0.11049200  1
  Ni  Ni32  1  0.10861500  0.59585900  0.75043500  1
  Ni  Ni33  1  0.36229600  0.40313900  0.75102800  1
  Ni  Ni34  1  0.36008300  0.90442500  0.75049000  1
  Ni  Ni35  1  0.86003200  0.90386400  0.24701400  1
  Cu  Cu36  1  0.00549400  0.99947500  0.00184000  1
  Cu  Cu37  1  0.00546900  0.99844500  0.49883500  1
  Cu  Cu38  1  0.00504300  0.50163000  0.00115100  1
  Cu  Cu39  1  0.00558800  0.50028900  0.50009900  1
  Cu  Cu40  1  0.50596100  0.99960900  0.00108900  1
  Cu  Cu41  1  0.50489000  0.99972300  0.49945100  1
  Cu  Cu42  1  0.50579600  0.50055700  0.00039200  1
  Cu  Cu43  1  0.50460400  0.49975100  0.49938300  1
  Cu  Cu44  1  0.25555400  0.25064000  0.00160400  1
  Cu  Cu45  1  0.25557200  0.24908300  0.49939000  1
  Cu  Cu46  1  0.25513700  0.74956800  0.00011200  1
  Cu  Cu47  1  0.25553800  0.74972900  0.49928300  1
  Cu  Cu48  1  0.75496200  0.25084600  0.00057300  1
  Cu  Cu49  1  0.75486400  0.24981800  0.49988600  1
  Cu  Cu50  1  0.75742100  0.75111100  0.00193900  1
  Cu  Cu51  1  0.75441000  0.74996400  0.49948100  1
  Cu  Cu52  1  0.10849500  0.10000100  0.24785300  1
  Cu  Cu53  1  0.11218100  0.10382500  0.75087300  1
  Cu  Cu54  1  0.11357000  0.60270200  0.24796400  1
  Cu  Cu55  1  0.61342700  0.10125500  0.24907000  1
  Cu  Cu56  1  0.61298600  0.10470400  0.75054800  1
  Cu  Cu57  1  0.60830000  0.60102200  0.24818100  1
  Cu  Cu58  1  0.61416900  0.60237200  0.75216500  1
  Cu  Cu59  1  0.36085800  0.39812000  0.24807400  1
  Cu  Cu60  1  0.35946900  0.89564600  0.24823300  1
  Cu  Cu61  1  0.86174400  0.39693500  0.24919900  1
  Cu  Cu62  1  0.85971700  0.39812800  0.75153500  1
  Cu  Cu63  1  0.86226900  0.89801900  0.75102800  1
  C  C64  1  0.11577700  0.11696900  0.47794400  1
  C  C65  1  0.11425100  0.11846400  0.97865800  1
  C  C66  1  0.11550500  0.61688100  0.47648600  1
  C  C67  1  0.11663300  0.61994800  0.98121700  1
  C  C68  1  0.61613500  0.11706900  0.47814300  1
  C  C69  1  0.61642700  0.11920300  0.98010200  1
  C  C70  1  0.61562300  0.61705400  0.47875600  1
  C  C71  1  0.61644500  0.61610100  0.97591500  1
  C  C72  1  0.13955500  0.38745200  0.02449800  1
  C  C73  1  0.13621400  0.38156600  0.52091200  1
  C  C74  1  0.13656600  0.88150800  0.02581900  1
  C  C75  1  0.13778600  0.88249900  0.52183800  1
  C  C76  1  0.63558600  0.38286700  0.02102000  1
  C  C77  1  0.63687400  0.38251800  0.52148000  1
  C  C78  1  0.64252600  0.88764800  0.02635800  1
  C  C79  1  0.63771600  0.88325500  0.52105700  1
  C  C80  1  0.36494200  0.10940000  0.47639000  1
  C  C81  1  0.36546100  0.10909300  0.97866900  1
  C  C82  1  0.36544800  0.60995100  0.47666600  1
  C  C83  1  0.36566000  0.60945500  0.98017200  1
  C  C84  1  0.86689300  0.11182100  0.47907800  1
  C  C85  1  0.86452400  0.10973900  0.98104200  1
  C  C86  1  0.86604000  0.61114200  0.47865900  1
  C  C87  1  0.86276500  0.60736800  0.97432800  1
  C  C88  1  0.38579600  0.39207400  0.02507600  1
  C  C89  1  0.38664700  0.38750100  0.52014400  1
  C  C90  1  0.38812000  0.88811700  0.02328700  1
  C  C91  1  0.38771700  0.88782100  0.52096700  1
  C  C92  1  0.88392400  0.38863900  0.01938900  1
  C  C93  1  0.88696400  0.38844100  0.52130100  1
  C  C94  1  0.89153600  0.89162900  0.02844000  1
  C  C95  1  0.88648800  0.88886500  0.52057100  1
  C  C96  1  0.09267800  0.11708100  0.13965000  1
  C  C97  1  0.09145300  0.11375700  0.63986800  1
  C  C98  1  0.10026400  0.61654300  0.13917500  1
  C  C99  1  0.09455200  0.61687000  0.63951900  1
  C  C100  1  0.60160000  0.11489300  0.14047200  1
  C  C101  1  0.59245300  0.11466200  0.63932400  1
  C  C102  1  0.59355000  0.61641200  0.13955300  1
  C  C103  1  0.59223600  0.61326600  0.64105600  1
  C  C104  1  0.45133900  0.38550700  0.35881400  1
  C  C105  1  0.46463300  0.38449000  0.86127800  1
  C  C106  1  0.45075800  0.88510100  0.35940500  1
  C  C107  1  0.45632300  0.88397300  0.86168000  1
  C  C108  1  0.95087000  0.38567200  0.35993100  1
  C  C109  1  0.95374900  0.38522800  0.86108000  1
  C  C110  1  0.95534200  0.88317000  0.35878500  1
  C  C111  1  0.95293200  0.88594300  0.86142100  1
  C  C112  1  0.34325800  0.27157600  0.14014800  1
  C  C113  1  0.34586900  0.27283200  0.63902600  1
  C  C114  1  0.34233600  0.77100500  0.13980100  1
  C  C115  1  0.34601300  0.77374400  0.63920500  1
  C  C116  1  0.84118200  0.27365800  0.13913300  1
  C  C117  1  0.84051700  0.27654800  0.64081700  1
  C  C118  1  0.85695000  0.76975000  0.13962100  1
  C  C119  1  0.84049100  0.77580700  0.64006200  1
  C  C120  1  0.19825200  0.22179200  0.35843900  1
  C  C121  1  0.20360300  0.22560000  0.86123600  1
  C  C122  1  0.20271300  0.72474900  0.35907000  1
  C  C123  1  0.20570900  0.72701800  0.86138600  1
  C  C124  1  0.70202000  0.22422100  0.35966800  1
  C  C125  1  0.70204800  0.22748200  0.86096100  1
  C  C126  1  0.69990100  0.72336500  0.35952200  1
  C  C127  1  0.70427700  0.72801400  0.86156300  1
  C  C128  1  0.42010400  0.06759500  0.25017000  1
  C  C129  1  0.41973100  0.07339800  0.75062500  1
  C  C130  1  0.41249300  0.56963200  0.24429100  1
  C  C131  1  0.41841900  0.57244700  0.74992900  1
  C  C132  1  0.91209100  0.07371200  0.24452900  1
  C  C133  1  0.91866700  0.07055500  0.75088700  1
  C  C134  1  0.92091700  0.56784800  0.24899700  1
  C  C135  1  0.91613800  0.57098400  0.75049900  1
  C  C136  1  0.16834400  0.43036000  0.24954800  1
  C  C137  1  0.16900200  0.42596700  0.75100500  1
  C  C138  1  0.16292200  0.92534900  0.24415700  1
  C  C139  1  0.16766400  0.92968900  0.75028000  1
  C  C140  1  0.66840900  0.43117200  0.25006900  1
  C  C141  1  0.66787600  0.43050100  0.75623200  1
  C  C142  1  0.66824800  0.92747200  0.24972800  1
  C  C143  1  0.66850000  0.93209800  0.75013900  1
