# generated using pymatgen
data_Cu3Ni5C16
_symmetry_space_group_name_H-M   'P 1'
_cell_length_a   13.57394930
_cell_length_b   13.57394930
_cell_length_c   13.17735185
_cell_angle_alpha   71.08220449
_cell_angle_beta   71.08220449
_cell_angle_gamma   32.46589355
_symmetry_Int_Tables_number   1
_chemical_formula_structural   Cu3Ni5C16
_chemical_formula_sum   'Cu6 Ni10 C32'
_cell_volume   1226.76737461
_cell_formula_units_Z   2
loop_
 _symmetry_equiv_pos_site_id
 _symmetry_equiv_pos_as_xyz
  1  'x, y, z'
loop_
 _atom_site_type_symbol
 _atom_site_label
 _atom_site_symmetry_multiplicity
 _atom_site_fract_x
 _atom_site_fract_y
 _atom_site_fract_z
 _atom_site_occupancy
  Ni  Ni0  1  0.23427800  0.45011600  0.11529000  1
  Ni  Ni1  1  0.54988400  0.76572200  0.38471000  1
  Ni  Ni2  1  0.76572200  0.54988400  0.88471000  1
  Ni  Ni3  1  0.45011600  0.23427800  0.61529000  1
  Ni  Ni4  1  0.03327800  0.28986100  0.22747400  1
  Ni  Ni5  1  0.71013900  0.96672200  0.27252600  1
  Ni  Ni6  1  0.96672200  0.71013900  0.77252600  1
  Ni  Ni7  1  0.28986100  0.03327800  0.72747400  1
  Ni  Ni8  1  0.50163200  0.49836800  0.25000000  1
  Ni  Ni9  1  0.49836800  0.50163200  0.75000000  1
  Cu  Cu10  1  0.01539200  0.98460800  0.25000000  1
  Cu  Cu11  1  0.98460800  0.01539200  0.75000000  1
  Cu  Cu12  1  0.03469900  0.72932700  0.46519500  1
  Cu  Cu13  1  0.27067300  0.96530100  0.03480500  1
  Cu  Cu14  1  0.96530100  0.27067300  0.53480500  1
  Cu  Cu15  1  0.72932700  0.03469900  0.96519500  1
  C  C16  1  0.09890600  0.42283200  0.42476600  1
  C  C17  1  0.57716800  0.90109400  0.07523400  1
  C  C18  1  0.90109400  0.57716800  0.57523400  1
  C  C19  1  0.42283200  0.09890600  0.92476600  1
  C  C20  1  0.13026100  0.84050100  0.00771800  1
  C  C21  1  0.15949900  0.86973900  0.49228200  1
  C  C22  1  0.86973900  0.15949900  0.99228200  1
  C  C23  1  0.84050100  0.13026100  0.50771800  1
  C  C24  1  0.93584800  0.57154700  0.30353000  1
  C  C25  1  0.42845300  0.06415200  0.19647000  1
  C  C26  1  0.06415200  0.42845300  0.69647000  1
  C  C27  1  0.57154700  0.93584800  0.80353000  1
  C  C28  1  0.11852800  0.75823300  0.16598600  1
  C  C29  1  0.24176700  0.88147200  0.33401400  1
  C  C30  1  0.88147200  0.24176700  0.83401400  1
  C  C31  1  0.75823300  0.11852800  0.66598600  1
  C  C32  1  0.83256500  0.75637100  0.03290300  1
  C  C33  1  0.24362900  0.16743500  0.46709700  1
  C  C34  1  0.16743500  0.24362900  0.96709700  1
  C  C35  1  0.75637100  0.83256500  0.53290300  1
  C  C36  1  0.26316400  0.41492400  0.38954900  1
  C  C37  1  0.58507600  0.73683600  0.11045100  1
  C  C38  1  0.73683600  0.58507600  0.61045100  1
  C  C39  1  0.41492400  0.26316400  0.88954900  1
  C  C40  1  0.89128400  0.23227000  0.08893100  1
  C  C41  1  0.76773000  0.10871600  0.41106900  1
  C  C42  1  0.10871600  0.76773000  0.91106900  1
  C  C43  1  0.23227000  0.89128400  0.58893100  1
  C  C44  1  0.64520300  0.24983100  0.04476400  1
  C  C45  1  0.75016900  0.35479700  0.45523600  1
  C  C46  1  0.35479700  0.75016900  0.95523600  1
  C  C47  1  0.24983100  0.64520300  0.54476400  1
