# generated using pymatgen
data_CuNiC15
_symmetry_space_group_name_H-M   'P 1'
_cell_length_a   8.86479400
_cell_length_b   9.60030200
_cell_length_c   14.07254150
_cell_angle_alpha   80.13204739
_cell_angle_beta   90.00000000
_cell_angle_gamma   90.00000000
_symmetry_Int_Tables_number   1
_chemical_formula_structural   CuNiC15
_chemical_formula_sum   'Cu4 Ni4 C60'
_cell_volume   1179.92074572
_cell_formula_units_Z   4
loop_
 _symmetry_equiv_pos_site_id
 _symmetry_equiv_pos_as_xyz
  1  'x, y, z'
loop_
 _atom_site_type_symbol
 _atom_site_label
 _atom_site_symmetry_multiplicity
 _atom_site_fract_x
 _atom_site_fract_y
 _atom_site_fract_z
 _atom_site_occupancy
  Ni  Ni0  1  0.24653500  0.16703100  0.92204800  1
  Ni  Ni1  1  0.74653500  0.83296900  0.57795200  1
  Ni  Ni2  1  0.75346500  0.83296900  0.07795200  1
  Ni  Ni3  1  0.25346500  0.16703100  0.42204800  1
  Cu  Cu4  1  0.23023500  0.88127400  0.20907900  1
  Cu  Cu5  1  0.73023500  0.11872600  0.29092100  1
  Cu  Cu6  1  0.76976500  0.11872600  0.79092100  1
  Cu  Cu7  1  0.26976500  0.88127400  0.70907900  1
  C  C8  1  0.06316000  0.83327300  0.30887300  1
  C  C9  1  0.56316000  0.16672700  0.19112700  1
  C  C10  1  0.93684000  0.16672700  0.69112700  1
  C  C11  1  0.43684000  0.83327300  0.80887300  1
  C  C12  1  0.02486300  0.70777100  0.33141900  1
  C  C13  1  0.52486300  0.29222900  0.16858100  1
  C  C14  1  0.97513700  0.29222900  0.66858100  1
  C  C15  1  0.47513700  0.70777100  0.83141900  1
  C  C16  1  0.97889300  0.59651900  0.35770500  1
  C  C17  1  0.47889300  0.40348100  0.14229500  1
  C  C18  1  0.02110700  0.40348100  0.64229500  1
  C  C19  1  0.52110700  0.59651900  0.85770500  1
  C  C20  1  0.40966300  0.83998700  0.30052200  1
  C  C21  1  0.90966300  0.16001300  0.19947800  1
  C  C22  1  0.59033700  0.16001300  0.69947800  1
  C  C23  1  0.09033700  0.83998700  0.80052200  1
  C  C24  1  0.46454000  0.71937500  0.31375000  1
  C  C25  1  0.96454000  0.28062500  0.18625000  1
  C  C26  1  0.53546000  0.28062500  0.68625000  1
  C  C27  1  0.03546000  0.71937500  0.81375000  1
  C  C28  1  0.52602400  0.61331700  0.33142700  1
  C  C29  1  0.02602400  0.38668300  0.16857300  1
  C  C30  1  0.47397600  0.38668300  0.66857300  1
  C  C31  1  0.97397600  0.61331700  0.83142700  1
  C  C32  1  0.23669400  0.68213800  0.17881600  1
  C  C33  1  0.73669400  0.31786200  0.32118400  1
  C  C34  1  0.76330600  0.31786200  0.82118400  1
  C  C35  1  0.26330600  0.68213800  0.67881600  1
  C  C36  1  0.22899500  0.66527400  0.09367300  1
  C  C37  1  0.72899500  0.33472600  0.40632700  1
  C  C38  1  0.77100500  0.33472600  0.90632700  1
  C  C39  1  0.27100500  0.66527400  0.59367300  1
  C  C40  1  0.22311000  0.63498300  0.01870600  1
  C  C41  1  0.72311000  0.36501700  0.48129400  1
  C  C42  1  0.77689000  0.36501700  0.98129400  1
  C  C43  1  0.27689000  0.63498300  0.51870600  1
  C  C44  1  0.21989000  0.35650800  0.85809600  1
  C  C45  1  0.71989000  0.64349200  0.64190400  1
  C  C46  1  0.78011000  0.64349200  0.14190400  1
  C  C47  1  0.28011000  0.35650800  0.35809600  1
  C  C48  1  0.26916500  0.97446900  0.98574400  1
  C  C49  1  0.76916500  0.02553100  0.51425600  1
  C  C50  1  0.73083500  0.02553100  0.01425600  1
  C  C51  1  0.23083500  0.97446900  0.48574400  1
  C  C52  1  0.26330900  0.10257800  0.79738000  1
  C  C53  1  0.76330900  0.89742200  0.70262000  1
  C  C54  1  0.73669100  0.89742200  0.20262000  1
  C  C55  1  0.23669100  0.10257800  0.29738000  1
  C  C56  1  0.03086200  0.13903500  0.91458900  1
  C  C57  1  0.53086200  0.86096500  0.58541100  1
  C  C58  1  0.96913800  0.86096500  0.08541100  1
  C  C59  1  0.46913800  0.13903500  0.41458900  1
  C  C60  1  0.46103600  0.19206200  0.91973200  1
  C  C61  1  0.96103600  0.80793800  0.58026800  1
  C  C62  1  0.53896400  0.80793800  0.08026800  1
  C  C63  1  0.03896400  0.19206200  0.41973200  1
  C  C64  1  0.22917000  0.21954300  0.04669500  1
  C  C65  1  0.72917000  0.78045700  0.45330500  1
  C  C66  1  0.77083000  0.78045700  0.95330500  1
  C  C67  1  0.27083000  0.21954300  0.54669500  1
