# generated using pymatgen
data_CuNiC11
_symmetry_space_group_name_H-M   'P 1'
_cell_length_a   6.48304100
_cell_length_b   8.49718600
_cell_length_c   10.03073147
_cell_angle_alpha   84.78621756
_cell_angle_beta   90.00000000
_cell_angle_gamma   90.00000000
_symmetry_Int_Tables_number   1
_chemical_formula_structural   CuNiC11
_chemical_formula_sum   'Cu4 Ni4 C44'
_cell_volume   550.28275872
_cell_formula_units_Z   4
loop_
 _symmetry_equiv_pos_site_id
 _symmetry_equiv_pos_as_xyz
  1  'x, y, z'
loop_
 _atom_site_type_symbol
 _atom_site_label
 _atom_site_symmetry_multiplicity
 _atom_site_fract_x
 _atom_site_fract_y
 _atom_site_fract_z
 _atom_site_occupancy
  C  C0  1  0.00000000  0.90506700  0.61938300  1
  C  C1  1  0.00000000  0.90302300  0.11725500  1
  C  C2  1  0.22837000  0.72533500  0.87569700  1
  C  C3  1  0.77163000  0.72533500  0.87569700  1
  C  C4  1  0.22804500  0.72510900  0.37454600  1
  C  C5  1  0.77195500  0.72510900  0.37454600  1
  C  C6  1  0.72814900  0.27437900  0.62331800  1
  C  C7  1  0.27185100  0.27437900  0.62331800  1
  C  C8  1  0.72846400  0.27489100  0.12628400  1
  C  C9  1  0.27153600  0.27489100  0.12628400  1
  C  C10  1  0.50000000  0.09483400  0.88135100  1
  C  C11  1  0.50000000  0.09446200  0.38109600  1
  C  C12  1  0.50000000  0.66635500  0.60530000  1
  C  C13  1  0.50000000  0.66588200  0.10665200  1
  C  C14  1  0.00000000  0.33316300  0.89371400  1
  C  C15  1  0.00000000  0.33369300  0.39511000  1
  Ni  Ni16  1  0.00000000  0.58751100  0.63886000  1
  Ni  Ni17  1  0.00000000  0.58681300  0.14173100  1
  Ni  Ni18  1  0.50000000  0.41166600  0.85939100  1
  Ni  Ni19  1  0.50000000  0.41136300  0.35962800  1
  Cu  Cu20  1  0.50000000  0.96582800  0.65022600  1
  Cu  Cu21  1  0.50000000  0.96594500  0.15009600  1
  Cu  Cu22  1  0.00000000  0.03405000  0.85017100  1
  Cu  Cu23  1  0.00000000  0.03784000  0.35053800  1
  C  C24  1  0.50000000  0.92925500  0.52763500  1
  C  C25  1  0.00000000  0.88755000  0.82156900  1
  C  C26  1  0.50000000  0.92912200  0.02761200  1
  C  C27  1  0.50000000  0.85196100  0.74691100  1
  C  C28  1  0.00000000  0.89224500  0.32006500  1
  C  C29  1  0.50000000  0.85239800  0.24699100  1
  C  C30  1  0.18666600  0.69061000  0.58551700  1
  C  C31  1  0.81333400  0.69061000  0.58551700  1
  C  C32  1  0.18645300  0.69063000  0.08876800  1
  C  C33  1  0.81354700  0.69063000  0.08876800  1
  C  C34  1  0.50000000  0.57805800  0.90955700  1
  C  C35  1  0.00000000  0.57021600  0.79504500  1
  C  C36  1  0.50000000  0.57850300  0.40842200  1
  C  C37  1  0.00000000  0.56797200  0.29812800  1
  C  C38  1  0.50000000  0.42880400  0.70311800  1
  C  C39  1  0.00000000  0.42112100  0.58848000  1
  C  C40  1  0.50000000  0.42812100  0.20315500  1
  C  C41  1  0.00000000  0.42161300  0.09047200  1
  C  C42  1  0.31313600  0.30907600  0.91292800  1
  C  C43  1  0.68686400  0.30907600  0.91292800  1
  C  C44  1  0.68735800  0.30883400  0.41282100  1
  C  C45  1  0.31264200  0.30883400  0.41282100  1
  C  C46  1  0.00000000  0.14727300  0.75334000  1
  C  C47  1  0.50000000  0.11168100  0.67885800  1
  C  C48  1  0.00000000  0.15368300  0.25580800  1
  C  C49  1  0.00000000  0.07022600  0.97264000  1
  C  C50  1  0.50000000  0.11188400  0.17857500  1
  C  C51  1  0.00000000  0.07309100  0.47335900  1
