# generated using pymatgen
data_CuNi3C28
_symmetry_space_group_name_H-M   'P 1'
_cell_length_a   8.93867700
_cell_length_b   8.93867700
_cell_length_c   13.03491100
_cell_angle_alpha   90.00000000
_cell_angle_beta   90.00000000
_cell_angle_gamma   90.00000000
_symmetry_Int_Tables_number   1
_chemical_formula_structural   CuNi3C28
_chemical_formula_sum   'Cu2 Ni6 C56'
_cell_volume   1041.48869167
_cell_formula_units_Z   2
loop_
 _symmetry_equiv_pos_site_id
 _symmetry_equiv_pos_as_xyz
  1  'x, y, z'
loop_
 _atom_site_type_symbol
 _atom_site_label
 _atom_site_symmetry_multiplicity
 _atom_site_fract_x
 _atom_site_fract_y
 _atom_site_fract_z
 _atom_site_occupancy
  Ni  Ni0  1  0.00000000  0.50000000  0.25148800  1
  Ni  Ni1  1  0.50000000  0.00000000  0.25148800  1
  Ni  Ni2  1  0.50000000  0.00000000  0.74851200  1
  Ni  Ni3  1  0.00000000  0.50000000  0.74851200  1
  Ni  Ni4  1  0.00000000  0.50000000  0.00000000  1
  Ni  Ni5  1  0.50000000  0.00000000  0.00000000  1
  Cu  Cu6  1  0.50000000  0.00000000  0.50000000  1
  Cu  Cu7  1  0.00000000  0.50000000  0.50000000  1
  C  C8  1  0.31380500  0.28735600  0.86538700  1
  C  C9  1  0.18619500  0.78735600  0.86538700  1
  C  C10  1  0.81380500  0.21264400  0.86538700  1
  C  C11  1  0.68619500  0.71264400  0.86538700  1
  C  C12  1  0.28414000  0.31923500  0.36863300  1
  C  C13  1  0.21586000  0.81923500  0.36863300  1
  C  C14  1  0.78414000  0.18076500  0.36863300  1
  C  C15  1  0.71586000  0.68076500  0.36863300  1
  C  C16  1  0.18076500  0.21586000  0.63136700  1
  C  C17  1  0.31923500  0.71586000  0.63136700  1
  C  C18  1  0.68076500  0.28414000  0.63136700  1
  C  C19  1  0.81923500  0.78414000  0.63136700  1
  C  C20  1  0.21264400  0.18619500  0.13461300  1
  C  C21  1  0.28735600  0.68619500  0.13461300  1
  C  C22  1  0.71264400  0.31380500  0.13461300  1
  C  C23  1  0.78735600  0.81380500  0.13461300  1
  C  C24  1  0.85249400  0.42128100  0.88209700  1
  C  C25  1  0.64750600  0.92128100  0.88209700  1
  C  C26  1  0.35249400  0.07871900  0.88209700  1
  C  C27  1  0.14750600  0.57871900  0.88209700  1
  C  C28  1  0.42403100  0.86558600  0.38847500  1
  C  C29  1  0.07596900  0.36558600  0.38847500  1
  C  C30  1  0.92403100  0.63441400  0.38847500  1
  C  C31  1  0.57596900  0.13441400  0.38847500  1
  C  C32  1  0.63441400  0.07596900  0.61152500  1
  C  C33  1  0.86558600  0.57596900  0.61152500  1
  C  C34  1  0.13441400  0.42403100  0.61152500  1
  C  C35  1  0.36558600  0.92403100  0.61152500  1
  C  C36  1  0.07871900  0.64750600  0.11790300  1
  C  C37  1  0.42128100  0.14750600  0.11790300  1
  C  C38  1  0.57871900  0.85249400  0.11790300  1
  C  C39  1  0.92128100  0.35249400  0.11790300  1
  C  C40  1  0.12323500  0.27544000  0.79642200  1
  C  C41  1  0.37676500  0.77544000  0.79642200  1
  C  C42  1  0.62323500  0.22456000  0.79642200  1
  C  C43  1  0.87676500  0.72456000  0.79642200  1
  C  C44  1  0.26615900  0.12942500  0.29940000  1
  C  C45  1  0.23384100  0.62942500  0.29940000  1
  C  C46  1  0.76615900  0.37057500  0.29940000  1
  C  C47  1  0.73384100  0.87057500  0.29940000  1
  C  C48  1  0.37057500  0.23384100  0.70060000  1
  C  C49  1  0.12942500  0.73384100  0.70060000  1
  C  C50  1  0.87057500  0.26615900  0.70060000  1
  C  C51  1  0.62942500  0.76615900  0.70060000  1
  C  C52  1  0.22456000  0.37676500  0.20357800  1
  C  C53  1  0.27544000  0.87676500  0.20357800  1
  C  C54  1  0.72456000  0.12323500  0.20357800  1
  C  C55  1  0.77544000  0.62323500  0.20357800  1
  C  C56  1  0.30364600  0.80364600  0.00000000  1
  C  C57  1  0.19635400  0.30364600  0.00000000  1
  C  C58  1  0.80364600  0.69635400  0.00000000  1
  C  C59  1  0.69635400  0.19635400  0.00000000  1
  C  C60  1  0.79654700  0.29654700  0.50000000  1
  C  C61  1  0.70345300  0.79654700  0.50000000  1
  C  C62  1  0.29654700  0.20345300  0.50000000  1
  C  C63  1  0.20345300  0.70345300  0.50000000  1
