# generated using pymatgen
data_Cu7Ni2C
_symmetry_space_group_name_H-M   'P 1'
_cell_length_a   9.85016241
_cell_length_b   9.85016241
_cell_length_c   11.17653900
_cell_angle_alpha   90.00000000
_cell_angle_beta   90.00000000
_cell_angle_gamma   120.00000277
_symmetry_Int_Tables_number   1
_chemical_formula_structural   Cu7Ni2C
_chemical_formula_sum   'Cu42 Ni12 C6'
_cell_volume   939.12789401
_cell_formula_units_Z   6
loop_
 _symmetry_equiv_pos_site_id
 _symmetry_equiv_pos_as_xyz
  1  'x, y, z'
loop_
 _atom_site_type_symbol
 _atom_site_label
 _atom_site_symmetry_multiplicity
 _atom_site_fract_x
 _atom_site_fract_y
 _atom_site_fract_z
 _atom_site_occupancy
  C  C0  1  0.66666700  0.33333300  0.44098300  1
  C  C1  1  0.33333300  0.66666700  0.55901700  1
  C  C2  1  0.66666700  0.33333300  0.87152800  1
  C  C3  1  0.33333300  0.66666700  0.12847200  1
  C  C4  1  0.00000000  0.00000000  0.24139600  1
  C  C5  1  0.00000000  0.00000000  0.75860400  1
  Ni  Ni6  1  0.92879100  0.26226000  0.66059100  1
  Ni  Ni7  1  0.73774000  0.66653100  0.66059100  1
  Ni  Ni8  1  0.33346900  0.07120900  0.66059100  1
  Ni  Ni9  1  0.07120900  0.73774000  0.33940900  1
  Ni  Ni10  1  0.26226000  0.33346900  0.33940900  1
  Ni  Ni11  1  0.66653100  0.92879100  0.33940900  1
  Ni  Ni12  1  0.84044600  0.65230900  0.15205700  1
  Ni  Ni13  1  0.34769100  0.18813700  0.15205700  1
  Ni  Ni14  1  0.81186300  0.15955400  0.15205700  1
  Ni  Ni15  1  0.15955400  0.34769100  0.84794300  1
  Ni  Ni16  1  0.65230900  0.81186300  0.84794300  1
  Ni  Ni17  1  0.18813700  0.84044600  0.84794300  1
  Cu  Cu18  1  0.88320100  0.82418500  0.13905800  1
  Cu  Cu19  1  0.17581500  0.05901600  0.13905800  1
  Cu  Cu20  1  0.94098400  0.11679900  0.13905800  1
  Cu  Cu21  1  0.11679900  0.17581500  0.86094200  1
  Cu  Cu22  1  0.82418500  0.94098400  0.86094200  1
  Cu  Cu23  1  0.05901600  0.88320100  0.86094200  1
  Cu  Cu24  1  0.94504500  0.11698100  0.65253200  1
  Cu  Cu25  1  0.88301900  0.82806400  0.65253200  1
  Cu  Cu26  1  0.17193600  0.05495500  0.65253200  1
  Cu  Cu27  1  0.05495500  0.88301900  0.34746800  1
  Cu  Cu28  1  0.11698100  0.17193600  0.34746800  1
  Cu  Cu29  1  0.82806400  0.94504500  0.34746800  1
  Cu  Cu30  1  0.76825700  0.22437000  0.66942000  1
  Cu  Cu31  1  0.77563000  0.54388700  0.66942000  1
  Cu  Cu32  1  0.45611300  0.23174300  0.66942000  1
  Cu  Cu33  1  0.23174300  0.77563000  0.33058000  1
  Cu  Cu34  1  0.22437000  0.45611300  0.33058000  1
  Cu  Cu35  1  0.54388700  0.76825700  0.33058000  1
  Cu  Cu36  1  0.82619300  0.58618400  0.03542100  1
  Cu  Cu37  1  0.41381600  0.24000900  0.03542100  1
  Cu  Cu38  1  0.75999100  0.17380700  0.03542100  1
  Cu  Cu39  1  0.17380700  0.41381600  0.96457900  1
  Cu  Cu40  1  0.58618400  0.75999100  0.96457900  1
  Cu  Cu41  1  0.24000900  0.82619300  0.96457900  1
  Cu  Cu42  1  0.72129100  0.56962100  0.24005300  1
  Cu  Cu43  1  0.43037900  0.15167000  0.24005300  1
  Cu  Cu44  1  0.84833000  0.27870900  0.24005300  1
  Cu  Cu45  1  0.27870900  0.43037900  0.75994700  1
  Cu  Cu46  1  0.56962100  0.84833000  0.75994700  1
  Cu  Cu47  1  0.15167000  0.72129100  0.75994700  1
  Cu  Cu48  1  0.99375400  0.33057900  0.79740700  1
  Cu  Cu49  1  0.66942100  0.66317500  0.79740700  1
  Cu  Cu50  1  0.33682500  0.00624600  0.79740700  1
  Cu  Cu51  1  0.00624600  0.66942100  0.20259300  1
  Cu  Cu52  1  0.33057900  0.33682500  0.20259300  1
  Cu  Cu53  1  0.66317500  0.99375400  0.20259300  1
  Cu  Cu54  1  0.02745200  0.37642300  0.57409600  1
  Cu  Cu55  1  0.62357700  0.65102900  0.57409600  1
  Cu  Cu56  1  0.34897100  0.97254800  0.57409600  1
  Cu  Cu57  1  0.97254800  0.62357700  0.42590400  1
  Cu  Cu58  1  0.37642300  0.34897100  0.42590400  1
  Cu  Cu59  1  0.65102900  0.02745200  0.42590400  1
