# generated using pymatgen
data_Cu5NiC2
_symmetry_space_group_name_H-M   'P 1'
_cell_length_a   5.68943000
_cell_length_b   5.68943000
_cell_length_c   13.69739100
_cell_angle_alpha   90.00000000
_cell_angle_beta   90.00000000
_cell_angle_gamma   90.00000000
_symmetry_Int_Tables_number   1
_chemical_formula_structural   Cu5NiC2
_chemical_formula_sum   'Cu20 Ni4 C8'
_cell_volume   443.37925571
_cell_formula_units_Z   4
loop_
 _symmetry_equiv_pos_site_id
 _symmetry_equiv_pos_as_xyz
  1  'x, y, z'
loop_
 _atom_site_type_symbol
 _atom_site_label
 _atom_site_symmetry_multiplicity
 _atom_site_fract_x
 _atom_site_fract_y
 _atom_site_fract_z
 _atom_site_occupancy
  C  C0  1  0.50000000  0.00000000  0.75002100  1
  C  C1  1  0.00000000  0.50000000  0.24997900  1
  C  C2  1  0.00000000  0.00000000  0.00000000  1
  C  C3  1  0.50000000  0.50000000  0.50000000  1
  C  C4  1  0.00000000  0.00000000  0.32793300  1
  C  C5  1  0.00000000  0.00000000  0.67206700  1
  C  C6  1  0.50000000  0.50000000  0.82793700  1
  C  C7  1  0.50000000  0.50000000  0.17206300  1
  Ni  Ni8  1  0.50000000  0.00000000  0.08676200  1
  Ni  Ni9  1  0.00000000  0.50000000  0.91323800  1
  Ni  Ni10  1  0.00000000  0.50000000  0.58680700  1
  Ni  Ni11  1  0.50000000  0.00000000  0.41319300  1
  Cu  Cu12  1  0.67531100  0.17532400  0.25001700  1
  Cu  Cu13  1  0.82467600  0.67531100  0.74998300  1
  Cu  Cu14  1  0.32468900  0.82467600  0.25001700  1
  Cu  Cu15  1  0.17532400  0.32468900  0.74998300  1
  Cu  Cu16  1  0.15900900  0.19661400  0.15170300  1
  Cu  Cu17  1  0.80338600  0.15900900  0.84829700  1
  Cu  Cu18  1  0.84099100  0.80338600  0.15170300  1
  Cu  Cu19  1  0.19661400  0.84099100  0.84829700  1
  Cu  Cu20  1  0.34110900  0.69662600  0.65177000  1
  Cu  Cu21  1  0.69662600  0.65889100  0.34823000  1
  Cu  Cu22  1  0.65889100  0.30337400  0.65177000  1
  Cu  Cu23  1  0.30337400  0.34110900  0.34823000  1
  Cu  Cu24  1  0.34373900  0.23078500  0.94823300  1
  Cu  Cu25  1  0.76921500  0.34373900  0.05176700  1
  Cu  Cu26  1  0.65626100  0.76921500  0.94823300  1
  Cu  Cu27  1  0.23078500  0.65626100  0.05176700  1
  Cu  Cu28  1  0.15608500  0.73098900  0.44820800  1
  Cu  Cu29  1  0.73098900  0.84391500  0.55179200  1
  Cu  Cu30  1  0.84391500  0.26901100  0.44820800  1
  Cu  Cu31  1  0.26901100  0.15608500  0.55179200  1
