# generated using pymatgen
data_CuNi6C
_symmetry_space_group_name_H-M   'P 1'
_cell_length_a   12.46361216
_cell_length_b   12.83632784
_cell_length_c   19.87164593
_cell_angle_alpha   90.00000000
_cell_angle_beta   90.00000000
_cell_angle_gamma   89.90636135
_symmetry_Int_Tables_number   1
_chemical_formula_structural   CuNi6C
_chemical_formula_sum   'Cu12 Ni72 C12'
_cell_volume   3179.20100742
_cell_formula_units_Z   12
loop_
 _symmetry_equiv_pos_site_id
 _symmetry_equiv_pos_as_xyz
  1  'x, y, z'
loop_
 _atom_site_type_symbol
 _atom_site_label
 _atom_site_symmetry_multiplicity
 _atom_site_fract_x
 _atom_site_fract_y
 _atom_site_fract_z
 _atom_site_occupancy
  C  C0  1  0.38126186  0.99998087  0.50003436  1
  C  C1  1  0.61873814  0.50001913  0.00003436  1
  C  C2  1  0.31382788  0.31290891  0.74742801  1
  C  C3  1  0.31350841  0.68723361  0.25249836  1
  C  C4  1  0.68617212  0.18709109  0.24742801  1
  C  C5  1  0.68649159  0.81276639  0.75249836  1
  C  C6  1  0.15614885  0.00009234  0.49995389  1
  C  C7  1  0.84385115  0.49990766  0.99995389  1
  C  C8  1  0.53912733  0.31300641  0.74460340  1
  C  C9  1  0.53874754  0.68697145  0.25514981  1
  C  C10  1  0.46087267  0.18699359  0.24460340  1
  C  C11  1  0.46125246  0.81302855  0.75514981  1
  Ni  Ni12  1  0.68395348  0.21518859  0.80315933  1
  Ni  Ni13  1  0.68325686  0.78445647  0.19643460  1
  Ni  Ni14  1  0.31604652  0.28481141  0.30315933  1
  Ni  Ni15  1  0.31674314  0.71554353  0.69643460  1
  Ni  Ni16  1  0.52509176  0.13140896  0.51154077  1
  Ni  Ni17  1  0.52548855  0.86843721  0.48847259  1
  Ni  Ni18  1  0.47490824  0.36859104  0.01154077  1
  Ni  Ni19  1  0.47451145  0.63156279  0.98847259  1
  Ni  Ni20  1  0.49263696  0.05172462  0.59640787  1
  Ni  Ni21  1  0.49260638  0.94819525  0.40363764  1
  Ni  Ni22  1  0.50736304  0.44827538  0.09640787  1
  Ni  Ni23  1  0.50739362  0.55180475  0.90363764  1
  Ni  Ni24  1  0.01278510  0.11646801  0.45603925  1
  Ni  Ni25  1  0.01322429  0.88379346  0.54411347  1
  Ni  Ni26  1  0.98721490  0.38353199  0.95603925  1
  Ni  Ni27  1  0.98677571  0.61620654  0.04411347  1
  Ni  Ni28  1  0.19116245  0.18657940  0.69757652  1
  Ni  Ni29  1  0.19138153  0.81394264  0.30275186  1
  Ni  Ni30  1  0.80883755  0.31342060  0.19757652  1
  Ni  Ni31  1  0.80861847  0.68605736  0.80275186  1
  Ni  Ni32  1  0.42293032  0.18114027  0.79979899  1
  Ni  Ni33  1  0.42230435  0.81887644  0.19998141  1
  Ni  Ni34  1  0.57706968  0.31885973  0.29979899  1
  Ni  Ni35  1  0.57769565  0.68112356  0.69998141  1
  Ni  Ni36  1  0.65545532  0.45924352  0.77634947  1
  Ni  Ni37  1  0.65624307  0.54137054  0.22363339  1
  Ni  Ni38  1  0.34454468  0.04075648  0.27634947  1
  Ni  Ni39  1  0.34375693  0.95862946  0.72363339  1
  Ni  Ni40  1  0.26250394  0.14864507  0.53145451  1
  Ni  Ni41  1  0.26282874  0.85135796  0.46855958  1
  Ni  Ni42  1  0.73749606  0.35135493  0.03145451  1
  Ni  Ni43  1  0.73717126  0.64864204  0.96855958  1
  Ni  Ni44  1  0.68297399  0.40534962  0.68311561  1
  Ni  Ni45  1  0.68255589  0.59459910  0.31703802  1
  Ni  Ni46  1  0.31702601  0.09465038  0.18311561  1
  Ni  Ni47  1  0.31744411  0.90540090  0.81703802  1
  Ni  Ni48  1  0.43444533  0.32528944  0.84641381  1
  Ni  Ni49  1  0.43395166  0.67454807  0.15338770  1
  Ni  Ni50  1  0.56555467  0.17471056  0.34641381  1
  Ni  Ni51  1  0.56604834  0.82545193  0.65338770  1
  Ni  Ni52  1  0.65394760  0.16764758  0.70925428  1
  Ni  Ni53  1  0.65284835  0.83214855  0.29021393  1
  Ni  Ni54  1  0.34605240  0.33235242  0.20925428  1
  Ni  Ni55  1  0.34715165  0.66785145  0.79021393  1
  Ni  Ni56  1  0.17651559  0.29237731  0.83711318  1
  Ni  Ni57  1  0.17617782  0.70763211  0.16279830  1
  Ni  Ni58  1  0.82348441  0.20762269  0.33711318  1
  Ni  Ni59  1  0.82382218  0.79236789  0.66279830  1
  Ni  Ni60  1  0.42820395  0.30114869  0.64553451  1
  Ni  Ni61  1  0.42796950  0.69898948  0.35433581  1
  Ni  Ni62  1  0.57179605  0.19885131  0.14553451  1
  Ni  Ni63  1  0.57203050  0.80101052  0.85433581  1
  Ni  Ni64  1  0.18962472  0.43589512  0.80028603  1
  Ni  Ni65  1  0.19013493  0.56398820  0.19955256  1
  Ni  Ni66  1  0.81037528  0.06410488  0.30028603  1
  Ni  Ni67  1  0.80986507  0.93601180  0.69955256  1
  Ni  Ni68  1  0.27262913  0.11257196  0.43006336  1
  Ni  Ni69  1  0.27274104  0.88750475  0.56993084  1
  Ni  Ni70  1  0.72737087  0.38742804  0.93006336  1
  Ni  Ni71  1  0.72725896  0.61249525  0.06993084  1
  Ni  Ni72  1  0.02563794  0.01939824  0.59016853  1
  Ni  Ni73  1  0.02532308  0.98089114  0.40989975  1
  Ni  Ni74  1  0.97436206  0.48060176  0.09016853  1
  Ni  Ni75  1  0.97467692  0.51910886  0.90989975  1
  Ni  Ni76  1  0.41897786  0.44422863  0.69139074  1
  Ni  Ni77  1  0.41901549  0.55586615  0.30856353  1
  Ni  Ni78  1  0.58102214  0.05577137  0.19139074  1
  Ni  Ni79  1  0.58098451  0.94413385  0.80856353  1
  Ni  Ni80  1  0.16647552  0.33109046  0.66417354  1
  Ni  Ni81  1  0.16644900  0.66927834  0.33580041  1
  Ni  Ni82  1  0.83352448  0.16890954  0.16417354  1
  Ni  Ni83  1  0.83355100  0.83072166  0.83580041  1
  Cu  Cu84  1  0.91390762  0.33273746  0.75980246  1
  Cu  Cu85  1  0.91361022  0.66781155  0.24080425  1
  Cu  Cu86  1  0.08609238  0.16726254  0.25980246  1
  Cu  Cu87  1  0.08638978  0.83218845  0.74080425  1
  Cu  Cu88  1  0.75265893  0.99701563  0.49914860  1
  Cu  Cu89  1  0.24734107  0.50298437  0.99914860  1
  Cu  Cu90  1  0.57995047  0.13311167  0.95548710  1
  Cu  Cu91  1  0.58008290  0.86689281  0.04476230  1
  Cu  Cu92  1  0.42004953  0.36688833  0.45548710  1
  Cu  Cu93  1  0.41991710  0.63310719  0.54476230  1
  Cu  Cu94  1  0.15444106  0.29178135  0.10078176  1
  Cu  Cu95  1  0.84555894  0.20821865  0.60078176  1
