# generated using pymatgen
data_CuNi2C3
_symmetry_space_group_name_H-M   'P 1'
_cell_length_a   6.10775023
_cell_length_b   10.67513097
_cell_length_c   12.01238397
_cell_angle_alpha   89.99999661
_cell_angle_beta   93.54246445
_cell_angle_gamma   150.91509440
_symmetry_Int_Tables_number   1
_chemical_formula_structural   CuNi2C3
_chemical_formula_sum   'Cu4 Ni8 C12'
_cell_volume   377.63905896
_cell_formula_units_Z   4
loop_
 _symmetry_equiv_pos_site_id
 _symmetry_equiv_pos_as_xyz
  1  'x, y, z'
loop_
 _atom_site_type_symbol
 _atom_site_label
 _atom_site_symmetry_multiplicity
 _atom_site_fract_x
 _atom_site_fract_y
 _atom_site_fract_z
 _atom_site_occupancy
  Ni  Ni0  1  0.45292400  0.02231300  0.86680200  1
  Ni  Ni1  1  0.54707600  0.56938900  0.63319800  1
  Ni  Ni2  1  0.54707600  0.97768700  0.13319800  1
  Ni  Ni3  1  0.45292400  0.43061100  0.36680200  1
  Ni  Ni4  1  0.59267300  0.91676000  0.57782000  1
  Ni  Ni5  1  0.40732700  0.32408800  0.92218000  1
  Ni  Ni6  1  0.40732700  0.08324000  0.42218000  1
  Ni  Ni7  1  0.59267300  0.67591200  0.07782000  1
  Cu  Cu8  1  0.55874700  0.27765000  0.66290900  1
  Cu  Cu9  1  0.44125300  0.71890300  0.83709100  1
  Cu  Cu10  1  0.44125300  0.72235000  0.33709100  1
  Cu  Cu11  1  0.55874700  0.28109700  0.16290900  1
  C  C12  1  0.00000000  0.63178900  0.75000000  1
  C  C13  1  0.00000000  0.36821100  0.25000000  1
  C  C14  1  0.76438100  0.20855800  0.60384200  1
  C  C15  1  0.23561900  0.44417700  0.89615800  1
  C  C16  1  0.23561900  0.79144200  0.39615800  1
  C  C17  1  0.76438100  0.55582300  0.10384200  1
  C  C18  1  0.33764200  0.05959300  0.02920200  1
  C  C19  1  0.66235800  0.72195000  0.47079800  1
  C  C20  1  0.66235800  0.94040700  0.97079800  1
  C  C21  1  0.33764200  0.27805000  0.52920200  1
  C  C22  1  0.00000000  0.97310600  0.75000000  1
  C  C23  1  0.00000000  0.02689400  0.25000000  1
