# generated using pymatgen
data_Cu8(NiC4)5
_symmetry_space_group_name_H-M   'P 1'
_cell_length_a   8.25394400
_cell_length_b   8.57330548
_cell_length_c   8.78896755
_cell_angle_alpha   112.03264835
_cell_angle_beta   107.55403170
_cell_angle_gamma   106.49476337
_symmetry_Int_Tables_number   1
_chemical_formula_structural   Cu8(NiC4)5
_chemical_formula_sum   'Cu8 Ni5 C20'
_cell_volume   491.07365211
_cell_formula_units_Z   1
loop_
 _symmetry_equiv_pos_site_id
 _symmetry_equiv_pos_as_xyz
  1  'x, y, z'
loop_
 _atom_site_type_symbol
 _atom_site_label
 _atom_site_symmetry_multiplicity
 _atom_site_fract_x
 _atom_site_fract_y
 _atom_site_fract_z
 _atom_site_occupancy
  Ni  Ni0  1  0.70037000  0.19582800  0.09830500  1
  Ni  Ni1  1  0.98804700  0.99154600  0.98672800  1
  Ni  Ni2  1  0.22168600  0.89736300  0.37058200  1
  Ni  Ni3  1  0.76786900  0.09376800  0.72132700  1
  Ni  Ni4  1  0.27712700  0.78125100  0.88521000  1
  Cu  Cu5  1  0.82394100  0.67261300  0.84328400  1
  Cu  Cu6  1  0.37707500  0.19944800  0.50128100  1
  Cu  Cu7  1  0.50203900  0.30149300  0.82496200  1
  Cu  Cu8  1  0.87328200  0.55874000  0.28752300  1
  Cu  Cu9  1  0.15531900  0.49717500  0.67605700  1
  Cu  Cu10  1  0.49426300  0.72394600  0.14340100  1
  Cu  Cu11  1  0.67770700  0.84838500  0.49858600  1
  Cu  Cu12  1  0.13695800  0.26997200  0.21884200  1
  C  C13  1  0.70677700  0.62227500  0.65655500  1
  C  C14  1  0.67696500  0.34723900  0.26651200  1
  C  C15  1  0.94167100  0.03045600  0.77119300  1
  C  C16  1  0.76950400  0.77002400  0.22114300  1
  C  C17  1  0.39772100  0.38655100  0.61997300  1
  C  C18  1  0.42871100  0.12594900  0.21448000  1
  C  C19  1  0.78681300  0.40393600  0.87354800  1
  C  C20  1  0.70696000  0.28080700  0.62132500  1
  C  C21  1  0.09534500  0.75833100  0.62163800  1
  C  C22  1  0.25827500  0.99559700  0.87464900  1
  C  C23  1  0.62127200  0.04433800  0.96623400  1
  C  C24  1  0.35240700  0.74857400  0.38270100  1
  C  C25  1  0.87207200  0.12669400  0.47529600  1
  C  C26  1  0.01178400  0.65951400  0.98280400  1
  C  C27  1  0.55723700  0.87467300  0.77617400  1
  C  C28  1  0.21901700  0.62804400  0.13183900  1
  C  C29  1  0.29707100  0.37981600  0.34416000  1
  C  C30  1  0.32877600  0.64355900  0.75785700  1
  C  C31  1  0.92300100  0.17472600  0.06489100  1
  C  C32  1  0.05293800  0.96736700  0.32094200  1
