# generated using pymatgen
data_Cu4NiC15
_symmetry_space_group_name_H-M   'P 1'
_cell_length_a   5.35979946
_cell_length_b   5.35982039
_cell_length_c   20.56573458
_cell_angle_alpha   83.67245882
_cell_angle_beta   83.67243319
_cell_angle_gamma   98.89076865
_symmetry_Int_Tables_number   1
_chemical_formula_structural   Cu4NiC15
_chemical_formula_sum   'Cu8 Ni2 C30'
_cell_volume   575.25744951
_cell_formula_units_Z   2
loop_
 _symmetry_equiv_pos_site_id
 _symmetry_equiv_pos_as_xyz
  1  'x, y, z'
loop_
 _atom_site_type_symbol
 _atom_site_label
 _atom_site_symmetry_multiplicity
 _atom_site_fract_x
 _atom_site_fract_y
 _atom_site_fract_z
 _atom_site_occupancy
  C  C0  1  0.25002500  0.75003400  0.49994200  1
  C  C1  1  0.75002700  0.25002900  0.49994400  1
  C  C2  1  0.45032500  0.95031900  0.09933200  1
  C  C3  1  0.95032100  0.45031800  0.09933100  1
  C  C4  1  0.04968000  0.54968300  0.90066300  1
  C  C5  1  0.54968600  0.04967900  0.90066100  1
  C  C6  1  0.34996300  0.84996900  0.30005100  1
  C  C7  1  0.84996700  0.34996400  0.30005000  1
  C  C8  1  0.14999000  0.64999500  0.70002900  1
  C  C9  1  0.64998700  0.14999400  0.70002900  1
  Ni  Ni10  1  0.50005400  0.50002000  0.99988200  1
  Ni  Ni11  1  0.00003700  0.00002700  0.99996400  1
  Cu  Cu12  1  0.09986500  0.09987000  0.80025900  1
  Cu  Cu13  1  0.29993600  0.29994200  0.40013100  1
  Cu  Cu14  1  0.69998100  0.69998200  0.60004600  1
  Cu  Cu15  1  0.39987400  0.39987800  0.20023700  1
  Cu  Cu16  1  0.90035900  0.90036000  0.19925100  1
  Cu  Cu17  1  0.60012700  0.60012500  0.79976100  1
  Cu  Cu18  1  0.79984500  0.79984900  0.40030500  1
  Cu  Cu19  1  0.19998800  0.19999300  0.60002400  1
  C  C20  1  0.24993100  0.24993600  0.50018300  1
  C  C21  1  0.74996400  0.74996800  0.50008400  1
  C  C22  1  0.76222900  0.23794000  0.99984400  1
  C  C23  1  0.23796100  0.76222400  0.99984500  1
  C  C24  1  0.44938500  0.44938400  0.10114300  1
  C  C25  1  0.95132800  0.95132100  0.09740100  1
  C  C26  1  0.04881500  0.04881000  0.90232300  1
  C  C27  1  0.55085000  0.55085000  0.89835100  1
  C  C28  1  0.35001500  0.35001800  0.29996200  1
  C  C29  1  0.84989700  0.84990000  0.30019400  1
  C  C30  1  0.15002900  0.15003500  0.69990900  1
  C  C31  1  0.64981000  0.64981400  0.70040300  1
  C  C32  1  0.65185400  0.14832300  0.19984900  1
  C  C33  1  0.14829600  0.65182400  0.19984900  1
  C  C34  1  0.34723400  0.85258100  0.80012700  1
  C  C35  1  0.85263200  0.34729200  0.80012700  1
  C  C36  1  0.54955600  0.05035000  0.40014200  1
  C  C37  1  0.05029700  0.54951000  0.40014200  1
  C  C38  1  0.45016700  0.94970500  0.60011500  1
  C  C39  1  0.94971500  0.45018500  0.60011500  1
