# generated using pymatgen
data_Cu6Ni2C
_symmetry_space_group_name_H-M   'P 1'
_cell_length_a   7.11446300
_cell_length_b   7.11446300
_cell_length_c   9.90323800
_cell_angle_alpha   90.00000000
_cell_angle_beta   90.00000000
_cell_angle_gamma   90.00000000
_symmetry_Int_Tables_number   1
_chemical_formula_structural   Cu6Ni2C
_chemical_formula_sum   'Cu12 Ni4 C2'
_cell_volume   501.25817267
_cell_formula_units_Z   2
loop_
 _symmetry_equiv_pos_site_id
 _symmetry_equiv_pos_as_xyz
  1  'x, y, z'
loop_
 _atom_site_type_symbol
 _atom_site_label
 _atom_site_symmetry_multiplicity
 _atom_site_fract_x
 _atom_site_fract_y
 _atom_site_fract_z
 _atom_site_occupancy
  C  C0  1  0.00000000  0.00000000  0.75000000  1
  C  C1  1  0.00000000  0.00000000  0.25000000  1
  Ni  Ni2  1  0.64995600  0.05935200  0.00000000  1
  Ni  Ni3  1  0.35004400  0.94064800  0.00000000  1
  Ni  Ni4  1  0.05935200  0.35004400  0.50000000  1
  Ni  Ni5  1  0.94064800  0.64995600  0.50000000  1
  Cu  Cu6  1  0.20929300  0.32129300  0.67193400  1
  Cu  Cu7  1  0.67870700  0.20929300  0.17193400  1
  Cu  Cu8  1  0.17679700  0.17273700  0.00000000  1
  Cu  Cu9  1  0.82726300  0.17679700  0.50000000  1
  Cu  Cu10  1  0.17273700  0.82320300  0.50000000  1
  Cu  Cu11  1  0.82320300  0.82726300  0.00000000  1
  Cu  Cu12  1  0.20929300  0.32129300  0.32806600  1
  Cu  Cu13  1  0.67870700  0.20929300  0.82806600  1
  Cu  Cu14  1  0.32129300  0.79070700  0.82806600  1
  Cu  Cu15  1  0.79070700  0.67870700  0.32806600  1
  Cu  Cu16  1  0.79070700  0.67870700  0.67193400  1
  Cu  Cu17  1  0.32129300  0.79070700  0.17193400  1
