# generated using pymatgen
data_CuNi5C14
_symmetry_space_group_name_H-M   'P 1'
_cell_length_a   4.78184100
_cell_length_b   13.39154500
_cell_length_c   9.19858300
_cell_angle_alpha   90.00000000
_cell_angle_beta   90.00000000
_cell_angle_gamma   90.00000000
_symmetry_Int_Tables_number   1
_chemical_formula_structural   CuNi5C14
_chemical_formula_sum   'Cu2 Ni10 C28'
_cell_volume   589.04265885
_cell_formula_units_Z   2
loop_
 _symmetry_equiv_pos_site_id
 _symmetry_equiv_pos_as_xyz
  1  'x, y, z'
loop_
 _atom_site_type_symbol
 _atom_site_label
 _atom_site_symmetry_multiplicity
 _atom_site_fract_x
 _atom_site_fract_y
 _atom_site_fract_z
 _atom_site_occupancy
  C  C0  1  0.94742600  0.00000000  0.94152200  1
  C  C1  1  0.05257400  0.50000000  0.44152200  1
  C  C2  1  0.46550000  0.00000000  0.26909800  1
  C  C3  1  0.53450000  0.50000000  0.76909800  1
  Ni  Ni4  1  0.85556000  0.71010300  0.94458200  1
  Ni  Ni5  1  0.14444000  0.78989700  0.44458200  1
  Ni  Ni6  1  0.14444000  0.21010300  0.44458200  1
  Ni  Ni7  1  0.85556000  0.28989700  0.94458200  1
  Ni  Ni8  1  0.35780800  0.79928300  0.77663100  1
  Ni  Ni9  1  0.64219200  0.70071700  0.27663100  1
  Ni  Ni10  1  0.64219200  0.29928300  0.27663100  1
  Ni  Ni11  1  0.35780800  0.20071700  0.77663100  1
  Ni  Ni12  1  0.93771700  0.00000000  0.53067600  1
  Ni  Ni13  1  0.06228300  0.50000000  0.03067600  1
  Cu  Cu14  1  0.43743400  0.00000000  0.70079300  1
  Cu  Cu15  1  0.56256600  0.50000000  0.20079300  1
  C  C16  1  0.98647300  0.59720200  0.92681900  1
  C  C17  1  0.01352700  0.90279800  0.42681900  1
  C  C18  1  0.01352700  0.09720200  0.42681900  1
  C  C19  1  0.98647300  0.40279800  0.92681900  1
  C  C20  1  0.13350200  0.00000000  0.67221000  1
  C  C21  1  0.86649800  0.50000000  0.17221000  1
  C  C22  1  0.60494000  0.00000000  0.56522700  1
  C  C23  1  0.39506000  0.50000000  0.06522700  1
  C  C24  1  0.90771700  0.70848900  0.39258300  1
  C  C25  1  0.09228300  0.79151100  0.89258300  1
  C  C26  1  0.09228300  0.20848900  0.89258300  1
  C  C27  1  0.90771700  0.29151100  0.39258300  1
  C  C28  1  0.24783400  0.76923100  0.61206400  1
  C  C29  1  0.75216600  0.73076900  0.11206400  1
  C  C30  1  0.75216600  0.26923100  0.11206400  1
  C  C31  1  0.24783400  0.23076900  0.61206400  1
  C  C32  1  0.59066100  0.71618900  0.83066800  1
  C  C33  1  0.40933900  0.78381100  0.33066800  1
  C  C34  1  0.40933900  0.21618900  0.33066800  1
  C  C35  1  0.59066100  0.28381100  0.83066800  1
  C  C36  1  0.50013700  0.90935800  0.78779000  1
  C  C37  1  0.49986300  0.59064200  0.28779000  1
  C  C38  1  0.49986300  0.40935800  0.28779000  1
  C  C39  1  0.50013700  0.09064200  0.78779000  1
