# generated using pymatgen
data_Cu(NiC4)2
_symmetry_space_group_name_H-M   'P 1'
_cell_length_a   4.71647237
_cell_length_b   4.71647237
_cell_length_c   10.78626600
_cell_angle_alpha   90.00000000
_cell_angle_beta   90.00000000
_cell_angle_gamma   120.00000525
_symmetry_Int_Tables_number   1
_chemical_formula_structural   Cu(NiC4)2
_chemical_formula_sum   'Cu2 Ni4 C16'
_cell_volume   207.79558928
_cell_formula_units_Z   2
loop_
 _symmetry_equiv_pos_site_id
 _symmetry_equiv_pos_as_xyz
  1  'x, y, z'
loop_
 _atom_site_type_symbol
 _atom_site_label
 _atom_site_symmetry_multiplicity
 _atom_site_fract_x
 _atom_site_fract_y
 _atom_site_fract_z
 _atom_site_occupancy
  C  C0  1  0.00000000  0.00000000  0.25000000  1
  C  C1  1  0.00000000  0.00000000  0.75000000  1
  Ni  Ni2  1  0.33333300  0.66666700  0.07594600  1
  Ni  Ni3  1  0.66666700  0.33333300  0.92405400  1
  Ni  Ni4  1  0.66666700  0.33333300  0.57594600  1
  Ni  Ni5  1  0.33333300  0.66666700  0.42405400  1
  C  C6  1  0.33333300  0.66666700  0.25000000  1
  C  C7  1  0.66666700  0.33333300  0.75000000  1
  C  C8  1  0.16666100  0.33332200  0.59525000  1
  C  C9  1  0.83333900  0.66667800  0.40475000  1
  C  C10  1  0.66667800  0.83333900  0.59525000  1
  C  C11  1  0.83333900  0.66667800  0.09525000  1
  C  C12  1  0.33332200  0.16666100  0.40475000  1
  C  C13  1  0.16666100  0.33332200  0.90475000  1
  C  C14  1  0.16666100  0.83333900  0.59525000  1
  C  C15  1  0.33332200  0.16666100  0.09525000  1
  C  C16  1  0.83333900  0.16666100  0.40475000  1
  C  C17  1  0.66667800  0.83333900  0.90475000  1
  C  C18  1  0.83333900  0.16666100  0.09525000  1
  C  C19  1  0.16666100  0.83333900  0.90475000  1
  Cu  Cu20  1  0.00000000  0.00000000  0.00000000  1
  Cu  Cu21  1  0.00000000  0.00000000  0.50000000  1
