# generated using pymatgen
data_CuNiC4
_symmetry_space_group_name_H-M   'P 1'
_cell_length_a   3.40155112
_cell_length_b   3.40155112
_cell_length_c   38.76485200
_cell_angle_alpha   90.00000000
_cell_angle_beta   90.00000000
_cell_angle_gamma   120.00002169
_symmetry_Int_Tables_number   1
_chemical_formula_structural   CuNiC4
_chemical_formula_sum   'Cu2 Ni2 C8'
_cell_volume   388.43885922
_cell_formula_units_Z   2
loop_
 _symmetry_equiv_pos_site_id
 _symmetry_equiv_pos_as_xyz
  1  'x, y, z'
loop_
 _atom_site_type_symbol
 _atom_site_label
 _atom_site_symmetry_multiplicity
 _atom_site_fract_x
 _atom_site_fract_y
 _atom_site_fract_z
 _atom_site_occupancy
  C  C0  1  0.00000000  0.00000000  0.70609800  1
  C  C1  1  0.33333300  0.66666700  0.42106400  1
  C  C2  1  0.33333300  0.66666700  0.51811500  1
  C  C3  1  0.00000000  0.00000000  0.60906900  1
  Ni  Ni4  1  0.00000000  0.00000000  0.09393000  1
  Ni  Ni5  1  0.33333300  0.66666700  0.28179500  1
  Cu  Cu6  1  0.00000000  0.00000000  0.46959500  1
  Cu  Cu7  1  0.33333300  0.66666700  0.65763100  1
  C  C8  1  0.33333300  0.66666700  0.05146300  1
  C  C9  1  0.33333300  0.66666700  0.13639300  1
  C  C10  1  0.00000000  0.00000000  0.32059300  1
  C  C11  1  0.00000000  0.00000000  0.24300100  1
