# generated using pymatgen
data_Cu3NiC3
_symmetry_space_group_name_H-M   'P 1'
_cell_length_a   10.09847578
_cell_length_b   10.09847578
_cell_length_c   8.30677300
_cell_angle_alpha   90.00000000
_cell_angle_beta   90.00000000
_cell_angle_gamma   154.87236685
_symmetry_Int_Tables_number   1
_chemical_formula_structural   Cu3NiC3
_chemical_formula_sum   'Cu6 Ni2 C6'
_cell_volume   359.71697400
_cell_formula_units_Z   2
loop_
 _symmetry_equiv_pos_site_id
 _symmetry_equiv_pos_as_xyz
  1  'x, y, z'
loop_
 _atom_site_type_symbol
 _atom_site_label
 _atom_site_symmetry_multiplicity
 _atom_site_fract_x
 _atom_site_fract_y
 _atom_site_fract_z
 _atom_site_occupancy
  C  C0  1  0.04186900  0.95813100  0.04769000  1
  C  C1  1  0.95813100  0.04186900  0.54769000  1
  C  C2  1  0.33681100  0.66318900  0.23597400  1
  C  C3  1  0.66318900  0.33681100  0.73597400  1
  Ni  Ni4  1  0.24717100  0.75282900  0.22961900  1
  Ni  Ni5  1  0.75282900  0.24717100  0.72961900  1
  Cu  Cu6  1  0.46004200  0.53995800  0.25221200  1
  Cu  Cu7  1  0.53995800  0.46004200  0.75221200  1
  Cu  Cu8  1  0.35023800  0.64976200  0.95855900  1
  Cu  Cu9  1  0.64976200  0.35023800  0.45855900  1
  Cu  Cu10  1  0.33930600  0.66069400  0.51704000  1
  Cu  Cu11  1  0.66069400  0.33930600  0.01704000  1
  C  C12  1  0.07978000  0.92022000  0.37540600  1
  C  C13  1  0.92022000  0.07978000  0.87540600  1
