# generated using pymatgen
data_CuNi7C32
_symmetry_space_group_name_H-M   'P 1'
_cell_length_a   7.78395958
_cell_length_b   7.78395958
_cell_length_c   7.74663200
_cell_angle_alpha   90.00000000
_cell_angle_beta   90.00000000
_cell_angle_gamma   90.02191236
_symmetry_Int_Tables_number   1
_chemical_formula_structural   CuNi7C32
_chemical_formula_sum   'Cu1 Ni7 C32'
_cell_volume   469.36860523
_cell_formula_units_Z   1
loop_
 _symmetry_equiv_pos_site_id
 _symmetry_equiv_pos_as_xyz
  1  'x, y, z'
loop_
 _atom_site_type_symbol
 _atom_site_label
 _atom_site_symmetry_multiplicity
 _atom_site_fract_x
 _atom_site_fract_y
 _atom_site_fract_z
 _atom_site_occupancy
  C  C0  1  0.74994600  0.25005400  0.25195000  1
  C  C1  1  0.25005500  0.25005500  0.25193700  1
  C  C2  1  0.25009200  0.25009200  0.74818700  1
  C  C3  1  0.74994500  0.74994500  0.25193700  1
  C  C4  1  0.25005400  0.74994600  0.25195000  1
  C  C5  1  0.74990800  0.74990800  0.74818700  1
  C  C6  1  0.75026100  0.24973900  0.74758100  1
  C  C7  1  0.24973900  0.75026100  0.74758100  1
  Ni  Ni8  1  0.00000000  0.50000000  0.99875100  1
  Ni  Ni9  1  0.50000000  0.50000000  0.99770700  1
  Ni  Ni10  1  0.00000000  0.50000000  0.50117200  1
  Ni  Ni11  1  0.00000000  0.00000000  0.99879200  1
  Ni  Ni12  1  0.50000000  0.00000000  0.99875100  1
  Ni  Ni13  1  0.00000000  0.00000000  0.50141600  1
  Ni  Ni14  1  0.50000000  0.00000000  0.50117200  1
  Cu  Cu15  1  0.50000000  0.50000000  0.50113300  1
  C  C16  1  0.99806800  0.24958100  0.99671100  1
  C  C17  1  0.50177100  0.25317900  0.99670900  1
  C  C18  1  0.99809300  0.24938100  0.50334700  1
  C  C19  1  0.50250600  0.25144400  0.50353100  1
  C  C20  1  0.00193200  0.75041900  0.99671100  1
  C  C21  1  0.49822900  0.74682100  0.99670900  1
  C  C22  1  0.00190700  0.75061900  0.50334700  1
  C  C23  1  0.49749400  0.74855600  0.50353100  1
  C  C24  1  0.00000000  0.50000000  0.25011700  1
  C  C25  1  0.50000000  0.50000000  0.26343800  1
  C  C26  1  0.00000000  0.50000000  0.74989700  1
  C  C27  1  0.50000000  0.50000000  0.73722000  1
  C  C28  1  0.00000000  0.00000000  0.24900800  1
  C  C29  1  0.50000000  0.00000000  0.25011700  1
  C  C30  1  0.00000000  0.00000000  0.75091400  1
  C  C31  1  0.50000000  0.00000000  0.74989700  1
  C  C32  1  0.74682100  0.49822900  0.99670900  1
  C  C33  1  0.25317900  0.50177100  0.99670900  1
  C  C34  1  0.74855600  0.49749400  0.50353100  1
  C  C35  1  0.25144400  0.50250600  0.50353100  1
  C  C36  1  0.75041900  0.00193200  0.99671100  1
  C  C37  1  0.24958100  0.99806800  0.99671100  1
  C  C38  1  0.75061900  0.00190700  0.50334700  1
  C  C39  1  0.24938100  0.99809300  0.50334700  1
