# generated using pymatgen
data_CuNiC4
_symmetry_space_group_name_H-M   'P 1'
_cell_length_a   4.63712967
_cell_length_b   4.63712967
_cell_length_c   10.52237000
_cell_angle_alpha   90.00000000
_cell_angle_beta   90.00000000
_cell_angle_gamma   119.99999530
_symmetry_Int_Tables_number   1
_chemical_formula_structural   CuNiC4
_chemical_formula_sum   'Cu3 Ni3 C12'
_cell_volume   195.94884237
_cell_formula_units_Z   3
loop_
 _symmetry_equiv_pos_site_id
 _symmetry_equiv_pos_as_xyz
  1  'x, y, z'
loop_
 _atom_site_type_symbol
 _atom_site_label
 _atom_site_symmetry_multiplicity
 _atom_site_fract_x
 _atom_site_fract_y
 _atom_site_fract_z
 _atom_site_occupancy
  Ni  Ni0  1  0.53674500  0.00000000  0.33333300  1
  Ni  Ni1  1  0.00000000  0.53674500  0.66666700  1
  Ni  Ni2  1  0.46325500  0.46325500  0.00000000  1
  Cu  Cu3  1  0.54099600  0.00000000  0.83333300  1
  Cu  Cu4  1  0.45900400  0.45900400  0.50000000  1
  Cu  Cu5  1  0.00000000  0.54099600  0.16666700  1
  C  C6  1  0.27392000  0.86968800  0.70540000  1
  C  C7  1  0.69098600  0.60550400  0.11014800  1
  C  C8  1  0.39449600  0.08548200  0.44348100  1
  C  C9  1  0.59576800  0.72608000  0.37206600  1
  C  C10  1  0.86968800  0.27392000  0.29460000  1
  C  C11  1  0.13031200  0.40423200  0.03873300  1
  C  C12  1  0.72608000  0.59576800  0.62793400  1
  C  C13  1  0.40423200  0.13031200  0.96126700  1
  C  C14  1  0.08548200  0.39449600  0.55651900  1
  C  C15  1  0.60550400  0.69098600  0.88985200  1
  C  C16  1  0.30901400  0.91451800  0.22318500  1
  C  C17  1  0.91451800  0.30901400  0.77681500  1
