# generated using pymatgen
data_Cu2Ni3C23
_symmetry_space_group_name_H-M   'P 1'
_cell_length_a   5.31054100
_cell_length_b   11.40003900
_cell_length_c   14.20264300
_cell_angle_alpha   90.00000000
_cell_angle_beta   90.00000000
_cell_angle_gamma   90.00000000
_symmetry_Int_Tables_number   1
_chemical_formula_structural   Cu2Ni3C23
_chemical_formula_sum   'Cu4 Ni6 C46'
_cell_volume   859.83332627
_cell_formula_units_Z   2
loop_
 _symmetry_equiv_pos_site_id
 _symmetry_equiv_pos_as_xyz
  1  'x, y, z'
loop_
 _atom_site_type_symbol
 _atom_site_label
 _atom_site_symmetry_multiplicity
 _atom_site_fract_x
 _atom_site_fract_y
 _atom_site_fract_z
 _atom_site_occupancy
  C  C0  1  0.00000000  0.50000000  0.50000000  1
  C  C1  1  0.50000000  0.50000000  0.00000000  1
  C  C2  1  0.20627600  0.76120100  0.87287400  1
  C  C3  1  0.79372400  0.23879900  0.12712600  1
  C  C4  1  0.70627600  0.23879900  0.62712600  1
  C  C5  1  0.29372400  0.76120100  0.62712600  1
  C  C6  1  0.29372400  0.76120100  0.37287400  1
  C  C7  1  0.70627600  0.23879900  0.37287400  1
  C  C8  1  0.79372400  0.23879900  0.87287400  1
  C  C9  1  0.20627600  0.76120100  0.12712600  1
  Ni  Ni10  1  0.75000000  0.99329400  0.75000000  1
  Ni  Ni11  1  0.25000000  0.00670600  0.25000000  1
  Ni  Ni12  1  0.25000000  0.00670600  0.75000000  1
  Ni  Ni13  1  0.75000000  0.99329400  0.25000000  1
  Ni  Ni14  1  0.00000000  0.00000000  0.00000000  1
  Ni  Ni15  1  0.50000000  0.00000000  0.50000000  1
  Cu  Cu16  1  0.75000000  0.57136000  0.75000000  1
  Cu  Cu17  1  0.25000000  0.42864000  0.25000000  1
  Cu  Cu18  1  0.25000000  0.42864000  0.75000000  1
  Cu  Cu19  1  0.75000000  0.57136000  0.25000000  1
  C  C20  1  0.75000000  0.40795300  0.75000000  1
  C  C21  1  0.25000000  0.59204700  0.25000000  1
  C  C22  1  0.25000000  0.59204700  0.75000000  1
  C  C23  1  0.75000000  0.40795300  0.25000000  1
  C  C24  1  0.66353900  0.64685000  0.85658900  1
  C  C25  1  0.33646100  0.35315000  0.14341100  1
  C  C26  1  0.16353900  0.35315000  0.64341100  1
  C  C27  1  0.83646100  0.64685000  0.64341100  1
  C  C28  1  0.83646100  0.64685000  0.35658900  1
  C  C29  1  0.16353900  0.35315000  0.35658900  1
  C  C30  1  0.33646100  0.35315000  0.85658900  1
  C  C31  1  0.66353900  0.64685000  0.14341100  1
  C  C32  1  0.49288200  0.88141000  0.75408200  1
  C  C33  1  0.50711800  0.11859000  0.24591800  1
  C  C34  1  0.99288200  0.11859000  0.74591800  1
  C  C35  1  0.00711800  0.88141000  0.74591800  1
  C  C36  1  0.00711800  0.88141000  0.25408200  1
  C  C37  1  0.99288200  0.11859000  0.25408200  1
  C  C38  1  0.50711800  0.11859000  0.75408200  1
  C  C39  1  0.49288200  0.88141000  0.24591800  1
  C  C40  1  0.99075800  0.83608800  0.00000000  1
  C  C41  1  0.00924200  0.16391200  0.00000000  1
  C  C42  1  0.49075800  0.16391200  0.50000000  1
  C  C43  1  0.50924200  0.83608800  0.50000000  1
  C  C44  1  0.23959800  0.98474800  0.88996000  1
  C  C45  1  0.76040200  0.01525200  0.11004000  1
  C  C46  1  0.73959800  0.01525200  0.61004000  1
  C  C47  1  0.26040200  0.98474800  0.61004000  1
  C  C48  1  0.26040200  0.98474800  0.38996000  1
  C  C49  1  0.73959800  0.01525200  0.38996000  1
  C  C50  1  0.76040200  0.01525200  0.88996000  1
  C  C51  1  0.23959800  0.98474800  0.11004000  1
  C  C52  1  0.79079300  0.35640800  0.00000000  1
  C  C53  1  0.20920700  0.64359200  0.00000000  1
  C  C54  1  0.29079300  0.64359200  0.50000000  1
  C  C55  1  0.70920700  0.35640800  0.50000000  1
