# generated using pymatgen
data_CuNi7C12
_symmetry_space_group_name_H-M   'P 1'
_cell_length_a   11.23684328
_cell_length_b   11.23684328
_cell_length_c   11.23684328
_cell_angle_alpha   117.45405526
_cell_angle_beta   117.45405526
_cell_angle_gamma   94.46934109
_symmetry_Int_Tables_number   1
_chemical_formula_structural   CuNi7C12
_chemical_formula_sum   'Cu2 Ni14 C24'
_cell_volume   1038.45994145
_cell_formula_units_Z   2
loop_
 _symmetry_equiv_pos_site_id
 _symmetry_equiv_pos_as_xyz
  1  'x, y, z'
loop_
 _atom_site_type_symbol
 _atom_site_label
 _atom_site_symmetry_multiplicity
 _atom_site_fract_x
 _atom_site_fract_y
 _atom_site_fract_z
 _atom_site_occupancy
  C  C0  1  0.14772700  0.64772700  0.50000000  1
  C  C1  1  0.85227300  0.35227300  0.50000000  1
  C  C2  1  0.64772700  0.14772700  0.50000000  1
  C  C3  1  0.35227300  0.85227300  0.50000000  1
  C  C4  1  0.83655300  0.70085500  0.26454100  1
  C  C5  1  0.16344700  0.29914500  0.73545900  1
  C  C6  1  0.43631500  0.57201200  0.73545900  1
  C  C7  1  0.70085500  0.43631500  0.86430200  1
  C  C8  1  0.06368500  0.79914500  0.13569800  1
  C  C9  1  0.56368500  0.42798800  0.26454100  1
  C  C10  1  0.29914500  0.56368500  0.13569800  1
  C  C11  1  0.93631500  0.20085500  0.86430200  1
  C  C12  1  0.57201200  0.83655300  0.13569800  1
  C  C13  1  0.66344700  0.92798800  0.86430200  1
  C  C14  1  0.42798800  0.16344700  0.86430200  1
  C  C15  1  0.33655300  0.07201200  0.13569800  1
  C  C16  1  0.92798800  0.06368500  0.26454100  1
  C  C17  1  0.07201200  0.93631500  0.73545900  1
  C  C18  1  0.79914500  0.66344700  0.73545900  1
  C  C19  1  0.20085500  0.33655300  0.26454100  1
  C  C20  1  0.16999900  0.66999900  0.83999800  1
  C  C21  1  0.83000100  0.33000100  0.16000200  1
  C  C22  1  0.66999900  0.83000100  0.50000000  1
  C  C23  1  0.33000100  0.16999900  0.50000000  1
  Ni  Ni24  1  0.61773700  0.11773700  0.73547500  1
  Ni  Ni25  1  0.38226300  0.88226300  0.26452500  1
  Ni  Ni26  1  0.11773700  0.38226300  0.50000000  1
  Ni  Ni27  1  0.88226300  0.61773700  0.50000000  1
  Ni  Ni28  1  0.50000000  0.50000000  0.00000000  1
  Ni  Ni29  1  0.00000000  0.00000000  0.00000000  1
  Ni  Ni30  1  0.38200500  0.88200500  0.85676900  1
  Ni  Ni31  1  0.61799500  0.11799500  0.14323100  1
  Ni  Ni32  1  0.02523500  0.52523500  0.14323100  1
  Ni  Ni33  1  0.88200500  0.02523500  0.50000000  1
  Ni  Ni34  1  0.47476500  0.61799500  0.50000000  1
  Ni  Ni35  1  0.97476500  0.47476500  0.85676900  1
  Ni  Ni36  1  0.11799500  0.97476500  0.50000000  1
  Ni  Ni37  1  0.52523500  0.38200500  0.50000000  1
  Cu  Cu38  1  0.75000000  0.75000000  0.00000000  1
  Cu  Cu39  1  0.25000000  0.25000000  0.00000000  1
