# generated using pymatgen
data_Cu(NiC)2
_symmetry_space_group_name_H-M   'P 1'
_cell_length_a   8.85381900
_cell_length_b   8.87996651
_cell_length_c   8.88360714
_cell_angle_alpha   109.53115587
_cell_angle_beta   109.26607430
_cell_angle_gamma   109.51897006
_symmetry_Int_Tables_number   1
_chemical_formula_structural   Cu(NiC)2
_chemical_formula_sum   'Cu8 Ni16 C16'
_cell_volume   538.30507586
_cell_formula_units_Z   8
loop_
 _symmetry_equiv_pos_site_id
 _symmetry_equiv_pos_as_xyz
  1  'x, y, z'
loop_
 _atom_site_type_symbol
 _atom_site_label
 _atom_site_symmetry_multiplicity
 _atom_site_fract_x
 _atom_site_fract_y
 _atom_site_fract_z
 _atom_site_occupancy
  C  C0  1  0.01091100  0.99814400  0.50073200  1
  C  C1  1  0.74785300  0.29483900  0.46392800  1
  C  C2  1  0.22150000  0.47136000  0.24929700  1
  C  C3  1  0.71493700  0.95859200  0.24964600  1
  C  C4  1  0.25904900  0.21114500  0.03456500  1
  C  C5  1  0.96777300  0.74237100  0.28548900  1
  C  C6  1  0.45749000  0.74730900  0.78493100  1
  C  C7  1  0.03379900  0.25045200  0.71343400  1
  C  C8  1  0.99557200  0.50783800  0.99527900  1
  C  C9  1  0.50047300  0.99937000  0.00031800  1
  C  C10  1  0.53330100  0.25791000  0.21210700  1
  C  C11  1  0.50874100  0.50820700  0.49091300  1
  C  C12  1  0.74944200  0.78950100  0.96869100  1
  C  C13  1  0.78889500  0.53371800  0.75060500  1
  C  C14  1  0.27831800  0.03148500  0.75016500  1
  C  C15  1  0.24381200  0.70588000  0.54230800  1
  Ni  Ni16  1  0.03511500  0.99312800  0.73370900  1
  Ni  Ni17  1  0.26753100  0.23790700  0.27208500  1
  Ni  Ni18  1  0.77097000  0.04713300  0.96833000  1
  Ni  Ni19  1  0.46521000  0.72814700  0.03965100  1
  Ni  Ni20  1  0.48808500  0.25684900  0.46996900  1
  Ni  Ni21  1  0.01038700  0.53778000  0.22985600  1
  Ni  Ni22  1  0.51422700  0.74124600  0.53347800  1
  Ni  Ni23  1  0.74053900  0.72830900  0.22830400  1
  Ni  Ni24  1  0.22788000  0.77041400  0.76842900  1
  Ni  Ni25  1  0.22801600  0.95851800  0.03062800  1
  Ni  Ni26  1  0.53237500  0.27066600  0.95586700  1
  Ni  Ni27  1  0.75979100  0.53300800  0.01453100  1
  Ni  Ni28  1  0.98853200  0.45509200  0.77416700  1
  Ni  Ni29  1  0.26912100  0.50645700  0.45732100  1
  Ni  Ni30  1  0.72617800  0.48493000  0.54840900  1
  Ni  Ni31  1  0.04978000  0.77971700  0.48540100  1
  Cu  Cu32  1  0.96174400  0.01483100  0.26357400  1
  Cu  Cu33  1  0.55223600  0.03442000  0.72642500  1
  Cu  Cu34  1  0.94378400  0.21914000  0.51835900  1
  Cu  Cu35  1  0.25706500  0.27489000  0.77645900  1
  Cu  Cu36  1  0.24098800  0.46380700  0.98055700  1
  Cu  Cu37  1  0.45735800  0.96654500  0.27055600  1
  Cu  Cu38  1  0.77232300  0.22442800  0.23662100  1
  Cu  Cu39  1  0.72890000  0.76451800  0.72490500  1
