# generated using pymatgen
data_Cu8NiC33
_symmetry_space_group_name_H-M   'P 1'
_cell_length_a   7.68221700
_cell_length_b   9.33544568
_cell_length_c   9.74605750
_cell_angle_alpha   117.95239262
_cell_angle_beta   103.25130343
_cell_angle_gamma   99.99141767
_symmetry_Int_Tables_number   1
_chemical_formula_structural   Cu8NiC33
_chemical_formula_sum   'Cu8 Ni1 C33'
_cell_volume   567.98857674
_cell_formula_units_Z   1
loop_
 _symmetry_equiv_pos_site_id
 _symmetry_equiv_pos_as_xyz
  1  'x, y, z'
loop_
 _atom_site_type_symbol
 _atom_site_label
 _atom_site_symmetry_multiplicity
 _atom_site_fract_x
 _atom_site_fract_y
 _atom_site_fract_z
 _atom_site_occupancy
  C  C0  1  0.00000000  0.50000000  0.00000000  1
  C  C1  1  0.50000000  0.50000000  0.50000000  1
  Ni  Ni2  1  0.00000000  0.50000000  0.50000000  1
  C  C3  1  0.24822100  0.99820800  0.75244500  1
  C  C4  1  0.75177900  0.00179200  0.24755500  1
  C  C5  1  0.50000000  0.50000000  0.00000000  1
  Cu  Cu6  1  0.41397500  0.19555300  0.34359400  1
  Cu  Cu7  1  0.91904000  0.20228200  0.83451600  1
  Cu  Cu8  1  0.58602500  0.80444700  0.65640600  1
  Cu  Cu9  1  0.08096000  0.79771800  0.16548400  1
  Cu  Cu10  1  0.57029500  0.25697100  0.81307800  1
  Cu  Cu11  1  0.05685800  0.25572300  0.32823500  1
  Cu  Cu12  1  0.42970500  0.74302900  0.18692200  1
  Cu  Cu13  1  0.94314200  0.74427700  0.67176500  1
  C  C14  1  0.38823600  0.18986800  0.50838500  1
  C  C15  1  0.89186400  0.19468200  0.00141300  1
  C  C16  1  0.61176400  0.81013200  0.49161500  1
  C  C17  1  0.10813600  0.80531800  0.99858700  1
  C  C18  1  0.38747700  0.15967800  0.81743900  1
  C  C19  1  0.88172300  0.15578200  0.32610200  1
  C  C20  1  0.61252300  0.84032200  0.18256100  1
  C  C21  1  0.11827700  0.84421800  0.67389800  1
  C  C22  1  0.80157000  0.59835800  0.84980700  1
  C  C23  1  0.28369200  0.59514000  0.35660700  1
  C  C24  1  0.19843000  0.40164200  0.15019300  1
  C  C25  1  0.71630800  0.40486000  0.64339300  1
  C  C26  1  0.19176400  0.14510900  0.35831300  1
  C  C27  1  0.69407700  0.14172400  0.85577100  1
  C  C28  1  0.80823600  0.85489100  0.64168700  1
  C  C29  1  0.30592300  0.85827600  0.14422900  1
  C  C30  1  0.49924900  0.07114200  0.30459200  1
  C  C31  1  0.00357000  0.07445900  0.80222800  1
  C  C32  1  0.50075100  0.92885800  0.69540800  1
  C  C33  1  0.99643000  0.92554100  0.19777200  1
  C  C34  1  0.53801000  0.37416000  0.20606800  1
  C  C35  1  0.03406700  0.37859500  0.69391300  1
  C  C36  1  0.46199000  0.62584000  0.79393200  1
  C  C37  1  0.96593300  0.62140500  0.30608700  1
  C  C38  1  0.49570700  0.30503900  0.95510800  1
  C  C39  1  0.99337700  0.31605700  0.45740100  1
  C  C40  1  0.50429300  0.69496100  0.04489200  1
  C  C41  1  0.00662300  0.68394300  0.54259900  1
