# generated using pymatgen
data_Cu12Ni2C9
_symmetry_space_group_name_H-M   'P 1'
_cell_length_a   5.55026100
_cell_length_b   8.03872645
_cell_length_c   11.83439144
_cell_angle_alpha   79.62691465
_cell_angle_beta   89.61725038
_cell_angle_gamma   89.42596537
_symmetry_Int_Tables_number   1
_chemical_formula_structural   Cu12Ni2C9
_chemical_formula_sum   'Cu24 Ni4 C18'
_cell_volume   519.35314885
_cell_formula_units_Z   2
loop_
 _symmetry_equiv_pos_site_id
 _symmetry_equiv_pos_as_xyz
  1  'x, y, z'
loop_
 _atom_site_type_symbol
 _atom_site_label
 _atom_site_symmetry_multiplicity
 _atom_site_fract_x
 _atom_site_fract_y
 _atom_site_fract_z
 _atom_site_occupancy
  C  C0  1  0.01134300  0.75919200  0.25526800  1
  C  C1  1  0.98865700  0.24080800  0.74473200  1
  C  C2  1  0.57668400  0.93495500  0.33847600  1
  C  C3  1  0.42331600  0.06504500  0.66152400  1
  C  C4  1  0.29746700  0.32573700  0.94187600  1
  C  C5  1  0.70253300  0.67426300  0.05812400  1
  C  C6  1  0.54849300  0.43939000  0.79426500  1
  C  C7  1  0.45150700  0.56061000  0.20573500  1
  C  C8  1  0.18288500  0.49573900  0.87900900  1
  C  C9  1  0.81711500  0.50426100  0.12099100  1
  C  C10  1  0.82356800  0.91581300  0.68733500  1
  C  C11  1  0.17643200  0.08418700  0.31266500  1
  C  C12  1  0.70379500  0.55926500  0.70219900  1
  C  C13  1  0.29620500  0.44073500  0.29780100  1
  C  C14  1  0.68432600  0.81101500  0.44380900  1
  C  C15  1  0.31567400  0.18898500  0.55619100  1
  C  C16  1  0.69416500  0.92018400  0.80430400  1
  C  C17  1  0.30583500  0.07981600  0.19569600  1
  Ni  Ni18  1  0.17847300  0.67783300  0.57772200  1
  Ni  Ni19  1  0.82152700  0.32216700  0.42227800  1
  Ni  Ni20  1  0.26133000  0.83440500  0.94285600  1
  Ni  Ni21  1  0.73867000  0.16559500  0.05714400  1
  Cu  Cu22  1  0.50298700  0.76760200  0.92462500  1
  Cu  Cu23  1  0.49701300  0.23239800  0.07537500  1
  Cu  Cu24  1  0.05832500  0.25548700  0.39436400  1
  Cu  Cu25  1  0.94167500  0.74451300  0.60563600  1
  Cu  Cu26  1  0.25088900  0.38750500  0.86538800  1
  Cu  Cu27  1  0.74911100  0.61249500  0.13461200  1
  Cu  Cu28  1  0.17784200  0.49336200  0.61098100  1
  Cu  Cu29  1  0.82215800  0.50663800  0.38901900  1
  Cu  Cu30  1  0.36817200  0.74730000  0.63797700  1
  Cu  Cu31  1  0.63182800  0.25270000  0.36202300  1
  Cu  Cu32  1  0.72332800  0.87210600  0.36702000  1
  Cu  Cu33  1  0.27667200  0.12789400  0.63298000  1
  Cu  Cu34  1  0.23441900  0.84726800  0.06381200  1
  Cu  Cu35  1  0.76558100  0.15273200  0.93618800  1
  Cu  Cu36  1  0.74143400  0.99250600  0.73158200  1
  Cu  Cu37  1  0.25856600  0.00749400  0.26841800  1
  Cu  Cu38  1  0.07950300  0.72180900  0.91090300  1
  Cu  Cu39  1  0.92049700  0.27819100  0.08909700  1
  Cu  Cu40  1  0.22173600  0.72265700  0.45404900  1
  Cu  Cu41  1  0.77826400  0.27734300  0.54595100  1
  Cu  Cu42  1  0.28814000  0.54312000  0.23911800  1
  Cu  Cu43  1  0.71186000  0.45688000  0.76088200  1
  Cu  Cu44  1  0.23719600  0.00223800  0.87269200  1
  Cu  Cu45  1  0.76280400  0.99776200  0.12730800  1
