# generated using pymatgen
data_Cu2Ni9C4
_symmetry_space_group_name_H-M   'P 1'
_cell_length_a   12.11753500
_cell_length_b   12.11753500
_cell_length_c   3.68094600
_cell_angle_alpha   90.00000000
_cell_angle_beta   90.00000000
_cell_angle_gamma   90.00000000
_symmetry_Int_Tables_number   1
_chemical_formula_structural   Cu2Ni9C4
_chemical_formula_sum   'Cu4 Ni18 C8'
_cell_volume   540.49043406
_cell_formula_units_Z   2
loop_
 _symmetry_equiv_pos_site_id
 _symmetry_equiv_pos_as_xyz
  1  'x, y, z'
loop_
 _atom_site_type_symbol
 _atom_site_label
 _atom_site_symmetry_multiplicity
 _atom_site_fract_x
 _atom_site_fract_y
 _atom_site_fract_z
 _atom_site_occupancy
  Ni  Ni0  1  0.18089900  0.10459500  0.50000000  1
  Ni  Ni1  1  0.81910100  0.89540500  0.50000000  1
  Ni  Ni2  1  0.10459500  0.81910100  0.50000000  1
  Ni  Ni3  1  0.68089900  0.39540500  0.50000000  1
  Ni  Ni4  1  0.89540500  0.18089900  0.50000000  1
  Ni  Ni5  1  0.31910100  0.60459500  0.50000000  1
  Ni  Ni6  1  0.60459500  0.68089900  0.50000000  1
  Ni  Ni7  1  0.39540500  0.31910100  0.50000000  1
  Ni  Ni8  1  0.62167100  0.12167100  0.50000000  1
  Ni  Ni9  1  0.37832900  0.87832900  0.50000000  1
  Ni  Ni10  1  0.12167100  0.37832900  0.50000000  1
  Ni  Ni11  1  0.87832900  0.62167100  0.50000000  1
  Ni  Ni12  1  0.00000000  0.00000000  0.00000000  1
  Ni  Ni13  1  0.50000000  0.50000000  0.00000000  1
  Ni  Ni14  1  0.09583200  0.59583200  0.00000000  1
  Ni  Ni15  1  0.90416800  0.40416800  0.00000000  1
  Ni  Ni16  1  0.59583200  0.90416800  0.00000000  1
  Ni  Ni17  1  0.40416800  0.09583200  0.00000000  1
  Cu  Cu18  1  0.74957600  0.24957600  0.00000000  1
  Cu  Cu19  1  0.25042400  0.75042400  0.00000000  1
  Cu  Cu20  1  0.24957600  0.25042400  0.00000000  1
  Cu  Cu21  1  0.75042400  0.74957600  0.00000000  1
  C  C22  1  0.05724600  0.22484100  0.00000000  1
  C  C23  1  0.94275400  0.77515900  0.00000000  1
  C  C24  1  0.22484100  0.94275400  0.00000000  1
  C  C25  1  0.55724600  0.27515900  0.00000000  1
  C  C26  1  0.77515900  0.05724600  0.00000000  1
  C  C27  1  0.44275400  0.72484100  0.00000000  1
  C  C28  1  0.72484100  0.55724600  0.00000000  1
  C  C29  1  0.27515900  0.44275400  0.00000000  1
