# generated using pymatgen
data_Cu3Ni3C2
_symmetry_space_group_name_H-M   'P 1'
_cell_length_a   9.09534333
_cell_length_b   9.09534333
_cell_length_c   9.09534271
_cell_angle_alpha   89.93777845
_cell_angle_beta   89.93777845
_cell_angle_gamma   89.93778103
_symmetry_Int_Tables_number   1
_chemical_formula_structural   Cu3Ni3C2
_chemical_formula_sum   'Cu12 Ni12 C8'
_cell_volume   752.41335495
_cell_formula_units_Z   4
loop_
 _symmetry_equiv_pos_site_id
 _symmetry_equiv_pos_as_xyz
  1  'x, y, z'
loop_
 _atom_site_type_symbol
 _atom_site_label
 _atom_site_symmetry_multiplicity
 _atom_site_fract_x
 _atom_site_fract_y
 _atom_site_fract_z
 _atom_site_occupancy
  Ni  Ni0  1  0.50065700  0.34894300  0.16828600  1
  Ni  Ni1  1  0.16828600  0.50065700  0.34894300  1
  Ni  Ni2  1  0.34894300  0.16828600  0.50065700  1
  Ni  Ni3  1  0.49934300  0.65105700  0.83171400  1
  Ni  Ni4  1  0.83171400  0.49934300  0.65105700  1
  Ni  Ni5  1  0.65105700  0.83171400  0.49934300  1
  Ni  Ni6  1  0.99844300  0.84819700  0.33220000  1
  Ni  Ni7  1  0.33220000  0.99844300  0.84819700  1
  Ni  Ni8  1  0.84819700  0.33220000  0.99844300  1
  Ni  Ni9  1  0.00155700  0.15180300  0.66780000  1
  Ni  Ni10  1  0.66780000  0.00155700  0.15180300  1
  Ni  Ni11  1  0.15180300  0.66780000  0.00155700  1
  C  C12  1  0.24515700  0.24515700  0.24515700  1
  C  C13  1  0.75484300  0.75484300  0.75484300  1
  C  C14  1  0.24449000  0.74552600  0.74415400  1
  C  C15  1  0.74415400  0.24449000  0.74552600  1
  C  C16  1  0.74552600  0.74415400  0.24449000  1
  C  C17  1  0.75551000  0.25447400  0.25584600  1
  C  C18  1  0.25584600  0.75551000  0.25447400  1
  C  C19  1  0.25447400  0.25584600  0.75551000  1
  Cu  Cu20  1  0.65346600  0.99867800  0.85115500  1
  Cu  Cu21  1  0.85115500  0.65346600  0.99867800  1
  Cu  Cu22  1  0.99867800  0.85115500  0.65346600  1
  Cu  Cu23  1  0.34653400  0.00132200  0.14884500  1
  Cu  Cu24  1  0.14884500  0.34653400  0.00132200  1
  Cu  Cu25  1  0.00132200  0.14884500  0.34653400  1
  Cu  Cu26  1  0.15245400  0.49977500  0.65042000  1
  Cu  Cu27  1  0.65042000  0.15245400  0.49977500  1
  Cu  Cu28  1  0.49977500  0.65042000  0.15245400  1
  Cu  Cu29  1  0.84754600  0.50022500  0.34958000  1
  Cu  Cu30  1  0.34958000  0.84754600  0.50022500  1
  Cu  Cu31  1  0.50022500  0.34958000  0.84754600  1
