# generated using pymatgen
data_CuNiC4
_symmetry_space_group_name_H-M   'P 1'
_cell_length_a   3.22218469
_cell_length_b   3.22218469
_cell_length_c   36.34504300
_cell_angle_alpha   90.00000000
_cell_angle_beta   90.00000000
_cell_angle_gamma   120.00001423
_symmetry_Int_Tables_number   1
_chemical_formula_structural   CuNiC4
_chemical_formula_sum   'Cu2 Ni2 C8'
_cell_volume   326.79591328
_cell_formula_units_Z   2
loop_
 _symmetry_equiv_pos_site_id
 _symmetry_equiv_pos_as_xyz
  1  'x, y, z'
loop_
 _atom_site_type_symbol
 _atom_site_label
 _atom_site_symmetry_multiplicity
 _atom_site_fract_x
 _atom_site_fract_y
 _atom_site_fract_z
 _atom_site_occupancy
  Ni  Ni0  1  0.00000000  0.00000000  0.09390600  1
  Ni  Ni1  1  0.00000000  0.00000000  0.46965000  1
  Cu  Cu2  1  0.33333300  0.66666700  0.28180700  1
  Cu  Cu3  1  0.33333300  0.66666700  0.65755400  1
  C  C4  1  0.00000000  0.00000000  0.70486700  1
  C  C5  1  0.00000000  0.00000000  0.61026200  1
  C  C6  1  0.00000000  0.00000000  0.32469000  1
  C  C7  1  0.33333300  0.66666700  0.05118900  1
  C  C8  1  0.33333300  0.66666700  0.42695900  1
  C  C9  1  0.33333300  0.66666700  0.13662700  1
  C  C10  1  0.33333300  0.66666700  0.51233300  1
  C  C11  1  0.00000000  0.00000000  0.23890400  1
