# generated using pymatgen
data_CuNiC10
_symmetry_space_group_name_H-M   'P 1'
_cell_length_a   12.44045997
_cell_length_b   12.44045997
_cell_length_c   12.44046012
_cell_angle_alpha   18.09322201
_cell_angle_beta   18.09322201
_cell_angle_gamma   18.09322236
_symmetry_Int_Tables_number   1
_chemical_formula_structural   CuNiC10
_chemical_formula_sum   'Cu1 Ni1 C10'
_cell_volume   162.15695592
_cell_formula_units_Z   1
loop_
 _symmetry_equiv_pos_site_id
 _symmetry_equiv_pos_as_xyz
  1  'x, y, z'
loop_
 _atom_site_type_symbol
 _atom_site_label
 _atom_site_symmetry_multiplicity
 _atom_site_fract_x
 _atom_site_fract_y
 _atom_site_fract_z
 _atom_site_occupancy
  Ni  Ni0  1  0.00000000  0.00000000  0.00000000  1
  Cu  Cu1  1  0.50000000  0.50000000  0.50000000  1
  C  C2  1  0.75198900  0.75198900  0.75198900  1
  C  C3  1  0.24801100  0.24801100  0.24801100  1
  C  C4  1  0.07150200  0.07150200  0.07150200  1
  C  C5  1  0.56724900  0.56724900  0.56724900  1
  C  C6  1  0.92849800  0.92849800  0.92849800  1
  C  C7  1  0.43275100  0.43275100  0.43275100  1
  C  C8  1  0.69779600  0.69779600  0.69779600  1
  C  C9  1  0.19376800  0.19376800  0.19376800  1
  C  C10  1  0.30220400  0.30220400  0.30220400  1
  C  C11  1  0.80623200  0.80623200  0.80623200  1
