# generated using pymatgen
data_Cu5Ni2C
_symmetry_space_group_name_H-M   'P 1'
_cell_length_a   4.12415800
_cell_length_b   15.72554000
_cell_length_c   6.36443900
_cell_angle_alpha   90.00000000
_cell_angle_beta   90.00000000
_cell_angle_gamma   90.00000000
_symmetry_Int_Tables_number   1
_chemical_formula_structural   Cu5Ni2C
_chemical_formula_sum   'Cu10 Ni4 C2'
_cell_volume   412.76321937
_cell_formula_units_Z   2
loop_
 _symmetry_equiv_pos_site_id
 _symmetry_equiv_pos_as_xyz
  1  'x, y, z'
loop_
 _atom_site_type_symbol
 _atom_site_label
 _atom_site_symmetry_multiplicity
 _atom_site_fract_x
 _atom_site_fract_y
 _atom_site_fract_z
 _atom_site_occupancy
  C  C0  1  0.25000000  0.75000000  0.11114200  1
  C  C1  1  0.75000000  0.25000000  0.88885800  1
  Ni  Ni2  1  0.25000000  0.10473100  0.38423600  1
  Ni  Ni3  1  0.25000000  0.39526900  0.38423600  1
  Ni  Ni4  1  0.75000000  0.89526900  0.61576400  1
  Ni  Ni5  1  0.75000000  0.60473100  0.61576400  1
  Cu  Cu6  1  0.25000000  0.12785600  0.02123600  1
  Cu  Cu7  1  0.25000000  0.37214400  0.02123600  1
  Cu  Cu8  1  0.75000000  0.87214400  0.97876400  1
  Cu  Cu9  1  0.75000000  0.62785600  0.97876400  1
  Cu  Cu10  1  0.25000000  0.92548100  0.39796400  1
  Cu  Cu11  1  0.25000000  0.57451900  0.39796400  1
  Cu  Cu12  1  0.75000000  0.07451900  0.60203600  1
  Cu  Cu13  1  0.75000000  0.42548100  0.60203600  1
  Cu  Cu14  1  0.25000000  0.25000000  0.56341000  1
  Cu  Cu15  1  0.75000000  0.75000000  0.43659000  1
