# generated using pymatgen
data_Cu(NiC23)2
_symmetry_space_group_name_H-M   'P 1'
_cell_length_a   10.08523154
_cell_length_b   10.08523154
_cell_length_c   7.86619856
_cell_angle_alpha   70.55125357
_cell_angle_beta   70.55125357
_cell_angle_gamma   88.59095315
_symmetry_Int_Tables_number   1
_chemical_formula_structural   Cu(NiC23)2
_chemical_formula_sum   'Cu1 Ni2 C46'
_cell_volume   708.02783987
_cell_formula_units_Z   1
loop_
 _symmetry_equiv_pos_site_id
 _symmetry_equiv_pos_as_xyz
  1  'x, y, z'
loop_
 _atom_site_type_symbol
 _atom_site_label
 _atom_site_symmetry_multiplicity
 _atom_site_fract_x
 _atom_site_fract_y
 _atom_site_fract_z
 _atom_site_occupancy
  Ni  Ni0  1  0.58147200  0.58147200  0.68752900  1
  Ni  Ni1  1  0.41994200  0.41994200  0.29717300  1
  Cu  Cu2  1  0.91305800  0.91305800  0.36717900  1
  C  C3  1  0.68918200  0.19036100  0.96758400  1
  C  C4  1  0.19036100  0.68918200  0.96758400  1
  C  C5  1  0.99368700  0.47895800  0.50196400  1
  C  C6  1  0.47895800  0.99368700  0.50196400  1
  C  C7  1  0.23204200  0.77600300  0.49721800  1
  C  C8  1  0.77600300  0.23204200  0.49721800  1
  C  C9  1  0.88979500  0.66607600  0.80844800  1
  C  C10  1  0.66607600  0.88979500  0.80844800  1
  C  C11  1  0.31809500  0.10179000  0.19036700  1
  C  C12  1  0.10179000  0.31809500  0.19036700  1
  C  C13  1  0.78880900  0.56648400  0.24944500  1
  C  C14  1  0.56648400  0.78880900  0.24944500  1
  C  C15  1  0.43992700  0.21826400  0.73906400  1
  C  C16  1  0.21826400  0.43992700  0.73906400  1
  C  C17  1  0.02813500  0.77541700  0.65450200  1
  C  C18  1  0.77541700  0.02813500  0.65450200  1
  C  C19  1  0.20365800  0.96165400  0.31303400  1
  C  C20  1  0.96165400  0.20365800  0.31303400  1
  C  C21  1  0.11790000  0.68136400  0.39003400  1
  C  C22  1  0.68136400  0.11790000  0.39003400  1
  C  C23  1  0.31253400  0.88314500  0.59729000  1
  C  C24  1  0.88314500  0.31253400  0.59729000  1
  C  C25  1  0.75160900  0.39749000  0.30814600  1
  C  C26  1  0.39749000  0.75160900  0.30814600  1
  C  C27  1  0.60720300  0.24905700  0.69938400  1
  C  C28  1  0.24905700  0.60720300  0.69938400  1
  C  C29  1  0.85817700  0.60242800  0.39048800  1
  C  C30  1  0.60242800  0.85817700  0.39048800  1
  C  C31  1  0.41602900  0.14530600  0.59474200  1
  C  C32  1  0.14530600  0.41602900  0.59474200  1
  C  C33  1  0.63641900  0.63641900  0.27153100  1
  C  C34  1  0.37479500  0.37479500  0.69641800  1
  C  C35  1  0.89478100  0.63787800  0.02328600  1
  C  C36  1  0.63787800  0.89478100  0.02328600  1
  C  C37  1  0.36215200  0.12250600  0.96347600  1
  C  C38  1  0.12250600  0.36215200  0.96347600  1
  C  C39  1  0.74998500  0.74998500  0.78065300  1
  C  C40  1  0.24409400  0.24409400  0.22240800  1
  C  C41  1  0.88980200  0.52669000  0.74752500  1
  C  C42  1  0.52669000  0.88980200  0.74752500  1
  C  C43  1  0.45782600  0.09285100  0.25372600  1
  C  C44  1  0.09285100  0.45782600  0.25372600  1
  C  C45  1  0.14139000  0.84339900  0.14028700  1
  C  C46  1  0.84339900  0.14139000  0.14028700  1
  C  C47  1  0.68842000  0.42596100  0.98219400  1
  C  C48  1  0.42596100  0.68842000  0.98219400  1
