# generated using pymatgen
data_CuNi9C5
_symmetry_space_group_name_H-M   'P 1'
_cell_length_a   7.93057540
_cell_length_b   8.85077600
_cell_length_c   18.53139214
_cell_angle_alpha   90.00000000
_cell_angle_beta   100.58019524
_cell_angle_gamma   90.00000000
_symmetry_Int_Tables_number   1
_chemical_formula_structural   CuNi9C5
_chemical_formula_sum   'Cu8 Ni72 C40'
_cell_volume   1278.63655144
_cell_formula_units_Z   8
loop_
 _symmetry_equiv_pos_site_id
 _symmetry_equiv_pos_as_xyz
  1  'x, y, z'
loop_
 _atom_site_type_symbol
 _atom_site_label
 _atom_site_symmetry_multiplicity
 _atom_site_fract_x
 _atom_site_fract_y
 _atom_site_fract_z
 _atom_site_occupancy
  C  C0  1  0.08607500  0.73932600  0.39796100  1
  C  C1  1  0.58607500  0.76067400  0.89796100  1
  C  C2  1  0.91392500  0.26067400  0.60203900  1
  C  C3  1  0.41392500  0.23932600  0.10203900  1
  Ni  Ni4  1  0.47322700  0.81244900  0.43249000  1
  Ni  Ni5  1  0.97322700  0.68755100  0.93249000  1
  Ni  Ni6  1  0.52677300  0.18755100  0.56751000  1
  Ni  Ni7  1  0.02677300  0.31244900  0.06751000  1
  Ni  Ni8  1  0.42989900  0.70139100  0.49200700  1
  Ni  Ni9  1  0.92989900  0.79860900  0.99200700  1
  Ni  Ni10  1  0.57010100  0.29860900  0.50799300  1
  Ni  Ni11  1  0.07010100  0.20139100  0.00799300  1
  Ni  Ni12  1  0.22664600  0.03062000  0.48446300  1
  Ni  Ni13  1  0.72664600  0.46938000  0.98446300  1
  Ni  Ni14  1  0.77335400  0.96938000  0.51553700  1
  Ni  Ni15  1  0.27335400  0.53062000  0.01553700  1
  Ni  Ni16  1  0.18369600  0.06008500  0.39842000  1
  Ni  Ni17  1  0.68369600  0.43991500  0.89842000  1
  Ni  Ni18  1  0.81630400  0.93991500  0.60158000  1
  Ni  Ni19  1  0.31630400  0.56008500  0.10158000  1
  Ni  Ni20  1  0.18948200  0.73541600  0.56606000  1
  Ni  Ni21  1  0.68948200  0.76458400  0.06606000  1
  Ni  Ni22  1  0.81051800  0.26458400  0.43394000  1
  Ni  Ni23  1  0.31051800  0.23541600  0.93394000  1
  Ni  Ni24  1  0.01782700  0.83390000  0.54880000  1
  Ni  Ni25  1  0.51782700  0.66610000  0.04880000  1
  Ni  Ni26  1  0.98217300  0.16610000  0.45120000  1
  Ni  Ni27  1  0.48217300  0.33390000  0.95120000  1
  Ni  Ni28  1  0.76263900  0.84086300  0.29349300  1
  Ni  Ni29  1  0.26263900  0.65913700  0.79349300  1
  Ni  Ni30  1  0.23736100  0.15913700  0.70650700  1
  Ni  Ni31  1  0.73736100  0.34086300  0.20650700  1
  Ni  Ni32  1  0.86994200  0.99375700  0.30725600  1
  Ni  Ni33  1  0.36994200  0.50624300  0.80725600  1
  Ni  Ni34  1  0.13005800  0.00624300  0.69274400  1
  Ni  Ni35  1  0.63005800  0.49375700  0.19274400  1
  Ni  Ni36  1  0.30971900  0.82363000  0.28765500  1
  Ni  Ni37  1  0.80971900  0.67637000  0.78765500  1
  Ni  Ni38  1  0.69028100  0.17637000  0.71234500  1
  Ni  Ni39  1  0.19028100  0.32363000  0.21234500  1
  Ni  Ni40  1  0.15193700  0.93018500  0.26476500  1
  Ni  Ni41  1  0.65193700  0.56981500  0.76476500  1
  Ni  Ni42  1  0.84806300  0.06981500  0.73523500  1
  Ni  Ni43  1  0.34806300  0.43018500  0.23523500  1
  Ni  Ni44  1  0.79434400  0.57707200  0.45818700  1
  Ni  Ni45  1  0.29434400  0.92292800  0.95818700  1
  Ni  Ni46  1  0.20565600  0.42292800  0.54181300  1
  Ni  Ni47  1  0.70565600  0.07707200  0.04181300  1
  Ni  Ni48  1  0.71637800  0.59789800  0.37427500  1
  Ni  Ni49  1  0.21637800  0.90210200  0.87427500  1
  Ni  Ni50  1  0.28362200  0.40210200  0.62572500  1
  Ni  Ni51  1  0.78362200  0.09789800  0.12572500  1
  Ni  Ni52  1  0.26342300  0.43224900  0.41840500  1
  Ni  Ni53  1  0.76342300  0.06775100  0.91840500  1
  Ni  Ni54  1  0.73657700  0.56775100  0.58159500  1
  Ni  Ni55  1  0.23657700  0.93224900  0.08159500  1
  Ni  Ni56  1  0.07513000  0.40217300  0.43307500  1
  Ni  Ni57  1  0.57513000  0.09782700  0.93307500  1
  Ni  Ni58  1  0.92487000  0.59782700  0.56692500  1
  Ni  Ni59  1  0.42487000  0.90217300  0.06692500  1
  Ni  Ni60  1  0.00737900  0.48639900  0.27967000  1
  Ni  Ni61  1  0.50737900  0.01360100  0.77967000  1
  Ni  Ni62  1  0.99262100  0.51360100  0.72033000  1
  Ni  Ni63  1  0.49262100  0.98639900  0.22033000  1
  Ni  Ni64  1  0.02484000  0.63943900  0.23680000  1
  Ni  Ni65  1  0.52484000  0.86056100  0.73680000  1
  Ni  Ni66  1  0.97516000  0.36056100  0.76320000  1
  Ni  Ni67  1  0.47516000  0.13943900  0.26320000  1
  Ni  Ni68  1  0.41937900  0.94581800  0.58307000  1
  Ni  Ni69  1  0.91937900  0.55418200  0.08307000  1
  Ni  Ni70  1  0.58062100  0.05418200  0.41693000  1
  Ni  Ni71  1  0.08062100  0.44581800  0.91693000  1
  Ni  Ni72  1  0.29475100  0.07072300  0.60370700  1
  Ni  Ni73  1  0.79475100  0.42927700  0.10370700  1
  Ni  Ni74  1  0.70524900  0.92927700  0.39629300  1
  Ni  Ni75  1  0.20524900  0.57072300  0.89629300  1
  Cu  Cu76  1  0.97322700  0.21629600  0.26649600  1
  Cu  Cu77  1  0.47322700  0.28370400  0.76649600  1
  Cu  Cu78  1  0.02677300  0.78370400  0.73350400  1
  Cu  Cu79  1  0.52677300  0.71629600  0.23350400  1
  Cu  Cu80  1  0.49600300  0.70245500  0.62232700  1
  Cu  Cu81  1  0.99600300  0.79754500  0.12232700  1
  Cu  Cu82  1  0.50399700  0.29754500  0.37767300  1
  Cu  Cu83  1  0.00399700  0.20245500  0.87767300  1
  C  C84  1  0.39147000  0.73176200  0.44048200  1
  C  C85  1  0.89147000  0.76823800  0.94048200  1
  C  C86  1  0.60853000  0.26823800  0.55951800  1
  C  C87  1  0.10853000  0.23176200  0.05951800  1
  C  C88  1  0.13437500  0.02186600  0.43966100  1
  C  C89  1  0.63437500  0.47813400  0.93966100  1
  C  C90  1  0.86562500  0.97813400  0.56033900  1
  C  C91  1  0.36562500  0.52186600  0.06033900  1
  C  C92  1  0.07613300  0.74258600  0.53368200  1
  C  C93  1  0.57613300  0.75741400  0.03368200  1
  C  C94  1  0.92386700  0.25741400  0.46631800  1
  C  C95  1  0.42386700  0.24258600  0.96631800  1
  C  C96  1  0.84285100  0.89828200  0.33104900  1
  C  C97  1  0.34285100  0.60171800  0.83104900  1
  C  C98  1  0.15714900  0.10171800  0.66895100  1
  C  C99  1  0.65714900  0.39828200  0.16895100  1
  C  C100  1  0.22262800  0.88235000  0.30762000  1
  C  C101  1  0.72262800  0.61765000  0.80762000  1
  C  C102  1  0.77737200  0.11765000  0.69238000  1
  C  C103  1  0.27737200  0.38235000  0.19238000  1
  C  C104  1  0.81549600  0.62249300  0.41217000  1
  C  C105  1  0.31549600  0.87750700  0.91217000  1
  C  C106  1  0.18450400  0.37750700  0.58783000  1
  C  C107  1  0.68450400  0.12249300  0.08783000  1
  C  C108  1  0.17068900  0.47567400  0.44093000  1
  C  C109  1  0.67068900  0.02432600  0.94093000  1
  C  C110  1  0.82931100  0.52432600  0.55907000  1
  C  C111  1  0.32931100  0.97567400  0.05907000  1
  C  C112  1  0.02649100  0.59589200  0.28571500  1
  C  C113  1  0.52649100  0.90410800  0.78571500  1
  C  C114  1  0.97350900  0.40410800  0.71428500  1
  C  C115  1  0.47350900  0.09589200  0.21428500  1
  C  C116  1  0.36766500  0.04513600  0.56694700  1
  C  C117  1  0.86766500  0.45486400  0.06694700  1
  C  C118  1  0.63233500  0.95486400  0.43305300  1
  C  C119  1  0.13233500  0.54513600  0.93305300  1
