# generated using pymatgen
data_Cu4NiC2
_symmetry_space_group_name_H-M   'P 1'
_cell_length_a   8.74280379
_cell_length_b   8.74280379
_cell_length_c   10.86200827
_cell_angle_alpha   81.53924154
_cell_angle_beta   81.53924154
_cell_angle_gamma   51.46348246
_symmetry_Int_Tables_number   1
_chemical_formula_structural   Cu4NiC2
_chemical_formula_sum   'Cu16 Ni4 C8'
_cell_volume   640.71418566
_cell_formula_units_Z   4
loop_
 _symmetry_equiv_pos_site_id
 _symmetry_equiv_pos_as_xyz
  1  'x, y, z'
loop_
 _atom_site_type_symbol
 _atom_site_label
 _atom_site_symmetry_multiplicity
 _atom_site_fract_x
 _atom_site_fract_y
 _atom_site_fract_z
 _atom_site_occupancy
  C  C0  1  0.92491600  0.67694800  0.68056400  1
  C  C1  1  0.32305200  0.07508400  0.81943600  1
  C  C2  1  0.07508400  0.32305200  0.31943600  1
  C  C3  1  0.67694800  0.92491600  0.18056400  1
  C  C4  1  0.62901300  0.37098700  0.75000000  1
  C  C5  1  0.37098700  0.62901300  0.25000000  1
  Ni  Ni6  1  0.30596600  0.37941500  0.02397900  1
  Ni  Ni7  1  0.62058500  0.69403400  0.47602100  1
  Ni  Ni8  1  0.69403400  0.62058500  0.97602100  1
  Ni  Ni9  1  0.37941500  0.30596600  0.52397900  1
  Cu  Cu10  1  0.10211500  0.61360000  0.14071700  1
  Cu  Cu11  1  0.38640000  0.89788500  0.35928300  1
  Cu  Cu12  1  0.89788500  0.38640000  0.85928200  1
  Cu  Cu13  1  0.61360000  0.10211500  0.64071800  1
  Cu  Cu14  1  0.28334500  0.15067100  0.08711600  1
  Cu  Cu15  1  0.84932900  0.71665500  0.41288400  1
  Cu  Cu16  1  0.71665500  0.84932900  0.91288400  1
  Cu  Cu17  1  0.15067100  0.28334500  0.58711600  1
  Cu  Cu18  1  0.60021800  0.26623000  0.03514000  1
  Cu  Cu19  1  0.73377000  0.39978200  0.46486000  1
  Cu  Cu20  1  0.39978200  0.73377000  0.96486000  1
  Cu  Cu21  1  0.26623000  0.60021800  0.53514000  1
  Cu  Cu22  1  0.25994500  0.45002600  0.83026500  1
  Cu  Cu23  1  0.54997400  0.74005500  0.66973500  1
  Cu  Cu24  1  0.74005500  0.54997400  0.16973500  1
  Cu  Cu25  1  0.45002600  0.25994500  0.33026500  1
  C  C26  1  0.98606600  0.01393400  0.25000000  1
  C  C27  1  0.01393400  0.98606600  0.75000000  1
