# generated using pymatgen
data_CuNi5C4
_symmetry_space_group_name_H-M   'P 1'
_cell_length_a   7.32635500
_cell_length_b   6.53219700
_cell_length_c   4.98574300
_cell_angle_alpha   90.00000000
_cell_angle_beta   90.00000000
_cell_angle_gamma   90.00000000
_symmetry_Int_Tables_number   1
_chemical_formula_structural   CuNi5C4
_chemical_formula_sum   'Cu2 Ni10 C8'
_cell_volume   238.60367074
_cell_formula_units_Z   2
loop_
 _symmetry_equiv_pos_site_id
 _symmetry_equiv_pos_as_xyz
  1  'x, y, z'
loop_
 _atom_site_type_symbol
 _atom_site_label
 _atom_site_symmetry_multiplicity
 _atom_site_fract_x
 _atom_site_fract_y
 _atom_site_fract_z
 _atom_site_occupancy
  Ni  Ni0  1  0.56627700  0.49951700  0.25285900  1
  Ni  Ni1  1  0.93372300  0.49951700  0.25285900  1
  Ni  Ni2  1  0.56627700  0.00048300  0.25285900  1
  Ni  Ni3  1  0.93372300  0.00048300  0.25285900  1
  Ni  Ni4  1  0.43372300  0.50048300  0.74714100  1
  Ni  Ni5  1  0.06627700  0.50048300  0.74714100  1
  Ni  Ni6  1  0.43372300  0.99951700  0.74714100  1
  Ni  Ni7  1  0.06627700  0.99951700  0.74714100  1
  Ni  Ni8  1  0.75000000  0.75000000  0.73248700  1
  Ni  Ni9  1  0.25000000  0.25000000  0.26751300  1
  Cu  Cu10  1  0.75000000  0.25000000  0.72815700  1
  Cu  Cu11  1  0.25000000  0.75000000  0.27184300  1
  C  C12  1  0.75000000  0.00643200  0.95855300  1
  C  C13  1  0.75000000  0.49356800  0.95855300  1
  C  C14  1  0.25000000  0.99356800  0.04144700  1
  C  C15  1  0.25000000  0.50643200  0.04144700  1
  C  C16  1  0.49863600  0.75000000  0.49624600  1
  C  C17  1  0.00136400  0.75000000  0.49624600  1
  C  C18  1  0.50136400  0.25000000  0.50375400  1
  C  C19  1  0.99863600  0.25000000  0.50375400  1
