# generated using pymatgen
data_CuNiC3
_symmetry_space_group_name_H-M   'P 1'
_cell_length_a   5.60680300
_cell_length_b   5.87771100
_cell_length_c   8.33322100
_cell_angle_alpha   90.00000000
_cell_angle_beta   90.00000000
_cell_angle_gamma   90.00000000
_symmetry_Int_Tables_number   1
_chemical_formula_structural   CuNiC3
_chemical_formula_sum   'Cu4 Ni4 C12'
_cell_volume   274.62269527
_cell_formula_units_Z   4
loop_
 _symmetry_equiv_pos_site_id
 _symmetry_equiv_pos_as_xyz
  1  'x, y, z'
loop_
 _atom_site_type_symbol
 _atom_site_label
 _atom_site_symmetry_multiplicity
 _atom_site_fract_x
 _atom_site_fract_y
 _atom_site_fract_z
 _atom_site_occupancy
  Ni  Ni0  1  0.01814700  0.94631400  0.75000000  1
  Ni  Ni1  1  0.48185300  0.44631400  0.75000000  1
  Ni  Ni2  1  0.51814700  0.55368600  0.25000000  1
  Ni  Ni3  1  0.98185300  0.05368600  0.25000000  1
  Cu  Cu4  1  0.00000000  0.50000000  0.00000000  1
  Cu  Cu5  1  0.00000000  0.50000000  0.50000000  1
  Cu  Cu6  1  0.50000000  0.00000000  0.00000000  1
  Cu  Cu7  1  0.50000000  0.00000000  0.50000000  1
  C  C8  1  0.14873200  0.42241800  0.25000000  1
  C  C9  1  0.18251100  0.18583500  0.57825900  1
  C  C10  1  0.18251100  0.18583500  0.92174100  1
  C  C11  1  0.31748900  0.68583500  0.92174100  1
  C  C12  1  0.31748900  0.68583500  0.57825900  1
  C  C13  1  0.35126800  0.92241900  0.25000000  1
  C  C14  1  0.64873200  0.07758200  0.75000000  1
  C  C15  1  0.68251100  0.31416500  0.07825900  1
  C  C16  1  0.68251100  0.31416500  0.42174100  1
  C  C17  1  0.81748900  0.81416500  0.07825900  1
  C  C18  1  0.81748900  0.81416500  0.42174100  1
  C  C19  1  0.85126800  0.57758100  0.75000000  1
