# generated using pymatgen
data_Cu(NiC)3
_symmetry_space_group_name_H-M   'P 1'
_cell_length_a   8.55002200
_cell_length_b   14.68818700
_cell_length_c   19.68650100
_cell_angle_alpha   90.00000000
_cell_angle_beta   90.00000000
_cell_angle_gamma   90.00000000
_symmetry_Int_Tables_number   1
_chemical_formula_structural   Cu(NiC)3
_chemical_formula_sum   'Cu12 Ni36 C36'
_cell_volume   2472.31588044
_cell_formula_units_Z   12
loop_
 _symmetry_equiv_pos_site_id
 _symmetry_equiv_pos_as_xyz
  1  'x, y, z'
loop_
 _atom_site_type_symbol
 _atom_site_label
 _atom_site_symmetry_multiplicity
 _atom_site_fract_x
 _atom_site_fract_y
 _atom_site_fract_z
 _atom_site_occupancy
  C  C0  1  0.75000000  0.00000000  0.59992200  1
  C  C1  1  0.25000000  0.50000000  0.90007800  1
  C  C2  1  0.25000000  0.00000000  0.40007800  1
  C  C3  1  0.75000000  0.50000000  0.09992200  1
  C  C4  1  0.52011300  0.32617900  0.52623100  1
  C  C5  1  0.02011300  0.17382100  0.97376900  1
  C  C6  1  0.47988700  0.82617900  0.97376900  1
  C  C7  1  0.97988700  0.67382100  0.52623100  1
  C  C8  1  0.47988700  0.67382100  0.47376900  1
  C  C9  1  0.97988700  0.82617900  0.02623100  1
  C  C10  1  0.52011300  0.17382100  0.02623100  1
  C  C11  1  0.02011300  0.32617900  0.47376900  1
  C  C12  1  0.75000000  0.00000000  0.83745100  1
  C  C13  1  0.25000000  0.50000000  0.66254900  1
  C  C14  1  0.25000000  0.00000000  0.16254900  1
  C  C15  1  0.75000000  0.50000000  0.33745100  1
  C  C16  1  0.73869300  0.30563300  0.83523300  1
  C  C17  1  0.23869300  0.19436700  0.66476700  1
  C  C18  1  0.26130700  0.80563300  0.66476700  1
  C  C19  1  0.76130700  0.69436700  0.83523300  1
  C  C20  1  0.26130700  0.69436700  0.16476700  1
  C  C21  1  0.76130700  0.80563300  0.33523300  1
  C  C22  1  0.73869300  0.19436700  0.33523300  1
  C  C23  1  0.23869300  0.30563300  0.16476700  1
  Ni  Ni24  1  0.75000000  0.00000000  0.96825000  1
  Ni  Ni25  1  0.25000000  0.50000000  0.53175000  1
  Ni  Ni26  1  0.25000000  0.00000000  0.03175000  1
  Ni  Ni27  1  0.75000000  0.50000000  0.46825000  1
  Ni  Ni28  1  0.76672800  0.36806300  0.96508700  1
  Ni  Ni29  1  0.26672800  0.13193700  0.53491300  1
  Ni  Ni30  1  0.23327200  0.86806300  0.53491300  1
  Ni  Ni31  1  0.73327200  0.63193700  0.96508700  1
  Ni  Ni32  1  0.23327200  0.63193700  0.03491300  1
  Ni  Ni33  1  0.73327200  0.86806300  0.46508700  1
  Ni  Ni34  1  0.76672800  0.13193700  0.46508700  1
  Ni  Ni35  1  0.26672800  0.36806300  0.03491300  1
  Ni  Ni36  1  0.46050100  0.99531100  0.84504200  1
  Ni  Ni37  1  0.96050100  0.50468900  0.65495800  1
  Ni  Ni38  1  0.53949900  0.49531100  0.65495800  1
  Ni  Ni39  1  0.03949900  0.00468900  0.84504200  1
  Ni  Ni40  1  0.53949900  0.00468900  0.15495800  1
  Ni  Ni41  1  0.03949900  0.49531100  0.34504200  1
  Ni  Ni42  1  0.46050100  0.50468900  0.34504200  1
  Ni  Ni43  1  0.96050100  0.99531100  0.15495800  1
  Ni  Ni44  1  0.44282500  0.31250500  0.84131300  1
  Ni  Ni45  1  0.94282500  0.18749500  0.65868700  1
  Ni  Ni46  1  0.55717500  0.81250500  0.65868700  1
  Ni  Ni47  1  0.05717500  0.68749500  0.84131300  1
  Ni  Ni48  1  0.55717500  0.68749500  0.15868700  1
  Ni  Ni49  1  0.05717500  0.81250500  0.34131300  1
  Ni  Ni50  1  0.44282500  0.18749500  0.34131300  1
  Ni  Ni51  1  0.94282500  0.31250500  0.15868700  1
  Ni  Ni52  1  0.03820500  0.29900600  0.83131100  1
  Ni  Ni53  1  0.53820500  0.20099400  0.66868900  1
  Ni  Ni54  1  0.96179500  0.79900600  0.66868900  1
  Ni  Ni55  1  0.46179500  0.70099400  0.83131100  1
  Ni  Ni56  1  0.96179500  0.70099400  0.16868900  1
  Ni  Ni57  1  0.46179500  0.79900600  0.33131100  1
  Ni  Ni58  1  0.03820500  0.20099400  0.33131100  1
  Ni  Ni59  1  0.53820500  0.29900600  0.16868900  1
  Cu  Cu60  1  0.75000000  0.00000000  0.74870200  1
  Cu  Cu61  1  0.25000000  0.50000000  0.75129800  1
  Cu  Cu62  1  0.25000000  0.00000000  0.25129800  1
  Cu  Cu63  1  0.75000000  0.50000000  0.24870200  1
  Cu  Cu64  1  0.74103700  0.35066200  0.75492700  1
  Cu  Cu65  1  0.24103700  0.14933800  0.74507300  1
  Cu  Cu66  1  0.25896300  0.85066200  0.74507300  1
  Cu  Cu67  1  0.75896300  0.64933800  0.75492700  1
  Cu  Cu68  1  0.25896300  0.64933800  0.24507300  1
  Cu  Cu69  1  0.75896300  0.85066200  0.25492700  1
  Cu  Cu70  1  0.74103700  0.14933800  0.25492700  1
  Cu  Cu71  1  0.24103700  0.35066200  0.24507300  1
  C  C72  1  0.50000000  0.00000000  0.50000000  1
  C  C73  1  0.00000000  0.50000000  0.00000000  1
  C  C74  1  0.50000000  0.50000000  0.00000000  1
  C  C75  1  0.00000000  0.00000000  0.50000000  1
  C  C76  1  0.73893500  0.20428300  0.89473200  1
  C  C77  1  0.23893500  0.29571700  0.60526800  1
  C  C78  1  0.26106500  0.70428300  0.60526800  1
  C  C79  1  0.76106500  0.79571700  0.89473200  1
  C  C80  1  0.26106500  0.79571700  0.10526800  1
  C  C81  1  0.76106500  0.70428300  0.39473200  1
  C  C82  1  0.73893500  0.29571700  0.39473200  1
  C  C83  1  0.23893500  0.20428300  0.10526800  1
