# generated using pymatgen
data_CuNiC3
_symmetry_space_group_name_H-M   'P 1'
_cell_length_a   7.02436300
_cell_length_b   7.02436300
_cell_length_c   7.02436300
_cell_angle_alpha   90.00000000
_cell_angle_beta   90.00000000
_cell_angle_gamma   90.00000000
_symmetry_Int_Tables_number   1
_chemical_formula_structural   CuNiC3
_chemical_formula_sum   'Cu4 Ni4 C12'
_cell_volume   346.59384013
_cell_formula_units_Z   4
loop_
 _symmetry_equiv_pos_site_id
 _symmetry_equiv_pos_as_xyz
  1  'x, y, z'
loop_
 _atom_site_type_symbol
 _atom_site_label
 _atom_site_symmetry_multiplicity
 _atom_site_fract_x
 _atom_site_fract_y
 _atom_site_fract_z
 _atom_site_occupancy
  C  C0  1  0.79302000  0.95136000  0.37713900  1
  C  C1  1  0.70698000  0.04864000  0.87713900  1
  C  C2  1  0.20698000  0.45136000  0.12286100  1
  C  C3  1  0.29302000  0.54864000  0.62286100  1
  C  C4  1  0.95136000  0.37713900  0.79302000  1
  C  C5  1  0.04864000  0.87713900  0.70698000  1
  C  C6  1  0.45136000  0.12286100  0.20698000  1
  C  C7  1  0.54864000  0.62286100  0.29302000  1
  C  C8  1  0.37713900  0.79302000  0.95136000  1
  C  C9  1  0.87713900  0.70698000  0.04864000  1
  C  C10  1  0.12286100  0.20698000  0.45136000  1
  C  C11  1  0.62286100  0.29302000  0.54864000  1
  Ni  Ni12  1  0.56209200  0.43790800  0.93790800  1
  Ni  Ni13  1  0.43790800  0.93790800  0.56209200  1
  Ni  Ni14  1  0.93790800  0.56209200  0.43790800  1
  Ni  Ni15  1  0.06209200  0.06209200  0.06209200  1
  Cu  Cu16  1  0.18548800  0.81451200  0.31451200  1
  Cu  Cu17  1  0.31451200  0.18548800  0.81451200  1
  Cu  Cu18  1  0.81451200  0.31451200  0.18548800  1
  Cu  Cu19  1  0.68548800  0.68548800  0.68548800  1
