# generated using pymatgen
data_CuNiC16
_symmetry_space_group_name_H-M   'P 1'
_cell_length_a   7.43155163
_cell_length_b   7.43155163
_cell_length_c   20.57883308
_cell_angle_alpha   76.59937475
_cell_angle_beta   76.59937475
_cell_angle_gamma   71.73505550
_symmetry_Int_Tables_number   1
_chemical_formula_structural   CuNiC16
_chemical_formula_sum   'Cu4 Ni4 C64'
_cell_volume   1034.18778570
_cell_formula_units_Z   4
loop_
 _symmetry_equiv_pos_site_id
 _symmetry_equiv_pos_as_xyz
  1  'x, y, z'
loop_
 _atom_site_type_symbol
 _atom_site_label
 _atom_site_symmetry_multiplicity
 _atom_site_fract_x
 _atom_site_fract_y
 _atom_site_fract_z
 _atom_site_occupancy
  C  C0  1  0.74077100  0.25922900  0.25000000  1
  C  C1  1  0.25922900  0.74077100  0.75000000  1
  C  C2  1  0.61561700  0.85487100  0.10803100  1
  C  C3  1  0.38438300  0.14512900  0.89196900  1
  C  C4  1  0.14512900  0.38438300  0.39196900  1
  C  C5  1  0.85487100  0.61561700  0.60803100  1
  C  C6  1  0.84275000  0.85785400  0.59629100  1
  C  C7  1  0.15725000  0.14214600  0.40370900  1
  C  C8  1  0.14214600  0.15725000  0.90370900  1
  C  C9  1  0.85785400  0.84275000  0.09629100  1
  C  C10  1  0.34457600  0.25362100  0.05744700  1
  C  C11  1  0.65542400  0.74637900  0.94255300  1
  C  C12  1  0.74637900  0.65542400  0.44255300  1
  C  C13  1  0.25362100  0.34457600  0.55744700  1
  C  C14  1  0.73864800  0.98560800  0.42951600  1
  C  C15  1  0.26135200  0.01439200  0.57048400  1
  C  C16  1  0.01439200  0.26135200  0.07048400  1
  C  C17  1  0.98560800  0.73864800  0.92951600  1
  C  C18  1  0.50581700  0.76764500  0.02174300  1
  C  C19  1  0.49418300  0.23235500  0.97825700  1
  C  C20  1  0.23235500  0.49418300  0.47825700  1
  C  C21  1  0.76764500  0.50581700  0.52174300  1
  C  C22  1  0.77617500  0.06180300  0.49775800  1
  C  C23  1  0.22382500  0.93819700  0.50224200  1
  C  C24  1  0.93819700  0.22382500  0.00224200  1
  C  C25  1  0.06180300  0.77617500  0.99775800  1
  C  C26  1  0.23618800  0.76381200  0.25000000  1
  C  C27  1  0.76381200  0.23618800  0.75000000  1
  C  C28  1  0.24395700  0.63267700  0.11566900  1
  C  C29  1  0.75604300  0.36732300  0.88433100  1
  C  C30  1  0.36732300  0.75604300  0.38433100  1
  C  C31  1  0.63267700  0.24395700  0.61566900  1
  Ni  Ni32  1  0.77497600  0.79974500  0.01416800  1
  Ni  Ni33  1  0.22502400  0.20025500  0.98583200  1
  Ni  Ni34  1  0.20025500  0.22502400  0.48583200  1
  Ni  Ni35  1  0.79974500  0.77497600  0.51416800  1
  Cu  Cu36  1  0.29172200  0.18331000  0.21127900  1
  Cu  Cu37  1  0.70827800  0.81669000  0.78872100  1
  Cu  Cu38  1  0.81669000  0.70827800  0.28872100  1
  Cu  Cu39  1  0.18331000  0.29172200  0.71127900  1
  C  C40  1  0.74410700  0.84443300  0.07612900  1
  C  C41  1  0.25589300  0.15556700  0.92387100  1
  C  C42  1  0.15556700  0.25589300  0.42387100  1
  C  C43  1  0.84443300  0.74410700  0.57612900  1
  C  C44  1  0.78504300  0.94912900  0.47519100  1
  C  C45  1  0.21495700  0.05087100  0.52480900  1
  C  C46  1  0.05087100  0.21495700  0.02480900  1
  C  C47  1  0.94912900  0.78504300  0.97519100  1
  C  C48  1  0.36865600  0.21947300  0.01017300  1
  C  C49  1  0.63134400  0.78052700  0.98982700  1
  C  C50  1  0.78052700  0.63134500  0.48982700  1
  C  C51  1  0.21947300  0.36865600  0.51017300  1
  C  C52  1  0.68097100  0.72488300  0.35583300  1
  C  C53  1  0.31902900  0.27511700  0.64416700  1
  C  C54  1  0.27511700  0.31902900  0.14416700  1
  C  C55  1  0.72488300  0.68097100  0.85583300  1
  C  C56  1  0.81136700  0.90413800  0.24854100  1
  C  C57  1  0.18863300  0.09586200  0.75145900  1
  C  C58  1  0.09586200  0.18863300  0.25145900  1
  C  C59  1  0.90413800  0.81136700  0.74854100  1
  C  C60  1  0.40742100  0.23629800  0.24956500  1
  C  C61  1  0.59257900  0.76370200  0.75043500  1
  C  C62  1  0.76370200  0.59257900  0.25043500  1
  C  C63  1  0.23629800  0.40742100  0.74956500  1
  C  C64  1  0.69561800  0.20796900  0.34337700  1
  C  C65  1  0.30438200  0.79203100  0.65662300  1
  C  C66  1  0.79203100  0.30438200  0.15662300  1
  C  C67  1  0.20796900  0.69561800  0.84337700  1
  C  C68  1  0.38795800  0.98490000  0.19444300  1
  C  C69  1  0.61204200  0.01510000  0.80555700  1
  C  C70  1  0.01510000  0.61204200  0.30555700  1
  C  C71  1  0.98490000  0.38795800  0.69444300  1
