# generated using pymatgen
data_CuNi6C
_symmetry_space_group_name_H-M   'P 1'
_cell_length_a   5.00692800
_cell_length_b   6.39688900
_cell_length_c   10.87930200
_cell_angle_alpha   90.00000000
_cell_angle_beta   90.00000000
_cell_angle_gamma   90.00000000
_symmetry_Int_Tables_number   1
_chemical_formula_structural   CuNi6C
_chemical_formula_sum   'Cu2 Ni12 C2'
_cell_volume   348.45058152
_cell_formula_units_Z   2
loop_
 _symmetry_equiv_pos_site_id
 _symmetry_equiv_pos_as_xyz
  1  'x, y, z'
loop_
 _atom_site_type_symbol
 _atom_site_label
 _atom_site_symmetry_multiplicity
 _atom_site_fract_x
 _atom_site_fract_y
 _atom_site_fract_z
 _atom_site_occupancy
  Ni  Ni0  1  0.00000000  0.25390100  0.08417600  1
  Ni  Ni1  1  0.00000000  0.74609900  0.08417600  1
  Ni  Ni2  1  0.00000000  0.50000000  0.83323900  1
  Ni  Ni3  1  0.50000000  0.25353400  0.91883800  1
  Ni  Ni4  1  0.50000000  0.74646600  0.91883800  1
  Ni  Ni5  1  0.50000000  0.50000000  0.66521300  1
  Ni  Ni6  1  0.00000000  0.75390100  0.58417600  1
  Ni  Ni7  1  0.00000000  0.24609900  0.58417600  1
  Ni  Ni8  1  0.00000000  0.00000000  0.33323900  1
  Ni  Ni9  1  0.50000000  0.75353400  0.41883800  1
  Ni  Ni10  1  0.50000000  0.24646600  0.41883800  1
  Ni  Ni11  1  0.50000000  0.00000000  0.16521300  1
  C  C12  1  0.50000000  0.50000000  0.16895100  1
  C  C13  1  0.50000000  0.00000000  0.66895100  1
  Cu  Cu14  1  0.00000000  0.50000000  0.32656900  1
  Cu  Cu15  1  0.00000000  0.00000000  0.82656900  1
