# generated using pymatgen
data_CuNiC9
_symmetry_space_group_name_H-M   'P 1'
_cell_length_a   5.37591400
_cell_length_b   8.29472500
_cell_length_c   15.03897400
_cell_angle_alpha   90.00000000
_cell_angle_beta   90.00000000
_cell_angle_gamma   90.00000000
_symmetry_Int_Tables_number   1
_chemical_formula_structural   CuNiC9
_chemical_formula_sum   'Cu4 Ni4 C36'
_cell_volume   670.61384182
_cell_formula_units_Z   4
loop_
 _symmetry_equiv_pos_site_id
 _symmetry_equiv_pos_as_xyz
  1  'x, y, z'
loop_
 _atom_site_type_symbol
 _atom_site_label
 _atom_site_symmetry_multiplicity
 _atom_site_fract_x
 _atom_site_fract_y
 _atom_site_fract_z
 _atom_site_occupancy
  C  C0  1  0.38818300  0.94197200  0.40206800  1
  C  C1  1  0.61181700  0.44197200  0.59793200  1
  C  C2  1  0.88818300  0.44197200  0.09793200  1
  C  C3  1  0.11181700  0.94197200  0.90206800  1
  Ni  Ni4  1  0.12574800  0.48813600  0.38680000  1
  Ni  Ni5  1  0.87425200  0.98813600  0.61320000  1
  Ni  Ni6  1  0.62574800  0.98813600  0.11320000  1
  Ni  Ni7  1  0.37425200  0.48813600  0.88680000  1
  Cu  Cu8  1  0.33791900  0.47233700  0.33419300  1
  Cu  Cu9  1  0.66208100  0.97233700  0.66580700  1
  Cu  Cu10  1  0.83791900  0.97233700  0.16580700  1
  Cu  Cu11  1  0.16208100  0.47233700  0.83419300  1
  C  C12  1  0.12287500  0.97810700  0.33676800  1
  C  C13  1  0.87712500  0.47810700  0.66323200  1
  C  C14  1  0.62287500  0.47810700  0.16323200  1
  C  C15  1  0.37712500  0.97810700  0.83676800  1
  C  C16  1  0.52924900  0.83336200  0.31515800  1
  C  C17  1  0.47075100  0.33336200  0.68484200  1
  C  C18  1  0.02924900  0.33336200  0.18484200  1
  C  C19  1  0.97075100  0.83336200  0.81515800  1
  C  C20  1  0.52601100  0.12269800  0.36688700  1
  C  C21  1  0.47398900  0.62269800  0.63311300  1
  C  C22  1  0.02601100  0.62269800  0.13311300  1
  C  C23  1  0.97398900  0.12269800  0.86688700  1
  C  C24  1  0.24856100  0.75626400  0.44131100  1
  C  C25  1  0.75143900  0.25626400  0.55868900  1
  C  C26  1  0.74856100  0.25626400  0.05868900  1
  C  C27  1  0.25143900  0.75626400  0.94131100  1
  C  C28  1  0.24733700  0.04059000  0.49412600  1
  C  C29  1  0.75266300  0.54059000  0.50587400  1
  C  C30  1  0.74733700  0.54059000  0.00587400  1
  C  C31  1  0.25266300  0.04059000  0.99412600  1
  C  C32  1  0.65413200  0.90003300  0.47117900  1
  C  C33  1  0.34586800  0.40003300  0.52882100  1
  C  C34  1  0.15413200  0.40003300  0.02882100  1
  C  C35  1  0.84586800  0.90003300  0.97117900  1
  C  C36  1  0.91568800  0.58103100  0.32746500  1
  C  C37  1  0.08431200  0.08103100  0.67253500  1
  C  C38  1  0.41568800  0.08103100  0.17253500  1
  C  C39  1  0.58431200  0.58103100  0.82746500  1
  C  C40  1  0.98072300  0.31544000  0.38047200  1
  C  C41  1  0.01927700  0.81544000  0.61952800  1
  C  C42  1  0.48072300  0.81544000  0.11952800  1
  C  C43  1  0.51927700  0.31544000  0.88047200  1
