# generated using pymatgen
data_Cu15Ni4C
_symmetry_space_group_name_H-M   'P 1'
_cell_length_a   3.54373800
_cell_length_b   3.54373800
_cell_length_c   17.67313000
_cell_angle_alpha   90.00000000
_cell_angle_beta   90.00000000
_cell_angle_gamma   90.00000000
_symmetry_Int_Tables_number   1
_chemical_formula_structural   Cu15Ni4C
_chemical_formula_sum   'Cu15 Ni4 C1'
_cell_volume   221.94056294
_cell_formula_units_Z   1
loop_
 _symmetry_equiv_pos_site_id
 _symmetry_equiv_pos_as_xyz
  1  'x, y, z'
loop_
 _atom_site_type_symbol
 _atom_site_label
 _atom_site_symmetry_multiplicity
 _atom_site_fract_x
 _atom_site_fract_y
 _atom_site_fract_z
 _atom_site_occupancy
  C  C0  1  0.00000000  0.00000000  0.00000000  1
  Ni  Ni1  1  0.00000000  0.00000000  0.20009900  1
  Ni  Ni2  1  0.00000000  0.00000000  0.40005300  1
  Ni  Ni3  1  0.00000000  0.00000000  0.59994700  1
  Ni  Ni4  1  0.00000000  0.00000000  0.79990100  1
  Cu  Cu5  1  0.50000000  0.50000000  0.00000000  1
  Cu  Cu6  1  0.50000000  0.50000000  0.20012300  1
  Cu  Cu7  1  0.50000000  0.50000000  0.40008600  1
  Cu  Cu8  1  0.50000000  0.50000000  0.59991400  1
  Cu  Cu9  1  0.50000000  0.50000000  0.79987700  1
  Cu  Cu10  1  0.50000000  0.00000000  0.10047700  1
  Cu  Cu11  1  0.50000000  0.00000000  0.30002400  1
  Cu  Cu12  1  0.50000000  0.00000000  0.50000000  1
  Cu  Cu13  1  0.50000000  0.00000000  0.69997600  1
  Cu  Cu14  1  0.50000000  0.00000000  0.89952300  1
  Cu  Cu15  1  0.00000000  0.50000000  0.10047700  1
  Cu  Cu16  1  0.00000000  0.50000000  0.30002400  1
  Cu  Cu17  1  0.00000000  0.50000000  0.50000000  1
  Cu  Cu18  1  0.00000000  0.50000000  0.69997600  1
  Cu  Cu19  1  0.00000000  0.50000000  0.89952300  1
