# generated using pymatgen
data_CuNiC14
_symmetry_space_group_name_H-M   'P 1'
_cell_length_a   6.27946856
_cell_length_b   8.91421689
_cell_length_c   19.26075700
_cell_angle_alpha   90.00000000
_cell_angle_beta   90.00000000
_cell_angle_gamma   93.85356955
_symmetry_Int_Tables_number   1
_chemical_formula_structural   CuNiC14
_chemical_formula_sum   'Cu4 Ni4 C56'
_cell_volume   1075.71300033
_cell_formula_units_Z   4
loop_
 _symmetry_equiv_pos_site_id
 _symmetry_equiv_pos_as_xyz
  1  'x, y, z'
loop_
 _atom_site_type_symbol
 _atom_site_label
 _atom_site_symmetry_multiplicity
 _atom_site_fract_x
 _atom_site_fract_y
 _atom_site_fract_z
 _atom_site_occupancy
  Ni  Ni0  1  0.84226300  0.86396600  0.71326400  1
  Ni  Ni1  1  0.15773700  0.13603400  0.28673600  1
  Ni  Ni2  1  0.15773700  0.63603400  0.21326400  1
  Ni  Ni3  1  0.84226300  0.36396600  0.78673600  1
  Cu  Cu4  1  0.37052500  0.72683700  0.86979200  1
  Cu  Cu5  1  0.62947500  0.27316300  0.13020800  1
  Cu  Cu6  1  0.62947500  0.77316300  0.36979200  1
  Cu  Cu7  1  0.37052500  0.22683700  0.63020800  1
  C  C8  1  0.37001700  0.59134600  0.72248500  1
  C  C9  1  0.62998300  0.40865400  0.27751500  1
  C  C10  1  0.62998300  0.90865400  0.22248500  1
  C  C11  1  0.37001700  0.09134600  0.77751500  1
  C  C12  1  0.80665000  0.74071400  0.93318400  1
  C  C13  1  0.19335000  0.25928600  0.06681600  1
  C  C14  1  0.19335000  0.75928600  0.43318400  1
  C  C15  1  0.80665000  0.24071400  0.56681600  1
  C  C16  1  0.19386500  0.98571300  0.62857000  1
  C  C17  1  0.80613500  0.01428700  0.37143000  1
  C  C18  1  0.80613500  0.51428700  0.12857000  1
  C  C19  1  0.19386500  0.48571300  0.87143000  1
  C  C20  1  0.64880000  0.60755500  0.92423900  1
  C  C21  1  0.35120000  0.39244500  0.07576100  1
  C  C22  1  0.35120000  0.89244500  0.42423900  1
  C  C23  1  0.64880000  0.10755500  0.57576100  1
  C  C24  1  0.82590200  0.87768300  0.26614700  1
  C  C25  1  0.17409800  0.12231700  0.73385300  1
  C  C26  1  0.17409800  0.62231700  0.76614700  1
  C  C27  1  0.82590200  0.37768300  0.23385300  1
  C  C28  1  0.42958200  0.95721600  0.95814600  1
  C  C29  1  0.57041800  0.04278400  0.04185400  1
  C  C30  1  0.57041800  0.54278400  0.45814600  1
  C  C31  1  0.42958200  0.45721600  0.54185400  1
  C  C32  1  0.77395600  0.70652800  0.57170200  1
  C  C33  1  0.22604400  0.29347200  0.42829800  1
  C  C34  1  0.22604400  0.79347200  0.07170200  1
  C  C35  1  0.77395600  0.20652800  0.92829800  1
  C  C36  1  0.38921900  0.69351200  0.66405900  1
  C  C37  1  0.61078100  0.30648800  0.33594100  1
  C  C38  1  0.61078100  0.80648800  0.16405900  1
  C  C39  1  0.38921900  0.19351200  0.83594100  1
  C  C40  1  0.70822000  0.86291100  0.88961700  1
  C  C41  1  0.29178000  0.13708900  0.11038300  1
  C  C42  1  0.29178000  0.63708900  0.38961700  1
  C  C43  1  0.70822000  0.36291100  0.61038300  1
  C  C44  1  0.35105300  0.93043800  0.79826400  1
  C  C45  1  0.64894700  0.06956200  0.20173600  1
  C  C46  1  0.64894700  0.56956200  0.29826400  1
  C  C47  1  0.35105300  0.43043800  0.70173600  1
  C  C48  1  0.55195400  0.61683600  0.77357800  1
  C  C49  1  0.44804600  0.38316400  0.22642200  1
  C  C50  1  0.44804600  0.88316400  0.27357800  1
  C  C51  1  0.55195400  0.11683600  0.72642200  1
  C  C52  1  0.84419100  0.78301000  0.00418300  1
  C  C53  1  0.15580900  0.21699000  0.99581700  1
  C  C54  1  0.15580900  0.71699000  0.50418300  1
  C  C55  1  0.84419100  0.28301000  0.49581700  1
  C  C56  1  0.71286800  0.80039200  0.53066100  1
  C  C57  1  0.28713200  0.19960800  0.46933900  1
  C  C58  1  0.28713200  0.69960800  0.03066100  1
  C  C59  1  0.71286800  0.30039200  0.96933900  1
  C  C60  1  0.01193300  0.71102300  0.89566900  1
  C  C61  1  0.98806700  0.28897700  0.10433100  1
  C  C62  1  0.98806700  0.78897700  0.39566900  1
  C  C63  1  0.01193300  0.21102300  0.60433100  1
