# generated using pymatgen
data_CuNi4C5
_symmetry_space_group_name_H-M   'P 1'
_cell_length_a   6.51842680
_cell_length_b   6.51842680
_cell_length_c   6.51842680
_cell_angle_alpha   124.01789886
_cell_angle_beta   102.72513087
_cell_angle_gamma   102.72513087
_symmetry_Int_Tables_number   1
_chemical_formula_structural   CuNi4C5
_chemical_formula_sum   'Cu2 Ni8 C10'
_cell_volume   202.71320478
_cell_formula_units_Z   2
loop_
 _symmetry_equiv_pos_site_id
 _symmetry_equiv_pos_as_xyz
  1  'x, y, z'
loop_
 _atom_site_type_symbol
 _atom_site_label
 _atom_site_symmetry_multiplicity
 _atom_site_fract_x
 _atom_site_fract_y
 _atom_site_fract_z
 _atom_site_occupancy
  C  C0  1  0.50000000  0.00000000  0.50000000  1
  C  C1  1  0.50000000  0.50000000  0.00000000  1
  Ni  Ni2  1  0.25842500  0.80995700  0.30995700  1
  Ni  Ni3  1  0.74157500  0.19004300  0.69004300  1
  Ni  Ni4  1  0.74157500  0.05153200  0.55153200  1
  Ni  Ni5  1  0.50000000  0.55153200  0.80995700  1
  Ni  Ni6  1  0.50000000  0.69004300  0.94846800  1
  Ni  Ni7  1  0.25842500  0.94846800  0.44846800  1
  Ni  Ni8  1  0.50000000  0.44846800  0.19004300  1
  Ni  Ni9  1  0.50000000  0.30995700  0.05153200  1
  Cu  Cu10  1  0.00000000  0.00000000  0.00000000  1
  Cu  Cu11  1  0.00000000  0.50000000  0.50000000  1
  C  C12  1  0.74197400  0.91067900  0.83129500  1
  C  C13  1  0.25802600  0.08932100  0.16870500  1
  C  C14  1  0.07938400  0.16870500  0.91067900  1
  C  C15  1  0.92061600  0.58932100  0.33129500  1
  C  C16  1  0.92061600  0.83129500  0.08932100  1
  C  C17  1  0.07938400  0.41067900  0.66870500  1
  C  C18  1  0.74197400  0.33129500  0.41067900  1
  C  C19  1  0.25802600  0.66870500  0.58932100  1
