# generated using pymatgen
data_Cu3(NiC)2
_symmetry_space_group_name_H-M   'P 1'
_cell_length_a   6.80340000
_cell_length_b   13.33305700
_cell_length_c   14.59039203
_cell_angle_alpha   89.69551443
_cell_angle_beta   90.00000000
_cell_angle_gamma   90.00000000
_symmetry_Int_Tables_number   1
_chemical_formula_structural   Cu3(NiC)2
_chemical_formula_sum   'Cu24 Ni16 C16'
_cell_volume   1323.47752279
_cell_formula_units_Z   8
loop_
 _symmetry_equiv_pos_site_id
 _symmetry_equiv_pos_as_xyz
  1  'x, y, z'
loop_
 _atom_site_type_symbol
 _atom_site_label
 _atom_site_symmetry_multiplicity
 _atom_site_fract_x
 _atom_site_fract_y
 _atom_site_fract_z
 _atom_site_occupancy
  C  C0  1  0.95251800  0.14056000  0.98906400  1
  C  C1  1  0.45251800  0.85944000  0.51093600  1
  C  C2  1  0.04748200  0.85944000  0.01093600  1
  C  C3  1  0.54748200  0.14056000  0.48906400  1
  C  C4  1  0.58064200  0.65289700  0.02193200  1
  C  C5  1  0.08064200  0.34710300  0.47806800  1
  C  C6  1  0.41935800  0.34710300  0.97806800  1
  C  C7  1  0.91935800  0.65289700  0.52193200  1
  C  C8  1  0.54452700  0.91494700  0.10987800  1
  C  C9  1  0.04452700  0.08505300  0.39012200  1
  C  C10  1  0.45547300  0.08505300  0.89012200  1
  C  C11  1  0.95547300  0.91494700  0.60987800  1
  C  C12  1  0.90882700  0.43421500  0.91131000  1
  C  C13  1  0.40882700  0.56578500  0.58869000  1
  C  C14  1  0.09117300  0.56578500  0.08869000  1
  C  C15  1  0.59117300  0.43421500  0.41131000  1
  Ni  Ni16  1  0.28224100  0.68228100  0.83979700  1
  Ni  Ni17  1  0.78224100  0.31771900  0.66020300  1
  Ni  Ni18  1  0.71775900  0.31771900  0.16020300  1
  Ni  Ni19  1  0.21775900  0.68228100  0.33979700  1
  Ni  Ni20  1  0.78834600  0.09044300  0.72840600  1
  Ni  Ni21  1  0.28834600  0.90955700  0.77159400  1
  Ni  Ni22  1  0.21165400  0.90955700  0.27159400  1
  Ni  Ni23  1  0.71165400  0.09044300  0.22840600  1
  Ni  Ni24  1  0.76048800  0.81322200  0.83080700  1
  Ni  Ni25  1  0.26048800  0.18677800  0.66919300  1
  Ni  Ni26  1  0.23951200  0.18677800  0.16919300  1
  Ni  Ni27  1  0.73951200  0.81322200  0.33080700  1
  Ni  Ni28  1  0.76177700  0.58663900  0.75909800  1
  Ni  Ni29  1  0.26177700  0.41336100  0.74090200  1
  Ni  Ni30  1  0.23822300  0.41336100  0.24090200  1
  Ni  Ni31  1  0.73822300  0.58663900  0.25909800  1
  Cu  Cu32  1  0.96485400  0.96951100  0.83146100  1
  Cu  Cu33  1  0.46485400  0.03048900  0.66853900  1
  Cu  Cu34  1  0.03514600  0.03048900  0.16853900  1
  Cu  Cu35  1  0.53514600  0.96951100  0.33146100  1
  Cu  Cu36  1  0.44862200  0.83991500  0.91531100  1
  Cu  Cu37  1  0.94862200  0.16008500  0.58468900  1
  Cu  Cu38  1  0.55137800  0.16008500  0.08468900  1
  Cu  Cu39  1  0.05137800  0.83991500  0.41531100  1
  Cu  Cu40  1  0.94339200  0.65971700  0.89763800  1
  Cu  Cu41  1  0.44339200  0.34028300  0.60236200  1
  Cu  Cu42  1  0.05660800  0.34028300  0.10236200  1
  Cu  Cu43  1  0.55660800  0.65971700  0.39763800  1
  Cu  Cu44  1  0.83666000  0.74786700  0.17330000  1
  Cu  Cu45  1  0.33666000  0.25213300  0.32670000  1
  Cu  Cu46  1  0.16334000  0.25213300  0.82670000  1
  Cu  Cu47  1  0.66334000  0.74786700  0.67330000  1
  Cu  Cu48  1  0.46973300  0.51977200  0.84504700  1
  Cu  Cu49  1  0.96973300  0.48022800  0.65495300  1
  Cu  Cu50  1  0.53026700  0.48022800  0.15495300  1
  Cu  Cu51  1  0.03026700  0.51977200  0.34504700  1
  Cu  Cu52  1  0.20562000  0.74967800  0.17916800  1
  Cu  Cu53  1  0.70562000  0.25032200  0.32083200  1
  Cu  Cu54  1  0.79438000  0.25032200  0.82083200  1
  Cu  Cu55  1  0.29438000  0.74967800  0.67916800  1
