# generated using pymatgen
data_CuNiC18
_symmetry_space_group_name_H-M   'P 1'
_cell_length_a   7.14767542
_cell_length_b   7.14767542
_cell_length_c   15.90948885
_cell_angle_alpha   78.02377262
_cell_angle_beta   78.02377262
_cell_angle_gamma   82.04087724
_symmetry_Int_Tables_number   1
_chemical_formula_structural   CuNiC18
_chemical_formula_sum   'Cu3 Ni3 C54'
_cell_volume   773.93035914
_cell_formula_units_Z   3
loop_
 _symmetry_equiv_pos_site_id
 _symmetry_equiv_pos_as_xyz
  1  'x, y, z'
loop_
 _atom_site_type_symbol
 _atom_site_label
 _atom_site_symmetry_multiplicity
 _atom_site_fract_x
 _atom_site_fract_y
 _atom_site_fract_z
 _atom_site_occupancy
  Ni  Ni0  1  0.88047800  0.81816800  0.16003600  1
  Ni  Ni1  1  0.46826600  0.53173400  0.00000000  1
  Ni  Ni2  1  0.18183200  0.11952200  0.83996400  1
  Cu  Cu3  1  0.80631500  0.83746500  0.66768300  1
  Cu  Cu4  1  0.51452900  0.48547100  0.50000000  1
  Cu  Cu5  1  0.16253500  0.19368500  0.33231700  1
  C  C6  1  0.18515900  0.45972900  0.67013100  1
  C  C7  1  0.14855400  0.85144600  0.50000000  1
  C  C8  1  0.54027100  0.81484100  0.32986900  1
  C  C9  1  0.51579900  0.16233300  0.16641900  1
  C  C10  1  0.82451400  0.17548600  0.00000000  1
  C  C11  1  0.83766700  0.48420100  0.83358100  1
  C  C12  1  0.33937300  0.79994700  0.65739100  1
  C  C13  1  0.86122000  0.30488400  0.67357700  1
  C  C14  1  0.47033000  0.01687300  0.49069300  1
  C  C15  1  0.98312700  0.52967000  0.50930700  1
  C  C16  1  0.69511600  0.13878000  0.32642300  1
  C  C17  1  0.20005300  0.66062700  0.34260900  1
  C  C18  1  0.79700800  0.36623500  0.16067500  1
  C  C19  1  0.32161200  0.87068800  0.17466600  1
  C  C20  1  0.01913800  0.46635000  0.99381700  1
  C  C21  1  0.53365000  0.98086200  0.00618300  1
  C  C22  1  0.12931200  0.67838800  0.82533400  1
  C  C23  1  0.63376500  0.20299200  0.83932500  1
  C  C24  1  0.68336800  0.17268400  0.73388500  1
  C  C25  1  0.07083500  0.20628700  0.68708500  1
  C  C26  1  0.13092500  0.82448500  0.62847400  1
  C  C27  1  0.84384000  0.51305300  0.70583600  1
  C  C28  1  0.43688900  0.58605800  0.64338400  1
  C  C29  1  0.48431200  0.97041800  0.59922100  1
  C  C30  1  0.83766600  0.35906100  0.56654800  1
  C  C31  1  0.88530400  0.74078700  0.52606000  1
  C  C32  1  0.49457100  0.80886600  0.46054100  1
  C  C33  1  0.19113400  0.50542900  0.53945900  1
  C  C34  1  0.25921300  0.11469600  0.47394000  1
  C  C35  1  0.64093900  0.16233400  0.43345200  1
  C  C36  1  0.02958200  0.51568800  0.40077900  1
  C  C37  1  0.41394200  0.56311100  0.35661600  1
  C  C38  1  0.48694700  0.15616000  0.29416400  1
  C  C39  1  0.17551500  0.86907500  0.37152600  1
  C  C40  1  0.79371300  0.92916500  0.31291500  1
  C  C41  1  0.82731600  0.31663200  0.26611500  1
  C  C42  1  0.18591400  0.70238200  0.23478600  1
  C  C43  1  0.24008600  0.09259800  0.18846000  1
  C  C44  1  0.81091900  0.15402000  0.13000400  1
  C  C45  1  0.53536800  0.86270100  0.19973600  1
  C  C46  1  0.57619200  0.44095300  0.14939600  1
  C  C47  1  0.96693600  0.49821800  0.09862000  1
  C  C48  1  0.36271700  0.85043000  0.06819600  1
  C  C49  1  0.75602700  0.90251700  0.01469700  1
  C  C50  1  0.80815800  0.47412900  0.96358800  1
  C  C51  1  0.52587100  0.19184200  0.03641200  1
  C  C52  1  0.09748300  0.24397300  0.98530300  1
  C  C53  1  0.14957000  0.63728300  0.93180400  1
  C  C54  1  0.50178200  0.03306400  0.90138000  1
  C  C55  1  0.55904700  0.42380800  0.85060400  1
  C  C56  1  0.13729900  0.46463200  0.80026400  1
  C  C57  1  0.84598000  0.18908100  0.86999600  1
  C  C58  1  0.90740200  0.75991400  0.81154000  1
  C  C59  1  0.29761800  0.81408600  0.76521400  1
