# generated using pymatgen
data_CuNi2C7
_symmetry_space_group_name_H-M   'P 1'
_cell_length_a   7.92240600
_cell_length_b   7.90387000
_cell_length_c   8.69172228
_cell_angle_alpha   87.85235290
_cell_angle_beta   90.00000000
_cell_angle_gamma   90.00000000
_symmetry_Int_Tables_number   1
_chemical_formula_structural   CuNi2C7
_chemical_formula_sum   'Cu4 Ni8 C28'
_cell_volume   543.87307396
_cell_formula_units_Z   4
loop_
 _symmetry_equiv_pos_site_id
 _symmetry_equiv_pos_as_xyz
  1  'x, y, z'
loop_
 _atom_site_type_symbol
 _atom_site_label
 _atom_site_symmetry_multiplicity
 _atom_site_fract_x
 _atom_site_fract_y
 _atom_site_fract_z
 _atom_site_occupancy
  Ni  Ni0  1  0.75000000  0.28486800  0.72853800  1
  Ni  Ni1  1  0.25000000  0.71513200  0.27146200  1
  Ni  Ni2  1  0.75000000  0.79658200  0.74073300  1
  Ni  Ni3  1  0.25000000  0.20341800  0.25926700  1
  Ni  Ni4  1  0.75000000  0.28325500  0.29421900  1
  Ni  Ni5  1  0.25000000  0.71674500  0.70578100  1
  Ni  Ni6  1  0.75000000  0.76904300  0.30686500  1
  Ni  Ni7  1  0.25000000  0.23095700  0.69313500  1
  Cu  Cu8  1  0.00000000  0.50000000  0.00000000  1
  Cu  Cu9  1  0.50000000  0.50000000  0.00000000  1
  Cu  Cu10  1  0.00000000  0.00000000  0.00000000  1
  Cu  Cu11  1  0.50000000  0.00000000  0.00000000  1
  C  C12  1  0.00000000  0.50000000  0.50000000  1
  C  C13  1  0.50000000  0.50000000  0.50000000  1
  C  C14  1  0.00000000  0.00000000  0.50000000  1
  C  C15  1  0.50000000  0.00000000  0.50000000  1
  C  C16  1  0.75000000  0.02866900  0.46847100  1
  C  C17  1  0.25000000  0.97133100  0.53152900  1
  C  C18  1  0.75000000  0.52920600  0.91196300  1
  C  C19  1  0.25000000  0.47079400  0.08803700  1
  C  C20  1  0.96813800  0.75052100  0.54689300  1
  C  C21  1  0.03186200  0.24947900  0.45310700  1
  C  C22  1  0.46813800  0.24947900  0.45310700  1
  C  C23  1  0.53186200  0.75052100  0.54689300  1
  C  C24  1  0.75000000  0.47208900  0.51077400  1
  C  C25  1  0.25000000  0.52791100  0.48922600  1
  C  C26  1  0.44321200  0.94211900  0.23223400  1
  C  C27  1  0.55678800  0.05788100  0.76776600  1
  C  C28  1  0.94321200  0.05788100  0.76776600  1
  C  C29  1  0.05678800  0.94211900  0.23223400  1
  C  C30  1  0.94681300  0.56622900  0.22717300  1
  C  C31  1  0.05318700  0.43377100  0.77282700  1
  C  C32  1  0.44681300  0.43377100  0.77282700  1
  C  C33  1  0.55318700  0.56622900  0.22717300  1
  C  C34  1  0.75000000  0.91429700  0.03634200  1
  C  C35  1  0.25000000  0.08570300  0.96365800  1
  C  C36  1  0.94648300  0.24810400  0.07707000  1
  C  C37  1  0.05351700  0.75189600  0.92293000  1
  C  C38  1  0.44648300  0.75189600  0.92293000  1
  C  C39  1  0.55351700  0.24810400  0.07707000  1
