# generated using pymatgen
data_Cu12(NiC)5
_symmetry_space_group_name_H-M   'P 1'
_cell_length_a   9.14027100
_cell_length_b   9.15512258
_cell_length_c   9.20717103
_cell_angle_alpha   107.14281883
_cell_angle_beta   108.07471746
_cell_angle_gamma   107.41427101
_symmetry_Int_Tables_number   1
_chemical_formula_structural   Cu12(NiC)5
_chemical_formula_sum   'Cu12 Ni5 C5'
_cell_volume   631.84904846
_cell_formula_units_Z   1
loop_
 _symmetry_equiv_pos_site_id
 _symmetry_equiv_pos_as_xyz
  1  'x, y, z'
loop_
 _atom_site_type_symbol
 _atom_site_label
 _atom_site_symmetry_multiplicity
 _atom_site_fract_x
 _atom_site_fract_y
 _atom_site_fract_z
 _atom_site_occupancy
  C  C0  1  0.99747700  0.99658700  0.99603100  1
  Ni  Ni1  1  0.48363900  0.33417700  0.94151500  1
  Ni  Ni2  1  0.93803000  0.48755700  0.34001100  1
  Ni  Ni3  1  0.32942500  0.93420200  0.48088400  1
  Ni  Ni4  1  0.01733800  0.18645100  0.55586000  1
  Ni  Ni5  1  0.56139600  0.02660500  0.18811500  1
  C  C6  1  0.63047300  0.70820700  0.39663000  1
  C  C7  1  0.39997900  0.63538400  0.71395200  1
  C  C8  1  0.70941300  0.39511400  0.63033800  1
  C  C9  1  0.19026100  0.56421500  0.02018000  1
  Cu  Cu10  1  0.78631000  0.93967400  0.29320000  1
  Cu  Cu11  1  0.30810800  0.81161500  0.93495300  1
  Cu  Cu12  1  0.92436400  0.27187000  0.76891200  1
  Cu  Cu13  1  0.06658800  0.69796300  0.24457700  1
  Cu  Cu14  1  0.23309000  0.08284800  0.68599700  1
  Cu  Cu15  1  0.69615100  0.23435400  0.08271800  1
  Cu  Cu16  1  0.37717300  0.41622300  0.14669000  1
  Cu  Cu17  1  0.13849100  0.36732800  0.43336100  1
  Cu  Cu18  1  0.42712000  0.13370900  0.36231700  1
  Cu  Cu19  1  0.88362600  0.63864600  0.56386500  1
  Cu  Cu20  1  0.55735600  0.87929200  0.63494000  1
  Cu  Cu21  1  0.63883200  0.55262000  0.87959400  1
