# generated using pymatgen
data_CuNiC8
_symmetry_space_group_name_H-M   'P 1'
_cell_length_a   5.80112100
_cell_length_b   8.37438300
_cell_length_c   5.80110600
_cell_angle_alpha   90.00001672
_cell_angle_beta   89.99994074
_cell_angle_gamma   89.99995972
_symmetry_Int_Tables_number   1
_chemical_formula_structural   CuNiC8
_chemical_formula_sum   'Cu2 Ni2 C16'
_cell_volume   281.82242306
_cell_formula_units_Z   2
loop_
 _symmetry_equiv_pos_site_id
 _symmetry_equiv_pos_as_xyz
  1  'x, y, z'
loop_
 _atom_site_type_symbol
 _atom_site_label
 _atom_site_symmetry_multiplicity
 _atom_site_fract_x
 _atom_site_fract_y
 _atom_site_fract_z
 _atom_site_occupancy
  Ni  Ni0  1  0.50000000  0.74999800  0.00000000  1
  Ni  Ni1  1  0.00000000  0.25000200  0.50000000  1
  Cu  Cu2  1  0.99999900  0.74999900  0.49999900  1
  Cu  Cu3  1  0.49999900  0.25000100  0.00000200  1
  C  C4  1  0.49999900  0.00000500  0.49999900  1
  C  C5  1  0.00000100  0.49999300  0.99999700  1
  C  C6  1  0.00000000  0.00000000  0.00000000  1
  C  C7  1  0.50000000  0.50000000  0.50000000  1
  C  C8  1  0.00000000  0.24092300  0.00000000  1
  C  C9  1  0.50000000  0.74089800  0.50000000  1
  C  C10  1  0.00000000  0.75907700  0.00000000  1
  C  C11  1  0.50000000  0.25910200  0.50000000  1
  C  C12  1  0.18296200  0.97749700  0.70396900  1
  C  C13  1  0.68299500  0.47750500  0.20395200  1
  C  C14  1  0.31700500  0.47750500  0.79604800  1
  C  C15  1  0.81703800  0.97749800  0.29603200  1
  C  C16  1  0.70396800  0.02250300  0.81703800  1
  C  C17  1  0.20395300  0.52249500  0.31700500  1
  C  C18  1  0.79604800  0.52249600  0.68299600  1
  C  C19  1  0.29603200  0.02250300  0.18296200  1
