# generated using pymatgen
data_Cu4Ni2C3
_symmetry_space_group_name_H-M   'P 1'
_cell_length_a   17.57216800
_cell_length_b   7.08852200
_cell_length_c   7.14861736
_cell_angle_alpha   68.25646604
_cell_angle_beta   90.00000000
_cell_angle_gamma   90.00000000
_symmetry_Int_Tables_number   1
_chemical_formula_structural   Cu4Ni2C3
_chemical_formula_sum   'Cu16 Ni8 C12'
_cell_volume   827.08341807
_cell_formula_units_Z   4
loop_
 _symmetry_equiv_pos_site_id
 _symmetry_equiv_pos_as_xyz
  1  'x, y, z'
loop_
 _atom_site_type_symbol
 _atom_site_label
 _atom_site_symmetry_multiplicity
 _atom_site_fract_x
 _atom_site_fract_y
 _atom_site_fract_z
 _atom_site_occupancy
  C  C0  1  0.31695000  0.01198500  0.78507700  1
  C  C1  1  0.81695000  0.48801500  0.21492300  1
  C  C2  1  0.06011700  0.01175400  0.74258200  1
  C  C3  1  0.18305000  0.51198500  0.78507700  1
  C  C4  1  0.43976200  0.99590800  0.26241900  1
  C  C5  1  0.93976200  0.50409200  0.73758100  1
  C  C6  1  0.56023800  0.00409200  0.73758100  1
  C  C7  1  0.06023800  0.49590800  0.26241900  1
  C  C8  1  0.43988300  0.51175400  0.74258200  1
  C  C9  1  0.93988300  0.98824600  0.25741800  1
  C  C10  1  0.56011700  0.48824600  0.25741800  1
  C  C11  1  0.68305000  0.98801500  0.21492300  1
  Ni  Ni12  1  0.87449900  0.03020800  0.79094900  1
  Ni  Ni13  1  0.12550100  0.96979200  0.20905100  1
  Ni  Ni14  1  0.62550100  0.53020800  0.79094900  1
  Ni  Ni15  1  0.24244900  0.08469900  0.31955700  1
  Ni  Ni16  1  0.74244900  0.41530100  0.68044300  1
  Ni  Ni17  1  0.75755100  0.91530100  0.68044300  1
  Ni  Ni18  1  0.25755100  0.58469900  0.31955700  1
  Ni  Ni19  1  0.37449900  0.46979200  0.20905100  1
  Cu  Cu20  1  0.43412300  0.25373900  0.50165800  1
  Cu  Cu21  1  0.68505100  0.72315800  0.96555700  1
  Cu  Cu22  1  0.81494900  0.22315800  0.96555700  1
  Cu  Cu23  1  0.31494900  0.27684200  0.03444300  1
  Cu  Cu24  1  0.30316400  0.77251000  0.51251600  1
  Cu  Cu25  1  0.80316400  0.72749000  0.48748400  1
  Cu  Cu26  1  0.69683600  0.22749000  0.48748400  1
  Cu  Cu27  1  0.19683600  0.27251000  0.51251600  1
  Cu  Cu28  1  0.05868700  0.25158300  0.00354500  1
  Cu  Cu29  1  0.18505100  0.77684200  0.03444300  1
  Cu  Cu30  1  0.55868700  0.24841700  0.99645500  1
  Cu  Cu31  1  0.94131300  0.74841700  0.99645500  1
  Cu  Cu32  1  0.93412300  0.24626100  0.49834200  1
  Cu  Cu33  1  0.56587700  0.74626100  0.49834200  1
  Cu  Cu34  1  0.06587700  0.75373900  0.50165800  1
  Cu  Cu35  1  0.44131300  0.75158300  0.00354500  1
