# generated using pymatgen
data_CuNiC8
_symmetry_space_group_name_H-M   'P 1'
_cell_length_a   5.33060300
_cell_length_b   5.54139600
_cell_length_c   7.63665800
_cell_angle_alpha   90.00000000
_cell_angle_beta   90.00000000
_cell_angle_gamma   90.00000000
_symmetry_Int_Tables_number   1
_chemical_formula_structural   CuNiC8
_chemical_formula_sum   'Cu2 Ni2 C16'
_cell_volume   225.57910428
_cell_formula_units_Z   2
loop_
 _symmetry_equiv_pos_site_id
 _symmetry_equiv_pos_as_xyz
  1  'x, y, z'
loop_
 _atom_site_type_symbol
 _atom_site_label
 _atom_site_symmetry_multiplicity
 _atom_site_fract_x
 _atom_site_fract_y
 _atom_site_fract_z
 _atom_site_occupancy
  Ni  Ni0  1  0.49474800  0.71681300  0.50000000  1
  Ni  Ni1  1  0.99474800  0.28318700  0.00000000  1
  Cu  Cu2  1  0.01768200  0.18014200  0.50000000  1
  Cu  Cu3  1  0.51768200  0.81985800  0.00000000  1
  C  C4  1  0.51184400  0.26457200  0.75246900  1
  C  C5  1  0.01184400  0.73542800  0.25246900  1
  C  C6  1  0.51184400  0.26457200  0.24753100  1
  C  C7  1  0.01184400  0.73542800  0.74753100  1
  C  C8  1  0.92259200  0.77371100  0.50000000  1
  C  C9  1  0.60150400  0.27540200  0.50000000  1
  C  C10  1  0.10150400  0.72459800  0.00000000  1
  C  C11  1  0.42259200  0.22628900  0.00000000  1
  C  C12  1  0.19176300  0.44600200  0.69787800  1
  C  C13  1  0.27813000  0.96463500  0.29101800  1
  C  C14  1  0.77813000  0.03536500  0.20898200  1
  C  C15  1  0.69176300  0.55399800  0.80212200  1
  C  C16  1  0.77813000  0.03536500  0.79101800  1
  C  C17  1  0.69176300  0.55399800  0.19787800  1
  C  C18  1  0.19176300  0.44600200  0.30212200  1
  C  C19  1  0.27813000  0.96463500  0.70898200  1
