# generated using pymatgen
data_CuNiC32
_symmetry_space_group_name_H-M   'P 1'
_cell_length_a   8.54715100
_cell_length_b   9.04398000
_cell_length_c   13.21162274
_cell_angle_alpha   82.61073970
_cell_angle_beta   90.00000000
_cell_angle_gamma   90.00000000
_symmetry_Int_Tables_number   1
_chemical_formula_structural   CuNiC32
_chemical_formula_sum   'Cu2 Ni2 C64'
_cell_volume   1012.78062108
_cell_formula_units_Z   2
loop_
 _symmetry_equiv_pos_site_id
 _symmetry_equiv_pos_as_xyz
  1  'x, y, z'
loop_
 _atom_site_type_symbol
 _atom_site_label
 _atom_site_symmetry_multiplicity
 _atom_site_fract_x
 _atom_site_fract_y
 _atom_site_fract_z
 _atom_site_occupancy
  Ni  Ni0  1  0.00000000  0.00000000  0.00000000  1
  Ni  Ni1  1  0.50000000  0.00000000  0.50000000  1
  Cu  Cu2  1  0.00000000  0.50000000  0.50000000  1
  Cu  Cu3  1  0.50000000  0.50000000  0.00000000  1
  C  C4  1  0.67278800  0.96299000  0.08518400  1
  C  C5  1  0.17278800  0.03701000  0.41481600  1
  C  C6  1  0.32721200  0.03701000  0.91481600  1
  C  C7  1  0.82721200  0.96299000  0.58518400  1
  C  C8  1  0.11925600  0.79901800  0.18631000  1
  C  C9  1  0.61925600  0.20098200  0.31369000  1
  C  C10  1  0.88074400  0.20098200  0.81369000  1
  C  C11  1  0.38074400  0.79901800  0.68631000  1
  C  C12  1  0.05547000  0.28149100  0.09813100  1
  C  C13  1  0.55547000  0.71850900  0.40186900  1
  C  C14  1  0.94453000  0.71850900  0.90186900  1
  C  C15  1  0.44453000  0.28149100  0.59813100  1
  C  C16  1  0.76100400  0.07430900  0.09922300  1
  C  C17  1  0.26100400  0.92569100  0.40077700  1
  C  C18  1  0.23899600  0.92569100  0.90077700  1
  C  C19  1  0.73899600  0.07430900  0.59922300  1
  C  C20  1  0.73565500  0.86961800  0.03033100  1
  C  C21  1  0.23565500  0.13038200  0.46966900  1
  C  C22  1  0.26434500  0.13038200  0.96966900  1
  C  C23  1  0.76434500  0.86961800  0.53033100  1
  C  C24  1  0.54153000  0.94570000  0.12051400  1
  C  C25  1  0.04153000  0.05430000  0.37948600  1
  C  C26  1  0.45847000  0.05430000  0.87948600  1
  C  C27  1  0.95847000  0.94570000  0.62051400  1
  C  C28  1  0.21427100  0.85409200  0.11749300  1
  C  C29  1  0.71427100  0.14590800  0.38250700  1
  C  C30  1  0.78572900  0.14590800  0.88250700  1
  C  C31  1  0.28572900  0.85409200  0.61749300  1
  C  C32  1  0.97739900  0.83938700  0.17902900  1
  C  C33  1  0.47739900  0.16061300  0.32097100  1
  C  C34  1  0.02260100  0.16061300  0.82097100  1
  C  C35  1  0.52260100  0.83938700  0.67902900  1
  C  C36  1  0.16775100  0.70597600  0.25805300  1
  C  C37  1  0.66775100  0.29402400  0.24194700  1
  C  C38  1  0.83224900  0.29402400  0.74194700  1
  C  C39  1  0.33224900  0.70597600  0.75805300  1
  C  C40  1  0.98326200  0.28296300  0.01263500  1
  C  C41  1  0.48326200  0.71703700  0.48736500  1
  C  C42  1  0.01673800  0.71703700  0.98736500  1
  C  C43  1  0.51673800  0.28296300  0.51263500  1
  C  C44  1  0.08502200  0.15186100  0.14571100  1
  C  C45  1  0.58502200  0.84813900  0.35428900  1
  C  C46  1  0.91497800  0.84813900  0.85428900  1
  C  C47  1  0.41497800  0.15186100  0.64571100  1
  C  C48  1  0.09510400  0.39704200  0.13117200  1
  C  C49  1  0.59510400  0.60295800  0.36882800  1
  C  C50  1  0.90489600  0.60295800  0.86882800  1
  C  C51  1  0.40489600  0.39704200  0.63117200  1
  C  C52  1  0.48486100  0.30486300  0.10215000  1
  C  C53  1  0.98486100  0.69513700  0.39785000  1
  C  C54  1  0.51513900  0.69513700  0.89785000  1
  C  C55  1  0.01513900  0.30486300  0.60215000  1
  C  C56  1  0.51597700  0.60345400  0.13847700  1
  C  C57  1  0.01597700  0.39654600  0.36152300  1
  C  C58  1  0.48402300  0.39654600  0.86152300  1
  C  C59  1  0.98402300  0.60345400  0.63847700  1
  C  C60  1  0.72728500  0.52313500  0.06851600  1
  C  C61  1  0.22728500  0.47686500  0.43148400  1
  C  C62  1  0.27271500  0.47686500  0.93148400  1
  C  C63  1  0.77271500  0.52313500  0.56851600  1
  C  C64  1  0.66853500  0.58793600  0.14343400  1
  C  C65  1  0.16853500  0.41206400  0.35656600  1
  C  C66  1  0.33146500  0.41206400  0.85656600  1
  C  C67  1  0.83146500  0.58793600  0.64343400  1
