# generated using pymatgen
data_Cu4Ni4C5
_symmetry_space_group_name_H-M   'P 1'
_cell_length_a   6.62267135
_cell_length_b   8.04123379
_cell_length_c   15.38197537
_cell_angle_alpha   89.97724084
_cell_angle_beta   90.01931267
_cell_angle_gamma   114.28521117
_symmetry_Int_Tables_number   1
_chemical_formula_structural   Cu4Ni4C5
_chemical_formula_sum   'Cu8 Ni8 C10'
_cell_volume   746.67076019
_cell_formula_units_Z   2
loop_
 _symmetry_equiv_pos_site_id
 _symmetry_equiv_pos_as_xyz
  1  'x, y, z'
loop_
 _atom_site_type_symbol
 _atom_site_label
 _atom_site_symmetry_multiplicity
 _atom_site_fract_x
 _atom_site_fract_y
 _atom_site_fract_z
 _atom_site_occupancy
  C  C0  1  0.00020700  0.99977500  0.00027100  1
  C  C1  1  0.49886500  0.99874300  0.49957200  1
  C  C2  1  0.75713200  0.01325800  0.24975300  1
  C  C3  1  0.74296000  0.98719500  0.75000600  1
  C  C4  1  0.24346500  0.98796300  0.74975200  1
  C  C5  1  0.25728000  0.01353800  0.25039700  1
  C  C6  1  0.40796100  0.81494500  0.94167100  1
  C  C7  1  0.59241200  0.18490100  0.05814500  1
  C  C8  1  0.09196500  0.18514700  0.44192100  1
  C  C9  1  0.90740900  0.81486400  0.55819600  1
  Ni  Ni10  1  0.84478300  0.68986500  0.87610600  1
  Ni  Ni11  1  0.15556400  0.31006600  0.12410500  1
  Ni  Ni12  1  0.65535100  0.31002200  0.37596300  1
  Ni  Ni13  1  0.34461400  0.68977800  0.62392000  1
  Ni  Ni14  1  0.87414800  0.74731200  0.15821900  1
  Ni  Ni15  1  0.12568800  0.25267600  0.84214600  1
  Ni  Ni16  1  0.62614700  0.25268200  0.65789400  1
  Ni  Ni17  1  0.37441200  0.74718500  0.34190000  1
  Cu  Cu18  1  0.30913900  0.99979400  0.00003300  1
  Cu  Cu19  1  0.80858200  0.99989500  0.50001600  1
  Cu  Cu20  1  0.69128100  0.99990900  0.00004800  1
  Cu  Cu21  1  0.19071800  0.00001700  0.50001300  1
  Cu  Cu22  1  0.46663500  0.93375000  0.82653700  1
  Cu  Cu23  1  0.53341700  0.06646100  0.17336900  1
  Cu  Cu24  1  0.03333600  0.06659700  0.32677300  1
  Cu  Cu25  1  0.96653100  0.93366500  0.67327100  1
