# generated using pymatgen
data_Cu(Ni2C9)2
_symmetry_space_group_name_H-M   'P 1'
_cell_length_a   5.54084500
_cell_length_b   5.54084500
_cell_length_c   11.87332800
_cell_angle_alpha   90.00000000
_cell_angle_beta   90.00000000
_cell_angle_gamma   90.00000000
_symmetry_Int_Tables_number   1
_chemical_formula_structural   Cu(Ni2C9)2
_chemical_formula_sum   'Cu1 Ni4 C18'
_cell_volume   364.52260734
_cell_formula_units_Z   1
loop_
 _symmetry_equiv_pos_site_id
 _symmetry_equiv_pos_as_xyz
  1  'x, y, z'
loop_
 _atom_site_type_symbol
 _atom_site_label
 _atom_site_symmetry_multiplicity
 _atom_site_fract_x
 _atom_site_fract_y
 _atom_site_fract_z
 _atom_site_occupancy
  C  C0  1  0.50000000  0.00000000  0.00000000  1
  C  C1  1  0.00000000  0.50000000  0.00000000  1
  Ni  Ni2  1  0.00000000  0.00000000  0.80654400  1
  Ni  Ni3  1  0.50000000  0.50000000  0.80230900  1
  Ni  Ni4  1  0.00000000  0.00000000  0.19345600  1
  Ni  Ni5  1  0.50000000  0.50000000  0.19769100  1
  Cu  Cu6  1  0.00000000  0.00000000  0.50000000  1
  C  C7  1  0.00000000  0.50000000  0.50000000  1
  C  C8  1  0.50000000  0.00000000  0.50000000  1
  C  C9  1  0.75088500  0.75088500  0.15371900  1
  C  C10  1  0.24911500  0.24911500  0.15371900  1
  C  C11  1  0.00000000  0.00000000  0.65287100  1
  C  C12  1  0.50000000  0.50000000  0.65442600  1
  C  C13  1  0.75088500  0.75088500  0.84628100  1
  C  C14  1  0.24911500  0.24911500  0.84628100  1
  C  C15  1  0.00000000  0.00000000  0.34712900  1
  C  C16  1  0.50000000  0.50000000  0.34557400  1
  C  C17  1  0.75088500  0.24911500  0.15371900  1
  C  C18  1  0.24911500  0.75088500  0.15371900  1
  C  C19  1  0.24911500  0.75088500  0.84628100  1
  C  C20  1  0.75088500  0.24911500  0.84628100  1
  C  C21  1  0.00000000  0.00000000  0.00000000  1
  C  C22  1  0.50000000  0.50000000  0.00000000  1
