# generated using pymatgen
data_Cu3Ni13C48
_symmetry_space_group_name_H-M   'P 1'
_cell_length_a   5.67655700
_cell_length_b   12.97675000
_cell_length_c   28.97220190
_cell_angle_alpha   74.84626989
_cell_angle_beta   90.00000000
_cell_angle_gamma   90.00000000
_symmetry_Int_Tables_number   1
_chemical_formula_structural   Cu3Ni13C48
_chemical_formula_sum   'Cu6 Ni26 C96'
_cell_volume   2059.97674201
_cell_formula_units_Z   2
loop_
 _symmetry_equiv_pos_site_id
 _symmetry_equiv_pos_as_xyz
  1  'x, y, z'
loop_
 _atom_site_type_symbol
 _atom_site_label
 _atom_site_symmetry_multiplicity
 _atom_site_fract_x
 _atom_site_fract_y
 _atom_site_fract_z
 _atom_site_occupancy
  Ni  Ni0  1  0.76773900  0.97778800  0.42541700  1
  Ni  Ni1  1  0.23226100  0.97778800  0.92541700  1
  Ni  Ni2  1  0.73124500  0.02315600  0.57450300  1
  Ni  Ni3  1  0.26875500  0.02315600  0.07450300  1
  Ni  Ni4  1  0.25528800  0.81201500  0.38733600  1
  Ni  Ni5  1  0.74471200  0.81201500  0.88733600  1
  Ni  Ni6  1  0.24042500  0.18568000  0.61152300  1
  Ni  Ni7  1  0.75957500  0.18568000  0.11152300  1
  Ni  Ni8  1  0.76326100  0.29791100  0.37809400  1
  Ni  Ni9  1  0.23673900  0.29791100  0.87809400  1
  Ni  Ni10  1  0.74025400  0.70225600  0.62283800  1
  Ni  Ni11  1  0.25974600  0.70225600  0.12283800  1
  Ni  Ni12  1  0.26322200  0.47516700  0.42650200  1
  Ni  Ni13  1  0.73677800  0.47516700  0.92650200  1
  Ni  Ni14  1  0.23460100  0.52772800  0.57207400  1
  Ni  Ni15  1  0.76539900  0.52772800  0.07207400  1
  Ni  Ni16  1  0.70464900  0.94496200  0.30068300  1
  Ni  Ni17  1  0.29535100  0.94496200  0.80068300  1
  Ni  Ni18  1  0.79754300  0.06343800  0.69900600  1
  Ni  Ni19  1  0.20245700  0.06343800  0.19900600  1
  Ni  Ni20  1  0.20370600  0.12187900  0.33927400  1
  Ni  Ni21  1  0.79629400  0.12187900  0.83927400  1
  Ni  Ni22  1  0.30484900  0.87409200  0.66174400  1
  Ni  Ni23  1  0.69515100  0.87409200  0.16174400  1
  Ni  Ni24  1  0.73796500  0.22653200  0.24247800  1
  Ni  Ni25  1  0.26203500  0.22653200  0.74247800  1
  C  C26  1  0.74002900  0.34921200  0.51961300  1
  C  C27  1  0.25997100  0.34921200  0.01961300  1
  C  C28  1  0.75960400  0.65091700  0.48033100  1
  C  C29  1  0.24039600  0.65091700  0.98033100  1
  C  C30  1  0.24332600  0.16780000  0.47322700  1
  C  C31  1  0.75667400  0.16780000  0.97322700  1
  C  C32  1  0.25606500  0.83214500  0.52660000  1
  C  C33  1  0.74393500  0.83214500  0.02660000  1
  C  C34  1  0.74795100  0.38003700  0.65207500  1
  C  C35  1  0.25204900  0.38003700  0.15207500  1
  C  C36  1  0.75392300  0.62088800  0.34747700  1
  C  C37  1  0.24607700  0.62088800  0.84747700  1
  Cu  Cu38  1  0.31138400  0.40519900  0.30921300  1
  Cu  Cu39  1  0.68861600  0.40519900  0.80921300  1
  Cu  Cu40  1  0.18666100  0.59594300  0.69058100  1
  Cu  Cu41  1  0.81333900  0.59594300  0.19058100  1
  Cu  Cu42  1  0.74548400  0.80402500  0.75751700  1
  Cu  Cu43  1  0.25451600  0.80402500  0.25751700  1
  C  C44  1  0.10331300  0.29684000  0.44640800  1
  C  C45  1  0.89668700  0.29684000  0.94640800  1
  C  C46  1  0.39551700  0.70292900  0.55326700  1
  C  C47  1  0.60448300  0.70292900  0.05326700  1
  C  C48  1  0.97881000  0.44423200  0.51059100  1
  C  C49  1  0.02119000  0.44423200  0.01059100  1
  C  C50  1  0.52129300  0.55576700  0.48957700  1
  C  C51  1  0.47870700  0.55576700  0.98957700  1
  C  C52  1  0.56432300  0.49899100  0.63004400  1
  C  C53  1  0.43567700  0.49899100  0.13004400  1
  C  C54  1  0.93763000  0.50050800  0.37046300  1
  C  C55  1  0.06237000  0.50050800  0.87046300  1
  C  C56  1  0.50725100  0.09410300  0.27074400  1
  C  C57  1  0.49274900  0.09410300  0.77074400  1
  C  C58  1  0.96667100  0.90496100  0.73244700  1
  C  C59  1  0.03332900  0.90496100  0.23244700  1
  C  C60  1  0.38582600  0.15641900  0.53014000  1
  C  C61  1  0.61417400  0.15641900  0.03014000  1
  C  C62  1  0.11517100  0.84322500  0.46936900  1
  C  C63  1  0.88482900  0.84322500  0.96936900  1
  C  C64  1  0.00969700  0.37261600  0.61610700  1
  C  C65  1  0.99030300  0.37261600  0.11610700  1
  C  C66  1  0.48981900  0.62686700  0.38401900  1
  C  C67  1  0.51018100  0.62686700  0.88401900  1
  C  C68  1  0.85704200  0.13343900  0.37618300  1
  C  C69  1  0.14295800  0.13343900  0.87618300  1
  C  C70  1  0.64054700  0.86673800  0.62351400  1
  C  C71  1  0.35945300  0.86673800  0.12351400  1
  C  C72  1  0.00884700  0.11551800  0.27634600  1
  C  C73  1  0.99115300  0.11551800  0.77634600  1
  C  C74  1  0.49970100  0.88490500  0.72523600  1
  C  C75  1  0.50029900  0.88490500  0.22523600  1
  C  C76  1  0.01584100  0.94889900  0.37048000  1
  C  C77  1  0.98415900  0.94889900  0.87048000  1
  C  C78  1  0.48430500  0.05091200  0.62961700  1
  C  C79  1  0.51569500  0.05091200  0.12961700  1
  C  C80  1  0.53911900  0.36595900  0.56494700  1
  C  C81  1  0.46088100  0.36595900  0.06494700  1
  C  C82  1  0.96382000  0.63444700  0.43544900  1
  C  C83  1  0.03618000  0.63444700  0.93544900  1
  C  C84  1  0.41349600  0.42103800  0.36674300  1
  C  C85  1  0.58650400  0.42103800  0.86674300  1
  C  C86  1  0.08753000  0.57637800  0.63315200  1
  C  C87  1  0.91247000  0.57637800  0.13315200  1
  C  C88  1  0.58318500  0.35665100  0.46334600  1
  C  C89  1  0.41681500  0.35665100  0.96334600  1
  C  C90  1  0.91750700  0.64314000  0.53665200  1
  C  C91  1  0.08249300  0.64314000  0.03665200  1
  C  C92  1  0.85573900  0.15005100  0.18782800  1
  C  C93  1  0.14426100  0.15005100  0.68782800  1
  C  C94  1  0.65164600  0.85407700  0.80900700  1
  C  C95  1  0.34835400  0.85407700  0.30900700  1
  C  C96  1  0.07798700  0.30608600  0.32788200  1
  C  C97  1  0.92201300  0.30608600  0.82788200  1
  C  C98  1  0.42039700  0.69462600  0.67110500  1
  C  C99  1  0.57960300  0.69462600  0.17110500  1
  C  C100  1  0.84711900  0.37872200  0.70972700  1
  C  C101  1  0.15288100  0.37872200  0.20972700  1
  C  C102  1  0.65725000  0.61893700  0.29061700  1
  C  C103  1  0.34275000  0.61893700  0.79061700  1
  C  C104  1  0.52034200  0.94635200  0.37128200  1
  C  C105  1  0.47965800  0.94635200  0.87128200  1
  C  C106  1  0.97877600  0.05109600  0.62826900  1
  C  C107  1  0.02122400  0.05109600  0.12826900  1
  C  C108  1  0.57597800  0.25725300  0.66324900  1
  C  C109  1  0.42402200  0.25725300  0.16324900  1
  C  C110  1  0.91796800  0.74418800  0.33827400  1
  C  C111  1  0.08203200  0.74418800  0.83827400  1
  C  C112  1  0.01874700  0.06880100  0.48203900  1
  C  C113  1  0.98125300  0.06880100  0.98203900  1
  C  C114  1  0.48121000  0.93054000  0.51782500  1
  C  C115  1  0.51879000  0.93054000  0.01782500  1
  C  C116  1  0.44684200  0.14319000  0.42924700  1
  C  C117  1  0.55315800  0.14319000  0.92924700  1
  C  C118  1  0.05544100  0.85679200  0.57109600  1
  C  C119  1  0.94455900  0.85679200  0.07109600  1
  C  C120  1  0.87569900  0.22091000  0.54369200  1
  C  C121  1  0.12430100  0.22091000  0.04369200  1
  C  C122  1  0.62361300  0.77882000  0.45637100  1
  C  C123  1  0.37638700  0.77882000  0.95637100  1
  C  C124  1  0.54132100  0.30442500  0.31204500  1
  C  C125  1  0.45867900  0.30442500  0.81204500  1
  C  C126  1  0.96150700  0.69623900  0.68683800  1
  C  C127  1  0.03849300  0.69623900  0.18683800  1
