# generated using pymatgen
data_Cu3NiC11
_symmetry_space_group_name_H-M   'P 1'
_cell_length_a   17.72412200
_cell_length_b   7.18188400
_cell_length_c   7.35961443
_cell_angle_alpha   88.10818146
_cell_angle_beta   90.00000000
_cell_angle_gamma   90.00000000
_symmetry_Int_Tables_number   1
_chemical_formula_structural   Cu3NiC11
_chemical_formula_sum   'Cu12 Ni4 C44'
_cell_volume   936.31374368
_cell_formula_units_Z   4
loop_
 _symmetry_equiv_pos_site_id
 _symmetry_equiv_pos_as_xyz
  1  'x, y, z'
loop_
 _atom_site_type_symbol
 _atom_site_label
 _atom_site_symmetry_multiplicity
 _atom_site_fract_x
 _atom_site_fract_y
 _atom_site_fract_z
 _atom_site_occupancy
  C  C0  1  0.60631800  0.40383300  0.93613100  1
  C  C1  1  0.10631800  0.59616700  0.06386900  1
  C  C2  1  0.39368200  0.59616700  0.06386900  1
  C  C3  1  0.89368200  0.40383300  0.93613100  1
  C  C4  1  0.75000000  0.64057700  0.33524400  1
  C  C5  1  0.25000000  0.35942300  0.66475600  1
  Ni  Ni6  1  0.58374000  0.90412800  0.66178500  1
  Ni  Ni7  1  0.08374000  0.09587200  0.33821500  1
  Ni  Ni8  1  0.41626000  0.09587200  0.33821500  1
  Ni  Ni9  1  0.91626000  0.90412800  0.66178500  1
  Cu  Cu10  1  0.43045300  0.61732400  0.60780300  1
  Cu  Cu11  1  0.93045300  0.38267600  0.39219700  1
  Cu  Cu12  1  0.56954700  0.38267600  0.39219700  1
  Cu  Cu13  1  0.06954700  0.61732400  0.60780300  1
  Cu  Cu14  1  0.75000000  0.17229100  0.60888100  1
  Cu  Cu15  1  0.25000000  0.82770900  0.39111900  1
  Cu  Cu16  1  0.75000000  0.68710700  0.80991800  1
  Cu  Cu17  1  0.25000000  0.31289300  0.19008200  1
  Cu  Cu18  1  0.58099900  0.91036800  0.15573800  1
  Cu  Cu19  1  0.08099900  0.08963200  0.84426200  1
  Cu  Cu20  1  0.41900100  0.08963200  0.84426200  1
  Cu  Cu21  1  0.91900100  0.91036800  0.15573800  1
  C  C22  1  0.45318800  0.85756500  0.56254800  1
  C  C23  1  0.95318800  0.14243500  0.43745200  1
  C  C24  1  0.54681200  0.14243500  0.43745200  1
  C  C25  1  0.04681200  0.85756500  0.56254800  1
  C  C26  1  0.49430300  0.59024300  0.78338100  1
  C  C27  1  0.99430300  0.40975700  0.21661900  1
  C  C28  1  0.50569700  0.40975700  0.21661900  1
  C  C29  1  0.00569700  0.59024300  0.78338100  1
  C  C30  1  0.34743300  0.63123000  0.72118300  1
  C  C31  1  0.84743300  0.36877000  0.27881700  1
  C  C32  1  0.65256700  0.36877000  0.27881700  1
  C  C33  1  0.15256700  0.63123000  0.72118300  1
  C  C34  1  0.75000000  0.96175300  0.50559300  1
  C  C35  1  0.25000000  0.03824700  0.49440700  1
  C  C36  1  0.67182500  0.13994400  0.75336100  1
  C  C37  1  0.17182500  0.86005600  0.24663900  1
  C  C38  1  0.32817500  0.86005600  0.24663900  1
  C  C39  1  0.82817500  0.13994400  0.75336100  1
  C  C40  1  0.75000000  0.51718400  0.98009000  1
  C  C41  1  0.25000000  0.48281600  0.01991000  1
  C  C42  1  0.67504800  0.61209800  0.67555400  1
  C  C43  1  0.17504800  0.38790200  0.32444600  1
  C  C44  1  0.32495200  0.38790200  0.32444600  1
  C  C45  1  0.82495200  0.61209800  0.67555400  1
  C  C46  1  0.60502100  0.76941400  0.97895500  1
  C  C47  1  0.10502100  0.23058600  0.02104500  1
  C  C48  1  0.39497900  0.23058600  0.02104500  1
  C  C49  1  0.89497900  0.76941400  0.97895500  1
  C  C50  1  0.60985900  0.77570600  0.34111600  1
  C  C51  1  0.10985900  0.22429400  0.65888400  1
  C  C52  1  0.39014100  0.22429400  0.65888400  1
  C  C53  1  0.89014100  0.77570600  0.34111600  1
  C  C54  1  0.48204100  0.87890700  0.16488200  1
  C  C55  1  0.98204100  0.12109300  0.83511800  1
  C  C56  1  0.51795900  0.12109300  0.83511800  1
  C  C57  1  0.01795900  0.87890700  0.16488200  1
  C  C58  1  0.75000000  0.96843100  0.14845500  1
  C  C59  1  0.25000000  0.03156900  0.85154500  1
