# generated using pymatgen
data_Cu8Ni2C
_symmetry_space_group_name_H-M   'P 1'
_cell_length_a   6.23207800
_cell_length_b   9.59412100
_cell_length_c   12.63007400
_cell_angle_alpha   90.00000000
_cell_angle_beta   90.00000000
_cell_angle_gamma   90.00000000
_symmetry_Int_Tables_number   1
_chemical_formula_structural   Cu8Ni2C
_chemical_formula_sum   'Cu32 Ni8 C4'
_cell_volume   755.16867508
_cell_formula_units_Z   4
loop_
 _symmetry_equiv_pos_site_id
 _symmetry_equiv_pos_as_xyz
  1  'x, y, z'
loop_
 _atom_site_type_symbol
 _atom_site_label
 _atom_site_symmetry_multiplicity
 _atom_site_fract_x
 _atom_site_fract_y
 _atom_site_fract_z
 _atom_site_occupancy
  C  C0  1  0.95393700  0.54346300  0.27141200  1
  C  C1  1  0.54606300  0.45653700  0.77141200  1
  C  C2  1  0.45393700  0.95653700  0.72858800  1
  C  C3  1  0.04606300  0.04346300  0.22858800  1
  Ni  Ni4  1  0.79532100  0.71524200  0.89603200  1
  Ni  Ni5  1  0.70467900  0.28475800  0.39603200  1
  Ni  Ni6  1  0.29532100  0.78475800  0.10396800  1
  Ni  Ni7  1  0.20467900  0.21524200  0.60396800  1
  Ni  Ni8  1  0.66955600  0.83583400  0.38977400  1
  Ni  Ni9  1  0.83044400  0.16416600  0.88977400  1
  Ni  Ni10  1  0.16955600  0.66416600  0.61022600  1
  Ni  Ni11  1  0.33044400  0.33583400  0.11022600  1
  Cu  Cu12  1  0.69137800  0.73202900  0.01708900  1
  Cu  Cu13  1  0.80862200  0.26797100  0.51708900  1
  Cu  Cu14  1  0.19137800  0.76797100  0.98291100  1
  Cu  Cu15  1  0.30862200  0.23202900  0.48291100  1
  Cu  Cu16  1  0.84962000  0.54331100  0.87901600  1
  Cu  Cu17  1  0.65038000  0.45668900  0.37901600  1
  Cu  Cu18  1  0.34962000  0.95668900  0.12098400  1
  Cu  Cu19  1  0.15038000  0.04331100  0.62098400  1
  Cu  Cu20  1  0.58577200  0.72638500  0.80614000  1
  Cu  Cu21  1  0.91422800  0.27361500  0.30614000  1
  Cu  Cu22  1  0.08577200  0.77361500  0.19386000  1
  Cu  Cu23  1  0.41422800  0.22638500  0.69386000  1
  Cu  Cu24  1  0.73006700  0.99624100  0.33902900  1
  Cu  Cu25  1  0.76993300  0.00375900  0.83902900  1
  Cu  Cu26  1  0.23006700  0.50375900  0.66097100  1
  Cu  Cu27  1  0.26993300  0.49624100  0.16097100  1
  Cu  Cu28  1  0.59422700  0.73497300  0.28802500  1
  Cu  Cu29  1  0.90577300  0.26502700  0.78802500  1
  Cu  Cu30  1  0.09422700  0.76502700  0.71197500  1
  Cu  Cu31  1  0.40577300  0.23497300  0.21197500  1
  Cu  Cu32  1  0.90866900  0.76835600  0.42908500  1
  Cu  Cu33  1  0.59133100  0.23164400  0.92908500  1
  Cu  Cu34  1  0.40866900  0.73164400  0.57091500  1
  Cu  Cu35  1  0.09133100  0.26835600  0.07091500  1
  Cu  Cu36  1  0.85195100  0.05839400  0.09834100  1
  Cu  Cu37  1  0.64804900  0.94160600  0.59834100  1
  Cu  Cu38  1  0.35195100  0.44160600  0.90165900  1
  Cu  Cu39  1  0.14804900  0.55839400  0.40165900  1
  Cu  Cu40  1  0.76398500  0.51190400  0.14058300  1
  Cu  Cu41  1  0.73601500  0.48809600  0.64058300  1
  Cu  Cu42  1  0.26398500  0.98809600  0.85941700  1
  Cu  Cu43  1  0.23601500  0.01190400  0.35941700  1
