# generated using pymatgen
data_Cu5NiC14
_symmetry_space_group_name_H-M   'P 1'
_cell_length_a   13.63482148
_cell_length_b   13.65839755
_cell_length_c   13.80791487
_cell_angle_alpha   90.00000000
_cell_angle_beta   90.00000000
_cell_angle_gamma   90.00000000
_symmetry_Int_Tables_number   1
_chemical_formula_structural   Cu5NiC14
_chemical_formula_sum   'Cu40 Ni8 C112'
_cell_volume   2571.44539445
_cell_formula_units_Z   8
loop_
 _symmetry_equiv_pos_site_id
 _symmetry_equiv_pos_as_xyz
  1  'x, y, z'
loop_
 _atom_site_type_symbol
 _atom_site_label
 _atom_site_symmetry_multiplicity
 _atom_site_fract_x
 _atom_site_fract_y
 _atom_site_fract_z
 _atom_site_occupancy
  C  C0  1  0.64667498  0.15297885  0.35422711  1
  C  C1  1  0.14667498  0.34702115  0.64577289  1
  C  C2  1  0.35332502  0.65297885  0.14577289  1
  C  C3  1  0.85332502  0.84702115  0.85422711  1
  C  C4  1  0.35332502  0.84702115  0.64577289  1
  C  C5  1  0.85332502  0.65297885  0.35422711  1
  C  C6  1  0.64667498  0.34702115  0.85422711  1
  C  C7  1  0.14667498  0.15297885  0.14577289  1
  C  C8  1  0.89969137  0.38920864  0.10886963  1
  C  C9  1  0.39969137  0.11079136  0.89113037  1
  C  C10  1  0.10030863  0.88920864  0.39113037  1
  C  C11  1  0.60030863  0.61079136  0.60886963  1
  C  C12  1  0.10030863  0.61079136  0.89113037  1
  C  C13  1  0.60030863  0.88920864  0.10886963  1
  C  C14  1  0.89969137  0.11079136  0.60886963  1
  C  C15  1  0.39969137  0.38920864  0.39113037  1
  Ni  Ni16  1  0.86861198  0.82860642  0.56493872  1
  Ni  Ni17  1  0.36861198  0.67139358  0.43506128  1
  Ni  Ni18  1  0.13138802  0.32860642  0.93506128  1
  Ni  Ni19  1  0.63138802  0.17139358  0.06493872  1
  Ni  Ni20  1  0.13138802  0.17139358  0.43506128  1
  Ni  Ni21  1  0.63138802  0.32860642  0.56493872  1
  Ni  Ni22  1  0.86861198  0.67139358  0.06493872  1
  Ni  Ni23  1  0.36861198  0.82860642  0.93506128  1
  Cu  Cu24  1  0.60707882  0.65684294  0.89962131  1
  Cu  Cu25  1  0.10707882  0.84315706  0.10037869  1
  Cu  Cu26  1  0.39292118  0.15684294  0.60037869  1
  Cu  Cu27  1  0.89292118  0.34315706  0.39962131  1
  Cu  Cu28  1  0.39292118  0.34315706  0.10037869  1
  Cu  Cu29  1  0.89292118  0.15684294  0.89962131  1
  Cu  Cu30  1  0.60707882  0.84315706  0.39962131  1
  Cu  Cu31  1  0.10707882  0.65684294  0.60037869  1
  Cu  Cu32  1  0.10407003  0.11069635  0.86013286  1
  Cu  Cu33  1  0.60407003  0.38930365  0.13986714  1
  Cu  Cu34  1  0.89592997  0.61069635  0.63986714  1
  Cu  Cu35  1  0.39592997  0.88930365  0.36013286  1
  Cu  Cu36  1  0.89592997  0.88930365  0.13986714  1
  Cu  Cu37  1  0.39592997  0.61069635  0.86013286  1
  Cu  Cu38  1  0.10407003  0.38930365  0.36013286  1
  Cu  Cu39  1  0.60407003  0.11069635  0.63986714  1
  Cu  Cu40  1  0.14116020  0.61540682  0.38400810  1
  Cu  Cu41  1  0.64116020  0.88459318  0.61599190  1
  Cu  Cu42  1  0.85883980  0.11540682  0.11599190  1
  Cu  Cu43  1  0.35883980  0.38459318  0.88400810  1
  Cu  Cu44  1  0.85883980  0.38459318  0.61599190  1
  Cu  Cu45  1  0.35883980  0.11540682  0.38400810  1
  Cu  Cu46  1  0.14116020  0.88459318  0.88400810  1
  Cu  Cu47  1  0.64116020  0.61540682  0.11599190  1
  Cu  Cu48  1  0.42600871  0.37324544  0.67833286  1
  Cu  Cu49  1  0.92600871  0.12675456  0.32166714  1
  Cu  Cu50  1  0.57399129  0.87324544  0.82166714  1
  Cu  Cu51  1  0.07399129  0.62675456  0.17833286  1
  Cu  Cu52  1  0.57399129  0.62675456  0.32166714  1
  Cu  Cu53  1  0.07399129  0.87324544  0.67833286  1
  Cu  Cu54  1  0.42600871  0.12675456  0.17833286  1
  Cu  Cu55  1  0.92600871  0.37324544  0.82166714  1
  Cu  Cu56  1  0.32225093  0.92200110  0.14985898  1
  Cu  Cu57  1  0.82225093  0.57799890  0.85014102  1
  Cu  Cu58  1  0.67774907  0.42200110  0.35014102  1
  Cu  Cu59  1  0.17774907  0.07799890  0.64985898  1
  Cu  Cu60  1  0.67774907  0.07799890  0.85014102  1
  Cu  Cu61  1  0.17774907  0.42200110  0.14985898  1
  Cu  Cu62  1  0.32225093  0.57799890  0.64985898  1
  Cu  Cu63  1  0.82225093  0.92200110  0.35014102  1
  C  C64  1  0.98308527  0.39361188  0.33836373  1
  C  C65  1  0.48308527  0.10638812  0.66163627  1
  C  C66  1  0.01691473  0.89361188  0.16163627  1
  C  C67  1  0.51691473  0.60638812  0.83836373  1
  C  C68  1  0.01691473  0.60638812  0.66163627  1
  C  C69  1  0.51691473  0.89361188  0.33836373  1
  C  C70  1  0.98308527  0.10638812  0.83836373  1
  C  C71  1  0.48308527  0.39361188  0.16163627  1
  C  C72  1  0.64327722  0.49657001  0.10586108  1
  C  C73  1  0.14327722  0.00342999  0.89413892  1
  C  C74  1  0.35672278  0.99657001  0.39413892  1
  C  C75  1  0.85672278  0.50342999  0.60586108  1
  C  C76  1  0.35672278  0.50342999  0.89413892  1
  C  C77  1  0.85672278  0.99657001  0.10586108  1
  C  C78  1  0.64327722  0.00342999  0.60586108  1
  C  C79  1  0.14327722  0.49657001  0.39413892  1
  C  C80  1  0.91354577  0.15608385  0.01622416  1
  C  C81  1  0.41354577  0.34391615  0.98377584  1
  C  C82  1  0.08645423  0.65608385  0.48377584  1
  C  C83  1  0.58645423  0.84391615  0.51622416  1
  C  C84  1  0.08645423  0.84391615  0.98377584  1
  C  C85  1  0.58645423  0.65608385  0.01622416  1
  C  C86  1  0.91354577  0.34391615  0.51622416  1
  C  C87  1  0.41354577  0.15608385  0.48377584  1
  C  C88  1  0.25329018  0.34004226  0.86613381  1
  C  C89  1  0.75329018  0.15995774  0.13386619  1
  C  C90  1  0.74670982  0.84004226  0.63386619  1
  C  C91  1  0.24670982  0.65995774  0.36613381  1
  C  C92  1  0.74670982  0.65995774  0.13386619  1
  C  C93  1  0.24670982  0.84004226  0.86613381  1
  C  C94  1  0.25329018  0.15995774  0.36613381  1
  C  C95  1  0.75329018  0.34004226  0.63386619  1
  C  C96  1  0.12310500  0.72784663  0.13078123  1
  C  C97  1  0.62310500  0.77215337  0.86921877  1
  C  C98  1  0.87689500  0.22784663  0.36921877  1
  C  C99  1  0.37689500  0.27215337  0.63078123  1
  C  C100  1  0.87689500  0.27215337  0.86921877  1
  C  C101  1  0.37689500  0.22784663  0.13078123  1
  C  C102  1  0.12310500  0.77215337  0.63078123  1
  C  C103  1  0.62310500  0.72784663  0.36921877  1
  C  C104  1  0.84393816  0.63289811  0.74581152  1
  C  C105  1  0.34393816  0.86710189  0.25418848  1
  C  C106  1  0.15606184  0.13289811  0.75418848  1
  C  C107  1  0.65606184  0.36710189  0.24581152  1
  C  C108  1  0.15606184  0.36710189  0.25418848  1
  C  C109  1  0.65606184  0.13289811  0.74581152  1
  C  C110  1  0.84393816  0.86710189  0.24581152  1
  C  C111  1  0.34393816  0.63289811  0.75418848  1
  C  C112  1  0.47011640  0.90168319  0.86600639  1
  C  C113  1  0.97011640  0.59831681  0.13399361  1
  C  C114  1  0.52988360  0.40168319  0.63399361  1
  C  C115  1  0.02988360  0.09831681  0.36600639  1
  C  C116  1  0.52988360  0.09831681  0.13399361  1
  C  C117  1  0.02988360  0.40168319  0.86600639  1
  C  C118  1  0.47011640  0.59831681  0.36600639  1
  C  C119  1  0.97011640  0.90168319  0.63399361  1
  C  C120  1  0.15991323  0.95793765  0.66036680  1
  C  C121  1  0.65991323  0.54206235  0.33963320  1
  C  C122  1  0.84008677  0.45793765  0.83963320  1
  C  C123  1  0.34008677  0.04206235  0.16036680  1
  C  C124  1  0.84008677  0.04206235  0.33963320  1
  C  C125  1  0.34008677  0.45793765  0.66036680  1
  C  C126  1  0.15991323  0.54206235  0.16036680  1
  C  C127  1  0.65991323  0.95793765  0.83963320  1
  C  C128  1  0.38719747  0.62724242  0.56752832  1
  C  C129  1  0.88719747  0.87275758  0.43247168  1
  C  C130  1  0.61280253  0.12724242  0.93247168  1
  C  C131  1  0.11280253  0.37275758  0.06752832  1
  C  C132  1  0.61280253  0.37275758  0.43247168  1
  C  C133  1  0.11280253  0.12724242  0.56752832  1
  C  C134  1  0.38719747  0.87275758  0.06752832  1
  C  C135  1  0.88719747  0.62724242  0.93247168  1
  C  C136  1  0.70277126  0.90947895  0.37033715  1
  C  C137  1  0.20277126  0.59052105  0.62966285  1
  C  C138  1  0.29722874  0.40947895  0.12966285  1
  C  C139  1  0.79722874  0.09052105  0.87033715  1
  C  C140  1  0.29722874  0.09052105  0.62966285  1
  C  C141  1  0.79722874  0.40947895  0.37033715  1
  C  C142  1  0.70277126  0.59052105  0.87033715  1
  C  C143  1  0.20277126  0.90947895  0.12966285  1
  C  C144  1  0.62785176  0.18790695  0.55776786  1
  C  C145  1  0.12785176  0.31209305  0.44223214  1
  C  C146  1  0.37214824  0.68790695  0.94223214  1
  C  C147  1  0.87214824  0.81209305  0.05776786  1
  C  C148  1  0.37214824  0.81209305  0.44223214  1
  C  C149  1  0.87214824  0.68790695  0.55776786  1
  C  C150  1  0.62785176  0.31209305  0.05776786  1
  C  C151  1  0.12785176  0.18790695  0.94223214  1
  C  C152  1  0.43657780  0.14643595  0.29648536  1
  C  C153  1  0.93657780  0.35356405  0.70351464  1
  C  C154  1  0.56342220  0.64643595  0.20351464  1
  C  C155  1  0.06342220  0.85356405  0.79648536  1
  C  C156  1  0.56342220  0.85356405  0.70351464  1
  C  C157  1  0.06342220  0.64643595  0.29648536  1
  C  C158  1  0.43657780  0.35356405  0.79648536  1
  C  C159  1  0.93657780  0.14643595  0.20351464  1
