# generated using pymatgen
data_Cu4NiC22
_symmetry_space_group_name_H-M   'P 1'
_cell_length_a   20.02954200
_cell_length_b   5.59546500
_cell_length_c   6.94933943
_cell_angle_alpha   73.31625771
_cell_angle_beta   90.00000000
_cell_angle_gamma   90.00000000
_symmetry_Int_Tables_number   1
_chemical_formula_structural   Cu4NiC22
_chemical_formula_sum   'Cu8 Ni2 C44'
_cell_volume   746.05820545
_cell_formula_units_Z   2
loop_
 _symmetry_equiv_pos_site_id
 _symmetry_equiv_pos_as_xyz
  1  'x, y, z'
loop_
 _atom_site_type_symbol
 _atom_site_label
 _atom_site_symmetry_multiplicity
 _atom_site_fract_x
 _atom_site_fract_y
 _atom_site_fract_z
 _atom_site_occupancy
  Ni  Ni0  1  0.75000000  0.75576300  0.80959900  1
  Ni  Ni1  1  0.25000000  0.24423700  0.19040100  1
  Cu  Cu2  1  0.53877500  0.69824000  0.11745900  1
  Cu  Cu3  1  0.03877500  0.30176000  0.88254100  1
  Cu  Cu4  1  0.46122500  0.30176000  0.88254100  1
  Cu  Cu5  1  0.96122500  0.69824000  0.11745900  1
  Cu  Cu6  1  0.65816700  0.35230800  0.48180500  1
  Cu  Cu7  1  0.15816700  0.64769200  0.51819500  1
  Cu  Cu8  1  0.34183300  0.64769200  0.51819500  1
  Cu  Cu9  1  0.84183300  0.35230800  0.48180500  1
  C  C10  1  0.75000000  0.93657200  0.28098700  1
  C  C11  1  0.25000000  0.06342800  0.71901300  1
  C  C12  1  0.63574200  0.22866200  0.00795500  1
  C  C13  1  0.13574200  0.77133800  0.99204500  1
  C  C14  1  0.36425800  0.77133800  0.99204500  1
  C  C15  1  0.86425800  0.22866200  0.00795500  1
  C  C16  1  0.56073600  0.80383900  0.59479500  1
  C  C17  1  0.06073600  0.19616100  0.40520500  1
  C  C18  1  0.43926400  0.19616100  0.40520500  1
  C  C19  1  0.93926400  0.80383900  0.59479500  1
  C  C20  1  0.75000000  0.13292600  0.41635700  1
  C  C21  1  0.25000000  0.86707400  0.58364300  1
  C  C22  1  0.75000000  0.64406000  0.41774900  1
  C  C23  1  0.25000000  0.35594000  0.58225100  1
  C  C24  1  0.68391800  0.98302100  0.13058500  1
  C  C25  1  0.18391800  0.01697900  0.86941500  1
  C  C26  1  0.31608200  0.01697900  0.86941500  1
  C  C27  1  0.81608200  0.98302100  0.13058500  1
  C  C28  1  0.67328000  0.36185200  0.79710000  1
  C  C29  1  0.17328000  0.63814800  0.20290000  1
  C  C30  1  0.32672000  0.63814800  0.20290000  1
  C  C31  1  0.82672000  0.36185200  0.79710000  1
  C  C32  1  0.56357400  0.10201900  0.98328500  1
  C  C33  1  0.06357400  0.89798100  0.01671500  1
  C  C34  1  0.43642600  0.89798100  0.01671500  1
  C  C35  1  0.93642600  0.10201900  0.98328500  1
  C  C36  1  0.62947600  0.42036600  0.14850300  1
  C  C37  1  0.12947600  0.57963400  0.85149700  1
  C  C38  1  0.37052400  0.57963400  0.85149700  1
  C  C39  1  0.87052400  0.42036600  0.14850300  1
  C  C40  1  0.62782800  0.95807500  0.61492100  1
  C  C41  1  0.12782800  0.04192500  0.38507900  1
  C  C42  1  0.37217200  0.04192500  0.38507900  1
  C  C43  1  0.87217200  0.95807500  0.61492100  1
  C  C44  1  0.53421800  0.62547600  0.81246200  1
  C  C45  1  0.03421800  0.37452400  0.18753800  1
  C  C46  1  0.46578200  0.37452400  0.18753800  1
  C  C47  1  0.96578200  0.62547600  0.81246200  1
  C  C48  1  0.50000000  0.00000000  0.50000000  1
  C  C49  1  0.00000000  0.00000000  0.50000000  1
  C  C50  1  0.57332700  0.63127800  0.44024000  1
  C  C51  1  0.07332700  0.36872200  0.55976000  1
  C  C52  1  0.42667300  0.36872200  0.55976000  1
  C  C53  1  0.92667300  0.63127800  0.44024000  1
