# generated using pymatgen
data_CuNiC6
_symmetry_space_group_name_H-M   'P 1'
_cell_length_a   7.26701300
_cell_length_b   7.29106600
_cell_length_c   8.83199100
_cell_angle_alpha   90.00000000
_cell_angle_beta   90.00000000
_cell_angle_gamma   90.00000000
_symmetry_Int_Tables_number   1
_chemical_formula_structural   CuNiC6
_chemical_formula_sum   'Cu4 Ni4 C24'
_cell_volume   467.95660820
_cell_formula_units_Z   4
loop_
 _symmetry_equiv_pos_site_id
 _symmetry_equiv_pos_as_xyz
  1  'x, y, z'
loop_
 _atom_site_type_symbol
 _atom_site_label
 _atom_site_symmetry_multiplicity
 _atom_site_fract_x
 _atom_site_fract_y
 _atom_site_fract_z
 _atom_site_occupancy
  C  C0  1  0.98065200  0.62111900  0.69350900  1
  C  C1  1  0.51934800  0.37888100  0.19350900  1
  C  C2  1  0.01934800  0.12111900  0.80649100  1
  C  C3  1  0.48065200  0.87888100  0.30649100  1
  Ni  Ni4  1  0.25112000  0.72918800  0.96206500  1
  Ni  Ni5  1  0.24888000  0.27081200  0.46206500  1
  Ni  Ni6  1  0.74888000  0.22918800  0.53793500  1
  Ni  Ni7  1  0.75112000  0.77081200  0.03793500  1
  Cu  Cu8  1  0.46933500  0.14681100  0.85672200  1
  Cu  Cu9  1  0.03066500  0.85318900  0.35672200  1
  Cu  Cu10  1  0.53066500  0.64681100  0.64327800  1
  Cu  Cu11  1  0.96933500  0.35318900  0.14327800  1
  C  C12  1  0.44222600  0.94519300  0.96507500  1
  C  C13  1  0.05777400  0.05480700  0.46507500  1
  C  C14  1  0.55777400  0.44519300  0.53492500  1
  C  C15  1  0.94222600  0.55480700  0.03492500  1
  C  C16  1  0.48132000  0.32493100  0.97812700  1
  C  C17  1  0.01868000  0.67506900  0.47812700  1
  C  C18  1  0.51868000  0.82493100  0.52187300  1
  C  C19  1  0.98132000  0.17506900  0.02187300  1
  C  C20  1  0.67620300  0.12115600  0.75972800  1
  C  C21  1  0.82379700  0.87884400  0.25972700  1
  C  C22  1  0.32379700  0.62115600  0.74027200  1
  C  C23  1  0.17620300  0.37884400  0.24027200  1
  C  C24  1  0.28748400  0.15626600  0.73510300  1
  C  C25  1  0.21251600  0.84373400  0.23510300  1
  C  C26  1  0.71251600  0.65626600  0.76489700  1
  C  C27  1  0.78748400  0.34373400  0.26489700  1
  C  C28  1  0.05015800  0.84114500  0.83891400  1
  C  C29  1  0.44984200  0.15885500  0.33891400  1
  C  C30  1  0.94984200  0.34114500  0.66108600  1
  C  C31  1  0.55015800  0.65885500  0.16108600  1
