# generated using pymatgen
data_Cu4Ni5C18
_symmetry_space_group_name_H-M   'P 1'
_cell_length_a   9.66073500
_cell_length_b   13.43393600
_cell_length_c   11.80234000
_cell_angle_alpha   90.00000000
_cell_angle_beta   90.00000000
_cell_angle_gamma   90.00000000
_symmetry_Int_Tables_number   1
_chemical_formula_structural   Cu4Ni5C18
_chemical_formula_sum   'Cu16 Ni20 C72'
_cell_volume   1531.72769846
_cell_formula_units_Z   4
loop_
 _symmetry_equiv_pos_site_id
 _symmetry_equiv_pos_as_xyz
  1  'x, y, z'
loop_
 _atom_site_type_symbol
 _atom_site_label
 _atom_site_symmetry_multiplicity
 _atom_site_fract_x
 _atom_site_fract_y
 _atom_site_fract_z
 _atom_site_occupancy
  C  C0  1  0.88089300  0.25000000  0.95007800  1
  C  C1  1  0.38089300  0.25000000  0.54992200  1
  C  C2  1  0.11910700  0.75000000  0.04992200  1
  C  C3  1  0.61910700  0.75000000  0.45007800  1
  C  C4  1  0.27105200  0.08875100  0.89132800  1
  C  C5  1  0.77105200  0.41124900  0.60867200  1
  C  C6  1  0.72894800  0.58875100  0.10867200  1
  C  C7  1  0.22894800  0.91124900  0.39132800  1
  C  C8  1  0.72894800  0.91124900  0.10867200  1
  C  C9  1  0.22894800  0.58875100  0.39132800  1
  C  C10  1  0.27105200  0.41124900  0.89132800  1
  C  C11  1  0.77105200  0.08875100  0.60867200  1
  Ni  Ni12  1  0.45344500  0.25000000  0.91607600  1
  Ni  Ni13  1  0.95344500  0.25000000  0.58392400  1
  Ni  Ni14  1  0.54655500  0.75000000  0.08392400  1
  Ni  Ni15  1  0.04655500  0.75000000  0.41607600  1
  Ni  Ni16  1  0.89576500  0.19193800  0.18409600  1
  Ni  Ni17  1  0.39576500  0.30806200  0.31590400  1
  Ni  Ni18  1  0.10423500  0.69193800  0.81590400  1
  Ni  Ni19  1  0.60423500  0.80806200  0.68409600  1
  Ni  Ni20  1  0.10423500  0.80806200  0.81590400  1
  Ni  Ni21  1  0.60423500  0.69193800  0.68409600  1
  Ni  Ni22  1  0.89576500  0.30806200  0.18409600  1
  Ni  Ni23  1  0.39576500  0.19193800  0.31590400  1
  Ni  Ni24  1  0.60475700  0.19257100  0.06818100  1
  Ni  Ni25  1  0.10475700  0.30742900  0.43181900  1
  Ni  Ni26  1  0.39524300  0.69257100  0.93181900  1
  Ni  Ni27  1  0.89524300  0.80742900  0.56818100  1
  Ni  Ni28  1  0.39524300  0.80742900  0.93181900  1
  Ni  Ni29  1  0.89524300  0.69257100  0.56818100  1
  Ni  Ni30  1  0.60475700  0.30742900  0.06818100  1
  Ni  Ni31  1  0.10475700  0.19257100  0.43181900  1
  Cu  Cu32  1  0.28324600  0.05010000  0.16487100  1
  Cu  Cu33  1  0.78324600  0.44990000  0.33512900  1
  Cu  Cu34  1  0.71675400  0.55010000  0.83512900  1
  Cu  Cu35  1  0.21675400  0.94990000  0.66487100  1
  Cu  Cu36  1  0.71675400  0.94990000  0.83512900  1
  Cu  Cu37  1  0.21675400  0.55010000  0.66487100  1
  Cu  Cu38  1  0.28324600  0.44990000  0.16487100  1
  Cu  Cu39  1  0.78324600  0.05010000  0.33512900  1
  Cu  Cu40  1  0.23470700  0.94970800  0.11756000  1
  Cu  Cu41  1  0.73470700  0.55029200  0.38244000  1
  Cu  Cu42  1  0.76529300  0.44970800  0.88244000  1
  Cu  Cu43  1  0.26529300  0.05029200  0.61756000  1
  Cu  Cu44  1  0.76529300  0.05029200  0.88244000  1
  Cu  Cu45  1  0.26529300  0.44970800  0.61756000  1
  Cu  Cu46  1  0.23470700  0.55029200  0.11756000  1
  Cu  Cu47  1  0.73470700  0.94970800  0.38244000  1
  C  C48  1  0.09434200  0.13291400  0.89809900  1
  C  C49  1  0.59434200  0.36708600  0.60190100  1
  C  C50  1  0.90565800  0.63291400  0.10190100  1
  C  C51  1  0.40565800  0.86708600  0.39809900  1
  C  C52  1  0.90565800  0.86708600  0.10190100  1
  C  C53  1  0.40565800  0.63291400  0.39809900  1
  C  C54  1  0.09434200  0.36708600  0.89809900  1
  C  C55  1  0.59434200  0.13291400  0.60190100  1
  C  C56  1  0.44734900  0.04524000  0.88376700  1
  C  C57  1  0.94734900  0.45476000  0.61623300  1
  C  C58  1  0.55265100  0.54524000  0.11623300  1
  C  C59  1  0.05265100  0.95476000  0.38376700  1
  C  C60  1  0.55265100  0.95476000  0.11623300  1
  C  C61  1  0.05265100  0.54524000  0.38376700  1
  C  C62  1  0.44734900  0.45476000  0.88376700  1
  C  C63  1  0.94734900  0.04524000  0.61623300  1
  C  C64  1  0.30442700  0.11790200  0.09266000  1
  C  C65  1  0.80442700  0.38209800  0.40734000  1
  C  C66  1  0.69557300  0.61790200  0.90734000  1
  C  C67  1  0.19557300  0.88209800  0.59266000  1
  C  C68  1  0.69557300  0.88209800  0.90734000  1
  C  C69  1  0.19557300  0.61790200  0.59266000  1
  C  C70  1  0.30442700  0.38209800  0.09266000  1
  C  C71  1  0.80442700  0.11790200  0.40734000  1
  C  C72  1  0.29692600  0.05646300  0.27123500  1
  C  C73  1  0.79692600  0.44353700  0.22876500  1
  C  C74  1  0.70307400  0.55646300  0.72876500  1
  C  C75  1  0.20307400  0.94353700  0.77123500  1
  C  C76  1  0.70307400  0.94353700  0.72876500  1
  C  C77  1  0.20307400  0.55646300  0.77123500  1
  C  C78  1  0.29692600  0.44353700  0.27123500  1
  C  C79  1  0.79692600  0.05646300  0.22876500  1
  C  C80  1  0.21620200  0.94464800  0.01155900  1
  C  C81  1  0.71620200  0.55535200  0.48844100  1
  C  C82  1  0.78379800  0.44464800  0.98844100  1
  C  C83  1  0.28379800  0.05535200  0.51155900  1
  C  C84  1  0.78379800  0.05535200  0.98844100  1
  C  C85  1  0.28379800  0.44464800  0.51155900  1
  C  C86  1  0.21620200  0.55535200  0.01155900  1
  C  C87  1  0.71620200  0.94464800  0.48844100  1
  C  C88  1  0.21599700  0.87955300  0.18747400  1
  C  C89  1  0.71599700  0.62044700  0.31252600  1
  C  C90  1  0.78400300  0.37955300  0.81252600  1
  C  C91  1  0.28400300  0.12044700  0.68747400  1
  C  C92  1  0.78400300  0.12044700  0.81252600  1
  C  C93  1  0.28400300  0.37955300  0.68747400  1
  C  C94  1  0.21599700  0.62044700  0.18747400  1
  C  C95  1  0.71599700  0.87955300  0.31252600  1
  C  C96  1  0.35483000  0.25000000  0.89323300  1
  C  C97  1  0.85483000  0.25000000  0.60676700  1
  C  C98  1  0.64517000  0.75000000  0.10676700  1
  C  C99  1  0.14517000  0.75000000  0.39323300  1
  C  C100  1  0.93427700  0.25000000  0.14500200  1
  C  C101  1  0.43427700  0.25000000  0.35499800  1
  C  C102  1  0.06572300  0.75000000  0.85499800  1
  C  C103  1  0.56572300  0.75000000  0.64500200  1
  C  C104  1  0.61543000  0.25000000  0.01833800  1
  C  C105  1  0.11543000  0.25000000  0.48166200  1
  C  C106  1  0.38457000  0.75000000  0.98166200  1
  C  C107  1  0.88457000  0.75000000  0.51833800  1
