# generated using pymatgen
data_Cu2NiC4
_symmetry_space_group_name_H-M   'P 1'
_cell_length_a   6.02627008
_cell_length_b   6.02627008
_cell_length_c   14.75589700
_cell_angle_alpha   90.00000000
_cell_angle_beta   90.00000000
_cell_angle_gamma   120.00000086
_symmetry_Int_Tables_number   1
_chemical_formula_structural   Cu2NiC4
_chemical_formula_sum   'Cu12 Ni6 C24'
_cell_volume   464.08061279
_cell_formula_units_Z   6
loop_
 _symmetry_equiv_pos_site_id
 _symmetry_equiv_pos_as_xyz
  1  'x, y, z'
loop_
 _atom_site_type_symbol
 _atom_site_label
 _atom_site_symmetry_multiplicity
 _atom_site_fract_x
 _atom_site_fract_y
 _atom_site_fract_z
 _atom_site_occupancy
  Ni  Ni0  1  0.33333300  0.66666700  0.95396200  1
  Ni  Ni1  1  0.00000000  0.00000000  0.62422200  1
  Ni  Ni2  1  0.00000000  0.00000000  0.99665500  1
  Ni  Ni3  1  0.66666700  0.33333300  0.29208900  1
  Ni  Ni4  1  0.33333300  0.66666700  0.71066300  1
  Ni  Ni5  1  0.00000000  0.00000000  0.37494400  1
  Cu  Cu6  1  0.83576700  0.67153400  0.83380700  1
  Cu  Cu7  1  0.32846600  0.16423300  0.83380700  1
  Cu  Cu8  1  0.50036900  0.00073700  0.50086600  1
  Cu  Cu9  1  0.83576700  0.16423300  0.83380700  1
  Cu  Cu10  1  0.66666700  0.33333300  0.66838200  1
  Cu  Cu11  1  0.99926300  0.49963100  0.50086600  1
  Cu  Cu12  1  0.16819900  0.33639800  0.16702600  1
  Cu  Cu13  1  0.50036900  0.49963100  0.50086600  1
  Cu  Cu14  1  0.16819900  0.83180100  0.16702600  1
  Cu  Cu15  1  0.33333300  0.66666700  0.33526200  1
  Cu  Cu16  1  0.66360200  0.83180100  0.16702600  1
  Cu  Cu17  1  0.66666700  0.33333300  0.04371300  1
  C  C18  1  0.68983000  0.84491500  0.90958600  1
  C  C19  1  0.00000000  0.00000000  0.75813400  1
  C  C20  1  0.15508500  0.84491500  0.90958600  1
  C  C21  1  0.15508500  0.31017000  0.90958600  1
  C  C22  1  0.51477400  0.02954800  0.75382800  1
  C  C23  1  0.35991700  0.17995900  0.57955700  1
  C  C24  1  0.51477400  0.48522600  0.75382800  1
  C  C25  1  0.66666700  0.33333300  0.91312800  1
  C  C26  1  0.82004100  0.17995900  0.57955700  1
  C  C27  1  0.66666700  0.33333300  0.42645600  1
  C  C28  1  0.97045200  0.48522600  0.75382800  1
  C  C29  1  0.82004100  0.64008300  0.57955700  1
  C  C30  1  0.17987100  0.35974200  0.41981200  1
  C  C31  1  0.02767000  0.51383500  0.24695700  1
  C  C32  1  0.17987100  0.82012900  0.41981200  1
  C  C33  1  0.33333300  0.66666700  0.57394600  1
  C  C34  1  0.33333300  0.66666700  0.09275900  1
  C  C35  1  0.48616500  0.51383500  0.24695700  1
  C  C36  1  0.64025800  0.82012900  0.41981200  1
  C  C37  1  0.48616500  0.97233000  0.24695700  1
  C  C38  1  0.84113000  0.68225900  0.08784300  1
  C  C39  1  0.00000000  0.00000000  0.23798400  1
  C  C40  1  0.84113000  0.15887000  0.08784300  1
  C  C41  1  0.31774100  0.15887000  0.08784300  1
