# generated using pymatgen
data_CuNiC8
_symmetry_space_group_name_H-M   'P 1'
_cell_length_a   8.52761042
_cell_length_b   8.53205114
_cell_length_c   8.52873603
_cell_angle_alpha   90.00000000
_cell_angle_beta   90.00000000
_cell_angle_gamma   90.00000000
_symmetry_Int_Tables_number   1
_chemical_formula_structural   CuNiC8
_chemical_formula_sum   'Cu4 Ni4 C32'
_cell_volume   620.53384605
_cell_formula_units_Z   4
loop_
 _symmetry_equiv_pos_site_id
 _symmetry_equiv_pos_as_xyz
  1  'x, y, z'
loop_
 _atom_site_type_symbol
 _atom_site_label
 _atom_site_symmetry_multiplicity
 _atom_site_fract_x
 _atom_site_fract_y
 _atom_site_fract_z
 _atom_site_occupancy
  C  C0  1  -0.00000000  -0.00000000  -0.00000000  1
  C  C1  1  0.50000000  0.50000000  0.50000000  1
  C  C2  1  0.50000000  -0.00000000  0.50000000  1
  C  C3  1  -0.00000000  -0.00000000  0.50000000  1
  Ni  Ni4  1  -0.00000000  0.50000000  0.50000000  1
  Ni  Ni5  1  0.50000000  0.50000000  -0.00000000  1
  Ni  Ni6  1  0.50000000  -0.00000000  -0.00000000  1
  Ni  Ni7  1  0.00000000  0.50000000  -0.00000000  1
  Cu  Cu8  1  0.74976707  0.74834914  0.75163213  1
  Cu  Cu9  1  0.25023293  0.25165086  0.75163213  1
  Cu  Cu10  1  0.25023293  0.74834914  0.24836787  1
  Cu  Cu11  1  0.74976707  0.25165086  0.24836787  1
  C  C12  1  0.24892967  0.25418643  0.24689626  1
  C  C13  1  0.75107033  0.74581357  0.24689626  1
  C  C14  1  0.75107033  0.25418643  0.75310374  1
  C  C15  1  0.24892967  0.74581357  0.75310374  1
  C  C16  1  0.01590226  0.22446767  0.26981659  1
  C  C17  1  0.98409774  0.77553233  0.26981659  1
  C  C18  1  0.98409774  0.22446767  0.73018341  1
  C  C19  1  0.01590226  0.77553233  0.73018341  1
  C  C20  1  0.27975502  0.01999237  0.21576275  1
  C  C21  1  0.27975502  0.98000763  0.78423725  1
  C  C22  1  0.72024498  0.98000763  0.21576275  1
  C  C23  1  0.72024498  0.01999237  0.78423725  1
  C  C24  1  0.21831743  0.28667994  0.01535148  1
  C  C25  1  0.78168257  0.28667994  0.98464852  1
  C  C26  1  0.21831743  0.71332006  0.98464852  1
  C  C27  1  0.78168257  0.71332006  0.01535148  1
  C  C28  1  0.48194012  0.28513632  0.21737771  1
  C  C29  1  0.51805988  0.71486368  0.21737771  1
  C  C30  1  0.51805988  0.28513632  0.78262229  1
  C  C31  1  0.48194012  0.71486368  0.78262229  1
  C  C32  1  0.21832404  0.48552335  0.28231435  1
  C  C33  1  0.21832404  0.51447665  0.71768565  1
  C  C34  1  0.78167596  0.51447665  0.28231435  1
  C  C35  1  0.78167596  0.48552335  0.71768565  1
  C  C36  1  0.27411599  0.22841065  0.48136452  1
  C  C37  1  0.72588401  0.22841065  0.51863548  1
  C  C38  1  0.27411599  0.77158935  0.51863548  1
  C  C39  1  0.72588401  0.77158935  0.48136452  1
