# generated using pymatgen
data_Cu3NiC11
_symmetry_space_group_name_H-M   'P 1'
_cell_length_a   6.09929265
_cell_length_b   6.11745046
_cell_length_c   10.52737442
_cell_angle_alpha   106.51236010
_cell_angle_beta   90.15821061
_cell_angle_gamma   119.89890737
_symmetry_Int_Tables_number   1
_chemical_formula_structural   Cu3NiC11
_chemical_formula_sum   'Cu6 Ni2 C22'
_cell_volume   321.50856505
_cell_formula_units_Z   2
loop_
 _symmetry_equiv_pos_site_id
 _symmetry_equiv_pos_as_xyz
  1  'x, y, z'
loop_
 _atom_site_type_symbol
 _atom_site_label
 _atom_site_symmetry_multiplicity
 _atom_site_fract_x
 _atom_site_fract_y
 _atom_site_fract_z
 _atom_site_occupancy
  C  C0  1  0.25193500  0.50462500  0.25636500  1
  C  C1  1  0.74485600  0.49734500  0.74376800  1
  C  C2  1  0.50103700  0.50534300  0.50092000  1
  C  C3  1  0.99601500  0.49573600  0.99906500  1
  C  C4  1  0.99286700  0.50053700  0.50146200  1
  C  C5  1  0.50600100  0.50112900  0.00077100  1
  Ni  Ni6  1  0.49274800  0.00549900  0.50439600  1
  Ni  Ni7  1  0.00498200  0.99528300  0.99619100  1
  Cu  Cu8  1  0.50552000  0.00025200  0.99957600  1
  Cu  Cu9  1  0.98888500  0.99443200  0.49302200  1
  Cu  Cu10  1  0.75610300  0.99825900  0.25438900  1
  Cu  Cu11  1  0.24730900  0.99798400  0.75256000  1
  Cu  Cu12  1  0.25482400  0.00435600  0.24976300  1
  Cu  Cu13  1  0.75048500  0.99838400  0.74942600  1
  C  C14  1  0.39657500  0.79022200  0.13196500  1
  C  C15  1  0.87445000  0.77616800  0.63077000  1
  C  C16  1  0.62226400  0.22160000  0.87531400  1
  C  C17  1  0.12157800  0.22913100  0.36297400  1
  C  C18  1  0.89634300  0.77820500  0.12363300  1
  C  C19  1  0.39456000  0.77568600  0.62310500  1
  C  C20  1  0.10457600  0.22797500  0.88005000  1
  C  C21  1  0.61181200  0.22392300  0.37767300  1
  C  C22  1  0.15010400  0.77580100  0.37672700  1
  C  C23  1  0.64928800  0.77229300  0.88420500  1
  C  C24  1  0.61402300  0.77270800  0.37836500  1
  C  C25  1  0.13296100  0.76882700  0.88846700  1
  C  C26  1  0.84519100  0.22693800  0.61797200  1
  C  C27  1  0.35680300  0.22372600  0.11471900  1
  C  C28  1  0.36892700  0.22655300  0.61574700  1
  C  C29  1  0.86698000  0.21108300  0.11664300  1
