# generated using pymatgen
data_CuNi4C15
_symmetry_space_group_name_H-M   'P 1'
_cell_length_a   16.67475323
_cell_length_b   16.67475323
_cell_length_c   16.67475261
_cell_angle_alpha   13.92934787
_cell_angle_beta   13.92934787
_cell_angle_gamma   13.92934404
_symmetry_Int_Tables_number   1
_chemical_formula_structural   CuNi4C15
_chemical_formula_sum   'Cu1 Ni4 C15'
_cell_volume   233.82215226
_cell_formula_units_Z   1
loop_
 _symmetry_equiv_pos_site_id
 _symmetry_equiv_pos_as_xyz
  1  'x, y, z'
loop_
 _atom_site_type_symbol
 _atom_site_label
 _atom_site_symmetry_multiplicity
 _atom_site_fract_x
 _atom_site_fract_y
 _atom_site_fract_z
 _atom_site_occupancy
  Ni  Ni0  1  0.59973600  0.59973600  0.59973600  1
  Ni  Ni1  1  0.19995200  0.19995200  0.19995200  1
  Ni  Ni2  1  0.80004800  0.80004800  0.80004800  1
  Ni  Ni3  1  0.40026400  0.40026400  0.40026400  1
  Cu  Cu4  1  0.00000000  0.00000000  0.00000000  1
  C  C5  1  0.69992400  0.69992400  0.69992400  1
  C  C6  1  0.50000000  0.50000000  0.50000000  1
  C  C7  1  0.10012600  0.10012600  0.10012600  1
  C  C8  1  0.30007600  0.30007600  0.30007600  1
  C  C9  1  0.89987400  0.89987400  0.89987400  1
  C  C10  1  0.04963400  0.04963400  0.04963400  1
  C  C11  1  0.84996300  0.84996300  0.84996300  1
  C  C12  1  0.44999000  0.44999000  0.44999000  1
  C  C13  1  0.65004100  0.65004100  0.65004100  1
  C  C14  1  0.24999900  0.24999900  0.24999900  1
  C  C15  1  0.34995900  0.34995900  0.34995900  1
  C  C16  1  0.15003700  0.15003700  0.15003700  1
  C  C17  1  0.75000100  0.75000100  0.75000100  1
  C  C18  1  0.95036600  0.95036600  0.95036600  1
  C  C19  1  0.55001000  0.55001000  0.55001000  1
