# generated using pymatgen
data_Cu(NiC4)3
_symmetry_space_group_name_H-M   'P 1'
_cell_length_a   9.36296564
_cell_length_b   9.36296564
_cell_length_c   17.64879800
_cell_angle_alpha   90.00000000
_cell_angle_beta   90.00000000
_cell_angle_gamma   119.99999749
_symmetry_Int_Tables_number   1
_chemical_formula_structural   Cu(NiC4)3
_chemical_formula_sum   'Cu6 Ni18 C72'
_cell_volume   1339.90076397
_cell_formula_units_Z   6
loop_
 _symmetry_equiv_pos_site_id
 _symmetry_equiv_pos_as_xyz
  1  'x, y, z'
loop_
 _atom_site_type_symbol
 _atom_site_label
 _atom_site_symmetry_multiplicity
 _atom_site_fract_x
 _atom_site_fract_y
 _atom_site_fract_z
 _atom_site_occupancy
  Ni  Ni0  1  0.66666700  0.33333300  0.05857500  1
  Ni  Ni1  1  0.33333300  0.66666700  0.55857500  1
  Ni  Ni2  1  0.66666700  0.33333300  0.55857500  1
  Ni  Ni3  1  0.33333300  0.66666700  0.05857500  1
  Ni  Ni4  1  0.34760600  0.00000000  0.40699600  1
  Ni  Ni5  1  0.34760600  0.34760600  0.90699600  1
  Ni  Ni6  1  0.00000000  0.65239400  0.90699600  1
  Ni  Ni7  1  0.00000000  0.34760600  0.40699600  1
  Ni  Ni8  1  0.65239400  0.65239400  0.40699600  1
  Ni  Ni9  1  0.65239400  0.00000000  0.90699600  1
  Ni  Ni10  1  0.31819500  0.00000000  0.65432000  1
  Ni  Ni11  1  0.31819500  0.31819500  0.15432000  1
  Ni  Ni12  1  0.00000000  0.68180500  0.15432000  1
  Ni  Ni13  1  0.00000000  0.31819500  0.65432000  1
  Ni  Ni14  1  0.68180500  0.68180500  0.65432000  1
  Ni  Ni15  1  0.68180500  0.00000000  0.15432000  1
  Ni  Ni16  1  0.00000000  0.00000000  0.49703200  1
  Ni  Ni17  1  0.00000000  0.00000000  0.99703200  1
  Cu  Cu18  1  0.00000000  0.00000000  0.78410400  1
  Cu  Cu19  1  0.00000000  0.00000000  0.28410400  1
  Cu  Cu20  1  0.33333300  0.66666700  0.27729600  1
  Cu  Cu21  1  0.66666700  0.33333300  0.77729600  1
  Cu  Cu22  1  0.33333300  0.66666700  0.77729600  1
  Cu  Cu23  1  0.66666700  0.33333300  0.27729600  1
  C  C24  1  0.66090400  0.00000000  0.70762300  1
  C  C25  1  0.66090400  0.66090400  0.20762300  1
  C  C26  1  0.00000000  0.33909600  0.20762300  1
  C  C27  1  0.00000000  0.66090400  0.70762300  1
  C  C28  1  0.33909600  0.33909600  0.70762300  1
  C  C29  1  0.33909600  0.00000000  0.20762300  1
  C  C30  1  0.67246600  0.00000000  0.34821500  1
  C  C31  1  0.67246600  0.67246600  0.84821500  1
  C  C32  1  0.00000000  0.32753400  0.84821500  1
  C  C33  1  0.00000000  0.67246600  0.34821500  1
  C  C34  1  0.32753400  0.32753400  0.34821500  1
  C  C35  1  0.32753400  0.00000000  0.84821500  1
  C  C36  1  0.66736400  0.00000000  0.52942600  1
  C  C37  1  0.66736400  0.66736400  0.02942600  1
  C  C38  1  0.00000000  0.33263600  0.02942600  1
  C  C39  1  0.00000000  0.66736400  0.52942600  1
  C  C40  1  0.33263600  0.33263600  0.52942600  1
  C  C41  1  0.33263600  0.00000000  0.02942600  1
  C  C42  1  0.67272400  0.52394300  0.84406500  1
  C  C43  1  0.47605700  0.14878100  0.84406500  1
  C  C44  1  0.85121900  0.32727600  0.84406500  1
  C  C45  1  0.14878100  0.67272400  0.34406500  1
  C  C46  1  0.32727600  0.47605700  0.34406500  1
  C  C47  1  0.52394300  0.85121900  0.34406500  1
  C  C48  1  0.67272400  0.14878100  0.34406500  1
  C  C49  1  0.52394300  0.67272400  0.84406500  1
  C  C50  1  0.14878100  0.47605700  0.84406500  1
  C  C51  1  0.85121900  0.52394300  0.34406500  1
  C  C52  1  0.47605700  0.32727600  0.34406500  1
  C  C53  1  0.32727600  0.85121900  0.84406500  1
  C  C54  1  0.66726300  0.81590200  0.02984500  1
  C  C55  1  0.18409800  0.85136200  0.02984500  1
  C  C56  1  0.14863800  0.33273700  0.02984500  1
  C  C57  1  0.85136200  0.66726300  0.52984500  1
  C  C58  1  0.33273700  0.18409800  0.52984500  1
  C  C59  1  0.81590200  0.14863800  0.52984500  1
  C  C60  1  0.66726300  0.85136200  0.52984500  1
  C  C61  1  0.81590200  0.66726300  0.02984500  1
  C  C62  1  0.85136200  0.18409800  0.02984500  1
  C  C63  1  0.14863800  0.81590200  0.52984500  1
  C  C64  1  0.18409800  0.33273700  0.52984500  1
  C  C65  1  0.33273700  0.14863800  0.02984500  1
  C  C66  1  0.82021200  0.00000000  0.35797800  1
  C  C67  1  0.82021200  0.82021200  0.85797800  1
  C  C68  1  0.00000000  0.17978800  0.85797800  1
  C  C69  1  0.00000000  0.82021200  0.35797800  1
  C  C70  1  0.17978800  0.17978800  0.35797800  1
  C  C71  1  0.17978800  0.00000000  0.85797800  1
  C  C72  1  0.80944500  0.00000000  0.71650000  1
  C  C73  1  0.80944500  0.80944500  0.21650000  1
  C  C74  1  0.00000000  0.19055500  0.21650000  1
  C  C75  1  0.00000000  0.80944500  0.71650000  1
  C  C76  1  0.19055500  0.19055500  0.71650000  1
  C  C77  1  0.19055500  0.00000000  0.21650000  1
  C  C78  1  0.51873800  0.00000000  0.52931900  1
  C  C79  1  0.51873800  0.51873800  0.02931900  1
  C  C80  1  0.00000000  0.48126200  0.02931900  1
  C  C81  1  0.00000000  0.51873800  0.52931900  1
  C  C82  1  0.48126200  0.48126200  0.52931900  1
  C  C83  1  0.48126200  0.00000000  0.02931900  1
  C  C84  1  0.48732000  0.14909300  0.20210600  1
  C  C85  1  0.85090700  0.33822700  0.20210600  1
  C  C86  1  0.66177300  0.51268000  0.20210600  1
  C  C87  1  0.33822700  0.48732000  0.70210600  1
  C  C88  1  0.51268000  0.85090700  0.70210600  1
  C  C89  1  0.14909300  0.66177300  0.70210600  1
  C  C90  1  0.48732000  0.33822700  0.70210600  1
  C  C91  1  0.14909300  0.48732000  0.20210600  1
  C  C92  1  0.33822700  0.85090700  0.20210600  1
  C  C93  1  0.66177300  0.14909300  0.70210600  1
  C  C94  1  0.85090700  0.51268000  0.70210600  1
  C  C95  1  0.51268000  0.66177300  0.20210600  1
