# generated using pymatgen
data_Cu8Ni4C3
_symmetry_space_group_name_H-M   'P 1'
_cell_length_a   3.76090600
_cell_length_b   7.12387809
_cell_length_c   9.43218206
_cell_angle_alpha   107.97624251
_cell_angle_beta   101.02787181
_cell_angle_gamma   95.18391720
_symmetry_Int_Tables_number   1
_chemical_formula_structural   Cu8Ni4C3
_chemical_formula_sum   'Cu8 Ni4 C3'
_cell_volume   232.89454960
_cell_formula_units_Z   1
loop_
 _symmetry_equiv_pos_site_id
 _symmetry_equiv_pos_as_xyz
  1  'x, y, z'
loop_
 _atom_site_type_symbol
 _atom_site_label
 _atom_site_symmetry_multiplicity
 _atom_site_fract_x
 _atom_site_fract_y
 _atom_site_fract_z
 _atom_site_occupancy
  C  C0  1  0.42271700  0.81883700  0.17930200  1
  C  C1  1  0.57728300  0.18116300  0.82069800  1
  C  C2  1  0.50000000  0.50000000  0.50000000  1
  Ni  Ni3  1  0.38429000  0.23215000  0.32865600  1
  Ni  Ni4  1  0.61571000  0.76785000  0.67134400  1
  Ni  Ni5  1  0.47258600  0.64679900  0.35008300  1
  Ni  Ni6  1  0.52741400  0.35320100  0.64991700  1
  Cu  Cu7  1  0.39328500  0.55309300  0.20256700  1
  Cu  Cu8  1  0.60671500  0.44690700  0.79743300  1
  Cu  Cu9  1  0.43549500  0.89867600  0.64728200  1
  Cu  Cu10  1  0.56450500  0.10132400  0.35271800  1
  Cu  Cu11  1  0.67150100  0.18450100  0.00705000  1
  Cu  Cu12  1  0.32849900  0.81549900  0.99295000  1
  Cu  Cu13  1  0.94215700  0.83295000  0.21293300  1
  Cu  Cu14  1  0.05784300  0.16705000  0.78706700  1
