# generated using pymatgen
data_Cu4Ni2C21
_symmetry_space_group_name_H-M   'P 1'
_cell_length_a   11.98039279
_cell_length_b   11.96590983
_cell_length_c   5.47528729
_cell_angle_alpha   76.93006679
_cell_angle_beta   76.63498426
_cell_angle_gamma   26.43494895
_symmetry_Int_Tables_number   1
_chemical_formula_structural   Cu4Ni2C21
_chemical_formula_sum   'Cu4 Ni2 C21'
_cell_volume   339.63425667
_cell_formula_units_Z   1
loop_
 _symmetry_equiv_pos_site_id
 _symmetry_equiv_pos_as_xyz
  1  'x, y, z'
loop_
 _atom_site_type_symbol
 _atom_site_label
 _atom_site_symmetry_multiplicity
 _atom_site_fract_x
 _atom_site_fract_y
 _atom_site_fract_z
 _atom_site_occupancy
  C  C0  1  0.66663200  0.15384200  0.84615800  1
  C  C1  1  0.15384200  0.66663200  0.33336800  1
  C  C2  1  0.33336800  0.84615800  0.15384200  1
  C  C3  1  0.84615800  0.33336800  0.66663200  1
  C  C4  1  0.50000000  0.00000000  0.00000000  1
  C  C5  1  0.00000000  0.50000000  0.50000000  1
  Ni  Ni6  1  0.24313200  0.75686800  0.75686800  1
  Ni  Ni7  1  0.75686800  0.24313200  0.24313200  1
  Cu  Cu8  1  0.57207700  0.07785700  0.42792300  1
  Cu  Cu9  1  0.07785700  0.57207700  0.92214300  1
  Cu  Cu10  1  0.42792300  0.92214300  0.57207700  1
  Cu  Cu11  1  0.92214300  0.42792300  0.07785700  1
  C  C12  1  0.81972500  0.81972500  0.18027500  1
  C  C13  1  0.30704400  0.30704400  0.69295600  1
  C  C14  1  0.81415000  0.81415000  0.68585000  1
  C  C15  1  0.31415000  0.31415000  0.18585000  1
  C  C16  1  0.69295600  0.69295600  0.30704400  1
  C  C17  1  0.18027500  0.18027500  0.81972500  1
  C  C18  1  0.68585000  0.68585000  0.81415000  1
  C  C19  1  0.18585000  0.18585000  0.31415000  1
  C  C20  1  0.21108800  0.62550300  0.78891200  1
  C  C21  1  0.62550300  0.21108800  0.37449700  1
  C  C22  1  0.78891200  0.37449700  0.21108800  1
  C  C23  1  0.37449700  0.78891200  0.62550300  1
  C  C24  1  0.00000000  0.00000000  0.50000000  1
  C  C25  1  0.50000000  0.50000000  0.00000000  1
  C  C26  1  0.00000000  0.00000000  0.00000000  1
