# generated using pymatgen
data_Cu4NiC36
_symmetry_space_group_name_H-M   'P 1'
_cell_length_a   7.64982521
_cell_length_b   7.73937013
_cell_length_c   10.81705236
_cell_angle_alpha   100.18042961
_cell_angle_beta   107.52588188
_cell_angle_gamma   89.94127287
_symmetry_Int_Tables_number   1
_chemical_formula_structural   Cu4NiC36
_chemical_formula_sum   'Cu4 Ni1 C36'
_cell_volume   600.14889298
_cell_formula_units_Z   1
loop_
 _symmetry_equiv_pos_site_id
 _symmetry_equiv_pos_as_xyz
  1  'x, y, z'
loop_
 _atom_site_type_symbol
 _atom_site_label
 _atom_site_symmetry_multiplicity
 _atom_site_fract_x
 _atom_site_fract_y
 _atom_site_fract_z
 _atom_site_occupancy
  C  C0  1  0.78882949  0.11109994  0.77187425  1
  C  C1  1  0.21117051  0.88890006  0.22812575  1
  Ni  Ni2  1  0.50000000  0.00000000  0.00000000  1
  Cu  Cu3  1  0.66004460  0.33276632  0.33822375  1
  Cu  Cu4  1  0.33995540  0.66723368  0.66177625  1
  Cu  Cu5  1  0.50000000  0.50000000  0.00000000  1
  Cu  Cu6  1  0.00000000  0.00000000  0.50000000  1
  C  C7  1  0.66219051  0.73420855  0.51874478  1
  C  C8  1  0.33780949  0.26579145  0.48125522  1
  C  C9  1  0.28977152  0.09346785  0.80919572  1
  C  C10  1  0.71022848  0.90653215  0.19080428  1
  C  C11  1  0.06981320  0.59198610  0.84204249  1
  C  C12  1  0.93018680  0.40801390  0.15795751  1
  C  C13  1  0.71549666  0.55921727  0.45655304  1
  C  C14  1  0.28450334  0.44078273  0.54344696  1
  C  C15  1  0.81229233  0.87986699  0.56540423  1
  C  C16  1  0.18770767  0.12013301  0.43459577  1
  C  C17  1  0.60781966  0.07837282  0.20437061  1
  C  C18  1  0.39218034  0.92162718  0.79562939  1
  C  C19  1  0.44394188  0.22256792  0.90604304  1
  C  C20  1  0.55605812  0.77743208  0.09395696  1
  C  C21  1  0.86112596  0.85589116  0.29829128  1
  C  C22  1  0.13887404  0.14410884  0.70170872  1
  C  C23  1  0.88211655  0.35736515  0.27078220  1
  C  C24  1  0.11788345  0.64263485  0.72921780  1
  C  C25  1  0.79046963  0.45777171  0.04217061  1
  C  C26  1  0.20953037  0.54222829  0.95782939  1
  C  C27  1  0.43030084  0.27366580  0.37557845  1
  C  C28  1  0.56969916  0.72633420  0.62442155  1
  C  C29  1  0.81152498  0.20536554  0.46447263  1
  C  C30  1  0.18847502  0.79463446  0.53552737  1
  C  C31  1  0.51419842  0.41915976  0.17636450  1
  C  C32  1  0.48580158  0.58084024  0.82363550  1
  C  C33  1  0.80702773  0.95490724  0.07873120  1
  C  C34  1  0.19297227  0.04509276  0.92126880  1
  C  C35  1  0.90731924  0.44705833  0.78504241  1
  C  C36  1  0.09268076  0.55294167  0.21495759  1
  C  C37  1  0.49375455  0.20456749  0.60131716  1
  C  C38  1  0.50624545  0.79543251  0.39868284  1
  C  C39  1  0.03990612  0.25467185  0.10344975  1
  C  C40  1  0.96009388  0.74532815  0.89655025  1
