# generated using pymatgen
data_Cu6Ni3C14
_symmetry_space_group_name_H-M   'P 1'
_cell_length_a   8.76695300
_cell_length_b   12.21354800
_cell_length_c   9.14940700
_cell_angle_alpha   90.00000000
_cell_angle_beta   90.00000000
_cell_angle_gamma   90.00000000
_symmetry_Int_Tables_number   1
_chemical_formula_structural   Cu6Ni3C14
_chemical_formula_sum   'Cu24 Ni12 C56'
_cell_volume   979.67825587
_cell_formula_units_Z   4
loop_
 _symmetry_equiv_pos_site_id
 _symmetry_equiv_pos_as_xyz
  1  'x, y, z'
loop_
 _atom_site_type_symbol
 _atom_site_label
 _atom_site_symmetry_multiplicity
 _atom_site_fract_x
 _atom_site_fract_y
 _atom_site_fract_z
 _atom_site_occupancy
  C  C0  1  0.24902000  0.75000000  0.25000000  1
  C  C1  1  0.25098000  0.25000000  0.25000000  1
  C  C2  1  0.75098000  0.25000000  0.75000000  1
  C  C3  1  0.74902000  0.75000000  0.75000000  1
  C  C4  1  0.25000000  0.50000000  0.18692400  1
  C  C5  1  0.25000000  0.00000000  0.31307600  1
  C  C6  1  0.75000000  0.50000000  0.81307600  1
  C  C7  1  0.75000000  0.00000000  0.68692400  1
  C  C8  1  0.59038600  0.72507400  0.42665400  1
  C  C9  1  0.90961400  0.27492600  0.42665400  1
  C  C10  1  0.59038600  0.77492600  0.07334600  1
  C  C11  1  0.90961400  0.22507400  0.07334600  1
  C  C12  1  0.40961400  0.27492600  0.57334600  1
  C  C13  1  0.09038600  0.72507400  0.57334600  1
  C  C14  1  0.40961400  0.22507400  0.92665400  1
  C  C15  1  0.09038600  0.77492600  0.92665400  1
  C  C16  1  0.32765600  0.57596400  0.57587000  1
  C  C17  1  0.17234400  0.42403600  0.57587000  1
  C  C18  1  0.32765600  0.92403600  0.92413000  1
  C  C19  1  0.17234400  0.07596400  0.92413000  1
  C  C20  1  0.67234400  0.42403600  0.42413000  1
  C  C21  1  0.82765600  0.57596400  0.42413000  1
  C  C22  1  0.67234400  0.07596400  0.07587000  1
  C  C23  1  0.82765600  0.92403600  0.07587000  1
  C  C24  1  0.40635400  0.62318200  0.74510400  1
  C  C25  1  0.09364600  0.37681800  0.74510400  1
  C  C26  1  0.40635400  0.87681800  0.75489600  1
  C  C27  1  0.09364600  0.12318200  0.75489600  1
  C  C28  1  0.59364600  0.37681800  0.25489600  1
  C  C29  1  0.90635400  0.62318200  0.25489600  1
  C  C30  1  0.59364600  0.12318200  0.24510400  1
  C  C31  1  0.90635400  0.87681800  0.24510400  1
  C  C32  1  0.18884000  0.44186400  0.96231000  1
  C  C33  1  0.31116000  0.55813600  0.96231000  1
  C  C34  1  0.18884000  0.05813600  0.53769000  1
  C  C35  1  0.31116000  0.94186400  0.53769000  1
  C  C36  1  0.81116000  0.55813600  0.03769000  1
  C  C37  1  0.68884000  0.44186400  0.03769000  1
  C  C38  1  0.81116000  0.94186400  0.46231000  1
  C  C39  1  0.68884000  0.05813600  0.46231000  1
  C  C40  1  0.25000000  0.50000000  0.30785700  1
  C  C41  1  0.25000000  0.00000000  0.19214300  1
  C  C42  1  0.75000000  0.50000000  0.69214300  1
  C  C43  1  0.75000000  0.00000000  0.80785700  1
  C  C44  1  0.51536700  0.78251200  0.48758600  1
  C  C45  1  0.98463300  0.21748800  0.48758600  1
  C  C46  1  0.51536700  0.71748800  0.01241400  1
  C  C47  1  0.98463300  0.28251200  0.01241400  1
  C  C48  1  0.48463300  0.21748800  0.51241400  1
  C  C49  1  0.01536700  0.78251200  0.51241400  1
  C  C50  1  0.48463300  0.28251200  0.98758600  1
  C  C51  1  0.01536700  0.71748800  0.98758600  1
  C  C52  1  0.25000000  0.50000000  0.76044900  1
  C  C53  1  0.25000000  0.00000000  0.73955100  1
  C  C54  1  0.75000000  0.50000000  0.23955100  1
  C  C55  1  0.75000000  0.00000000  0.26044900  1
  Ni  Ni56  1  0.33516500  0.57258200  0.68756100  1
  Ni  Ni57  1  0.16483500  0.42741800  0.68756100  1
  Ni  Ni58  1  0.33516500  0.92741800  0.81243900  1
  Ni  Ni59  1  0.16483500  0.07258200  0.81243900  1
  Ni  Ni60  1  0.66483500  0.42741800  0.31243900  1
  Ni  Ni61  1  0.83516500  0.57258200  0.31243900  1
  Ni  Ni62  1  0.66483500  0.07258200  0.18756100  1
  Ni  Ni63  1  0.83516500  0.92741800  0.18756100  1
  Ni  Ni64  1  0.25000000  0.50000000  0.90671700  1
  Ni  Ni65  1  0.25000000  0.00000000  0.59328300  1
  Ni  Ni66  1  0.75000000  0.50000000  0.09328300  1
  Ni  Ni67  1  0.75000000  0.00000000  0.40671700  1
  Cu  Cu68  1  0.25763800  0.59191000  0.37251500  1
  Cu  Cu69  1  0.24236200  0.40809000  0.37251500  1
  Cu  Cu70  1  0.25763800  0.90809000  0.12748500  1
  Cu  Cu71  1  0.24236200  0.09191000  0.12748500  1
  Cu  Cu72  1  0.74236200  0.40809000  0.62748500  1
  Cu  Cu73  1  0.75763800  0.59191000  0.62748500  1
  Cu  Cu74  1  0.74236200  0.09191000  0.87251500  1
  Cu  Cu75  1  0.75763800  0.90809000  0.87251500  1
  Cu  Cu76  1  0.39547300  0.81724300  0.42439900  1
  Cu  Cu77  1  0.10452700  0.18275700  0.42439900  1
  Cu  Cu78  1  0.39547300  0.68275700  0.07560100  1
  Cu  Cu79  1  0.10452700  0.31724300  0.07560100  1
  Cu  Cu80  1  0.60452700  0.18275700  0.57560100  1
  Cu  Cu81  1  0.89547300  0.81724300  0.57560100  1
  Cu  Cu82  1  0.60452700  0.31724300  0.92439900  1
  Cu  Cu83  1  0.89547300  0.68275700  0.92439900  1
  Cu  Cu84  1  0.55399800  0.80935800  0.61624000  1
  Cu  Cu85  1  0.94600200  0.19064200  0.61624000  1
  Cu  Cu86  1  0.55399800  0.69064200  0.88376000  1
  Cu  Cu87  1  0.94600200  0.30935800  0.88376000  1
  Cu  Cu88  1  0.44600200  0.19064200  0.38376000  1
  Cu  Cu89  1  0.05399800  0.80935800  0.38376000  1
  Cu  Cu90  1  0.44600200  0.30935800  0.11624000  1
  Cu  Cu91  1  0.05399800  0.69064200  0.11624000  1
