# generated using pymatgen
data_Cu15NiC5
_symmetry_space_group_name_H-M   'P 1'
_cell_length_a   4.04474600
_cell_length_b   4.04474600
_cell_length_c   19.32144400
_cell_angle_alpha   90.00000000
_cell_angle_beta   90.00000000
_cell_angle_gamma   90.00000000
_symmetry_Int_Tables_number   1
_chemical_formula_structural   Cu15NiC5
_chemical_formula_sum   'Cu15 Ni1 C5'
_cell_volume   316.09824815
_cell_formula_units_Z   1
loop_
 _symmetry_equiv_pos_site_id
 _symmetry_equiv_pos_as_xyz
  1  'x, y, z'
loop_
 _atom_site_type_symbol
 _atom_site_label
 _atom_site_symmetry_multiplicity
 _atom_site_fract_x
 _atom_site_fract_y
 _atom_site_fract_z
 _atom_site_occupancy
  C  C0  1  0.00000000  0.00000000  0.99030700  1
  C  C1  1  0.00000000  0.00000000  0.20969300  1
  C  C2  1  0.00000000  0.00000000  0.40449500  1
  C  C3  1  0.00000000  0.00000000  0.60000000  1
  C  C4  1  0.00000000  0.00000000  0.79550500  1
  Ni  Ni5  1  0.50000000  0.50000000  0.10000000  1
  Cu  Cu6  1  0.00000000  0.50000000  0.10000000  1
  Cu  Cu7  1  0.00000000  0.50000000  0.30606000  1
  Cu  Cu8  1  0.00000000  0.50000000  0.50237500  1
  Cu  Cu9  1  0.00000000  0.50000000  0.69762500  1
  Cu  Cu10  1  0.00000000  0.50000000  0.89394000  1
  Cu  Cu11  1  0.50000000  0.50000000  0.99280000  1
  Cu  Cu12  1  0.50000000  0.50000000  0.20720000  1
  Cu  Cu13  1  0.50000000  0.50000000  0.40464900  1
  Cu  Cu14  1  0.50000000  0.50000000  0.60000000  1
  Cu  Cu15  1  0.50000000  0.50000000  0.79535100  1
  Cu  Cu16  1  0.50000000  0.00000000  0.10000000  1
  Cu  Cu17  1  0.50000000  0.00000000  0.30606000  1
  Cu  Cu18  1  0.50000000  0.00000000  0.50237500  1
  Cu  Cu19  1  0.50000000  0.00000000  0.69762500  1
  Cu  Cu20  1  0.50000000  0.00000000  0.89394000  1
