# generated using pymatgen
data_Cu4Ni4C7
_symmetry_space_group_name_H-M   'P 1'
_cell_length_a   9.21484398
_cell_length_b   9.21484398
_cell_length_c   9.21484398
_cell_angle_alpha   94.18671745
_cell_angle_beta   94.18671745
_cell_angle_gamma   148.64789376
_symmetry_Int_Tables_number   1
_chemical_formula_structural   Cu4Ni4C7
_chemical_formula_sum   'Cu8 Ni8 C14'
_cell_volume   391.96983430
_cell_formula_units_Z   2
loop_
 _symmetry_equiv_pos_site_id
 _symmetry_equiv_pos_as_xyz
  1  'x, y, z'
loop_
 _atom_site_type_symbol
 _atom_site_label
 _atom_site_symmetry_multiplicity
 _atom_site_fract_x
 _atom_site_fract_y
 _atom_site_fract_z
 _atom_site_occupancy
  Ni  Ni0  1  0.13373300  0.13373300  0.26746600  1
  Ni  Ni1  1  0.86626700  0.86626700  0.73253400  1
  Ni  Ni2  1  0.86626700  0.13373300  0.00000000  1
  Ni  Ni3  1  0.13373300  0.86626700  0.00000000  1
  Ni  Ni4  1  0.50000000  0.31013500  0.81013500  1
  Ni  Ni5  1  0.50000000  0.68986500  0.18986500  1
  Ni  Ni6  1  0.68986500  0.50000000  0.18986500  1
  Ni  Ni7  1  0.31013500  0.50000000  0.81013500  1
  Cu  Cu8  1  0.39864200  0.89864200  0.79728400  1
  Cu  Cu9  1  0.10135800  0.60135800  0.20271600  1
  Cu  Cu10  1  0.10135800  0.89864200  0.50000000  1
  Cu  Cu11  1  0.39864200  0.60135800  0.50000000  1
  Cu  Cu12  1  0.60135800  0.39864200  0.50000000  1
  Cu  Cu13  1  0.89864200  0.10135800  0.50000000  1
  Cu  Cu14  1  0.89864200  0.39864200  0.79728400  1
  Cu  Cu15  1  0.60135800  0.10135800  0.20271600  1
  C  C16  1  0.50000000  0.09455000  0.59455000  1
  C  C17  1  0.50000000  0.90545000  0.40545000  1
  C  C18  1  0.90545000  0.50000000  0.40545000  1
  C  C19  1  0.09455000  0.50000000  0.59455000  1
  C  C20  1  0.75115700  0.75115700  0.00000000  1
  C  C21  1  0.24884300  0.24884300  0.00000000  1
  C  C22  1  0.29109400  0.29109400  0.58218800  1
  C  C23  1  0.70890600  0.70890600  0.41781200  1
  C  C24  1  0.70890600  0.29109400  0.00000000  1
  C  C25  1  0.29109400  0.70890600  0.00000000  1
  C  C26  1  0.00000000  0.29648300  0.29648300  1
  C  C27  1  0.00000000  0.70351700  0.70351700  1
  C  C28  1  0.70351700  0.00000000  0.70351700  1
  C  C29  1  0.29648300  0.00000000  0.29648300  1
