# generated using pymatgen
data_Cu3NiC16
_symmetry_space_group_name_H-M   'P 1'
_cell_length_a   6.30886933
_cell_length_b   6.30886933
_cell_length_c   12.15966678
_cell_angle_alpha   80.55853292
_cell_angle_beta   80.55853292
_cell_angle_gamma   103.62072538
_symmetry_Int_Tables_number   1
_chemical_formula_structural   Cu3NiC16
_chemical_formula_sum   'Cu6 Ni2 C32'
_cell_volume   453.50755814
_cell_formula_units_Z   2
loop_
 _symmetry_equiv_pos_site_id
 _symmetry_equiv_pos_as_xyz
  1  'x, y, z'
loop_
 _atom_site_type_symbol
 _atom_site_label
 _atom_site_symmetry_multiplicity
 _atom_site_fract_x
 _atom_site_fract_y
 _atom_site_fract_z
 _atom_site_occupancy
  Ni  Ni0  1  0.03214000  0.96786000  0.75000000  1
  Ni  Ni1  1  0.96786000  0.03214000  0.25000000  1
  Cu  Cu2  1  0.29696900  0.79764900  0.47552400  1
  Cu  Cu3  1  0.20235100  0.70303100  0.02447600  1
  Cu  Cu4  1  0.70303100  0.20235100  0.52447600  1
  Cu  Cu5  1  0.79764900  0.29696900  0.97552400  1
  Cu  Cu6  1  0.57419800  0.42580200  0.75000000  1
  Cu  Cu7  1  0.42580200  0.57419800  0.25000000  1
  C  C8  1  0.27032400  0.22166100  0.99958700  1
  C  C9  1  0.77833900  0.72967600  0.50041300  1
  C  C10  1  0.72967600  0.77833900  0.00041300  1
  C  C11  1  0.22166100  0.27032400  0.49958700  1
  C  C12  1  0.50498700  0.89895100  0.77375900  1
  C  C13  1  0.10104900  0.49501300  0.72624100  1
  C  C14  1  0.49501300  0.10104900  0.22624100  1
  C  C15  1  0.89895100  0.50498700  0.27375900  1
  C  C16  1  0.11101700  0.56869300  0.20473700  1
  C  C17  1  0.43130700  0.88898300  0.29526300  1
  C  C18  1  0.88898300  0.43130700  0.79526300  1
  C  C19  1  0.56869300  0.11101700  0.70473700  1
  C  C20  1  0.99105300  0.81311600  0.43226800  1
  C  C21  1  0.18688400  0.00894700  0.06773200  1
  C  C22  1  0.00894700  0.18688400  0.56773200  1
  C  C23  1  0.81311600  0.99105300  0.93226800  1
  C  C24  1  0.64340600  0.76038800  0.76091600  1
  C  C25  1  0.23961200  0.35659400  0.73908400  1
  C  C26  1  0.35659400  0.23961200  0.23908400  1
  C  C27  1  0.76038800  0.64340600  0.26091600  1
  C  C28  1  0.13287200  0.36398600  0.00362600  1
  C  C29  1  0.63601400  0.86712800  0.49637400  1
  C  C30  1  0.86712800  0.63601400  0.99637400  1
  C  C31  1  0.36398600  0.13287200  0.50362600  1
  C  C32  1  0.83675700  0.30346300  0.35089400  1
  C  C33  1  0.69653700  0.16324300  0.14910600  1
  C  C34  1  0.16324300  0.69653700  0.64910600  1
  C  C35  1  0.30346300  0.83675700  0.85089400  1
  C  C36  1  0.29228400  0.48366800  0.43184700  1
  C  C37  1  0.51633200  0.70771600  0.06815300  1
  C  C38  1  0.70771600  0.51633200  0.56815300  1
  C  C39  1  0.48366800  0.29228400  0.93184700  1
