# generated using pymatgen
data_Cu4NiC17
_symmetry_space_group_name_H-M   'P 1'
_cell_length_a   14.24338700
_cell_length_b   14.24338700
_cell_length_c   7.76650400
_cell_angle_alpha   90.00000000
_cell_angle_beta   90.00000000
_cell_angle_gamma   90.00000000
_symmetry_Int_Tables_number   1
_chemical_formula_structural   Cu4NiC17
_chemical_formula_sum   'Cu8 Ni2 C34'
_cell_volume   1575.62230125
_cell_formula_units_Z   2
loop_
 _symmetry_equiv_pos_site_id
 _symmetry_equiv_pos_as_xyz
  1  'x, y, z'
loop_
 _atom_site_type_symbol
 _atom_site_label
 _atom_site_symmetry_multiplicity
 _atom_site_fract_x
 _atom_site_fract_y
 _atom_site_fract_z
 _atom_site_occupancy
  C  C0  1  0.00000000  0.00000000  0.50000000  1
  C  C1  1  0.00000000  0.00000000  0.00000000  1
  C  C2  1  0.31766200  0.34292700  0.50000000  1
  C  C3  1  0.68233800  0.65707300  0.50000000  1
  C  C4  1  0.65707300  0.31766200  0.00000000  1
  C  C5  1  0.34292700  0.68233800  0.00000000  1
  C  C6  1  0.32230800  0.96770300  0.50000000  1
  C  C7  1  0.67769200  0.03229700  0.50000000  1
  C  C8  1  0.03229700  0.32230800  0.00000000  1
  C  C9  1  0.96770300  0.67769200  0.00000000  1
  Ni  Ni10  1  0.00000000  0.50000000  0.50000000  1
  Ni  Ni11  1  0.50000000  0.00000000  0.00000000  1
  Cu  Cu12  1  0.20112400  0.60842900  0.50000000  1
  Cu  Cu13  1  0.79887600  0.39157100  0.50000000  1
  Cu  Cu14  1  0.39157100  0.20112400  0.00000000  1
  Cu  Cu15  1  0.60842900  0.79887600  0.00000000  1
  Cu  Cu16  1  0.11478800  0.74471400  0.50000000  1
  Cu  Cu17  1  0.88521200  0.25528600  0.50000000  1
  Cu  Cu18  1  0.25528600  0.11478800  0.00000000  1
  Cu  Cu19  1  0.74471400  0.88521200  0.00000000  1
  C  C20  1  0.15024400  0.81930100  0.26252700  1
  C  C21  1  0.84975600  0.18069900  0.26252700  1
  C  C22  1  0.18069900  0.15024400  0.76252700  1
  C  C23  1  0.81930100  0.84975600  0.76252700  1
  C  C24  1  0.84975600  0.18069900  0.73747300  1
  C  C25  1  0.15024400  0.81930100  0.73747300  1
  C  C26  1  0.81930100  0.84975600  0.23747300  1
  C  C27  1  0.18069900  0.15024400  0.23747300  1
  C  C28  1  0.03277100  0.31063000  0.50000000  1
  C  C29  1  0.96722900  0.68937000  0.50000000  1
  C  C30  1  0.68937000  0.03277100  0.00000000  1
  C  C31  1  0.31063000  0.96722900  0.00000000  1
  C  C32  1  0.34989800  0.63386800  0.50000000  1
  C  C33  1  0.65010200  0.36613200  0.50000000  1
  C  C34  1  0.36613200  0.34989800  0.00000000  1
  C  C35  1  0.63386800  0.65010200  0.00000000  1
  C  C36  1  0.14733900  0.52874800  0.27191900  1
  C  C37  1  0.85266100  0.47125200  0.27191900  1
  C  C38  1  0.47125200  0.14733900  0.77191900  1
  C  C39  1  0.52874800  0.85266100  0.77191900  1
  C  C40  1  0.85266100  0.47125200  0.72808100  1
  C  C41  1  0.14733900  0.52874800  0.72808100  1
  C  C42  1  0.52874800  0.85266100  0.22808100  1
  C  C43  1  0.47125200  0.14733900  0.22808100  1
