# generated using pymatgen
data_Cu3(NiC)2
_symmetry_space_group_name_H-M   'P 1'
_cell_length_a   7.57177709
_cell_length_b   9.71063479
_cell_length_c   20.53388839
_cell_angle_alpha   90.00000000
_cell_angle_beta   90.00000000
_cell_angle_gamma   90.00000000
_symmetry_Int_Tables_number   1
_chemical_formula_structural   Cu3(NiC)2
_chemical_formula_sum   'Cu24 Ni16 C16'
_cell_volume   1509.79032525
_cell_formula_units_Z   8
loop_
 _symmetry_equiv_pos_site_id
 _symmetry_equiv_pos_as_xyz
  1  'x, y, z'
loop_
 _atom_site_type_symbol
 _atom_site_label
 _atom_site_symmetry_multiplicity
 _atom_site_fract_x
 _atom_site_fract_y
 _atom_site_fract_z
 _atom_site_occupancy
  C  C0  1  0.66251181  0.17881742  0.38886497  1
  C  C1  1  0.16251181  0.82118258  0.11113503  1
  C  C2  1  0.33748819  0.32118258  0.88886497  1
  C  C3  1  0.83748819  0.67881742  0.61113503  1
  C  C4  1  0.33748819  0.82118258  0.61113503  1
  C  C5  1  0.83748819  0.17881742  0.88886497  1
  C  C6  1  0.66251181  0.67881742  0.11113503  1
  C  C7  1  0.16251181  0.32118258  0.38886497  1
  C  C8  1  0.47418806  0.13281729  0.24288193  1
  C  C9  1  0.97418806  0.86718271  0.25711807  1
  C  C10  1  0.52581194  0.36718271  0.74288193  1
  C  C11  1  0.02581194  0.63281729  0.75711807  1
  C  C12  1  0.52581194  0.86718271  0.75711807  1
  C  C13  1  0.02581194  0.13281729  0.74288193  1
  C  C14  1  0.47418806  0.63281729  0.25711807  1
  C  C15  1  0.97418806  0.36718271  0.24288193  1
  Ni  Ni16  1  0.61617033  0.39102764  0.19874674  1
  Ni  Ni17  1  0.11617033  0.60897236  0.30125326  1
  Ni  Ni18  1  0.38382967  0.10897236  0.69874674  1
  Ni  Ni19  1  0.88382967  0.89102764  0.80125326  1
  Ni  Ni20  1  0.38382967  0.60897236  0.80125326  1
  Ni  Ni21  1  0.88382967  0.39102764  0.69874674  1
  Ni  Ni22  1  0.61617033  0.89102764  0.30125326  1
  Ni  Ni23  1  0.11617033  0.10897236  0.19874674  1
  Ni  Ni24  1  0.60545530  0.00768089  0.12128885  1
  Ni  Ni25  1  0.10545530  0.99231911  0.37871115  1
  Ni  Ni26  1  0.39454470  0.49231911  0.62128885  1
  Ni  Ni27  1  0.89454470  0.50768089  0.87871115  1
  Ni  Ni28  1  0.39454470  0.99231911  0.87871115  1
  Ni  Ni29  1  0.89454470  0.00768089  0.62128885  1
  Ni  Ni30  1  0.60545530  0.50768089  0.37871115  1
  Ni  Ni31  1  0.10545530  0.49231911  0.12128885  1
  Cu  Cu32  1  0.92908027  0.31882667  0.51205843  1
  Cu  Cu33  1  0.42908027  0.68117333  0.98794157  1
  Cu  Cu34  1  0.07091973  0.18117333  0.01205843  1
  Cu  Cu35  1  0.57091973  0.81882667  0.48794157  1
  Cu  Cu36  1  0.07091973  0.68117333  0.48794157  1
  Cu  Cu37  1  0.57091973  0.31882667  0.01205843  1
  Cu  Cu38  1  0.92908027  0.81882667  0.98794157  1
  Cu  Cu39  1  0.42908027  0.18117333  0.51205843  1
  Cu  Cu40  1  0.63603456  0.91842831  0.45888202  1
  Cu  Cu41  1  0.13603456  0.08157169  0.04111798  1
  Cu  Cu42  1  0.36396544  0.58157169  0.95888202  1
  Cu  Cu43  1  0.86396544  0.41842831  0.54111798  1
  Cu  Cu44  1  0.36396544  0.08157169  0.54111798  1
  Cu  Cu45  1  0.86396544  0.91842831  0.95888202  1
  Cu  Cu46  1  0.63603456  0.41842831  0.04111798  1
  Cu  Cu47  1  0.13603456  0.58157169  0.45888202  1
  Cu  Cu48  1  0.89111309  0.29729972  0.33852451  1
  Cu  Cu49  1  0.39111309  0.70270028  0.16147549  1
  Cu  Cu50  1  0.10888691  0.20270028  0.83852451  1
  Cu  Cu51  1  0.60888691  0.79729972  0.66147549  1
  Cu  Cu52  1  0.10888691  0.70270028  0.66147549  1
  Cu  Cu53  1  0.60888691  0.29729972  0.83852451  1
  Cu  Cu54  1  0.89111309  0.79729972  0.16147549  1
  Cu  Cu55  1  0.39111309  0.20270028  0.33852451  1
