# generated using pymatgen
data_Cu12Ni3C4
_symmetry_space_group_name_H-M   'P 1'
_cell_length_a   10.42720000
_cell_length_b   10.56521700
_cell_length_c   10.63988500
_cell_angle_alpha   90.00000000
_cell_angle_beta   90.00000000
_cell_angle_gamma   90.00000000
_symmetry_Int_Tables_number   1
_chemical_formula_structural   Cu12Ni3C4
_chemical_formula_sum   'Cu48 Ni12 C16'
_cell_volume   1172.14964163
_cell_formula_units_Z   4
loop_
 _symmetry_equiv_pos_site_id
 _symmetry_equiv_pos_as_xyz
  1  'x, y, z'
loop_
 _atom_site_type_symbol
 _atom_site_label
 _atom_site_symmetry_multiplicity
 _atom_site_fract_x
 _atom_site_fract_y
 _atom_site_fract_z
 _atom_site_occupancy
  C  C0  1  0.30923100  0.67139900  0.18457900  1
  C  C1  1  0.19076900  0.32860100  0.68457900  1
  C  C2  1  0.44020100  0.97228700  0.56438700  1
  C  C3  1  0.69076900  0.17139900  0.31542100  1
  C  C4  1  0.05979900  0.02771300  0.06438700  1
  C  C5  1  0.55979900  0.47228700  0.93561300  1
  C  C6  1  0.94020100  0.52771300  0.43561300  1
  C  C7  1  0.80923100  0.82860100  0.81542100  1
  C  C8  1  0.33139200  0.30914600  0.34232500  1
  C  C9  1  0.83139200  0.19085400  0.65767500  1
  C  C10  1  0.66860800  0.80914600  0.15767500  1
  C  C11  1  0.16860800  0.69085400  0.84232500  1
  C  C12  1  0.57705800  0.60579300  0.59215300  1
  C  C13  1  0.42294200  0.10579300  0.90784700  1
  C  C14  1  0.92294200  0.39420700  0.09215300  1
  C  C15  1  0.07705800  0.89420700  0.40784700  1
  Ni  Ni16  1  0.13219100  0.00128100  0.71812400  1
  Ni  Ni17  1  0.63219100  0.49871900  0.28187600  1
  Ni  Ni18  1  0.86780900  0.50128100  0.78187600  1
  Ni  Ni19  1  0.36780900  0.99871900  0.21812400  1
  Ni  Ni20  1  0.25152300  0.61074600  0.50801900  1
  Ni  Ni21  1  0.75152300  0.88925400  0.49198100  1
  Ni  Ni22  1  0.74847700  0.11074600  0.99198100  1
  Ni  Ni23  1  0.24847700  0.38925400  0.00801900  1
  Ni  Ni24  1  0.47780400  0.78787600  0.87193600  1
  Ni  Ni25  1  0.02219600  0.21212400  0.37193600  1
  Ni  Ni26  1  0.52219600  0.28787600  0.62806400  1
  Ni  Ni27  1  0.97780400  0.71212400  0.12806400  1
  Cu  Cu28  1  0.08135400  0.89941600  0.80193900  1
  Cu  Cu29  1  0.58135400  0.60058400  0.19806100  1
  Cu  Cu30  1  0.91864600  0.39941600  0.69806100  1
  Cu  Cu31  1  0.41864600  0.10058400  0.30193900  1
  Cu  Cu32  1  0.24109100  0.06771500  0.78058600  1
  Cu  Cu33  1  0.74109100  0.43228500  0.21941400  1
  Cu  Cu34  1  0.75890900  0.56771500  0.71941400  1
  Cu  Cu35  1  0.25890900  0.93228500  0.28058600  1
  Cu  Cu36  1  0.02970600  0.09499100  0.69175700  1
  Cu  Cu37  1  0.52970600  0.40500900  0.30824300  1
  Cu  Cu38  1  0.97029400  0.59499100  0.80824300  1
  Cu  Cu39  1  0.47029400  0.90500900  0.19175700  1
  Cu  Cu40  1  0.17916800  0.94347500  0.59863900  1
  Cu  Cu41  1  0.67916800  0.55652500  0.40136100  1
  Cu  Cu42  1  0.82083200  0.44347500  0.90136100  1
  Cu  Cu43  1  0.32083200  0.05652500  0.09863900  1
  Cu  Cu44  1  0.38342700  0.66173200  0.49097200  1
  Cu  Cu45  1  0.88342700  0.83826800  0.50902800  1
  Cu  Cu46  1  0.15945300  0.69073400  0.43570800  1
  Cu  Cu47  1  0.61657300  0.16173200  0.00902800  1
  Cu  Cu48  1  0.24317800  0.47928700  0.45685100  1
  Cu  Cu49  1  0.74317800  0.02071300  0.54314900  1
  Cu  Cu50  1  0.75682200  0.97928700  0.04314900  1
  Cu  Cu51  1  0.25682200  0.52071300  0.95685100  1
  Cu  Cu52  1  0.21410600  0.60716300  0.64275800  1
  Cu  Cu53  1  0.71410600  0.89283700  0.35724200  1
  Cu  Cu54  1  0.78589400  0.10716300  0.85724200  1
  Cu  Cu55  1  0.28589400  0.39283700  0.14275800  1
  Cu  Cu56  1  0.02477700  0.30395200  0.26612100  1
  Cu  Cu57  1  0.52477700  0.19604800  0.73387900  1
  Cu  Cu58  1  0.97522300  0.80395200  0.23387900  1
  Cu  Cu59  1  0.47522300  0.69604800  0.76612100  1
  Cu  Cu60  1  0.98957000  0.08305900  0.32450300  1
  Cu  Cu61  1  0.48957000  0.41694100  0.67549700  1
  Cu  Cu62  1  0.01043000  0.58305900  0.17549700  1
  Cu  Cu63  1  0.51043000  0.91694100  0.82450300  1
  Cu  Cu64  1  0.92255900  0.25401800  0.46346800  1
  Cu  Cu65  1  0.42255900  0.24598200  0.53653200  1
  Cu  Cu66  1  0.07744100  0.75401800  0.03653200  1
  Cu  Cu67  1  0.57744100  0.74598200  0.96346800  1
  Cu  Cu68  1  0.15086500  0.20926900  0.43270800  1
  Cu  Cu69  1  0.65086500  0.29073100  0.56729200  1
  Cu  Cu70  1  0.84913500  0.70926900  0.06729200  1
  Cu  Cu71  1  0.34913500  0.79073100  0.93270800  1
  Cu  Cu72  1  0.34054700  0.30926600  0.93570800  1
  Cu  Cu73  1  0.84054700  0.19073400  0.06429200  1
  Cu  Cu74  1  0.65945300  0.80926600  0.56429200  1
  Cu  Cu75  1  0.11657300  0.33826800  0.99097200  1
