# generated using pymatgen
data_CuNi13C6
_symmetry_space_group_name_H-M   'P 1'
_cell_length_a   8.04545200
_cell_length_b   8.04545200
_cell_length_c   12.90115159
_cell_angle_alpha   108.16843185
_cell_angle_beta   108.16843185
_cell_angle_gamma   90.00000000
_symmetry_Int_Tables_number   1
_chemical_formula_structural   CuNi13C6
_chemical_formula_sum   'Cu2 Ni26 C12'
_cell_volume   749.50558909
_cell_formula_units_Z   2
loop_
 _symmetry_equiv_pos_site_id
 _symmetry_equiv_pos_as_xyz
  1  'x, y, z'
loop_
 _atom_site_type_symbol
 _atom_site_label
 _atom_site_symmetry_multiplicity
 _atom_site_fract_x
 _atom_site_fract_y
 _atom_site_fract_z
 _atom_site_occupancy
  C  C0  1  0.60525300  0.60525300  0.21050600  1
  C  C1  1  0.10525300  0.10525300  0.21050600  1
  C  C2  1  0.39474700  0.39474700  0.78949400  1
  C  C3  1  0.89474700  0.89474700  0.78949400  1
  C  C4  1  0.97764500  0.47764500  0.62901000  1
  C  C5  1  0.65136500  0.15136500  0.62901000  1
  C  C6  1  0.15136500  0.97764500  0.62901000  1
  C  C7  1  0.47764500  0.65136500  0.62901000  1
  C  C8  1  0.02235500  0.52235500  0.37099000  1
  C  C9  1  0.34863500  0.84863500  0.37099000  1
  C  C10  1  0.84863500  0.02235500  0.37099000  1
  C  C11  1  0.52235500  0.34863500  0.37099000  1
  Ni  Ni12  1  0.00000000  0.50000000  0.00000000  1
  Ni  Ni13  1  0.50000000  0.00000000  0.00000000  1
  Ni  Ni14  1  0.70939700  0.56580200  0.00000000  1
  Ni  Ni15  1  0.29060300  0.43419800  0.00000000  1
  Ni  Ni16  1  0.79060300  0.06580200  0.00000000  1
  Ni  Ni17  1  0.20939700  0.93419800  0.00000000  1
  Ni  Ni18  1  0.56580200  0.29060300  0.00000000  1
  Ni  Ni19  1  0.43419800  0.70939700  0.00000000  1
  Ni  Ni20  1  0.06580200  0.20939700  0.00000000  1
  Ni  Ni21  1  0.93419800  0.79060300  0.00000000  1
  Ni  Ni22  1  0.11942300  0.61942300  0.88069400  1
  Ni  Ni23  1  0.76127100  0.26127100  0.88069400  1
  Ni  Ni24  1  0.26127100  0.11942300  0.88069400  1
  Ni  Ni25  1  0.61942300  0.76127100  0.88069400  1
  Ni  Ni26  1  0.88057700  0.38057700  0.11930600  1
  Ni  Ni27  1  0.23872900  0.73872900  0.11930600  1
  Ni  Ni28  1  0.73872900  0.88057700  0.11930600  1
  Ni  Ni29  1  0.38057700  0.23872900  0.11930600  1
  Ni  Ni30  1  0.29157500  0.79157500  0.81036100  1
  Ni  Ni31  1  0.51878600  0.01878600  0.81036100  1
  Ni  Ni32  1  0.01878600  0.29157500  0.81036100  1
  Ni  Ni33  1  0.79157500  0.51878600  0.81036100  1
  Ni  Ni34  1  0.70842500  0.20842500  0.18963900  1
  Ni  Ni35  1  0.48121400  0.98121400  0.18963900  1
  Ni  Ni36  1  0.98121400  0.70842500  0.18963900  1
  Ni  Ni37  1  0.20842500  0.48121400  0.18963900  1
  Cu  Cu38  1  0.25000000  0.25000000  0.50000000  1
  Cu  Cu39  1  0.75000000  0.75000000  0.50000000  1
