# generated using pymatgen
data_Cu2NiC11
_symmetry_space_group_name_H-M   'P 1'
_cell_length_a   5.58190700
_cell_length_b   7.42154700
_cell_length_c   10.51590500
_cell_angle_alpha   90.00000000
_cell_angle_beta   90.00000000
_cell_angle_gamma   90.00000000
_symmetry_Int_Tables_number   1
_chemical_formula_structural   Cu2NiC11
_chemical_formula_sum   'Cu4 Ni2 C22'
_cell_volume   435.63593073
_cell_formula_units_Z   2
loop_
 _symmetry_equiv_pos_site_id
 _symmetry_equiv_pos_as_xyz
  1  'x, y, z'
loop_
 _atom_site_type_symbol
 _atom_site_label
 _atom_site_symmetry_multiplicity
 _atom_site_fract_x
 _atom_site_fract_y
 _atom_site_fract_z
 _atom_site_occupancy
  C  C0  1  0.50000000  0.89128800  0.15585300  1
  C  C1  1  0.00000000  0.39128800  0.84414700  1
  C  C2  1  0.50000000  0.07133900  0.52255600  1
  C  C3  1  0.00000000  0.57133900  0.47744400  1
  Ni  Ni4  1  0.50000000  0.63555600  0.67979000  1
  Ni  Ni5  1  0.00000000  0.13555600  0.32021000  1
  Cu  Cu6  1  0.50000000  0.26508900  0.00007500  1
  Cu  Cu7  1  0.00000000  0.76508900  0.99992500  1
  Cu  Cu8  1  0.00000000  0.00675000  0.71888800  1
  Cu  Cu9  1  0.50000000  0.50675000  0.28111200  1
  C  C10  1  0.50000000  0.74350600  0.53395600  1
  C  C11  1  0.00000000  0.24350600  0.46604400  1
  C  C12  1  0.25761800  0.49015500  0.65767100  1
  C  C13  1  0.74238200  0.49015500  0.65767100  1
  C  C14  1  0.24238200  0.99015500  0.34232900  1
  C  C15  1  0.75761800  0.99015500  0.34232900  1
  C  C16  1  0.50000000  0.37318300  0.90682900  1
  C  C17  1  0.00000000  0.87318300  0.09317100  1
  C  C18  1  0.30288800  0.20987000  0.04606600  1
  C  C19  1  0.69711200  0.20987000  0.04606600  1
  C  C20  1  0.19711200  0.70987000  0.95393400  1
  C  C21  1  0.80288800  0.70987000  0.95393400  1
  C  C22  1  0.50000000  0.36914900  0.34978300  1
  C  C23  1  0.00000000  0.86914900  0.65021700  1
  C  C24  1  0.19693900  0.07907000  0.75356400  1
  C  C25  1  0.80306100  0.07907000  0.75356400  1
  C  C26  1  0.30306100  0.57907000  0.24643600  1
  C  C27  1  0.69693900  0.57907000  0.24643600  1
