# generated using pymatgen
data_Cu4Ni2C
_symmetry_space_group_name_H-M   'P 1'
_cell_length_a   18.42231637
_cell_length_b   18.42231637
_cell_length_c   18.42231637
_cell_angle_alpha   163.13371695
_cell_angle_beta   163.00515557
_cell_angle_gamma   24.03236607
_symmetry_Int_Tables_number   1
_chemical_formula_structural   Cu4Ni2C
_chemical_formula_sum   'Cu12 Ni6 C3'
_cell_volume   530.07811857
_cell_formula_units_Z   3
loop_
 _symmetry_equiv_pos_site_id
 _symmetry_equiv_pos_as_xyz
  1  'x, y, z'
loop_
 _atom_site_type_symbol
 _atom_site_label
 _atom_site_symmetry_multiplicity
 _atom_site_fract_x
 _atom_site_fract_y
 _atom_site_fract_z
 _atom_site_occupancy
  C  C0  1  0.00000000  0.00000000  0.00000000  1
  C  C1  1  0.32145700  0.82145700  0.50000000  1
  C  C2  1  0.67854300  0.17854300  0.50000000  1
  Ni  Ni3  1  0.94166000  0.94166000  0.00000000  1
  Ni  Ni4  1  0.05834000  0.05834000  0.00000000  1
  Ni  Ni5  1  0.26292800  0.76292800  0.50000000  1
  Ni  Ni6  1  0.73707200  0.23707200  0.50000000  1
  Ni  Ni7  1  0.38059900  0.88059900  0.50000000  1
  Ni  Ni8  1  0.61940100  0.11940100  0.50000000  1
  Cu  Cu9  1  0.21391900  0.21497300  0.42889100  1
  Cu  Cu10  1  0.78608100  0.21497300  0.00105400  1
  Cu  Cu11  1  0.21391900  0.78502700  0.99894600  1
  Cu  Cu12  1  0.78608100  0.78502700  0.57110900  1
  Cu  Cu13  1  0.53564900  0.03674900  0.92830200  1
  Cu  Cu14  1  0.46435100  0.39265300  0.50110000  1
  Cu  Cu15  1  0.89155300  0.96325100  0.49890000  1
  Cu  Cu16  1  0.10844700  0.60734700  0.07169800  1
  Cu  Cu17  1  0.46435100  0.96325100  0.07169800  1
  Cu  Cu18  1  0.53564900  0.60734700  0.49890000  1
  Cu  Cu19  1  0.10844700  0.03674900  0.50110000  1
  Cu  Cu20  1  0.89155300  0.39265300  0.92830200  1
