# generated using pymatgen
data_Cu21Ni8C5
_symmetry_space_group_name_H-M   'P 1'
_cell_length_a   10.69376827
_cell_length_b   12.33408357
_cell_length_c   16.01001513
_cell_angle_alpha   90.00000000
_cell_angle_beta   93.67102207
_cell_angle_gamma   90.00000000
_symmetry_Int_Tables_number   1
_chemical_formula_structural   Cu21Ni8C5
_chemical_formula_sum   'Cu84 Ni32 C20'
_cell_volume   2107.35337010
_cell_formula_units_Z   4
loop_
 _symmetry_equiv_pos_site_id
 _symmetry_equiv_pos_as_xyz
  1  'x, y, z'
loop_
 _atom_site_type_symbol
 _atom_site_label
 _atom_site_symmetry_multiplicity
 _atom_site_fract_x
 _atom_site_fract_y
 _atom_site_fract_z
 _atom_site_occupancy
  C  C0  1  0.11279928  0.84962674  0.25624388  1
  C  C1  1  0.88720072  0.15037326  0.74375612  1
  C  C2  1  0.88720072  0.34962674  0.24375612  1
  C  C3  1  0.11279928  0.65037326  0.75624388  1
  C  C4  1  0.60784290  0.34269331  0.08463334  1
  C  C5  1  0.39215710  0.65730669  0.91536666  1
  C  C6  1  0.39215710  0.84269331  0.41536666  1
  C  C7  1  0.60784290  0.15730669  0.58463334  1
  C  C8  1  0.01875868  0.76264417  0.01217401  1
  C  C9  1  0.98124132  0.23735583  0.98782599  1
  C  C10  1  0.98124132  0.26264417  0.48782599  1
  C  C11  1  0.01875868  0.73735583  0.51217401  1
  C  C12  1  0.48176590  0.05720622  0.19632767  1
  C  C13  1  0.51823410  0.94279378  0.80367233  1
  C  C14  1  0.51823410  0.55720622  0.30367233  1
  C  C15  1  0.48176590  0.44279378  0.69632767  1
  C  C16  1  0.23856843  0.34729841  0.32553887  1
  C  C17  1  0.76143157  0.65270159  0.67446113  1
  C  C18  1  0.76143157  0.84729841  0.17446113  1
  C  C19  1  0.23856843  0.15270159  0.82553887  1
  Ni  Ni20  1  0.17451407  0.38436664  0.13568539  1
  Ni  Ni21  1  0.82548593  0.61563336  0.86431461  1
  Ni  Ni22  1  0.82548593  0.88436664  0.36431461  1
  Ni  Ni23  1  0.17451407  0.11563336  0.63568539  1
  Ni  Ni24  1  0.05053169  0.52435858  0.37985887  1
  Ni  Ni25  1  0.94946831  0.47564142  0.62014113  1
  Ni  Ni26  1  0.94946831  0.02435858  0.12014113  1
  Ni  Ni27  1  0.05053169  0.97564142  0.87985887  1
  Ni  Ni28  1  0.34424607  0.17487902  0.01095971  1
  Ni  Ni29  1  0.65575393  0.82512098  0.98904029  1
  Ni  Ni30  1  0.65575393  0.67487902  0.48904029  1
  Ni  Ni31  1  0.34424607  0.32512098  0.51095971  1
  Ni  Ni32  1  0.31750648  0.40756731  0.14665586  1
  Ni  Ni33  1  0.68249352  0.59243269  0.85334414  1
  Ni  Ni34  1  0.68249352  0.90756731  0.35334414  1
  Ni  Ni35  1  0.31750648  0.09243269  0.64665586  1
  Ni  Ni36  1  0.25530055  0.09846279  0.30968351  1
  Ni  Ni37  1  0.74469945  0.90153721  0.69031649  1
  Ni  Ni38  1  0.74469945  0.59846279  0.19031649  1
  Ni  Ni39  1  0.25530055  0.40153721  0.80968351  1
  Ni  Ni40  1  0.46116301  0.35848505  0.46151763  1
  Ni  Ni41  1  0.53883699  0.64151495  0.53848237  1
  Ni  Ni42  1  0.53883699  0.85848505  0.03848237  1
  Ni  Ni43  1  0.46116301  0.14151495  0.96151763  1
  Ni  Ni44  1  0.11403250  0.11982251  0.31898723  1
  Ni  Ni45  1  0.88596750  0.88017749  0.68101277  1
  Ni  Ni46  1  0.88596750  0.61982251  0.18101277  1
  Ni  Ni47  1  0.11403250  0.38017749  0.81898723  1
  Ni  Ni48  1  0.17197588  0.58935197  0.36207539  1
  Ni  Ni49  1  0.82802412  0.41064803  0.63792461  1
  Ni  Ni50  1  0.82802412  0.08935197  0.13792461  1
  Ni  Ni51  1  0.17197588  0.91064803  0.86207539  1
  Cu  Cu52  1  0.60820664  0.14182056  0.39469472  1
  Cu  Cu53  1  0.39179336  0.85817944  0.60530528  1
  Cu  Cu54  1  0.39179336  0.64182056  0.10530528  1
  Cu  Cu55  1  0.60820664  0.35817944  0.89469472  1
  Cu  Cu56  1  0.03596575  0.04632869  0.30893612  1
  Cu  Cu57  1  0.96403425  0.95367131  0.69106388  1
  Cu  Cu58  1  0.96403425  0.54632869  0.19106388  1
  Cu  Cu59  1  0.03596575  0.45367131  0.80893612  1
  Cu  Cu60  1  0.12969904  0.34640873  0.20312308  1
  Cu  Cu61  1  0.87030096  0.65359127  0.79687692  1
  Cu  Cu62  1  0.87030096  0.84640873  0.29687692  1
  Cu  Cu63  1  0.12969904  0.15359127  0.70312308  1
  Cu  Cu64  1  0.35611835  0.19152817  0.08720879  1
  Cu  Cu65  1  0.64388165  0.80847183  0.91279121  1
  Cu  Cu66  1  0.64388165  0.69152817  0.41279121  1
  Cu  Cu67  1  0.35611835  0.30847183  0.58720879  1
  Cu  Cu68  1  0.08974630  0.22049575  0.33561162  1
  Cu  Cu69  1  0.91025370  0.77950425  0.66438838  1
  Cu  Cu70  1  0.91025370  0.72049575  0.16438838  1
  Cu  Cu71  1  0.08974630  0.27950425  0.83561162  1
  Cu  Cu72  1  0.11337768  0.40027371  0.06832176  1
  Cu  Cu73  1  0.88662232  0.59972629  0.93167824  1
  Cu  Cu74  1  0.88662232  0.90027371  0.43167824  1
  Cu  Cu75  1  0.11337768  0.09972629  0.56832176  1
  Cu  Cu76  1  0.04256048  0.06999430  0.09463215  1
  Cu  Cu77  1  0.95743952  0.93000570  0.90536785  1
  Cu  Cu78  1  0.95743952  0.56999430  0.40536785  1
  Cu  Cu79  1  0.04256048  0.43000570  0.59463215  1
  Cu  Cu80  1  0.67369686  0.21844616  0.28035005  1
  Cu  Cu81  1  0.32630314  0.78155384  0.71964995  1
  Cu  Cu82  1  0.32630314  0.71844616  0.21964995  1
  Cu  Cu83  1  0.67369686  0.28155384  0.78035005  1
  Cu  Cu84  1  0.17794408  0.68913521  0.37354912  1
  Cu  Cu85  1  0.82205592  0.31086479  0.62645088  1
  Cu  Cu86  1  0.82205592  0.18913521  0.12645088  1
  Cu  Cu87  1  0.17794408  0.81086479  0.87354912  1
  Cu  Cu88  1  0.29670564  0.00439071  0.30341807  1
  Cu  Cu89  1  0.70329436  0.99560929  0.69658193  1
  Cu  Cu90  1  0.70329436  0.50439071  0.19658193  1
  Cu  Cu91  1  0.29670564  0.49560929  0.80341807  1
  Cu  Cu92  1  0.24357103  0.31723561  0.46247445  1
  Cu  Cu93  1  0.75642897  0.68276439  0.53752555  1
  Cu  Cu94  1  0.75642897  0.81723561  0.03752555  1
  Cu  Cu95  1  0.24357103  0.18276439  0.96247445  1
  Cu  Cu96  1  0.25506044  0.60294273  0.58828665  1
  Cu  Cu97  1  0.74493956  0.39705727  0.41171335  1
  Cu  Cu98  1  0.74493956  0.10294273  0.91171335  1
  Cu  Cu99  1  0.25506044  0.89705727  0.08828665  1
  Cu  Cu100  1  0.06062667  0.42161391  0.36441491  1
  Cu  Cu101  1  0.93937333  0.57838609  0.63558509  1
  Cu  Cu102  1  0.93937333  0.92161391  0.13558509  1
  Cu  Cu103  1  0.06062667  0.07838609  0.86441491  1
  Cu  Cu104  1  0.37756690  0.43573472  0.08655119  1
  Cu  Cu105  1  0.62243310  0.56426528  0.91344881  1
  Cu  Cu106  1  0.62243310  0.93573472  0.41344881  1
  Cu  Cu107  1  0.37756690  0.06426528  0.58655119  1
  Cu  Cu108  1  0.43588696  0.37326830  0.38317381  1
  Cu  Cu109  1  0.56411304  0.62673170  0.61682619  1
  Cu  Cu110  1  0.56411304  0.87326830  0.11682619  1
  Cu  Cu111  1  0.43588696  0.12673170  0.88317381  1
  Cu  Cu112  1  0.25874092  0.52853189  0.33500165  1
  Cu  Cu113  1  0.74125908  0.47146811  0.66499835  1
  Cu  Cu114  1  0.74125908  0.02853189  0.16499835  1
  Cu  Cu115  1  0.25874092  0.97146811  0.83500165  1
  Cu  Cu116  1  0.30500582  0.69446177  0.14029375  1
  Cu  Cu117  1  0.69499418  0.30553823  0.85970625  1
  Cu  Cu118  1  0.69499418  0.19446177  0.35970625  1
  Cu  Cu119  1  0.30500582  0.80553823  0.64029375  1
  Cu  Cu120  1  0.32180907  0.18597531  0.30622227  1
  Cu  Cu121  1  0.67819093  0.81402469  0.69377773  1
  Cu  Cu122  1  0.67819093  0.68597531  0.19377773  1
  Cu  Cu123  1  0.32180907  0.31402469  0.80622227  1
  Cu  Cu124  1  0.81861793  0.43131973  0.00593518  1
  Cu  Cu125  1  0.18138207  0.56868027  0.99406482  1
  Cu  Cu126  1  0.18138207  0.93131973  0.49406482  1
  Cu  Cu127  1  0.81861793  0.06868027  0.50593518  1
  Cu  Cu128  1  0.36279678  0.39370339  0.22295852  1
  Cu  Cu129  1  0.63720322  0.60629661  0.77704148  1
  Cu  Cu130  1  0.63720322  0.89370339  0.27704148  1
  Cu  Cu131  1  0.36279678  0.10629661  0.72295852  1
  Cu  Cu132  1  0.56594701  0.13379603  0.00054621  1
  Cu  Cu133  1  0.43405299  0.86620397  0.99945379  1
  Cu  Cu134  1  0.43405299  0.63379603  0.49945379  1
  Cu  Cu135  1  0.56594701  0.36620397  0.50054621  1
