# generated using pymatgen
data_Cu3NiC15
_symmetry_space_group_name_H-M   'P 1'
_cell_length_a   14.82701366
_cell_length_b   14.82701366
_cell_length_c   14.82701366
_cell_angle_alpha   149.86769180
_cell_angle_beta   116.07078048
_cell_angle_gamma   72.28095972
_symmetry_Int_Tables_number   1
_chemical_formula_structural   Cu3NiC15
_chemical_formula_sum   'Cu12 Ni4 C60'
_cell_volume   1448.92699039
_cell_formula_units_Z   4
loop_
 _symmetry_equiv_pos_site_id
 _symmetry_equiv_pos_as_xyz
  1  'x, y, z'
loop_
 _atom_site_type_symbol
 _atom_site_label
 _atom_site_symmetry_multiplicity
 _atom_site_fract_x
 _atom_site_fract_y
 _atom_site_fract_z
 _atom_site_occupancy
  C  C0  1  0.79470500  0.30880500  0.74939800  1
  C  C1  1  0.70529500  0.45469300  0.51410000  1
  C  C2  1  0.44059400  0.19119500  0.98590000  1
  C  C3  1  0.05940600  0.04530700  0.75060200  1
  C  C4  1  0.20529500  0.69119500  0.25060200  1
  C  C5  1  0.29470500  0.54530700  0.48590000  1
  C  C6  1  0.55940600  0.80880500  0.01410000  1
  C  C7  1  0.94059400  0.95469300  0.24939800  1
  C  C8  1  0.05884900  0.75000000  0.80884900  1
  C  C9  1  0.44115100  0.25000000  0.69115100  1
  C  C10  1  0.94115100  0.25000000  0.19115100  1
  C  C11  1  0.55884900  0.75000000  0.30884900  1
  Ni  Ni12  1  0.17002200  0.42002200  0.75000000  1
  Ni  Ni13  1  0.32997800  0.07997800  0.25000000  1
  Ni  Ni14  1  0.82997800  0.57997800  0.25000000  1
  Ni  Ni15  1  0.67002200  0.92002200  0.75000000  1
  Cu  Cu16  1  0.96844500  0.48033600  0.76187900  1
  Cu  Cu17  1  0.53155500  0.29343300  0.51189100  1
  Cu  Cu18  1  0.28154200  0.01966400  0.98810900  1
  Cu  Cu19  1  0.21845800  0.20656700  0.73812100  1
  Cu  Cu20  1  0.03155500  0.51966400  0.23812100  1
  Cu  Cu21  1  0.46844500  0.70656700  0.48810900  1
  Cu  Cu22  1  0.71845800  0.98033600  0.01189100  1
  Cu  Cu23  1  0.78154200  0.79343300  0.26187900  1
  Cu  Cu24  1  0.31339800  0.75000000  0.06339800  1
  Cu  Cu25  1  0.18660200  0.25000000  0.43660200  1
  Cu  Cu26  1  0.68660200  0.25000000  0.93660200  1
  Cu  Cu27  1  0.81339800  0.75000000  0.56339800  1
  C  C28  1  0.21837800  0.41283100  0.85264600  1
  C  C29  1  0.28162200  0.13426800  0.19445300  1
  C  C30  1  0.43981500  0.08716900  0.30554700  1
  C  C31  1  0.06018500  0.36573200  0.64735400  1
  C  C32  1  0.78162200  0.58716900  0.14735400  1
  C  C33  1  0.71837800  0.86573200  0.80554700  1
  C  C34  1  0.56018500  0.91283100  0.69445300  1
  C  C35  1  0.93981500  0.63426800  0.35264600  1
  C  C36  1  0.87669700  0.30774400  0.59509500  1
  C  C37  1  0.62330300  0.21839800  0.43104700  1
  C  C38  1  0.28735200  0.19225600  0.06895300  1
  C  C39  1  0.21264800  0.28160200  0.90490500  1
  C  C40  1  0.12330300  0.69225600  0.40490500  1
  C  C41  1  0.37669700  0.78160200  0.56895300  1
  C  C42  1  0.71264800  0.80774400  0.93104700  1
  C  C43  1  0.78735200  0.71839800  0.09509500  1
  C  C44  1  0.66123100  0.12931800  0.72869200  1
  C  C45  1  0.83876900  0.56746100  0.46808700  1
  C  C46  1  0.59937400  0.37068200  0.03191300  1
  C  C47  1  0.90062600  0.93253900  0.77130800  1
  C  C48  1  0.33876900  0.87068200  0.27130800  1
  C  C49  1  0.16123100  0.43253900  0.53191300  1
  C  C50  1  0.40062600  0.62931800  0.96808700  1
  C  C51  1  0.09937400  0.06746100  0.22869200  1
  C  C52  1  0.19249300  0.61696600  0.89901100  1
  C  C53  1  0.30750700  0.20651800  0.42447400  1
  C  C54  1  0.28204500  0.88303400  0.07552600  1
  C  C55  1  0.21795500  0.29348200  0.60098900  1
  C  C56  1  0.80750700  0.38303400  0.10098900  1
  C  C57  1  0.69249300  0.79348200  0.57552600  1
  C  C58  1  0.71795500  0.11696600  0.92447400  1
  C  C59  1  0.78204500  0.70651800  0.39901100  1
  C  C60  1  0.93329000  0.61786100  0.78793600  1
  C  C61  1  0.56671000  0.35464600  0.68457100  1
  C  C62  1  0.17007500  0.88213900  0.81542900  1
  C  C63  1  0.32992500  0.14535400  0.71206400  1
  C  C64  1  0.06671000  0.38213900  0.21206400  1
  C  C65  1  0.43329000  0.64535400  0.31542900  1
  C  C66  1  0.82992500  0.11786100  0.18457100  1
  C  C67  1  0.67007500  0.85464600  0.28793600  1
  C  C68  1  0.02173000  0.58886900  0.96865300  1
  C  C69  1  0.47827000  0.44692200  0.56713900  1
  C  C70  1  0.37978300  0.91113100  0.93286100  1
  C  C71  1  0.12021700  0.05307800  0.53134700  1
  C  C72  1  0.97827000  0.41113100  0.03134700  1
  C  C73  1  0.52173000  0.55307800  0.43286100  1
  C  C74  1  0.62021700  0.08886900  0.06713900  1
  C  C75  1  0.87978300  0.94692200  0.46865300  1
