# generated using pymatgen
data_Cu14NiC
_symmetry_space_group_name_H-M   'P 1'
_cell_length_a   6.40234938
_cell_length_b   6.27811087
_cell_length_c   10.33624086
_cell_angle_alpha   90.00000000
_cell_angle_beta   90.00000000
_cell_angle_gamma   119.36013794
_symmetry_Int_Tables_number   1
_chemical_formula_structural   Cu14NiC
_chemical_formula_sum   'Cu14 Ni1 C1'
_cell_volume   362.09775958
_cell_formula_units_Z   1
loop_
 _symmetry_equiv_pos_site_id
 _symmetry_equiv_pos_as_xyz
  1  'x, y, z'
loop_
 _atom_site_type_symbol
 _atom_site_label
 _atom_site_symmetry_multiplicity
 _atom_site_fract_x
 _atom_site_fract_y
 _atom_site_fract_z
 _atom_site_occupancy
  Ni  Ni0  1  0.16603880  0.83301890  0.12500000  1
  Cu  Cu1  1  0.16621847  0.33310873  0.62500000  1
  Cu  Cu2  1  0.16672823  0.83336362  0.62500000  1
  Cu  Cu3  1  0.66723691  0.33574063  0.12500000  1
  Cu  Cu4  1  0.66623374  0.33275356  0.62500000  1
  Cu  Cu5  1  0.66723691  0.83149529  0.12500000  1
  Cu  Cu6  1  0.66623374  0.83347917  0.62500000  1
  Cu  Cu7  1  0.33394081  0.16354142  0.37608447  1
  Cu  Cu8  1  0.33394081  0.16354142  0.87391553  1
  Cu  Cu9  1  0.33394081  0.67040039  0.37608447  1
  Cu  Cu10  1  0.33394081  0.67040039  0.87391553  1
  Cu  Cu11  1  0.83073588  0.16536844  0.37603844  1
  Cu  Cu12  1  0.83073588  0.16536844  0.87396156  1
  Cu  Cu13  1  0.83618215  0.66809158  0.37412473  1
  Cu  Cu14  1  0.83618215  0.66809158  0.87587527  1
  C  C15  1  0.16447389  0.33223644  0.12500000  1
