# generated using pymatgen
data_Cu2Ni7C4
_symmetry_space_group_name_H-M   'P 1'
_cell_length_a   8.52329893
_cell_length_b   8.52329893
_cell_length_c   13.57483865
_cell_angle_alpha   102.07707624
_cell_angle_beta   102.07707624
_cell_angle_gamma   108.11419986
_symmetry_Int_Tables_number   1
_chemical_formula_structural   Cu2Ni7C4
_chemical_formula_sum   'Cu12 Ni42 C24'
_cell_volume   875.72478687
_cell_formula_units_Z   6
loop_
 _symmetry_equiv_pos_site_id
 _symmetry_equiv_pos_as_xyz
  1  'x, y, z'
loop_
 _atom_site_type_symbol
 _atom_site_label
 _atom_site_symmetry_multiplicity
 _atom_site_fract_x
 _atom_site_fract_y
 _atom_site_fract_z
 _atom_site_occupancy
  C  C0  1  0.10880900  0.69312500  0.65488400  1
  C  C1  1  0.69312500  0.10880900  0.15488400  1
  C  C2  1  0.03215300  0.76456400  0.75906400  1
  C  C3  1  0.76456400  0.03215300  0.25906400  1
  C  C4  1  0.06631300  0.56969600  0.74306800  1
  C  C5  1  0.56969600  0.06631300  0.24306800  1
  C  C6  1  0.25033700  0.59162900  0.69940600  1
  C  C7  1  0.59162900  0.25033700  0.19940600  1
  C  C8  1  0.33611100  0.80173200  0.69206600  1
  C  C9  1  0.80173200  0.33611100  0.19206600  1
  C  C10  1  0.19986900  0.91536300  0.73223600  1
  C  C11  1  0.91536300  0.19986900  0.23223600  1
  C  C12  1  0.21104100  0.92182300  0.86669100  1
  C  C13  1  0.92182300  0.21104100  0.36669100  1
  C  C14  1  0.40327600  0.95185100  0.81834300  1
  C  C15  1  0.95185100  0.40327600  0.31834300  1
  C  C16  1  0.42923900  0.74814600  0.80267000  1
  C  C17  1  0.74814600  0.42923900  0.30267000  1
  Ni  Ni18  1  0.47644300  0.48149200  0.04738300  1
  Ni  Ni19  1  0.48149200  0.47644300  0.54738300  1
  Ni  Ni20  1  0.58114200  0.64594600  0.99417700  1
  Ni  Ni21  1  0.64594600  0.58114200  0.49417700  1
  Ni  Ni22  1  0.42564800  0.67208100  0.06114700  1
  Ni  Ni23  1  0.67208100  0.42564800  0.56114700  1
  Ni  Ni24  1  0.93717700  0.78148700  0.08446800  1
  Ni  Ni25  1  0.78148700  0.93717700  0.58446800  1
  Ni  Ni26  1  0.12840500  0.93552200  0.07648800  1
  Ni  Ni27  1  0.93552200  0.12840500  0.57648800  1
  Ni  Ni28  1  0.92333600  0.87797000  0.98038500  1
  Ni  Ni29  1  0.87797000  0.92333600  0.48038500  1
  Ni  Ni30  1  0.67339200  0.37736100  0.76603800  1
  Ni  Ni31  1  0.37736100  0.67339200  0.26603800  1
  Ni  Ni32  1  0.56649800  0.16389100  0.67219400  1
  Ni  Ni33  1  0.16389100  0.56649800  0.17219400  1
  Ni  Ni34  1  0.44253000  0.27664300  0.72838100  1
  Ni  Ni35  1  0.27664300  0.44253000  0.22838100  1
  Ni  Ni36  1  0.88067500  0.25571300  0.87028800  1
  Ni  Ni37  1  0.25571300  0.88067500  0.37028800  1
  Ni  Ni38  1  0.80878200  0.09450800  0.93411100  1
  Ni  Ni39  1  0.09450800  0.80878200  0.43411100  1
  Ni  Ni40  1  0.76572500  0.03148200  0.79294200  1
  Ni  Ni41  1  0.03148200  0.76572500  0.29294200  1
  Ni  Ni42  1  0.01948000  0.64539200  0.56575400  1
  Ni  Ni43  1  0.64539200  0.01948000  0.06575400  1
  Ni  Ni44  1  0.89120000  0.76759600  0.75181100  1
  Ni  Ni45  1  0.76759600  0.89120000  0.25181100  1
  Ni  Ni46  1  0.95509600  0.43308900  0.72628400  1
  Ni  Ni47  1  0.43308900  0.95509600  0.22628400  1
  Ni  Ni48  1  0.25703600  0.46291100  0.64840600  1
  Ni  Ni49  1  0.46291100  0.25703600  0.14840600  1
  Ni  Ni50  1  0.41115700  0.83927100  0.62995800  1
  Ni  Ni51  1  0.83927100  0.41115700  0.12995800  1
  Ni  Ni52  1  0.17165400  0.02375600  0.69632200  1
  Ni  Ni53  1  0.02375600  0.17165400  0.19632200  1
  Ni  Ni54  1  0.18580800  0.03327500  0.92283300  1
  Ni  Ni55  1  0.03327500  0.18580800  0.42283300  1
  Ni  Ni56  1  0.56381600  0.72745700  0.81874500  1
  Ni  Ni57  1  0.72745700  0.56381600  0.31874500  1
  Ni  Ni58  1  0.38459600  0.93708000  0.90718200  1
  Ni  Ni59  1  0.93708000  0.38459600  0.40718200  1
  Cu  Cu60  1  0.45974900  0.57898000  0.00931400  1
  Cu  Cu61  1  0.57898000  0.45974900  0.50931400  1
  Cu  Cu62  1  0.00492900  0.83011200  0.03032700  1
  Cu  Cu63  1  0.83011200  0.00492900  0.53032700  1
  Cu  Cu64  1  0.56388000  0.25371000  0.74203400  1
  Cu  Cu65  1  0.25371000  0.56388000  0.24203400  1
  Cu  Cu66  1  0.77919600  0.13271200  0.86240900  1
  Cu  Cu67  1  0.13271200  0.77919600  0.36240900  1
  Cu  Cu68  1  0.26736900  0.62887900  0.83233900  1
  Cu  Cu69  1  0.62887900  0.26736900  0.33233900  1
  Cu  Cu70  1  0.13996700  0.72000600  0.86484700  1
  Cu  Cu71  1  0.72000600  0.13996700  0.36484700  1
  C  C72  1  0.28721800  0.46058900  0.88786200  1
  C  C73  1  0.46058900  0.28721800  0.38786200  1
  C  C74  1  0.03427500  0.64355200  0.95738500  1
  C  C75  1  0.64355200  0.03427500  0.45738500  1
  C  C76  1  0.58228200  0.17331800  0.85469800  1
  C  C77  1  0.17331800  0.58228200  0.35469800  1
