# generated using pymatgen
data_Cu2Ni4C7
_symmetry_space_group_name_H-M   'P 1'
_cell_length_a   7.31376230
_cell_length_b   7.37749162
_cell_length_c   12.38299100
_cell_angle_alpha   90.00064837
_cell_angle_beta   90.00086369
_cell_angle_gamma   93.41105943
_symmetry_Int_Tables_number   1
_chemical_formula_structural   Cu2Ni4C7
_chemical_formula_sum   'Cu4 Ni8 C14'
_cell_volume   666.96804728
_cell_formula_units_Z   2
loop_
 _symmetry_equiv_pos_site_id
 _symmetry_equiv_pos_as_xyz
  1  'x, y, z'
loop_
 _atom_site_type_symbol
 _atom_site_label
 _atom_site_symmetry_multiplicity
 _atom_site_fract_x
 _atom_site_fract_y
 _atom_site_fract_z
 _atom_site_occupancy
  Ni  Ni0  1  0.68630200  0.34237300  0.99999900  1
  Ni  Ni1  1  0.68632200  0.84240000  0.49999900  1
  Ni  Ni2  1  0.31368100  0.65760400  0.00000000  1
  Ni  Ni3  1  0.31369900  0.15762900  0.49999900  1
  Ni  Ni4  1  0.00001100  0.49999100  0.74357000  1
  Ni  Ni5  1  0.99998800  0.00001200  0.24357100  1
  Ni  Ni6  1  0.00001200  0.49999100  0.25642800  1
  Ni  Ni7  1  0.99998800  0.00001100  0.75642800  1
  Cu  Cu8  1  0.49998100  0.49996700  0.71969700  1
  Cu  Cu9  1  0.50001800  0.00003400  0.21969900  1
  Cu  Cu10  1  0.49998000  0.49996800  0.28029900  1
  Cu  Cu11  1  0.50002000  0.00003700  0.78030200  1
  C  C12  1  0.80789900  0.30679300  0.50000000  1
  C  C13  1  0.19210200  0.19319700  0.99999900  1
  C  C14  1  0.80785200  0.80679500  0.00000600  1
  C  C15  1  0.19214900  0.69318800  0.49999600  1
  C  C16  1  0.99998600  0.00000800  0.00000000  1
  C  C17  1  0.00001400  0.49998800  0.50000000  1
  C  C18  1  0.71602500  0.70906200  0.13313900  1
  C  C19  1  0.71602500  0.20905600  0.63314500  1
  C  C20  1  0.28396800  0.29095100  0.86685600  1
  C  C21  1  0.28397600  0.79093500  0.36686300  1
  C  C22  1  0.28398300  0.29093500  0.13314400  1
  C  C23  1  0.28397900  0.79094200  0.63314200  1
  C  C24  1  0.71603500  0.70905600  0.86686200  1
  C  C25  1  0.71600500  0.20907700  0.36685500  1
