# generated using pymatgen
data_Cu4Ni3C8
_symmetry_space_group_name_H-M   'P 1'
_cell_length_a   6.49233700
_cell_length_b   7.02683500
_cell_length_c   32.23876564
_cell_angle_alpha   83.56504993
_cell_angle_beta   90.00000000
_cell_angle_gamma   90.00000000
_symmetry_Int_Tables_number   1
_chemical_formula_structural   Cu4Ni3C8
_chemical_formula_sum   'Cu16 Ni12 C32'
_cell_volume   1461.48509820
_cell_formula_units_Z   4
loop_
 _symmetry_equiv_pos_site_id
 _symmetry_equiv_pos_as_xyz
  1  'x, y, z'
loop_
 _atom_site_type_symbol
 _atom_site_label
 _atom_site_symmetry_multiplicity
 _atom_site_fract_x
 _atom_site_fract_y
 _atom_site_fract_z
 _atom_site_occupancy
  C  C0  1  0.13104900  0.86327300  0.49324900  1
  C  C1  1  0.36895100  0.86327300  0.99324900  1
  C  C2  1  0.86895100  0.13672700  0.50675100  1
  C  C3  1  0.63104900  0.13672700  0.00675100  1
  C  C4  1  0.66934000  0.59256100  0.46089000  1
  C  C5  1  0.83066000  0.59256100  0.96089000  1
  C  C6  1  0.33066000  0.40743900  0.53911000  1
  C  C7  1  0.16934000  0.40743900  0.03911000  1
  C  C8  1  0.67655100  0.82380800  0.39130000  1
  C  C9  1  0.82344900  0.82380800  0.89130000  1
  C  C10  1  0.32344900  0.17619200  0.60870000  1
  C  C11  1  0.17655100  0.17619200  0.10870000  1
  C  C12  1  0.12981000  0.45374700  0.42996000  1
  C  C13  1  0.37019000  0.45374700  0.92996000  1
  C  C14  1  0.87019000  0.54625300  0.57004000  1
  C  C15  1  0.62981000  0.54625300  0.07004000  1
  C  C16  1  0.92429600  0.27260200  0.37642300  1
  C  C17  1  0.57570400  0.27260200  0.87642300  1
  C  C18  1  0.07570400  0.72739800  0.62357700  1
  C  C19  1  0.42429600  0.72739800  0.12357700  1
  C  C20  1  0.91155200  0.01003000  0.28706900  1
  C  C21  1  0.58844800  0.01003000  0.78706900  1
  C  C22  1  0.08844800  0.98997000  0.71293100  1
  C  C23  1  0.41155200  0.98997000  0.21293100  1
  C  C24  1  0.13203300  0.57281800  0.28028400  1
  C  C25  1  0.36796700  0.57281800  0.78028400  1
  C  C26  1  0.86796700  0.42718200  0.71971600  1
  C  C27  1  0.63203300  0.42718200  0.21971600  1
  C  C28  1  0.43255400  0.19034000  0.32190100  1
  C  C29  1  0.06744600  0.19034000  0.82190100  1
  C  C30  1  0.56744600  0.80966000  0.67809900  1
  C  C31  1  0.93255400  0.80966000  0.17809900  1
  Ni  Ni32  1  0.49876000  0.17455800  0.44391700  1
  Ni  Ni33  1  0.00124000  0.17455800  0.94391700  1
  Ni  Ni34  1  0.50124000  0.82544200  0.55608300  1
  Ni  Ni35  1  0.99876000  0.82544200  0.05608300  1
  Ni  Ni36  1  0.18233400  0.84078500  0.37089000  1
  Ni  Ni37  1  0.31766600  0.84078500  0.87089000  1
  Ni  Ni38  1  0.81766600  0.15921500  0.62911000  1
  Ni  Ni39  1  0.68233400  0.15921500  0.12911000  1
  Ni  Ni40  1  0.64878200  0.60152300  0.31162200  1
  Ni  Ni41  1  0.85121800  0.60152300  0.81162200  1
  Ni  Ni42  1  0.35121800  0.39847700  0.68837800  1
  Ni  Ni43  1  0.14878200  0.39847700  0.18837800  1
  Cu  Cu44  1  0.27198600  0.59223100  0.48020600  1
  Cu  Cu45  1  0.22801400  0.59223100  0.98020600  1
  Cu  Cu46  1  0.72801400  0.40776900  0.51979400  1
  Cu  Cu47  1  0.77198600  0.40776900  0.01979400  1
  Cu  Cu48  1  0.72413600  0.07767600  0.34200700  1
  Cu  Cu49  1  0.77586400  0.07767600  0.84200700  1
  Cu  Cu50  1  0.27586400  0.92232400  0.65799300  1
  Cu  Cu51  1  0.22413600  0.92232400  0.15799300  1
  Cu  Cu52  1  0.10862400  0.84924200  0.25024000  1
  Cu  Cu53  1  0.39137600  0.84924200  0.75024000  1
  Cu  Cu54  1  0.89137600  0.15075800  0.74976000  1
  Cu  Cu55  1  0.60862400  0.15075800  0.24976000  1
  Cu  Cu56  1  0.13516400  0.29119600  0.30782700  1
  Cu  Cu57  1  0.36483600  0.29119600  0.80782700  1
  Cu  Cu58  1  0.86483600  0.70880400  0.69217300  1
  Cu  Cu59  1  0.63516400  0.70880400  0.19217300  1
