# generated using pymatgen
data_CuNi2C7
_symmetry_space_group_name_H-M   'P 1'
_cell_length_a   5.93815296
_cell_length_b   6.10078800
_cell_length_c   8.48832362
_cell_angle_alpha   90.00000000
_cell_angle_beta   89.94245078
_cell_angle_gamma   90.00000000
_symmetry_Int_Tables_number   1
_chemical_formula_structural   CuNi2C7
_chemical_formula_sum   'Cu2 Ni4 C14'
_cell_volume   307.50984472
_cell_formula_units_Z   2
loop_
 _symmetry_equiv_pos_site_id
 _symmetry_equiv_pos_as_xyz
  1  'x, y, z'
loop_
 _atom_site_type_symbol
 _atom_site_label
 _atom_site_symmetry_multiplicity
 _atom_site_fract_x
 _atom_site_fract_y
 _atom_site_fract_z
 _atom_site_occupancy
  Ni  Ni0  1  0.01263800  0.45322900  0.25210600  1
  Ni  Ni1  1  0.98736200  0.54677100  0.74789400  1
  Ni  Ni2  1  0.48736200  0.95322900  0.24789400  1
  Ni  Ni3  1  0.51263800  0.04677100  0.75210600  1
  Cu  Cu4  1  0.00000000  0.00000000  0.50000000  1
  Cu  Cu5  1  0.50000000  0.50000000  0.00000000  1
  C  C6  1  0.00000000  0.00000000  0.00000000  1
  C  C7  1  0.50000000  0.50000000  0.50000000  1
  C  C8  1  0.90742300  0.03548100  0.24322200  1
  C  C9  1  0.09257700  0.96451900  0.75677800  1
  C  C10  1  0.59257700  0.53548100  0.25677800  1
  C  C11  1  0.40742300  0.46451900  0.74322200  1
  C  C12  1  0.19915100  0.71441600  0.05173400  1
  C  C13  1  0.80084900  0.28558400  0.94826600  1
  C  C14  1  0.30084900  0.21441600  0.44826600  1
  C  C15  1  0.69915100  0.78558400  0.55173400  1
  C  C16  1  0.28934700  0.20014200  0.04611900  1
  C  C17  1  0.71065300  0.79985800  0.95388100  1
  C  C18  1  0.21065300  0.70014200  0.45388100  1
  C  C19  1  0.78934700  0.29985800  0.54611900  1
