# generated using pymatgen
data_CuNi2C13
_symmetry_space_group_name_H-M   'P 1'
_cell_length_a   8.70212600
_cell_length_b   6.60904700
_cell_length_c   15.19650227
_cell_angle_alpha   66.97238846
_cell_angle_beta   90.00000000
_cell_angle_gamma   90.00000000
_symmetry_Int_Tables_number   1
_chemical_formula_structural   CuNi2C13
_chemical_formula_sum   'Cu4 Ni8 C52'
_cell_volume   804.34993492
_cell_formula_units_Z   4
loop_
 _symmetry_equiv_pos_site_id
 _symmetry_equiv_pos_as_xyz
  1  'x, y, z'
loop_
 _atom_site_type_symbol
 _atom_site_label
 _atom_site_symmetry_multiplicity
 _atom_site_fract_x
 _atom_site_fract_y
 _atom_site_fract_z
 _atom_site_occupancy
  C  C0  1  0.73055900  0.33079700  0.41734200  1
  C  C1  1  0.76944100  0.33079700  0.91734200  1
  C  C2  1  0.26944100  0.66920300  0.58265800  1
  C  C3  1  0.23055900  0.66920300  0.08265800  1
  C  C4  1  0.94156500  0.04256600  0.56816800  1
  C  C5  1  0.55843500  0.04256600  0.06816800  1
  C  C6  1  0.05843500  0.95743400  0.43183200  1
  C  C7  1  0.44156500  0.95743400  0.93183200  1
  C  C8  1  0.02267900  0.27176900  0.53710700  1
  C  C9  1  0.47732100  0.27176900  0.03710700  1
  C  C10  1  0.97732100  0.72823100  0.46289300  1
  C  C11  1  0.52267900  0.72823100  0.96289300  1
  Ni  Ni12  1  0.02700700  0.61235500  0.27643100  1
  Ni  Ni13  1  0.47299300  0.61235500  0.77643100  1
  Ni  Ni14  1  0.97299300  0.38764500  0.72356900  1
  Ni  Ni15  1  0.52700700  0.38764500  0.22356900  1
  Ni  Ni16  1  0.02499000  0.33836000  0.26571200  1
  Ni  Ni17  1  0.47501000  0.33836000  0.76571200  1
  Ni  Ni18  1  0.97501000  0.66164000  0.73428800  1
  Ni  Ni19  1  0.52499000  0.66164000  0.23428800  1
  Cu  Cu20  1  0.33013100  0.26433700  0.47440400  1
  Cu  Cu21  1  0.16986900  0.26433700  0.97440400  1
  Cu  Cu22  1  0.66986900  0.73566300  0.52559600  1
  Cu  Cu23  1  0.83013100  0.73566300  0.02559600  1
  C  C24  1  0.83622800  0.04638100  0.18670600  1
  C  C25  1  0.66377200  0.04638100  0.68670600  1
  C  C26  1  0.16377200  0.95361900  0.81329400  1
  C  C27  1  0.33622800  0.95361900  0.31329400  1
  C  C28  1  0.50028400  0.26443900  0.48825500  1
  C  C29  1  0.99971600  0.26443900  0.98825500  1
  C  C30  1  0.49971600  0.73556100  0.51174500  1
  C  C31  1  0.00028400  0.73556100  0.01174500  1
  C  C32  1  0.25646200  0.41667800  0.51371800  1
  C  C33  1  0.24353800  0.41667800  0.01371800  1
  C  C34  1  0.74353800  0.58332200  0.48628200  1
  C  C35  1  0.75646200  0.58332200  0.98628200  1
  C  C36  1  0.29153600  0.33027500  0.37325400  1
  C  C37  1  0.20846400  0.33027500  0.87325400  1
  C  C38  1  0.70846400  0.66972500  0.62674600  1
  C  C39  1  0.79153600  0.66972500  0.12674600  1
  C  C40  1  0.27000000  0.03970600  0.53268600  1
  C  C41  1  0.23000000  0.03970600  0.03268600  1
  C  C42  1  0.73000000  0.96029400  0.46731400  1
  C  C43  1  0.77000000  0.96029400  0.96731400  1
  C  C44  1  0.93874900  0.60681700  0.33998800  1
  C  C45  1  0.56125100  0.60681700  0.83998800  1
  C  C46  1  0.06125100  0.39318300  0.66001200  1
  C  C47  1  0.43874900  0.39318300  0.16001200  1
  C  C48  1  0.94473800  0.20999500  0.32979000  1
  C  C49  1  0.55526200  0.20999500  0.82979000  1
  C  C50  1  0.05526200  0.79000500  0.67021000  1
  C  C51  1  0.44473800  0.79000500  0.17021000  1
  C  C52  1  0.10352200  0.34692600  0.19780200  1
  C  C53  1  0.39647800  0.34692600  0.69780200  1
  C  C54  1  0.89647800  0.65307400  0.80219800  1
  C  C55  1  0.60352200  0.65307400  0.30219800  1
  C  C56  1  0.11681300  0.73487800  0.21759600  1
  C  C57  1  0.38318700  0.73487800  0.71759600  1
  C  C58  1  0.88318700  0.26512200  0.78240400  1
  C  C59  1  0.61681300  0.26512200  0.28240400  1
  C  C60  1  0.92923000  0.19843100  0.52825900  1
  C  C61  1  0.57077000  0.19843100  0.02825900  1
  C  C62  1  0.07077000  0.80156900  0.47174100  1
  C  C63  1  0.42923000  0.80156900  0.97174100  1
