# generated using pymatgen
data_Cu4(NiC5)3
_symmetry_space_group_name_H-M   'P 1'
_cell_length_a   8.82758200
_cell_length_b   9.70741414
_cell_length_c   9.73409411
_cell_angle_alpha   119.77079406
_cell_angle_beta   94.17458368
_cell_angle_gamma   107.75087997
_symmetry_Int_Tables_number   1
_chemical_formula_structural   Cu4(NiC5)3
_chemical_formula_sum   'Cu8 Ni6 C30'
_cell_volume   663.74257987
_cell_formula_units_Z   2
loop_
 _symmetry_equiv_pos_site_id
 _symmetry_equiv_pos_as_xyz
  1  'x, y, z'
loop_
 _atom_site_type_symbol
 _atom_site_label
 _atom_site_symmetry_multiplicity
 _atom_site_fract_x
 _atom_site_fract_y
 _atom_site_fract_z
 _atom_site_occupancy
  C  C0  1  0.13760100  0.06029100  0.21233300  1
  C  C1  1  0.59334100  0.33338200  0.48757500  1
  C  C2  1  0.75816800  0.32085700  0.98175200  1
  C  C3  1  0.24183200  0.67914300  0.01824800  1
  C  C4  1  0.40665900  0.66661800  0.51242500  1
  C  C5  1  0.86239900  0.93970900  0.78766700  1
  Ni  Ni6  1  0.95894800  0.60733100  0.22797400  1
  Ni  Ni7  1  0.08903800  0.30399700  0.39824100  1
  Ni  Ni8  1  0.25215200  0.22249100  0.75422600  1
  Ni  Ni9  1  0.74784800  0.77750900  0.24577400  1
  Ni  Ni10  1  0.91096200  0.69600300  0.60175900  1
  Ni  Ni11  1  0.04105200  0.39266900  0.77202600  1
  Cu  Cu12  1  0.37854800  0.03529400  0.07735300  1
  Cu  Cu13  1  0.59692800  0.06512700  0.34286000  1
  Cu  Cu14  1  0.78508300  0.12434900  0.39443600  1
  Cu  Cu15  1  0.49346300  0.08775900  0.79874200  1
  Cu  Cu16  1  0.50653700  0.91224100  0.20125800  1
  Cu  Cu17  1  0.21491700  0.87565100  0.60556400  1
  Cu  Cu18  1  0.40307200  0.93487300  0.65714000  1
  Cu  Cu19  1  0.62145200  0.96470600  0.92264700  1
  C  C20  1  0.46786500  0.00752000  0.18273200  1
  C  C21  1  0.96979300  0.19687300  0.32225900  1
  C  C22  1  0.68237600  0.09378900  0.42866800  1
  C  C23  1  0.46484800  0.43910900  0.04691000  1
  C  C24  1  0.98776100  0.43043900  0.37987000  1
  C  C25  1  0.90268600  0.59893300  0.06636200  1
  C  C26  1  0.89735800  0.26931700  0.74559900  1
  C  C27  1  0.12402600  0.19398300  0.59737300  1
  C  C28  1  0.21357300  0.07681500  0.90411400  1
  C  C29  1  0.24697500  0.39011400  0.35087100  1
  C  C30  1  0.42680800  0.26958500  0.74055800  1
  C  C31  1  0.79774600  0.61931800  0.26621100  1
  C  C32  1  0.20225400  0.38068200  0.73378900  1
  C  C33  1  0.57319200  0.73041500  0.25944200  1
  C  C34  1  0.75302500  0.60988600  0.64912900  1
  C  C35  1  0.78642700  0.92318500  0.09588600  1
  C  C36  1  0.87597400  0.80601700  0.40262700  1
  C  C37  1  0.10264200  0.73068300  0.25440100  1
  C  C38  1  0.09731400  0.40106700  0.93363800  1
  C  C39  1  0.01223900  0.56956100  0.62013000  1
  C  C40  1  0.53515200  0.56089100  0.95309000  1
  C  C41  1  0.31762400  0.90621100  0.57133200  1
  C  C42  1  0.03020700  0.80312700  0.67774100  1
  C  C43  1  0.53213500  0.99248000  0.81726800  1
