# generated using pymatgen
data_Cu2NiC
_symmetry_space_group_name_H-M   'P 1'
_cell_length_a   6.95213021
_cell_length_b   6.95213021
_cell_length_c   6.95213046
_cell_angle_alpha   33.56129835
_cell_angle_beta   33.56129835
_cell_angle_gamma   33.56130174
_symmetry_Int_Tables_number   1
_chemical_formula_structural   Cu2NiC
_chemical_formula_sum   'Cu4 Ni2 C2'
_cell_volume   91.47045689
_cell_formula_units_Z   2
loop_
 _symmetry_equiv_pos_site_id
 _symmetry_equiv_pos_as_xyz
  1  'x, y, z'
loop_
 _atom_site_type_symbol
 _atom_site_label
 _atom_site_symmetry_multiplicity
 _atom_site_fract_x
 _atom_site_fract_y
 _atom_site_fract_z
 _atom_site_occupancy
  C  C0  1  0.00000000  0.00000000  0.00000000  1
  Ni  Ni1  1  0.25104200  0.25104200  0.25104200  1
  Ni  Ni2  1  0.74895800  0.74895800  0.74895800  1
  Cu  Cu3  1  0.87146300  0.87146300  0.87146300  1
  Cu  Cu4  1  0.37879000  0.37879000  0.37879000  1
  Cu  Cu5  1  0.12853700  0.12853700  0.12853700  1
  Cu  Cu6  1  0.62121000  0.62121000  0.62121000  1
  C  C7  1  0.50000000  0.50000000  0.50000000  1
