# generated using pymatgen
data_Cu12NiC63
_symmetry_space_group_name_H-M   'P 1'
_cell_length_a   8.65254800
_cell_length_b   8.78329383
_cell_length_c   12.19854665
_cell_angle_alpha   90.34626346
_cell_angle_beta   90.02138984
_cell_angle_gamma   90.06600244
_symmetry_Int_Tables_number   1
_chemical_formula_structural   Cu12NiC63
_chemical_formula_sum   'Cu12 Ni1 C63'
_cell_volume   927.04596807
_cell_formula_units_Z   1
loop_
 _symmetry_equiv_pos_site_id
 _symmetry_equiv_pos_as_xyz
  1  'x, y, z'
loop_
 _atom_site_type_symbol
 _atom_site_label
 _atom_site_symmetry_multiplicity
 _atom_site_fract_x
 _atom_site_fract_y
 _atom_site_fract_z
 _atom_site_occupancy
  C  C0  1  0.21773900  0.72258500  0.18056500  1
  C  C1  1  0.21961000  0.77912800  0.82067300  1
  C  C2  1  0.28138600  0.22176300  0.31743900  1
  C  C3  1  0.27980800  0.27680900  0.68322000  1
  C  C4  1  0.71549700  0.72495800  0.31551900  1
  C  C5  1  0.71830700  0.79065500  0.68376100  1
  C  C6  1  0.78558000  0.22199100  0.17914800  1
  C  C7  1  0.78699900  0.27235000  0.82852300  1
  C  C8  1  0.24702000  0.96109300  0.61308700  1
  C  C9  1  0.24872100  0.54167900  0.38317400  1
  C  C10  1  0.25137100  0.04146600  0.11233600  1
  C  C11  1  0.25270600  0.45681100  0.89098300  1
  C  C12  1  0.74904300  0.53993400  0.11141300  1
  C  C13  1  0.74665900  0.96202900  0.89202700  1
  C  C14  1  0.74955700  0.03633700  0.38331400  1
  Ni  Ni15  1  0.75286000  0.46106600  0.61282500  1
  Cu  Cu16  1  0.04282500  0.24575100  0.49683000  1
  Cu  Cu17  1  0.46089700  0.74955500  0.00006300  1
  Cu  Cu18  1  0.53980300  0.25035500  0.00094900  1
  Cu  Cu19  1  0.96285900  0.75053700  0.49641400  1
  Cu  Cu20  1  0.10462000  0.39351600  0.14734400  1
  Cu  Cu21  1  0.10642300  0.10584300  0.85239000  1
  Cu  Cu22  1  0.38908800  0.60212100  0.64509600  1
  Cu  Cu23  1  0.39332800  0.89433300  0.35414200  1
  Cu  Cu24  1  0.60257700  0.10388800  0.64321400  1
  Cu  Cu25  1  0.60433000  0.39198300  0.34848400  1
  Cu  Cu26  1  0.89758000  0.61217500  0.85182100  1
  Cu  Cu27  1  0.89503600  0.89233300  0.14727000  1
  C  C28  1  0.05364000  0.63580000  0.43075700  1
  C  C29  1  0.05283300  0.85316900  0.57354300  1
  C  C30  1  0.07336100  0.89509900  0.15602800  1
  C  C31  1  0.07268000  0.60414000  0.83841000  1
  C  C32  1  0.14347700  0.16398500  0.58137500  1
  C  C33  1  0.14569700  0.33955000  0.42129900  1
  C  C34  1  0.15439200  0.43425700  0.03057100  1
  C  C35  1  0.15674300  0.06561500  0.96883300  1
  C  C36  1  0.16232300  0.23343400  0.18038100  1
  C  C37  1  0.16279700  0.26692000  0.81959400  1
  C  C38  1  0.17496600  0.51471800  0.22620900  1
  C  C39  1  0.17515000  0.98501800  0.77238200  1
  C  C40  1  0.32536800  0.01446600  0.27527700  1
  C  C41  1  0.32897400  0.48239800  0.72461100  1
  C  C42  1  0.34704500  0.76497500  0.68033700  1
  C  C43  1  0.33605500  0.73326700  0.32057600  1
  C  C44  1  0.34882200  0.56496800  0.52756700  1
  C  C45  1  0.34238000  0.93384300  0.47160400  1
  C  C46  1  0.35130100  0.83687700  0.07914800  1
  C  C47  1  0.35107700  0.66176900  0.92107000  1
  C  C48  1  0.42720700  0.11103300  0.65604500  1
  C  C49  1  0.42797400  0.39364000  0.34673500  1
  C  C50  1  0.44346300  0.14220100  0.07050200  1
  C  C51  1  0.44510600  0.35770700  0.92915600  1
  C  C52  1  0.55760800  0.64241500  0.07058700  1
  C  C53  1  0.55688600  0.85674600  0.92886900  1
  C  C54  1  0.57991700  0.60156000  0.65601200  1
  C  C55  1  0.57210200  0.89507600  0.34545000  1
  C  C56  1  0.64835500  0.33829800  0.08048700  1
  C  C57  1  0.64863700  0.16286200  0.92113000  1
  C  C58  1  0.65675300  0.07358800  0.52783200  1
  C  C59  1  0.65363000  0.43537200  0.47353800  1
  C  C60  1  0.66565700  0.23367800  0.32063900  1
  C  C61  1  0.66480000  0.27464400  0.68070000  1
  C  C62  1  0.67650400  0.51625000  0.27810200  1
  C  C63  1  0.67633200  0.99430300  0.72481900  1
  C  C64  1  0.82573800  0.01338900  0.22646800  1
  C  C65  1  0.82229700  0.48124000  0.76838300  1
  C  C66  1  0.83673300  0.73187300  0.17941700  1
  C  C67  1  0.83439200  0.76694200  0.81650700  1
  C  C68  1  0.84053000  0.55883000  0.96239400  1
  C  C69  1  0.84438100  0.93234500  0.03077700  1
  C  C70  1  0.84903500  0.65958700  0.58384100  1
  C  C71  1  0.84749900  0.83333100  0.42301100  1
  C  C72  1  0.92752800  0.10334100  0.84396700  1
  C  C73  1  0.92596000  0.39665700  0.15603600  1
  C  C74  1  0.93785500  0.14336300  0.43123300  1
  C  C75  1  0.94580800  0.36241700  0.57577000  1
