# generated using pymatgen
data_Cu(Ni3C16)2
_symmetry_space_group_name_H-M   'P 1'
_cell_length_a   12.20110068
_cell_length_b   12.20110068
_cell_length_c   16.17504430
_cell_angle_alpha   77.21055751
_cell_angle_beta   77.21055751
_cell_angle_gamma   26.12513454
_symmetry_Int_Tables_number   1
_chemical_formula_structural   Cu(Ni3C16)2
_chemical_formula_sum   'Cu2 Ni12 C64'
_cell_volume   1032.54960404
_cell_formula_units_Z   2
loop_
 _symmetry_equiv_pos_site_id
 _symmetry_equiv_pos_as_xyz
  1  'x, y, z'
loop_
 _atom_site_type_symbol
 _atom_site_label
 _atom_site_symmetry_multiplicity
 _atom_site_fract_x
 _atom_site_fract_y
 _atom_site_fract_z
 _atom_site_occupancy
  Ni  Ni0  1  0.16634100  0.63635100  0.28386500  1
  Ni  Ni1  1  0.16646100  0.63641500  0.61676400  1
  Ni  Ni2  1  0.16493400  0.63542800  0.95057000  1
  Ni  Ni3  1  0.83353900  0.36359200  0.38478900  1
  Ni  Ni4  1  0.83364700  0.36367600  0.71774100  1
  Ni  Ni5  1  0.83504100  0.36453300  0.05071000  1
  Ni  Ni6  1  0.36367600  0.83364700  0.21774100  1
  Ni  Ni7  1  0.36453300  0.83504100  0.55071000  1
  Ni  Ni8  1  0.36359200  0.83353900  0.88478900  1
  Ni  Ni9  1  0.63542800  0.16493400  0.45057000  1
  Ni  Ni10  1  0.63635100  0.16634100  0.78386500  1
  Ni  Ni11  1  0.63641500  0.16646100  0.11676400  1
  Cu  Cu12  1  0.99997100  0.50009800  0.99993300  1
  Cu  Cu13  1  0.50009800  0.99997100  0.49993300  1
  C  C14  1  0.99989900  0.50006300  0.66575400  1
  C  C15  1  0.99986600  0.50004700  0.33428100  1
  C  C16  1  0.50006300  0.99989900  0.16575400  1
  C  C17  1  0.50004700  0.99986600  0.83428100  1
  C  C18  1  0.18066500  0.81932700  0.09749700  1
  C  C19  1  0.18090100  0.81892300  0.76439500  1
  C  C20  1  0.18079300  0.81918800  0.43099900  1
  C  C21  1  0.81918800  0.18079300  0.93099900  1
  C  C22  1  0.81932700  0.18066500  0.59749700  1
  C  C23  1  0.81892300  0.18090100  0.26439500  1
  C  C24  1  0.07215600  0.57354500  0.47562600  1
  C  C25  1  0.07248400  0.57339300  0.80947200  1
  C  C26  1  0.07247400  0.57344700  0.14172400  1
  C  C27  1  0.92760500  0.42671700  0.19037600  1
  C  C28  1  0.92756200  0.42637900  0.52423400  1
  C  C29  1  0.92758200  0.42663000  0.85803100  1
  C  C30  1  0.42663000  0.92758200  0.35803000  1
  C  C31  1  0.42671700  0.92760500  0.69037600  1
  C  C32  1  0.42637900  0.92756200  0.02423400  1
  C  C33  1  0.57339300  0.07248400  0.30947200  1
  C  C34  1  0.57344700  0.07247400  0.64172400  1
  C  C35  1  0.57354500  0.07215600  0.97562500  1
  C  C36  1  0.30818000  0.31856100  0.56408000  1
  C  C37  1  0.31641200  0.31015500  0.89401300  1
  C  C38  1  0.31034100  0.31175700  0.22986100  1
  C  C39  1  0.69026700  0.68798300  0.27039100  1
  C  C40  1  0.69202800  0.68128300  0.60633500  1
  C  C41  1  0.68307000  0.69044500  0.93629900  1
  C  C42  1  0.68128300  0.69202800  0.10633500  1
  C  C43  1  0.69044500  0.68307000  0.43629900  1
  C  C44  1  0.68798300  0.69026700  0.77039100  1
  C  C45  1  0.31015500  0.31641200  0.39401300  1
  C  C46  1  0.31175700  0.31034100  0.72986100  1
  C  C47  1  0.31856100  0.30818000  0.06408000  1
  C  C48  1  0.63148200  0.22073600  0.26762300  1
  C  C49  1  0.63190900  0.22035600  0.60118900  1
  C  C50  1  0.63052300  0.22245100  0.93438500  1
  C  C51  1  0.36808000  0.77961700  0.38502700  1
  C  C52  1  0.36821300  0.77929000  0.71871700  1
  C  C53  1  0.36934000  0.77774400  0.05198800  1
  C  C54  1  0.77929000  0.36821300  0.21871700  1
  C  C55  1  0.77774400  0.36934000  0.55198800  1
  C  C56  1  0.77961700  0.36808000  0.88502700  1
  C  C57  1  0.22245100  0.63052300  0.43438500  1
  C  C58  1  0.22073600  0.63148200  0.76762300  1
  C  C59  1  0.22035600  0.63190900  0.10118900  1
  C  C60  1  0.82222900  0.81202600  0.39196100  1
  C  C61  1  0.81448100  0.81419100  0.72859800  1
  C  C62  1  0.81130900  0.82304100  0.06308900  1
  C  C63  1  0.18892100  0.17684900  0.10792400  1
  C  C64  1  0.17700400  0.18878200  0.43684200  1
  C  C65  1  0.18621600  0.18534000  0.77126400  1
  C  C66  1  0.18534000  0.18621600  0.27126400  1
  C  C67  1  0.17684900  0.18892100  0.60792400  1
  C  C68  1  0.18878200  0.17700400  0.93684200  1
  C  C69  1  0.82304100  0.81130900  0.56308900  1
  C  C70  1  0.81202600  0.82222900  0.89196100  1
  C  C71  1  0.81419100  0.81448100  0.22859800  1
  C  C72  1  0.86570400  0.13314400  0.38179500  1
  C  C73  1  0.86704700  0.13290400  0.71476700  1
  C  C74  1  0.86665300  0.13426700  0.04809200  1
  C  C75  1  0.13290400  0.86704700  0.21476700  1
  C  C76  1  0.13426700  0.86665300  0.54809200  1
  C  C77  1  0.13314400  0.86570400  0.88179500  1
