# generated using pymatgen
data_Cu6Ni18C5
_symmetry_space_group_name_H-M   'P 1'
_cell_length_a   9.89485349
_cell_length_b   9.89485349
_cell_length_c   9.89485349
_cell_angle_alpha   60.00000000
_cell_angle_beta   60.00000000
_cell_angle_gamma   60.00000000
_symmetry_Int_Tables_number   1
_chemical_formula_structural   Cu6Ni18C5
_chemical_formula_sum   'Cu6 Ni18 C5'
_cell_volume   685.03554433
_cell_formula_units_Z   1
loop_
 _symmetry_equiv_pos_site_id
 _symmetry_equiv_pos_as_xyz
  1  'x, y, z'
loop_
 _atom_site_type_symbol
 _atom_site_label
 _atom_site_symmetry_multiplicity
 _atom_site_fract_x
 _atom_site_fract_y
 _atom_site_fract_z
 _atom_site_occupancy
  C  C0  1  0.00000000  0.00000000  0.00000000  1
  C  C1  1  0.37013000  0.37013000  0.88961100  1
  C  C2  1  0.37013000  0.88961100  0.37013000  1
  C  C3  1  0.88961100  0.37013000  0.37013000  1
  C  C4  1  0.37013000  0.37013000  0.37013000  1
  Ni  Ni5  1  0.58816900  0.58816900  0.23549400  1
  Ni  Ni6  1  0.58816900  0.23549400  0.58816900  1
  Ni  Ni7  1  0.23549400  0.58816900  0.58816900  1
  Ni  Ni8  1  0.58816900  0.58816900  0.58816900  1
  Ni  Ni9  1  0.75000000  0.75000000  0.75000000  1
  Ni  Ni10  1  0.99242000  0.35726600  0.65789300  1
  Ni  Ni11  1  0.99242000  0.99242000  0.65789300  1
  Ni  Ni12  1  0.35726600  0.99242000  0.65789300  1
  Ni  Ni13  1  0.99242000  0.65789300  0.35726600  1
  Ni  Ni14  1  0.35726600  0.65789300  0.99242000  1
  Ni  Ni15  1  0.99242000  0.65789300  0.99242000  1
  Ni  Ni16  1  0.65789300  0.99242000  0.99242000  1
  Ni  Ni17  1  0.65789300  0.35726600  0.99242000  1
  Ni  Ni18  1  0.65789300  0.99242000  0.35726600  1
  Ni  Ni19  1  0.35726600  0.99242000  0.99242000  1
  Ni  Ni20  1  0.99242000  0.99242000  0.35726600  1
  Ni  Ni21  1  0.99242000  0.35726600  0.99242000  1
  Ni  Ni22  1  0.25000000  0.25000000  0.25000000  1
  Cu  Cu23  1  0.25411100  0.25411100  0.74588900  1
  Cu  Cu24  1  0.74588900  0.25411100  0.74588900  1
  Cu  Cu25  1  0.25411100  0.74588900  0.74588900  1
  Cu  Cu26  1  0.74588900  0.74588900  0.25411100  1
  Cu  Cu27  1  0.25411100  0.74588900  0.25411100  1
  Cu  Cu28  1  0.74588900  0.25411100  0.25411100  1
