# generated using pymatgen
data_Cu4NiC
_symmetry_space_group_name_H-M   'P 1'
_cell_length_a   12.14705370
_cell_length_b   12.14705370
_cell_length_c   9.71301600
_cell_angle_alpha   90.00000000
_cell_angle_beta   90.00000000
_cell_angle_gamma   119.99999837
_symmetry_Int_Tables_number   1
_chemical_formula_structural   Cu4NiC
_chemical_formula_sum   'Cu72 Ni18 C18'
_cell_volume   1241.15678538
_cell_formula_units_Z   18
loop_
 _symmetry_equiv_pos_site_id
 _symmetry_equiv_pos_as_xyz
  1  'x, y, z'
loop_
 _atom_site_type_symbol
 _atom_site_label
 _atom_site_symmetry_multiplicity
 _atom_site_fract_x
 _atom_site_fract_y
 _atom_site_fract_z
 _atom_site_occupancy
  C  C0  1  0.77883500  0.21480500  0.73983900  1
  C  C1  1  0.78519500  0.56403100  0.73983900  1
  C  C2  1  0.43596900  0.22116500  0.73983900  1
  C  C3  1  0.77883500  0.21480500  0.26016100  1
  C  C4  1  0.78519500  0.56403100  0.26016100  1
  C  C5  1  0.43596900  0.22116500  0.26016100  1
  C  C6  1  0.44514400  0.54870500  0.75682000  1
  C  C7  1  0.45129500  0.89643900  0.75682000  1
  C  C8  1  0.10356100  0.55485600  0.75682000  1
  C  C9  1  0.44514400  0.54870500  0.24318000  1
  C  C10  1  0.45129500  0.89643900  0.24318000  1
  C  C11  1  0.10356100  0.55485600  0.24318000  1
  C  C12  1  0.10972600  0.23068900  0.75609500  1
  C  C13  1  0.76931100  0.87903700  0.75609500  1
  C  C14  1  0.12096300  0.89027400  0.75609500  1
  C  C15  1  0.10972600  0.23068900  0.24390500  1
  C  C16  1  0.76931100  0.87903700  0.24390500  1
  C  C17  1  0.12096300  0.89027400  0.24390500  1
  Ni  Ni18  1  0.52846200  0.68551400  0.50000000  1
  Ni  Ni19  1  0.31448600  0.84294800  0.50000000  1
  Ni  Ni20  1  0.15705200  0.47153800  0.50000000  1
  Ni  Ni21  1  0.57435100  0.12950400  0.50000000  1
  Ni  Ni22  1  0.87049600  0.44484700  0.50000000  1
  Ni  Ni23  1  0.55515300  0.42564900  0.50000000  1
  Ni  Ni24  1  0.97257700  0.17012700  0.50000000  1
  Ni  Ni25  1  0.82987300  0.80244900  0.50000000  1
  Ni  Ni26  1  0.19755100  0.02742300  0.50000000  1
  Ni  Ni27  1  0.21887900  0.46175100  0.00000000  1
  Ni  Ni28  1  0.53824900  0.75712800  0.00000000  1
  Ni  Ni29  1  0.24287200  0.78112100  0.00000000  1
  Ni  Ni30  1  0.20504700  0.09756100  0.00000000  1
  Ni  Ni31  1  0.90243900  0.10748600  0.00000000  1
  Ni  Ni32  1  0.89251400  0.79495300  0.00000000  1
  Ni  Ni33  1  0.64612300  0.13273900  0.00000000  1
  Ni  Ni34  1  0.86726100  0.51338400  0.00000000  1
  Ni  Ni35  1  0.48661600  0.35387700  0.00000000  1
  Cu  Cu36  1  0.42355100  0.57619900  0.50000000  1
  Cu  Cu37  1  0.42380100  0.84735200  0.50000000  1
  Cu  Cu38  1  0.15264800  0.57644900  0.50000000  1
  Cu  Cu39  1  0.57772400  0.73514200  0.61761100  1
  Cu  Cu40  1  0.26485800  0.84258200  0.61761100  1
  Cu  Cu41  1  0.15741800  0.42227600  0.61761100  1
  Cu  Cu42  1  0.57772400  0.73514200  0.38238900  1
  Cu  Cu43  1  0.26485800  0.84258200  0.38238900  1
  Cu  Cu44  1  0.15741800  0.42227600  0.38238900  1
  Cu  Cu45  1  0.69759600  0.19237500  0.50000000  1
  Cu  Cu46  1  0.80762500  0.50522100  0.50000000  1
  Cu  Cu47  1  0.49477900  0.30240400  0.50000000  1
  Cu  Cu48  1  0.90059600  0.41561200  0.61680500  1
  Cu  Cu49  1  0.58438800  0.48498500  0.61680500  1
  Cu  Cu50  1  0.51501500  0.09940400  0.61680500  1
  Cu  Cu51  1  0.90059600  0.41561200  0.38319500  1
  Cu  Cu52  1  0.58438800  0.48498500  0.38319500  1
  Cu  Cu53  1  0.51501500  0.09940400  0.38319500  1
  Cu  Cu54  1  0.08149400  0.17495100  0.50000000  1
  Cu  Cu55  1  0.82504900  0.90654300  0.50000000  1
  Cu  Cu56  1  0.09345700  0.91850600  0.50000000  1
  Cu  Cu57  1  0.92233400  0.17024700  0.61688800  1
  Cu  Cu58  1  0.82975300  0.75208800  0.61688800  1
  Cu  Cu59  1  0.24791200  0.07766600  0.61688800  1
  Cu  Cu60  1  0.92233400  0.17024700  0.38311200  1
  Cu  Cu61  1  0.82975300  0.75208800  0.38311200  1
  Cu  Cu62  1  0.24791200  0.07766600  0.38311200  1
  Cu  Cu63  1  0.47168000  0.63445700  0.00000000  1
  Cu  Cu64  1  0.36554300  0.83722300  0.00000000  1
  Cu  Cu65  1  0.16277700  0.52832000  0.00000000  1
  Cu  Cu66  1  0.24611000  0.42856300  0.88392100  1
  Cu  Cu67  1  0.57143700  0.81754700  0.88392100  1
  Cu  Cu68  1  0.18245300  0.75389000  0.88392100  1
  Cu  Cu69  1  0.24611000  0.42856300  0.11607900  1
  Cu  Cu70  1  0.57143700  0.81754700  0.11607900  1
  Cu  Cu71  1  0.18245300  0.75389000  0.11607900  1
  Cu  Cu72  1  0.02566800  0.17314800  0.00000000  1
  Cu  Cu73  1  0.82685200  0.85252100  0.00000000  1
  Cu  Cu74  1  0.14747900  0.97433200  0.00000000  1
  Cu  Cu75  1  0.23274800  0.15724600  0.88348000  1
  Cu  Cu76  1  0.84275400  0.07550200  0.88348000  1
  Cu  Cu77  1  0.92449800  0.76725200  0.88348000  1
  Cu  Cu78  1  0.23274800  0.15724600  0.11652000  1
  Cu  Cu79  1  0.84275400  0.07550200  0.11652000  1
  Cu  Cu80  1  0.92449800  0.76725200  0.11652000  1
  Cu  Cu81  1  0.75416800  0.23821400  0.00000000  1
  Cu  Cu82  1  0.76178600  0.51595400  0.00000000  1
  Cu  Cu83  1  0.48404600  0.24583200  0.00000000  1
  Cu  Cu84  1  0.59578100  0.08207000  0.88335300  1
  Cu  Cu85  1  0.91793000  0.51371100  0.88335300  1
  Cu  Cu86  1  0.48628900  0.40421900  0.88335300  1
  Cu  Cu87  1  0.59578100  0.08207000  0.11664700  1
  Cu  Cu88  1  0.91793000  0.51371100  0.11664700  1
  Cu  Cu89  1  0.48628900  0.40421900  0.11664700  1
  Cu  Cu90  1  0.66666700  0.33333300  0.75771800  1
  Cu  Cu91  1  0.66666700  0.33333300  0.24228200  1
  Cu  Cu92  1  0.33333300  0.66666700  0.74707200  1
  Cu  Cu93  1  0.33333300  0.66666700  0.25292800  1
  Cu  Cu94  1  0.00000000  0.00000000  0.74456800  1
  Cu  Cu95  1  0.00000000  0.00000000  0.25543200  1
  Cu  Cu96  1  0.66450600  0.65645900  0.80982800  1
  Cu  Cu97  1  0.34354100  0.00804700  0.80982800  1
  Cu  Cu98  1  0.99195300  0.33549400  0.80982800  1
  Cu  Cu99  1  0.66450600  0.65645900  0.19017200  1
  Cu  Cu100  1  0.34354100  0.00804700  0.19017200  1
  Cu  Cu101  1  0.99195300  0.33549400  0.19017200  1
  Cu  Cu102  1  0.32466100  0.33215400  0.69168200  1
  Cu  Cu103  1  0.66784600  0.99250700  0.69168200  1
  Cu  Cu104  1  0.00749300  0.67533900  0.69168200  1
  Cu  Cu105  1  0.32466100  0.33215400  0.30831800  1
  Cu  Cu106  1  0.66784600  0.99250700  0.30831800  1
  Cu  Cu107  1  0.00749300  0.67533900  0.30831800  1
