# generated using pymatgen
data_Cu6NiC22
_symmetry_space_group_name_H-M   'P 1'
_cell_length_a   9.28730700
_cell_length_b   9.55410568
_cell_length_c   10.98411257
_cell_angle_alpha   89.26417408
_cell_angle_beta   93.27868913
_cell_angle_gamma   118.29425263
_symmetry_Int_Tables_number   1
_chemical_formula_structural   Cu6NiC22
_chemical_formula_sum   'Cu12 Ni2 C44'
_cell_volume   856.67837634
_cell_formula_units_Z   2
loop_
 _symmetry_equiv_pos_site_id
 _symmetry_equiv_pos_as_xyz
  1  'x, y, z'
loop_
 _atom_site_type_symbol
 _atom_site_label
 _atom_site_symmetry_multiplicity
 _atom_site_fract_x
 _atom_site_fract_y
 _atom_site_fract_z
 _atom_site_occupancy
  Ni  Ni0  1  0.02101200  0.00991100  0.74769800  1
  Ni  Ni1  1  0.97898800  0.99008900  0.25230200  1
  C  C2  1  0.32285300  0.61803800  0.62538800  1
  C  C3  1  0.67714700  0.38196200  0.37461200  1
  Cu  Cu4  1  0.80479900  0.64809400  0.67979600  1
  Cu  Cu5  1  0.19520100  0.35190600  0.32020400  1
  Cu  Cu6  1  0.36164300  0.22285800  0.65230200  1
  Cu  Cu7  1  0.63835700  0.77714200  0.34769800  1
  Cu  Cu8  1  0.30243900  0.32862000  0.87814900  1
  Cu  Cu9  1  0.69756100  0.67138000  0.12185100  1
  Cu  Cu10  1  0.07333800  0.74058500  0.86299800  1
  Cu  Cu11  1  0.92666200  0.25941500  0.13700200  1
  Cu  Cu12  1  0.89905200  0.23471500  0.62383500  1
  Cu  Cu13  1  0.10094800  0.76528500  0.37616500  1
  Cu  Cu14  1  0.68706800  0.99963300  0.78974500  1
  Cu  Cu15  1  0.31293200  0.00036700  0.21025500  1
  C  C16  1  0.08127000  0.90480500  0.87111600  1
  C  C17  1  0.91873000  0.09519500  0.12888400  1
  C  C18  1  0.91784300  0.82088300  0.64853600  1
  C  C19  1  0.08215700  0.17911700  0.35146400  1
  C  C20  1  0.21294900  0.05952800  0.66187700  1
  C  C21  1  0.78705100  0.94047200  0.33812300  1
  C  C22  1  0.41669300  0.27696900  0.79520600  1
  C  C23  1  0.58330700  0.72303100  0.20479400  1
  C  C24  1  0.78738700  0.18697300  0.74174600  1
  C  C25  1  0.21261300  0.81302700  0.25825400  1
  C  C26  1  0.87827400  0.62710600  0.81394100  1
  C  C27  1  0.12172600  0.37289400  0.18605900  1
  C  C28  1  0.82882600  0.96619800  0.82904700  1
  C  C29  1  0.17117400  0.03380200  0.17095300  1
  C  C30  1  0.95431600  0.10877600  0.61825300  1
  C  C31  1  0.04568400  0.89122400  0.38174700  1
  C  C32  1  0.31866300  0.33620000  0.59424800  1
  C  C33  1  0.68133700  0.66380000  0.40575200  1
  C  C34  1  0.12823700  0.20126300  0.84231600  1
  C  C35  1  0.87176300  0.79873700  0.15768400  1
  C  C36  1  0.17502700  0.73511300  0.77061000  1
  C  C37  1  0.82497300  0.26488700  0.22939000  1
  C  C38  1  0.32532300  0.48095200  0.83486800  1
  C  C39  1  0.67467700  0.51904800  0.16513200  1
  C  C40  1  0.79811000  0.22032900  0.51547800  1
  C  C41  1  0.20189000  0.77967100  0.48452200  1
  C  C42  1  0.82613200  0.54624100  0.59502700  1
  C  C43  1  0.17386800  0.45375900  0.40497300  1
  C  C44  1  0.35272700  0.31623600  0.00037200  1
  C  C45  1  0.64727300  0.68376400  0.99962800  1
  C  C46  1  0.08025000  0.68447500  0.98228500  1
  C  C47  1  0.91975000  0.31552500  0.01771500  1
  C  C48  1  0.59160300  0.90429800  0.68436000  1
  C  C49  1  0.40839700  0.09570200  0.31564000  1
  C  C50  1  0.60809600  0.01183900  0.89251300  1
  C  C51  1  0.39190400  0.98816100  0.10748700  1
  C  C52  1  0.49348400  0.20664900  0.60586600  1
  C  C53  1  0.50651600  0.79335100  0.39413400  1
  C  C54  1  0.02975800  0.39045800  0.65754600  1
  C  C55  1  0.97024200  0.60954200  0.34245400  1
  C  C56  1  0.64122000  0.61596100  0.70012500  1
  C  C57  1  0.35878000  0.38403900  0.29987500  1
