# generated using pymatgen
data_Cu2Ni2C9
_symmetry_space_group_name_H-M   'P 1'
_cell_length_a   10.25453144
_cell_length_b   9.87755754
_cell_length_c   9.87753394
_cell_angle_alpha   73.79938615
_cell_angle_beta   76.62496530
_cell_angle_gamma   76.63297943
_symmetry_Int_Tables_number   1
_chemical_formula_structural   Cu2Ni2C9
_chemical_formula_sum   'Cu8 Ni8 C36'
_cell_volume   919.71412006
_cell_formula_units_Z   4
loop_
 _symmetry_equiv_pos_site_id
 _symmetry_equiv_pos_as_xyz
  1  'x, y, z'
loop_
 _atom_site_type_symbol
 _atom_site_label
 _atom_site_symmetry_multiplicity
 _atom_site_fract_x
 _atom_site_fract_y
 _atom_site_fract_z
 _atom_site_occupancy
  C  C0  1  0.26349100  0.07818800  0.33349600  1
  C  C1  1  0.73650900  0.92181200  0.66650400  1
  C  C2  1  0.23650300  0.66651300  0.92179100  1
  C  C3  1  0.76349700  0.33348700  0.07820900  1
  Ni  Ni4  1  0.10577400  0.09400200  0.06597200  1
  Ni  Ni5  1  0.90381900  0.70252000  0.44471400  1
  Ni  Ni6  1  0.39421500  0.93402600  0.90596900  1
  Ni  Ni7  1  0.40382500  0.44472500  0.70251700  1
  Ni  Ni8  1  0.60578500  0.06597400  0.09403100  1
  Ni  Ni9  1  0.09618100  0.29748000  0.55528600  1
  Ni  Ni10  1  0.89422600  0.90599800  0.93402800  1
  Ni  Ni11  1  0.59617500  0.55527500  0.29748300  1
  Cu  Cu12  1  0.35137400  0.22688300  0.99175200  1
  Cu  Cu13  1  0.64862600  0.77311700  0.00824800  1
  Cu  Cu14  1  0.02595800  0.46492700  0.25882400  1
  Cu  Cu15  1  0.97404200  0.53507200  0.74117600  1
  Cu  Cu16  1  0.14864800  0.00824500  0.77308800  1
  Cu  Cu17  1  0.85135200  0.99175500  0.22691200  1
  Cu  Cu18  1  0.47399700  0.74121400  0.53505100  1
  Cu  Cu19  1  0.52600300  0.25878600  0.46494900  1
  C  C20  1  0.90053900  0.67657900  0.62521000  1
  C  C21  1  0.09701100  0.10541500  0.89010000  1
  C  C22  1  0.42471200  0.36187600  0.56897900  1
  C  C23  1  0.59946800  0.37479000  0.32339600  1
  C  C24  1  0.36840200  0.86531500  0.45826100  1
  C  C25  1  0.36316700  0.38746700  0.88591400  1
  C  C26  1  0.07533700  0.43103500  0.63810300  1
  C  C27  1  0.30108200  0.83969900  0.07096800  1
  C  C28  1  0.59698900  0.89012900  0.10543200  1
  C  C29  1  0.44663600  0.18301900  0.11747700  1
  C  C30  1  0.57528800  0.63812400  0.43102100  1
  C  C31  1  0.69562700  0.07925600  0.22143500  1
  C  C32  1  0.40053200  0.62521000  0.67660400  1
  C  C33  1  0.05336000  0.88251700  0.81697700  1
  C  C34  1  0.13685700  0.11409600  0.61250500  1
  C  C35  1  0.19566400  0.22138700  0.07927200  1
  C  C36  1  0.63159800  0.13468500  0.54173900  1
  C  C37  1  0.92466300  0.56896500  0.36189700  1
  C  C38  1  0.86314300  0.88590400  0.38749500  1
  C  C39  1  0.09946100  0.32342100  0.37479000  1
  C  C40  1  0.55336400  0.81698100  0.88252300  1
  C  C41  1  0.40301100  0.10987100  0.89456800  1
  C  C42  1  0.80433600  0.77861300  0.92072800  1
  C  C43  1  0.30437300  0.92074400  0.77856500  1
  C  C44  1  0.13154500  0.54176400  0.13465300  1
  C  C45  1  0.90298900  0.89458500  0.10990000  1
  C  C46  1  0.63683300  0.61253300  0.11408600  1
  C  C47  1  0.80109900  0.07097800  0.83971600  1
  C  C48  1  0.69891800  0.16030100  0.92903200  1
  C  C49  1  0.86845500  0.45823600  0.86534700  1
  C  C50  1  0.94664000  0.11748300  0.18302300  1
  C  C51  1  0.19890100  0.92902200  0.16028400  1
