# generated using pymatgen
data_Cu7Ni19C32
_symmetry_space_group_name_H-M   'P 1'
_cell_length_a   7.70817927
_cell_length_b   10.08144284
_cell_length_c   17.20127887
_cell_angle_alpha   90.00000000
_cell_angle_beta   90.00000000
_cell_angle_gamma   90.00000000
_symmetry_Int_Tables_number   1
_chemical_formula_structural   Cu7Ni19C32
_chemical_formula_sum   'Cu14 Ni38 C64'
_cell_volume   1336.70396226
_cell_formula_units_Z   2
loop_
 _symmetry_equiv_pos_site_id
 _symmetry_equiv_pos_as_xyz
  1  'x, y, z'
loop_
 _atom_site_type_symbol
 _atom_site_label
 _atom_site_symmetry_multiplicity
 _atom_site_fract_x
 _atom_site_fract_y
 _atom_site_fract_z
 _atom_site_occupancy
  C  C0  1  0.49812661  0.37656513  0.88394791  1
  C  C1  1  0.49712362  0.37596750  0.61559844  1
  C  C2  1  0.00187339  0.37656513  0.88394791  1
  C  C3  1  0.00287638  0.37596750  0.61559844  1
  C  C4  1  0.50287638  0.62403250  0.11559844  1
  C  C5  1  0.50187339  0.62343487  0.38394791  1
  C  C6  1  0.99712362  0.62403250  0.11559844  1
  C  C7  1  0.99812661  0.62343487  0.38394791  1
  C  C8  1  0.75000000  0.45758175  0.01245705  1
  C  C9  1  0.75000000  0.45560903  0.48756755  1
  C  C10  1  0.25000000  0.54439097  0.98756755  1
  C  C11  1  0.25000000  0.54241825  0.51245705  1
  C  C12  1  0.75000000  0.52829963  0.85088791  1
  C  C13  1  0.75000000  0.52770817  0.64901431  1
  C  C14  1  0.25000000  0.47229183  0.14901431  1
  C  C15  1  0.25000000  0.47170037  0.35088791  1
  C  C16  1  0.75000000  0.75556213  0.06620880  1
  C  C17  1  0.75000000  0.75034327  0.43544981  1
  C  C18  1  0.25000000  0.24965673  0.93544981  1
  C  C19  1  0.25000000  0.24443787  0.56620880  1
  C  C20  1  0.41156346  0.00981231  0.82751130  1
  C  C21  1  0.40241882  0.01256723  0.67123129  1
  C  C22  1  0.08843654  0.00981231  0.82751130  1
  C  C23  1  0.09758118  0.01256723  0.67123129  1
  C  C24  1  0.59758118  0.98743277  0.17123129  1
  C  C25  1  0.58843654  0.99018769  0.32751130  1
  C  C26  1  0.90241882  0.98743277  0.17123129  1
  C  C27  1  0.91156346  0.99018769  0.32751130  1
  C  C28  1  0.51123360  0.99758878  0.00477585  1
  C  C29  1  0.48876640  0.00241122  0.50477585  1
  C  C30  1  0.98876640  0.99758878  0.00477585  1
  C  C31  1  0.01123360  0.00241122  0.50477585  1
  C  C32  1  0.25000000  0.81761155  0.24993244  1
  C  C33  1  0.75000000  0.18238845  0.74993244  1
  C  C34  1  0.49138079  0.27229122  0.25000204  1
  C  C35  1  0.00861921  0.27229122  0.25000204  1
  C  C36  1  0.50861921  0.72770878  0.75000204  1
  C  C37  1  0.99138079  0.72770878  0.75000204  1
  C  C38  1  0.45530109  0.30291820  0.06391738  1
  C  C39  1  0.45527039  0.30281293  0.43588760  1
  C  C40  1  0.04469891  0.30291820  0.06391738  1
  C  C41  1  0.04472961  0.30281293  0.43588760  1
  C  C42  1  0.54472961  0.69718707  0.93588760  1
  C  C43  1  0.54469891  0.69708180  0.56391738  1
  C  C44  1  0.95527039  0.69718707  0.93588760  1
  C  C45  1  0.95530109  0.69708180  0.56391738  1
  C  C46  1  0.75000000  0.74129817  0.25016545  1
  C  C47  1  0.25000000  0.25870183  0.75016545  1
  C  C48  1  0.75000000  0.47844523  0.15770287  1
  C  C49  1  0.75000000  0.47832149  0.34221417  1
  C  C50  1  0.25000000  0.52167851  0.84221417  1
  C  C51  1  0.25000000  0.52155477  0.65770287  1
  C  C52  1  0.25000000  0.77106028  0.06712349  1
  C  C53  1  0.25000000  0.77134631  0.43253311  1
  C  C54  1  0.75000000  0.22865369  0.93253311  1
  C  C55  1  0.75000000  0.22893972  0.56712349  1
  C  C56  1  0.25000000  0.08205968  0.14849199  1
  C  C57  1  0.25000000  0.08206342  0.35177444  1
  C  C58  1  0.75000000  0.91793658  0.85177444  1
  C  C59  1  0.75000000  0.91794032  0.64849199  1
  Ni  Ni60  1  0.55730838  0.84338297  0.87838184  1
  Ni  Ni61  1  0.55815666  0.84252190  0.62197683  1
  Ni  Ni62  1  0.94269162  0.84338297  0.87838184  1
  Ni  Ni63  1  0.94184334  0.84252190  0.62197683  1
  Ni  Ni64  1  0.44184334  0.15747810  0.12197683  1
  Ni  Ni65  1  0.44269162  0.15661703  0.37838184  1
  Ni  Ni66  1  0.05815666  0.15747810  0.12197683  1
  Ni  Ni67  1  0.05730838  0.15661703  0.37838184  1
  Ni  Ni68  1  0.56059779  0.42401966  0.11732945  1
  Ni  Ni69  1  0.56031951  0.42374860  0.38212124  1
  Ni  Ni70  1  0.93940221  0.42401966  0.11732945  1
  Ni  Ni71  1  0.93968049  0.42374860  0.38212124  1
  Ni  Ni72  1  0.43968049  0.57625140  0.88212124  1
  Ni  Ni73  1  0.43940221  0.57598034  0.61732945  1
  Ni  Ni74  1  0.06031951  0.57625140  0.88212124  1
  Ni  Ni75  1  0.06059779  0.57598034  0.61732945  1
  Ni  Ni76  1  0.55634347  0.25407944  0.97867917  1
  Ni  Ni77  1  0.55782042  0.25580131  0.52092230  1
  Ni  Ni78  1  0.94365653  0.25407944  0.97867917  1
  Ni  Ni79  1  0.94217958  0.25580131  0.52092230  1
  Ni  Ni80  1  0.44217958  0.74419869  0.02092230  1
  Ni  Ni81  1  0.44365653  0.74592056  0.47867917  1
  Ni  Ni82  1  0.05782042  0.74419869  0.02092230  1
  Ni  Ni83  1  0.05634347  0.74592056  0.47867917  1
  Ni  Ni84  1  0.25000000  0.36066914  0.04077882  1
  Ni  Ni85  1  0.25000000  0.36053732  0.45871346  1
  Ni  Ni86  1  0.75000000  0.63946268  0.95871346  1
  Ni  Ni87  1  0.75000000  0.63933086  0.54077882  1
  Ni  Ni88  1  0.75000000  0.93369080  0.75008706  1
  Ni  Ni89  1  0.25000000  0.06630920  0.25008706  1
  Ni  Ni90  1  0.25000000  0.92878568  0.10463549  1
  Ni  Ni91  1  0.25000000  0.92820975  0.39462379  1
  Ni  Ni92  1  0.75000000  0.07179025  0.89462379  1
  Ni  Ni93  1  0.75000000  0.07121432  0.60463549  1
  Ni  Ni94  1  0.75000000  0.64704655  0.16625896  1
  Ni  Ni95  1  0.75000000  0.64721649  0.33424454  1
  Ni  Ni96  1  0.25000000  0.35278351  0.83424454  1
  Ni  Ni97  1  0.25000000  0.35295345  0.66625896  1
  Cu  Cu98  1  0.57314389  0.84350851  0.25047548  1
  Cu  Cu99  1  0.92685611  0.84350851  0.25047548  1
  Cu  Cu100  1  0.42685611  0.15649149  0.75047548  1
  Cu  Cu101  1  0.07314389  0.15649149  0.75047548  1
  Cu  Cu102  1  0.75000000  0.33396629  0.85531747  1
  Cu  Cu103  1  0.75000000  0.33346618  0.64475794  1
  Cu  Cu104  1  0.25000000  0.66653382  0.14475794  1
  Cu  Cu105  1  0.25000000  0.66603371  0.35531747  1
  Cu  Cu106  1  0.25000000  0.59147666  0.74989840  1
  Cu  Cu107  1  0.75000000  0.40852334  0.24989840  1
  Cu  Cu108  1  0.75000000  0.61130902  0.74989856  1
  Cu  Cu109  1  0.25000000  0.38869098  0.24989856  1
  Cu  Cu110  1  0.75000000  0.95169603  0.07814036  1
  Cu  Cu111  1  0.25000000  0.04830397  0.57814036  1
  C  C112  1  0.75000000  0.09354953  0.25113978  1
  C  C113  1  0.25000000  0.90645047  0.75113978  1
  C  C114  1  0.75000000  0.94764336  0.41446576  1
  C  C115  1  0.25000000  0.05235664  0.91446576  1
