# generated using pymatgen
data_CuNi2C13
_symmetry_space_group_name_H-M   'P 1'
_cell_length_a   7.02698700
_cell_length_b   9.72909900
_cell_length_c   22.97324100
_cell_angle_alpha   90.00000000
_cell_angle_beta   90.00000000
_cell_angle_gamma   90.00000000
_symmetry_Int_Tables_number   1
_chemical_formula_structural   CuNi2C13
_chemical_formula_sum   'Cu8 Ni16 C104'
_cell_volume   1570.59438794
_cell_formula_units_Z   8
loop_
 _symmetry_equiv_pos_site_id
 _symmetry_equiv_pos_as_xyz
  1  'x, y, z'
loop_
 _atom_site_type_symbol
 _atom_site_label
 _atom_site_symmetry_multiplicity
 _atom_site_fract_x
 _atom_site_fract_y
 _atom_site_fract_z
 _atom_site_occupancy
  C  C0  1  0.82259400  0.36529900  0.16393400  1
  C  C1  1  0.67740600  0.86529900  0.83606600  1
  C  C2  1  0.32259400  0.63470100  0.33606600  1
  C  C3  1  0.17740600  0.13470100  0.66393400  1
  C  C4  1  0.17740600  0.63470100  0.83606600  1
  C  C5  1  0.32259400  0.13470100  0.16393400  1
  C  C6  1  0.67740600  0.36529900  0.66393400  1
  C  C7  1  0.82259400  0.86529900  0.33606600  1
  C  C8  1  0.09616000  0.76665700  0.18211900  1
  C  C9  1  0.40384000  0.26665700  0.81788100  1
  C  C10  1  0.59616000  0.23334300  0.31788100  1
  C  C11  1  0.90384000  0.73334300  0.68211900  1
  C  C12  1  0.90384000  0.23334300  0.81788100  1
  C  C13  1  0.59616000  0.73334300  0.18211900  1
  C  C14  1  0.40384000  0.76665700  0.68211900  1
  C  C15  1  0.09616000  0.26665700  0.31788100  1
  C  C16  1  0.86575600  0.00959100  0.07192600  1
  C  C17  1  0.63424400  0.50959100  0.92807400  1
  C  C18  1  0.36575600  0.99040900  0.42807400  1
  C  C19  1  0.13424400  0.49040900  0.57192600  1
  C  C20  1  0.13424400  0.99040900  0.92807400  1
  C  C21  1  0.36575600  0.49040900  0.07192600  1
  C  C22  1  0.63424400  0.00959100  0.57192600  1
  C  C23  1  0.86575600  0.50959100  0.42807400  1
  Ni  Ni24  1  0.85910000  0.62203500  0.07848200  1
  Ni  Ni25  1  0.64090000  0.12203500  0.92151800  1
  Ni  Ni26  1  0.35910000  0.37796500  0.42151800  1
  Ni  Ni27  1  0.14090000  0.87796500  0.57848200  1
  Ni  Ni28  1  0.14090000  0.37796500  0.92151800  1
  Ni  Ni29  1  0.35910000  0.87796500  0.07848200  1
  Ni  Ni30  1  0.64090000  0.62203500  0.57848200  1
  Ni  Ni31  1  0.85910000  0.12203500  0.42151800  1
  Ni  Ni32  1  0.81567900  0.06203700  0.22073200  1
  Ni  Ni33  1  0.68432100  0.56203700  0.77926800  1
  Ni  Ni34  1  0.31567900  0.93796300  0.27926800  1
  Ni  Ni35  1  0.18432100  0.43796300  0.72073200  1
  Ni  Ni36  1  0.18432100  0.93796300  0.77926800  1
  Ni  Ni37  1  0.31567900  0.43796300  0.22073200  1
  Ni  Ni38  1  0.68432100  0.06203700  0.72073200  1
  Ni  Ni39  1  0.81567900  0.56203700  0.27926800  1
  Cu  Cu40  1  0.66174400  0.25714700  0.02868800  1
  Cu  Cu41  1  0.83825600  0.75714700  0.97131200  1
  Cu  Cu42  1  0.16174400  0.74285300  0.47131200  1
  Cu  Cu43  1  0.33825600  0.24285300  0.52868800  1
  Cu  Cu44  1  0.33825600  0.74285300  0.97131200  1
  Cu  Cu45  1  0.16174400  0.24285300  0.02868800  1
  Cu  Cu46  1  0.83825600  0.25714700  0.52868800  1
  Cu  Cu47  1  0.66174400  0.75714700  0.47131200  1
  C  C48  1  0.87135600  0.09869200  0.28906100  1
  C  C49  1  0.62864400  0.59869200  0.71093900  1
  C  C50  1  0.37135600  0.90130800  0.21093900  1
  C  C51  1  0.12864400  0.40130800  0.78906100  1
  C  C52  1  0.12864400  0.90130800  0.71093900  1
  C  C53  1  0.37135600  0.40130800  0.28906100  1
  C  C54  1  0.62864400  0.09869200  0.78906100  1
  C  C55  1  0.87135600  0.59869200  0.21093900  1
  C  C56  1  0.85687700  0.27513600  0.39005500  1
  C  C57  1  0.64312300  0.77513600  0.60994500  1
  C  C58  1  0.35687700  0.72486400  0.10994500  1
  C  C59  1  0.14312300  0.22486400  0.89005500  1
  C  C60  1  0.14312300  0.72486400  0.60994500  1
  C  C61  1  0.35687700  0.22486400  0.39005500  1
  C  C62  1  0.64312300  0.27513600  0.89005500  1
  C  C63  1  0.85687700  0.77513600  0.10994500  1
  C  C64  1  0.79832100  0.39330300  0.27881900  1
  C  C65  1  0.70167900  0.89330300  0.72118100  1
  C  C66  1  0.29832100  0.60669700  0.22118100  1
  C  C67  1  0.20167900  0.10669700  0.77881900  1
  C  C68  1  0.20167900  0.60669700  0.72118100  1
  C  C69  1  0.29832100  0.10669700  0.27881900  1
  C  C70  1  0.70167900  0.39330300  0.77881900  1
  C  C71  1  0.79832100  0.89330300  0.22118100  1
  C  C72  1  0.16263100  0.36373500  0.99328300  1
  C  C73  1  0.33736900  0.86373500  0.00671700  1
  C  C74  1  0.66263100  0.63626500  0.50671700  1
  C  C75  1  0.83736900  0.13626500  0.49328300  1
  C  C76  1  0.83736900  0.63626500  0.00671700  1
  C  C77  1  0.66263100  0.13626500  0.99328300  1
  C  C78  1  0.33736900  0.36373500  0.49328300  1
  C  C79  1  0.16263100  0.86373500  0.50671700  1
  C  C80  1  0.58219600  0.37468200  0.00888200  1
  C  C81  1  0.91780400  0.87468200  0.99111800  1
  C  C82  1  0.08219600  0.62531800  0.49111800  1
  C  C83  1  0.41780400  0.12531800  0.50888200  1
  C  C84  1  0.41780400  0.62531800  0.99111800  1
  C  C85  1  0.08219600  0.12531800  0.00888200  1
  C  C86  1  0.91780400  0.37468200  0.50888200  1
  C  C87  1  0.58219600  0.87468200  0.49111800  1
  C  C88  1  0.67238500  0.54715200  0.10722300  1
  C  C89  1  0.82761500  0.04715200  0.89277700  1
  C  C90  1  0.17238500  0.45284800  0.39277700  1
  C  C91  1  0.32761500  0.95284800  0.60722300  1
  C  C92  1  0.32761500  0.45284800  0.89277700  1
  C  C93  1  0.17238500  0.95284800  0.10722300  1
  C  C94  1  0.82761500  0.54715200  0.60722300  1
  C  C95  1  0.67238500  0.04715200  0.39277700  1
  C  C96  1  0.62403600  0.15626000  0.21146100  1
  C  C97  1  0.87596400  0.65626000  0.78853900  1
  C  C98  1  0.12403600  0.84374000  0.28853900  1
  C  C99  1  0.37596400  0.34374000  0.71146100  1
  C  C100  1  0.37596400  0.84374000  0.78853900  1
  C  C101  1  0.12403600  0.34374000  0.21146100  1
  C  C102  1  0.87596400  0.15626000  0.71146100  1
  C  C103  1  0.62403600  0.65626000  0.28853900  1
  C  C104  1  0.96554600  0.11229100  0.17098000  1
  C  C105  1  0.53445400  0.61229100  0.82902000  1
  C  C106  1  0.46554600  0.88770900  0.32902000  1
  C  C107  1  0.03445400  0.38770900  0.67098000  1
  C  C108  1  0.03445400  0.88770900  0.82902000  1
  C  C109  1  0.46554600  0.38770900  0.17098000  1
  C  C110  1  0.53445400  0.11229100  0.67098000  1
  C  C111  1  0.96554600  0.61229100  0.32902000  1
  C  C112  1  0.74651400  0.23959300  0.08179400  1
  C  C113  1  0.75348600  0.73959300  0.91820600  1
  C  C114  1  0.24651400  0.76040700  0.41820600  1
  C  C115  1  0.25348600  0.26040700  0.58179400  1
  C  C116  1  0.25348600  0.76040700  0.91820600  1
  C  C117  1  0.24651400  0.26040700  0.08179400  1
  C  C118  1  0.75348600  0.23959300  0.58179400  1
  C  C119  1  0.74651400  0.73959300  0.41820600  1
  C  C120  1  0.04273400  0.53415400  0.10020000  1
  C  C121  1  0.45726600  0.03415400  0.89980000  1
  C  C122  1  0.54273400  0.46584600  0.39980000  1
  C  C123  1  0.95726600  0.96584600  0.60020000  1
  C  C124  1  0.95726600  0.46584600  0.89980000  1
  C  C125  1  0.54273400  0.96584600  0.10020000  1
  C  C126  1  0.45726600  0.53415400  0.60020000  1
  C  C127  1  0.04273400  0.03415400  0.39980000  1
