# generated using pymatgen
data_Cu2Ni4C3
_symmetry_space_group_name_H-M   'P 1'
_cell_length_a   6.30341383
_cell_length_b   6.30341383
_cell_length_c   6.30341383
_cell_angle_alpha   106.39728994
_cell_angle_beta   106.39728994
_cell_angle_gamma   115.81124801
_symmetry_Int_Tables_number   1
_chemical_formula_structural   Cu2Ni4C3
_chemical_formula_sum   'Cu2 Ni4 C3'
_cell_volume   191.00960121
_cell_formula_units_Z   1
loop_
 _symmetry_equiv_pos_site_id
 _symmetry_equiv_pos_as_xyz
  1  'x, y, z'
loop_
 _atom_site_type_symbol
 _atom_site_label
 _atom_site_symmetry_multiplicity
 _atom_site_fract_x
 _atom_site_fract_y
 _atom_site_fract_z
 _atom_site_occupancy
  C  C0  1  0.00000000  0.00000000  0.00000000  1
  C  C1  1  0.22707800  0.22707800  0.00000000  1
  C  C2  1  0.77292200  0.77292200  0.00000000  1
  Ni  Ni3  1  0.22913400  0.77086600  0.00000000  1
  Ni  Ni4  1  0.77086600  0.22913400  0.00000000  1
  Ni  Ni5  1  0.22913400  0.22913400  0.45826900  1
  Ni  Ni6  1  0.77086600  0.77086600  0.54173100  1
  Cu  Cu7  1  0.25000000  0.75000000  0.50000000  1
  Cu  Cu8  1  0.75000000  0.25000000  0.50000000  1
