# generated using pymatgen
data_Cu2Ni2C11
_symmetry_space_group_name_H-M   'P 1'
_cell_length_a   5.19406231
_cell_length_b   5.19406231
_cell_length_c   14.12936100
_cell_angle_alpha   90.00000000
_cell_angle_beta   90.00000000
_cell_angle_gamma   120.00000396
_symmetry_Int_Tables_number   1
_chemical_formula_structural   Cu2Ni2C11
_chemical_formula_sum   'Cu4 Ni4 C22'
_cell_volume   330.11666306
_cell_formula_units_Z   2
loop_
 _symmetry_equiv_pos_site_id
 _symmetry_equiv_pos_as_xyz
  1  'x, y, z'
loop_
 _atom_site_type_symbol
 _atom_site_label
 _atom_site_symmetry_multiplicity
 _atom_site_fract_x
 _atom_site_fract_y
 _atom_site_fract_z
 _atom_site_occupancy
  C  C0  1  0.33333300  0.66666700  0.18970600  1
  C  C1  1  0.33333300  0.66666700  0.68970600  1
  C  C2  1  0.66666700  0.33333300  0.81029400  1
  C  C3  1  0.66666700  0.33333300  0.31029400  1
  Ni  Ni4  1  0.00000000  0.00000000  0.14287800  1
  Ni  Ni5  1  0.00000000  0.00000000  0.64287800  1
  Ni  Ni6  1  0.00000000  0.00000000  0.85712200  1
  Ni  Ni7  1  0.00000000  0.00000000  0.35712200  1
  Cu  Cu8  1  0.33333300  0.66666700  0.48682200  1
  Cu  Cu9  1  0.33333300  0.66666700  0.98682200  1
  Cu  Cu10  1  0.66666700  0.33333300  0.51317800  1
  Cu  Cu11  1  0.66666700  0.33333300  0.01317800  1
  C  C12  1  0.34712500  0.02641700  0.41541900  1
  C  C13  1  0.67929200  0.65287500  0.41541900  1
  C  C14  1  0.97358300  0.32070800  0.41541900  1
  C  C15  1  0.67929200  0.02641700  0.91541900  1
  C  C16  1  0.34712500  0.32070800  0.91541900  1
  C  C17  1  0.97358300  0.65287500  0.91541900  1
  C  C18  1  0.65287500  0.97358300  0.58458100  1
  C  C19  1  0.32070800  0.34712500  0.58458100  1
  C  C20  1  0.02641700  0.67929200  0.58458100  1
  C  C21  1  0.32070800  0.97358300  0.08458100  1
  C  C22  1  0.65287500  0.67929200  0.08458100  1
  C  C23  1  0.02641700  0.34712500  0.08458100  1
  C  C24  1  0.28869400  0.28869400  0.25000000  1
  C  C25  1  0.00000000  0.71130600  0.25000000  1
  C  C26  1  0.71130600  0.00000000  0.25000000  1
  C  C27  1  0.00000000  0.28869400  0.75000000  1
  C  C28  1  0.28869400  0.00000000  0.75000000  1
  C  C29  1  0.71130600  0.71130600  0.75000000  1
