# generated using pymatgen
data_CuNiC8
_symmetry_space_group_name_H-M   'P 1'
_cell_length_a   8.54600394
_cell_length_b   8.54462051
_cell_length_c   8.54397561
_cell_angle_alpha   90.00000000
_cell_angle_beta   90.00000000
_cell_angle_gamma   90.00000000
_symmetry_Int_Tables_number   1
_chemical_formula_structural   CuNiC8
_chemical_formula_sum   'Cu4 Ni4 C32'
_cell_volume   623.90126747
_cell_formula_units_Z   4
loop_
 _symmetry_equiv_pos_site_id
 _symmetry_equiv_pos_as_xyz
  1  'x, y, z'
loop_
 _atom_site_type_symbol
 _atom_site_label
 _atom_site_symmetry_multiplicity
 _atom_site_fract_x
 _atom_site_fract_y
 _atom_site_fract_z
 _atom_site_occupancy
  C  C0  1  -0.00000000  0.50000000  0.50000000  1
  C  C1  1  0.50000000  -0.00000000  0.50000000  1
  C  C2  1  0.50000000  0.50000000  -0.00000000  1
  C  C3  1  -0.00000000  0.50000000  -0.00000000  1
  Ni  Ni4  1  0.50000000  -0.00000000  -0.00000000  1
  Ni  Ni5  1  -0.00000000  -0.00000000  0.50000000  1
  Ni  Ni6  1  -0.00000000  -0.00000000  -0.00000000  1
  Ni  Ni7  1  0.50000000  0.50000000  0.50000000  1
  Cu  Cu8  1  0.24976475  0.24784223  0.24972439  1
  Cu  Cu9  1  0.75023525  0.75215777  0.24972439  1
  Cu  Cu10  1  0.75023525  0.24784223  0.75027561  1
  Cu  Cu11  1  0.24976475  0.75215777  0.75027561  1
  C  C12  1  0.74967873  0.75258281  0.75017856  1
  C  C13  1  0.25032127  0.24741719  0.75017856  1
  C  C14  1  0.25032127  0.75258281  0.24982144  1
  C  C15  1  0.74967873  0.24741719  0.24982144  1
  C  C16  1  0.98983704  0.18908250  0.29529811  1
  C  C17  1  0.01016296  0.81091750  0.29529811  1
  C  C18  1  0.01016296  0.18908250  0.70470189  1
  C  C19  1  0.98983704  0.81091750  0.70470189  1
  C  C20  1  0.29778354  0.99110200  0.19098533  1
  C  C21  1  0.29778354  0.00889800  0.80901467  1
  C  C22  1  0.70221646  0.00889800  0.19098533  1
  C  C23  1  0.70221646  0.99110200  0.80901467  1
  C  C24  1  0.19722334  0.28575487  0.99068867  1
  C  C25  1  0.80277666  0.28575487  0.00931133  1
  C  C26  1  0.19722334  0.71424513  0.00931133  1
  C  C27  1  0.80277666  0.71424513  0.99068867  1
  C  C28  1  0.50852769  0.30069946  0.21481407  1
  C  C29  1  0.49147231  0.69930054  0.21481407  1
  C  C30  1  0.49147231  0.30069946  0.78518593  1
  C  C31  1  0.50852769  0.69930054  0.78518593  1
  C  C32  1  0.21204834  0.50962706  0.29732287  1
  C  C33  1  0.21204834  0.49037294  0.70267713  1
  C  C34  1  0.78795166  0.49037294  0.29732287  1
  C  C35  1  0.78795166  0.50962706  0.70267713  1
  C  C36  1  0.29996254  0.21248206  0.50862557  1
  C  C37  1  0.70003746  0.21248206  0.49137443  1
  C  C38  1  0.29996254  0.78751794  0.49137443  1
  C  C39  1  0.70003746  0.78751794  0.50862557  1
