# generated using pymatgen
data_Cu7NiC31
_symmetry_space_group_name_H-M   'P 1'
_cell_length_a   7.65244594
_cell_length_b   7.65244594
_cell_length_c   7.64977523
_cell_angle_alpha   89.92750552
_cell_angle_beta   89.92750552
_cell_angle_gamma   90.21510199
_symmetry_Int_Tables_number   1
_chemical_formula_structural   Cu7NiC31
_chemical_formula_sum   'Cu7 Ni1 C31'
_cell_volume   447.96641652
_cell_formula_units_Z   1
loop_
 _symmetry_equiv_pos_site_id
 _symmetry_equiv_pos_as_xyz
  1  'x, y, z'
loop_
 _atom_site_type_symbol
 _atom_site_label
 _atom_site_symmetry_multiplicity
 _atom_site_fract_x
 _atom_site_fract_y
 _atom_site_fract_z
 _atom_site_occupancy
  Ni  Ni0  1  0.25922100  0.25922100  0.25063100  1
  Cu  Cu1  1  0.25554800  0.25554800  0.74716800  1
  Cu  Cu2  1  0.26323600  0.72821700  0.25027700  1
  Cu  Cu3  1  0.26739200  0.74561200  0.74745500  1
  Cu  Cu4  1  0.72821700  0.26323600  0.25027700  1
  Cu  Cu5  1  0.74561200  0.26739200  0.74745500  1
  Cu  Cu6  1  0.74767600  0.74767600  0.25093200  1
  Cu  Cu7  1  0.72891500  0.72891500  0.74887300  1
  C  C8  1  0.99116400  0.99116400  0.97502900  1
  C  C9  1  0.99785300  0.99785300  0.50640000  1
  C  C10  1  0.00082100  0.50224700  0.00125700  1
  C  C11  1  0.00064000  0.50446100  0.49969600  1
  C  C12  1  0.50224700  0.00082100  0.00125700  1
  C  C13  1  0.50446100  0.00064000  0.49969600  1
  C  C14  1  0.50157900  0.50157900  0.99930300  1
  C  C15  1  0.50181500  0.50181500  0.50096600  1
  C  C16  1  0.94323900  0.94323900  0.75534900  1
  C  C17  1  0.97619100  0.44515800  0.25102900  1
  C  C18  1  0.01981500  0.55927400  0.75050300  1
  C  C19  1  0.44515800  0.97619100  0.25102900  1
  C  C20  1  0.55927400  0.01981500  0.75050300  1
  C  C21  1  0.52275700  0.52275700  0.25031400  1
  C  C22  1  0.47838900  0.47838900  0.75042500  1
  C  C23  1  0.25061900  0.00294300  0.96090800  1
  C  C24  1  0.25124200  0.00293200  0.54891600  1
  C  C25  1  0.25077500  0.50615500  0.02210800  1
  C  C26  1  0.25126000  0.50613400  0.48044400  1
  C  C27  1  0.75539600  0.00593300  0.06086700  1
  C  C28  1  0.75536300  0.00645900  0.43357600  1
  C  C29  1  0.75246400  0.50415200  0.97378500  1
  C  C30  1  0.75211400  0.50483800  0.52648400  1
  C  C31  1  0.00294300  0.25061900  0.96090800  1
  C  C32  1  0.00293200  0.25124200  0.54891600  1
  C  C33  1  0.00593300  0.75539600  0.06086700  1
  C  C34  1  0.00645900  0.75536300  0.43357600  1
  C  C35  1  0.50615500  0.25077500  0.02210800  1
  C  C36  1  0.50613400  0.25126000  0.48044400  1
  C  C37  1  0.50415200  0.75246400  0.97378500  1
  C  C38  1  0.50483800  0.75211400  0.52648400  1
