# generated using pymatgen
data_Cu3NiC4
_symmetry_space_group_name_H-M   'P 1'
_cell_length_a   6.74322700
_cell_length_b   8.54589200
_cell_length_c   12.13249700
_cell_angle_alpha   90.00000000
_cell_angle_beta   90.00000000
_cell_angle_gamma   90.00000000
_symmetry_Int_Tables_number   1
_chemical_formula_structural   Cu3NiC4
_chemical_formula_sum   'Cu12 Ni4 C16'
_cell_volume   699.15806608
_cell_formula_units_Z   4
loop_
 _symmetry_equiv_pos_site_id
 _symmetry_equiv_pos_as_xyz
  1  'x, y, z'
loop_
 _atom_site_type_symbol
 _atom_site_label
 _atom_site_symmetry_multiplicity
 _atom_site_fract_x
 _atom_site_fract_y
 _atom_site_fract_z
 _atom_site_occupancy
  C  C0  1  0.50000000  0.17670400  0.50000000  1
  C  C1  1  0.00000000  0.32329600  0.00000000  1
  C  C2  1  0.50000000  0.82329600  0.50000000  1
  C  C3  1  0.00000000  0.67670400  0.00000000  1
  C  C4  1  0.30215800  0.00000000  0.89008200  1
  C  C5  1  0.69784200  0.00000000  0.10991800  1
  C  C6  1  0.80215800  0.50000000  0.60991800  1
  C  C7  1  0.19784200  0.50000000  0.39008200  1
  C  C8  1  0.07850700  0.24396800  0.72336300  1
  C  C9  1  0.92149300  0.24396800  0.27663700  1
  C  C10  1  0.57850700  0.25603200  0.77663700  1
  C  C11  1  0.42149300  0.25603200  0.22336300  1
  C  C12  1  0.92149300  0.75603200  0.27663700  1
  C  C13  1  0.07850700  0.75603200  0.72336300  1
  C  C14  1  0.42149300  0.74396800  0.22336300  1
  C  C15  1  0.57850700  0.74396800  0.77663700  1
  Ni  Ni16  1  0.31655100  0.50000000  0.61853300  1
  Ni  Ni17  1  0.68344900  0.50000000  0.38146700  1
  Ni  Ni18  1  0.81655100  0.00000000  0.88146700  1
  Ni  Ni19  1  0.18344900  0.00000000  0.11853300  1
  Cu  Cu20  1  0.34799800  0.00000000  0.68672600  1
  Cu  Cu21  1  0.65200200  0.00000000  0.31327400  1
  Cu  Cu22  1  0.84799800  0.50000000  0.81327400  1
  Cu  Cu23  1  0.15200200  0.50000000  0.18672600  1
  Cu  Cu24  1  0.28100100  0.27147400  0.88239900  1
  Cu  Cu25  1  0.71899900  0.27147400  0.11760100  1
  Cu  Cu26  1  0.78100100  0.22852600  0.61760100  1
  Cu  Cu27  1  0.21899900  0.22852600  0.38239900  1
  Cu  Cu28  1  0.71899900  0.72852600  0.11760100  1
  Cu  Cu29  1  0.28100100  0.72852600  0.88239900  1
  Cu  Cu30  1  0.21899900  0.77147400  0.38239900  1
  Cu  Cu31  1  0.78100100  0.77147400  0.61760100  1
