# generated using pymatgen
data_Cu3Ni3C8
_symmetry_space_group_name_H-M   'P 1'
_cell_length_a   9.97133900
_cell_length_b   6.94053100
_cell_length_c   8.74458216
_cell_angle_alpha   58.85365691
_cell_angle_beta   90.00000000
_cell_angle_gamma   90.00000000
_symmetry_Int_Tables_number   1
_chemical_formula_structural   Cu3Ni3C8
_chemical_formula_sum   'Cu12 Ni12 C32'
_cell_volume   517.94351028
_cell_formula_units_Z   4
loop_
 _symmetry_equiv_pos_site_id
 _symmetry_equiv_pos_as_xyz
  1  'x, y, z'
loop_
 _atom_site_type_symbol
 _atom_site_label
 _atom_site_symmetry_multiplicity
 _atom_site_fract_x
 _atom_site_fract_y
 _atom_site_fract_z
 _atom_site_occupancy
  C  C0  1  0.22020500  0.78237800  0.65032100  1
  C  C1  1  0.27979500  0.78237800  0.15032100  1
  C  C2  1  0.77979500  0.21762200  0.34967900  1
  C  C3  1  0.72020500  0.21762200  0.84967900  1
  Ni  Ni4  1  0.33346700  0.11148100  0.28539300  1
  Ni  Ni5  1  0.16653300  0.11148100  0.78539300  1
  Ni  Ni6  1  0.66653300  0.88851900  0.71460700  1
  Ni  Ni7  1  0.83346700  0.88851900  0.21460700  1
  Ni  Ni8  1  0.32889700  0.23448400  0.51588800  1
  Ni  Ni9  1  0.17110300  0.23448400  0.01588800  1
  Ni  Ni10  1  0.67110300  0.76551600  0.48411200  1
  Ni  Ni11  1  0.82889700  0.76551600  0.98411200  1
  Ni  Ni12  1  0.48534400  0.41661700  0.25418700  1
  Ni  Ni13  1  0.01465600  0.41661700  0.75418700  1
  Ni  Ni14  1  0.51465600  0.58338300  0.74581300  1
  Ni  Ni15  1  0.98534400  0.58338300  0.24581300  1
  Cu  Cu16  1  0.03417900  0.69149800  0.48471900  1
  Cu  Cu17  1  0.46582100  0.69149800  0.98471900  1
  Cu  Cu18  1  0.96582100  0.30850200  0.51528100  1
  Cu  Cu19  1  0.53417900  0.30850200  0.01528100  1
  Cu  Cu20  1  0.34411900  0.43625400  0.71492000  1
  Cu  Cu21  1  0.15588100  0.43625400  0.21492000  1
  Cu  Cu22  1  0.65588100  0.56374600  0.28508000  1
  Cu  Cu23  1  0.84411900  0.56374600  0.78508000  1
  Cu  Cu24  1  0.08578000  0.78407900  0.89617600  1
  Cu  Cu25  1  0.41422000  0.78407900  0.39617600  1
  Cu  Cu26  1  0.91422000  0.21592100  0.10382400  1
  Cu  Cu27  1  0.58578000  0.21592100  0.60382400  1
  C  C28  1  0.28894200  0.08249400  0.46470900  1
  C  C29  1  0.21105800  0.08249400  0.96470900  1
  C  C30  1  0.71105800  0.91750600  0.53529100  1
  C  C31  1  0.78894200  0.91750600  0.03529100  1
  C  C32  1  0.42569000  0.38925400  0.41840900  1
  C  C33  1  0.07431000  0.38925400  0.91840900  1
  C  C34  1  0.57431000  0.61074600  0.58159100  1
  C  C35  1  0.92569000  0.61074600  0.08159100  1
  C  C36  1  0.45964100  0.22973400  0.22854200  1
  C  C37  1  0.04035900  0.22973400  0.72854200  1
  C  C38  1  0.54035900  0.77026600  0.77145800  1
  C  C39  1  0.95964100  0.77026600  0.27145800  1
  C  C40  1  0.22132900  0.22880500  0.16312300  1
  C  C41  1  0.27867100  0.22880500  0.66312300  1
  C  C42  1  0.77867100  0.77119500  0.83687700  1
  C  C43  1  0.72132900  0.77119500  0.33687700  1
  C  C44  1  0.06941200  0.63849800  0.60618400  1
  C  C45  1  0.43058800  0.63849800  0.10618400  1
  C  C46  1  0.93058800  0.36150200  0.39381600  1
  C  C47  1  0.56941200  0.36150200  0.89381600  1
  C  C48  1  0.36589200  0.55671400  0.74033800  1
  C  C49  1  0.13410800  0.55671400  0.24033800  1
  C  C50  1  0.63410800  0.44328600  0.25966200  1
  C  C51  1  0.86589200  0.44328600  0.75966200  1
  C  C52  1  0.15895000  0.87774900  0.81855600  1
  C  C53  1  0.34105000  0.87774900  0.31855600  1
  C  C54  1  0.84105000  0.12225100  0.18144400  1
  C  C55  1  0.65895000  0.12225100  0.68144400  1
