# generated using pymatgen
data_CuNiC4
_symmetry_space_group_name_H-M   'P 1'
_cell_length_a   14.50439700
_cell_length_b   6.19673500
_cell_length_c   8.68609606
_cell_angle_alpha   75.39451044
_cell_angle_beta   90.00000000
_cell_angle_gamma   90.00000000
_symmetry_Int_Tables_number   1
_chemical_formula_structural   CuNiC4
_chemical_formula_sum   'Cu12 Ni12 C48'
_cell_volume   755.47699905
_cell_formula_units_Z   12
loop_
 _symmetry_equiv_pos_site_id
 _symmetry_equiv_pos_as_xyz
  1  'x, y, z'
loop_
 _atom_site_type_symbol
 _atom_site_label
 _atom_site_symmetry_multiplicity
 _atom_site_fract_x
 _atom_site_fract_y
 _atom_site_fract_z
 _atom_site_occupancy
  Ni  Ni0  1  0.09271100  0.20441100  0.11995300  1
  Ni  Ni1  1  0.59271100  0.79558900  0.38004700  1
  Ni  Ni2  1  0.90728900  0.79558900  0.88004700  1
  Ni  Ni3  1  0.40728900  0.20441100  0.61995300  1
  Ni  Ni4  1  0.19850300  0.84361400  0.35044600  1
  Ni  Ni5  1  0.69850300  0.15638600  0.14955400  1
  Ni  Ni6  1  0.80149700  0.15638600  0.64955400  1
  Ni  Ni7  1  0.30149700  0.84361400  0.85044600  1
  Ni  Ni8  1  0.60285900  0.54701600  0.93576100  1
  Ni  Ni9  1  0.10285900  0.45298400  0.56423900  1
  Ni  Ni10  1  0.39714100  0.45298400  0.06423900  1
  Ni  Ni11  1  0.89714100  0.54701600  0.43576100  1
  Cu  Cu12  1  0.74780500  0.68056600  0.64066500  1
  Cu  Cu13  1  0.24780500  0.31943400  0.85933500  1
  Cu  Cu14  1  0.25219500  0.31943400  0.35933500  1
  Cu  Cu15  1  0.75219500  0.68056600  0.14066500  1
  Cu  Cu16  1  0.54706500  0.33324600  0.32509300  1
  Cu  Cu17  1  0.04706500  0.66675400  0.17490700  1
  Cu  Cu18  1  0.45293500  0.66675400  0.67490700  1
  Cu  Cu19  1  0.95293500  0.33324600  0.82509300  1
  Cu  Cu20  1  0.60316400  0.08650300  0.82921100  1
  Cu  Cu21  1  0.10316400  0.91349700  0.67078900  1
  Cu  Cu22  1  0.39683600  0.91349700  0.17078900  1
  Cu  Cu23  1  0.89683600  0.08650300  0.32921100  1
  C  C24  1  0.68362200  0.57291700  0.77346300  1
  C  C25  1  0.18362200  0.42708300  0.72653700  1
  C  C26  1  0.31637800  0.42708300  0.22653700  1
  C  C27  1  0.81637800  0.57291700  0.27346300  1
  C  C28  1  0.81845000  0.84400400  0.69151200  1
  C  C29  1  0.31845000  0.15599600  0.80848800  1
  C  C30  1  0.18155000  0.15599600  0.30848800  1
  C  C31  1  0.68155000  0.84400400  0.19151200  1
  C  C32  1  0.80516500  0.48354000  0.59754100  1
  C  C33  1  0.30516500  0.51646000  0.90245900  1
  C  C34  1  0.19483500  0.51646000  0.40245900  1
  C  C35  1  0.69483500  0.48354000  0.09754100  1
  C  C36  1  0.70190800  0.81485200  0.49078700  1
  C  C37  1  0.20190800  0.18514800  0.00921300  1
  C  C38  1  0.29809200  0.18514800  0.50921300  1
  C  C39  1  0.79809200  0.81485200  0.99078700  1
  C  C40  1  0.51478300  0.45105300  0.14929200  1
  C  C41  1  0.01478300  0.54894700  0.35070800  1
  C  C42  1  0.48521700  0.54894700  0.85070800  1
  C  C43  1  0.98521700  0.45105300  0.64929200  1
  C  C44  1  0.46788600  0.22676300  0.42936200  1
  C  C45  1  0.96788600  0.77323700  0.07063800  1
  C  C46  1  0.53211400  0.77323700  0.57063800  1
  C  C47  1  0.03211400  0.22676300  0.92936200  1
  C  C48  1  0.60323100  0.49479600  0.39289400  1
  C  C49  1  0.10323100  0.50520400  0.10710600  1
  C  C50  1  0.39676900  0.50520400  0.60710600  1
  C  C51  1  0.89676900  0.49479600  0.89289400  1
  C  C52  1  0.61202000  0.13445100  0.30633600  1
  C  C53  1  0.11202000  0.86554900  0.19366400  1
  C  C54  1  0.38798000  0.86554900  0.69366400  1
  C  C55  1  0.88798000  0.13445100  0.80633600  1
  C  C56  1  0.62407100  0.21878000  0.96469100  1
  C  C57  1  0.12407100  0.78122000  0.53530900  1
  C  C58  1  0.37592900  0.78122000  0.03530900  1
  C  C59  1  0.87592900  0.21878000  0.46469100  1
  C  C60  1  0.68493200  0.13495600  0.71197200  1
  C  C61  1  0.18493200  0.86504400  0.78802800  1
  C  C62  1  0.31506800  0.86504400  0.28802800  1
  C  C63  1  0.81506800  0.13495600  0.21197200  1
  C  C64  1  0.59609900  0.84340200  0.91937900  1
  C  C65  1  0.09609900  0.15659800  0.58062100  1
  C  C66  1  0.40390100  0.15659800  0.08062100  1
  C  C67  1  0.90390100  0.84340200  0.41937900  1
  C  C68  1  0.51428100  0.17264600  0.74391400  1
  C  C69  1  0.01428100  0.82735400  0.75608600  1
  C  C70  1  0.48571900  0.82735400  0.25608600  1
  C  C71  1  0.98571900  0.17264600  0.24391400  1
