# generated using pymatgen
data_CuNiC6
_symmetry_space_group_name_H-M   'P 1'
_cell_length_a   3.82301800
_cell_length_b   6.54350200
_cell_length_c   19.16148700
_cell_angle_alpha   90.00000000
_cell_angle_beta   90.00000000
_cell_angle_gamma   90.00000000
_symmetry_Int_Tables_number   1
_chemical_formula_structural   CuNiC6
_chemical_formula_sum   'Cu4 Ni4 C24'
_cell_volume   479.34233948
_cell_formula_units_Z   4
loop_
 _symmetry_equiv_pos_site_id
 _symmetry_equiv_pos_as_xyz
  1  'x, y, z'
loop_
 _atom_site_type_symbol
 _atom_site_label
 _atom_site_symmetry_multiplicity
 _atom_site_fract_x
 _atom_site_fract_y
 _atom_site_fract_z
 _atom_site_occupancy
  Ni  Ni0  1  0.25000000  0.77512800  0.89413300  1
  Ni  Ni1  1  0.25000000  0.27512800  0.60586700  1
  Ni  Ni2  1  0.75000000  0.22487200  0.10586700  1
  Ni  Ni3  1  0.75000000  0.72487200  0.39413300  1
  Cu  Cu4  1  0.25000000  0.31859500  0.96545400  1
  Cu  Cu5  1  0.25000000  0.81859500  0.53454600  1
  Cu  Cu6  1  0.75000000  0.68140500  0.03454600  1
  Cu  Cu7  1  0.75000000  0.18140500  0.46545400  1
  C  C8  1  0.25000000  0.77118900  0.19954800  1
  C  C9  1  0.25000000  0.27118900  0.30045200  1
  C  C10  1  0.75000000  0.22881100  0.80045200  1
  C  C11  1  0.75000000  0.72881100  0.69954800  1
  C  C12  1  0.25000000  0.64740900  0.00887500  1
  C  C13  1  0.25000000  0.14740900  0.49112500  1
  C  C14  1  0.75000000  0.35259100  0.99112500  1
  C  C15  1  0.75000000  0.85259100  0.50887500  1
  C  C16  1  0.25000000  0.23678800  0.07794600  1
  C  C17  1  0.25000000  0.73678800  0.42205400  1
  C  C18  1  0.75000000  0.76321200  0.92205400  1
  C  C19  1  0.75000000  0.26321200  0.57794600  1
  C  C20  1  0.25000000  0.46899300  0.88334600  1
  C  C21  1  0.25000000  0.96899300  0.61665400  1
  C  C22  1  0.75000000  0.53100700  0.11665400  1
  C  C23  1  0.75000000  0.03100700  0.38334600  1
  C  C24  1  0.25000000  0.83304800  0.80109000  1
  C  C25  1  0.25000000  0.33304800  0.69891000  1
  C  C26  1  0.75000000  0.16695200  0.19891000  1
  C  C27  1  0.75000000  0.66695200  0.30109000  1
  C  C28  1  0.25000000  0.06626300  0.92850900  1
  C  C29  1  0.25000000  0.56626300  0.57149100  1
  C  C30  1  0.75000000  0.93373700  0.07149100  1
  C  C31  1  0.75000000  0.43373700  0.42850900  1
