# generated using pymatgen
data_Cu3Ni2C9
_symmetry_space_group_name_H-M   'P 1'
_cell_length_a   7.30750100
_cell_length_b   7.30856919
_cell_length_c   7.30652794
_cell_angle_alpha   60.16933739
_cell_angle_beta   60.14872480
_cell_angle_gamma   60.17903002
_symmetry_Int_Tables_number   1
_chemical_formula_structural   Cu3Ni2C9
_chemical_formula_sum   'Cu3 Ni2 C9'
_cell_volume   276.96444305
_cell_formula_units_Z   1
loop_
 _symmetry_equiv_pos_site_id
 _symmetry_equiv_pos_as_xyz
  1  'x, y, z'
loop_
 _atom_site_type_symbol
 _atom_site_label
 _atom_site_symmetry_multiplicity
 _atom_site_fract_x
 _atom_site_fract_y
 _atom_site_fract_z
 _atom_site_occupancy
  Ni  Ni0  1  0.87320069  0.87298815  0.87314381  1
  Ni  Ni1  1  0.12684790  0.12697430  0.12687552  1
  C  C2  1  0.50005936  0.50002995  0.49991856  1
  Cu  Cu3  1  0.49994201  0.49999679  0.00005389  1
  Cu  Cu4  1  0.99996105  0.50004776  0.49991034  1
  Cu  Cu5  1  0.50003443  0.00003141  0.49988815  1
  C  C6  1  0.73720589  0.73702952  0.73707585  1
  C  C7  1  0.26281834  0.26277596  0.71734906  1
  C  C8  1  0.26279809  0.71709752  0.26295719  1
  C  C9  1  0.71714186  0.26291588  0.26292891  1
  C  C10  1  0.73716806  0.28286999  0.73708151  1
  C  C11  1  0.28284675  0.73719442  0.73695479  1
  C  C12  1  0.26280720  0.26284839  0.26311931  1
  C  C13  1  0.73717237  0.73719495  0.28274410  1
