# generated using pymatgen
data_Cu(NiC3)2
_symmetry_space_group_name_H-M   'P 1'
_cell_length_a   6.76126619
_cell_length_b   6.76126619
_cell_length_c   6.76126619
_cell_angle_alpha   146.41805602
_cell_angle_beta   131.80179978
_cell_angle_gamma   60.02305519
_symmetry_Int_Tables_number   1
_chemical_formula_structural   Cu(NiC3)2
_chemical_formula_sum   'Cu1 Ni2 C6'
_cell_volume   126.28149074
_cell_formula_units_Z   1
loop_
 _symmetry_equiv_pos_site_id
 _symmetry_equiv_pos_as_xyz
  1  'x, y, z'
loop_
 _atom_site_type_symbol
 _atom_site_label
 _atom_site_symmetry_multiplicity
 _atom_site_fract_x
 _atom_site_fract_y
 _atom_site_fract_z
 _atom_site_occupancy
  Ni  Ni0  1  0.66750600  0.66750600  0.00000000  1
  Ni  Ni1  1  0.33249400  0.33249400  0.00000000  1
  Cu  Cu2  1  0.00000000  0.00000000  0.00000000  1
  C  C3  1  0.74575800  0.50000000  0.24575800  1
  C  C4  1  0.42043400  0.16832500  0.25210900  1
  C  C5  1  0.08378300  0.83167500  0.25210900  1
  C  C6  1  0.25424200  0.50000000  0.75424200  1
  C  C7  1  0.91621700  0.16832500  0.74789100  1
  C  C8  1  0.57956600  0.83167500  0.74789100  1
