# generated using pymatgen
data_CuNiC4
_symmetry_space_group_name_H-M   'P 1'
_cell_length_a   9.59564125
_cell_length_b   9.59564125
_cell_length_c   9.59564125
_cell_angle_alpha   60.00000000
_cell_angle_beta   60.00000000
_cell_angle_gamma   60.00000000
_symmetry_Int_Tables_number   1
_chemical_formula_structural   CuNiC4
_chemical_formula_sum   'Cu4 Ni4 C16'
_cell_volume   624.75107316
_cell_formula_units_Z   4
loop_
 _symmetry_equiv_pos_site_id
 _symmetry_equiv_pos_as_xyz
  1  'x, y, z'
loop_
 _atom_site_type_symbol
 _atom_site_label
 _atom_site_symmetry_multiplicity
 _atom_site_fract_x
 _atom_site_fract_y
 _atom_site_fract_z
 _atom_site_occupancy
  C  C0  1  0.34841600  0.34841600  0.34841600  1
  C  C1  1  0.34841600  0.34841600  0.95475200  1
  C  C2  1  0.34841600  0.95475200  0.34841600  1
  C  C3  1  0.95475200  0.34841600  0.34841600  1
  C  C4  1  0.81154100  0.18845900  0.18845900  1
  C  C5  1  0.18845900  0.81154100  0.81154100  1
  C  C6  1  0.18845900  0.81154100  0.18845900  1
  C  C7  1  0.81154100  0.18845900  0.81154100  1
  C  C8  1  0.18845900  0.18845900  0.81154100  1
  C  C9  1  0.81154100  0.81154100  0.18845900  1
  C  C10  1  0.93623600  0.56376400  0.56376400  1
  C  C11  1  0.56376400  0.93623600  0.93623600  1
  C  C12  1  0.56376400  0.93623600  0.56376400  1
  C  C13  1  0.93623600  0.56376400  0.93623600  1
  C  C14  1  0.56376400  0.56376400  0.93623600  1
  C  C15  1  0.93623600  0.93623600  0.56376400  1
  Ni  Ni16  1  0.58143700  0.58143700  0.58143700  1
  Ni  Ni17  1  0.58143700  0.58143700  0.25568800  1
  Ni  Ni18  1  0.58143700  0.25568800  0.58143700  1
  Ni  Ni19  1  0.25568800  0.58143700  0.58143700  1
  Cu  Cu20  1  0.14231100  0.14231100  0.14231100  1
  Cu  Cu21  1  0.14231100  0.14231100  0.57306700  1
  Cu  Cu22  1  0.14231100  0.57306700  0.14231100  1
  Cu  Cu23  1  0.57306700  0.14231100  0.14231100  1
