# generated using pymatgen
data_Cu(NiC2)2
_symmetry_space_group_name_H-M   'P 1'
_cell_length_a   3.52385300
_cell_length_b   11.20465600
_cell_length_c   12.85376900
_cell_angle_alpha   90.00000000
_cell_angle_beta   90.00000000
_cell_angle_gamma   90.00000000
_symmetry_Int_Tables_number   1
_chemical_formula_structural   Cu(NiC2)2
_chemical_formula_sum   'Cu4 Ni8 C16'
_cell_volume   507.51256802
_cell_formula_units_Z   4
loop_
 _symmetry_equiv_pos_site_id
 _symmetry_equiv_pos_as_xyz
  1  'x, y, z'
loop_
 _atom_site_type_symbol
 _atom_site_label
 _atom_site_symmetry_multiplicity
 _atom_site_fract_x
 _atom_site_fract_y
 _atom_site_fract_z
 _atom_site_occupancy
  Ni  Ni0  1  0.25000000  0.05425500  0.11262400  1
  Ni  Ni1  1  0.75000000  0.94574500  0.88737600  1
  Ni  Ni2  1  0.75000000  0.44574500  0.61262400  1
  Ni  Ni3  1  0.25000000  0.55425500  0.38737600  1
  Ni  Ni4  1  0.25000000  0.08816800  0.59365600  1
  Ni  Ni5  1  0.75000000  0.91183200  0.40634400  1
  Ni  Ni6  1  0.75000000  0.41183200  0.09365600  1
  Ni  Ni7  1  0.25000000  0.58816800  0.90634400  1
  Cu  Cu8  1  0.25000000  0.24125300  0.32027000  1
  Cu  Cu9  1  0.75000000  0.75874700  0.67973000  1
  Cu  Cu10  1  0.75000000  0.25874700  0.82027000  1
  Cu  Cu11  1  0.25000000  0.74125300  0.17973000  1
  C  C12  1  0.75000000  0.04757400  0.71324800  1
  C  C13  1  0.25000000  0.95242600  0.28675200  1
  C  C14  1  0.25000000  0.45242600  0.21324800  1
  C  C15  1  0.75000000  0.54757400  0.78675200  1
  C  C16  1  0.25000000  0.08214700  0.93215500  1
  C  C17  1  0.75000000  0.91785300  0.06784500  1
  C  C18  1  0.75000000  0.41785300  0.43215500  1
  C  C19  1  0.25000000  0.58214700  0.56784500  1
  C  C20  1  0.75000000  0.11317600  0.46362800  1
  C  C21  1  0.25000000  0.88682400  0.53637200  1
  C  C22  1  0.25000000  0.38682400  0.96362800  1
  C  C23  1  0.75000000  0.61317600  0.03637200  1
  C  C24  1  0.75000000  0.19871900  0.14803400  1
  C  C25  1  0.25000000  0.80128100  0.85196600  1
  C  C26  1  0.25000000  0.30128100  0.64803400  1
  C  C27  1  0.75000000  0.69871900  0.35196600  1
