# generated using pymatgen
data_Cu4Ni4C29
_symmetry_space_group_name_H-M   'P 1'
_cell_length_a   7.61651700
_cell_length_b   7.61651700
_cell_length_c   7.49037600
_cell_angle_alpha   90.00000000
_cell_angle_beta   90.00000000
_cell_angle_gamma   90.00000000
_symmetry_Int_Tables_number   1
_chemical_formula_structural   Cu4Ni4C29
_chemical_formula_sum   'Cu4 Ni4 C29'
_cell_volume   434.52668303
_cell_formula_units_Z   1
loop_
 _symmetry_equiv_pos_site_id
 _symmetry_equiv_pos_as_xyz
  1  'x, y, z'
loop_
 _atom_site_type_symbol
 _atom_site_label
 _atom_site_symmetry_multiplicity
 _atom_site_fract_x
 _atom_site_fract_y
 _atom_site_fract_z
 _atom_site_occupancy
  C  C0  1  0.25633800  0.25633800  0.25000000  1
  C  C1  1  0.26212500  0.26212500  0.75000000  1
  C  C2  1  0.25633800  0.74366200  0.25000000  1
  C  C3  1  0.26212500  0.73787500  0.75000000  1
  C  C4  1  0.74366200  0.25633800  0.25000000  1
  C  C5  1  0.73787500  0.26212500  0.75000000  1
  C  C6  1  0.74366200  0.74366200  0.25000000  1
  C  C7  1  0.73787500  0.73787500  0.75000000  1
  Ni  Ni8  1  0.00000000  0.50000000  0.00419400  1
  Ni  Ni9  1  0.00000000  0.50000000  0.49580600  1
  Ni  Ni10  1  0.50000000  0.00000000  0.00419400  1
  Ni  Ni11  1  0.50000000  0.00000000  0.49580600  1
  Cu  Cu12  1  0.00000000  0.00000000  0.99766000  1
  Cu  Cu13  1  0.00000000  0.00000000  0.50234000  1
  Cu  Cu14  1  0.50000000  0.50000000  0.98372100  1
  Cu  Cu15  1  0.50000000  0.50000000  0.51627900  1
  C  C16  1  0.00000000  0.50000000  0.25000000  1
  C  C17  1  0.00000000  0.50000000  0.75000000  1
  C  C18  1  0.50000000  0.00000000  0.25000000  1
  C  C19  1  0.50000000  0.00000000  0.75000000  1
  C  C20  1  0.50000000  0.50000000  0.75000000  1
  C  C21  1  0.23685600  0.00000000  0.99969500  1
  C  C22  1  0.23685600  0.00000000  0.50030500  1
  C  C23  1  0.25963100  0.50000000  0.02034800  1
  C  C24  1  0.25963100  0.50000000  0.47965200  1
  C  C25  1  0.76314400  0.00000000  0.99969500  1
  C  C26  1  0.76314400  0.00000000  0.50030500  1
  C  C27  1  0.74036900  0.50000000  0.02034800  1
  C  C28  1  0.74036900  0.50000000  0.47965200  1
  C  C29  1  0.00000000  0.23685600  0.99969500  1
  C  C30  1  0.00000000  0.23685600  0.50030500  1
  C  C31  1  0.00000000  0.76314400  0.99969500  1
  C  C32  1  0.00000000  0.76314400  0.50030500  1
  C  C33  1  0.50000000  0.25963100  0.02034800  1
  C  C34  1  0.50000000  0.25963100  0.47965200  1
  C  C35  1  0.50000000  0.74036900  0.02034800  1
  C  C36  1  0.50000000  0.74036900  0.47965200  1
