# generated using pymatgen
data_Cu4NiC12
_symmetry_space_group_name_H-M   'P 1'
_cell_length_a   11.63893500
_cell_length_b   11.63893500
_cell_length_c   13.80348000
_cell_angle_alpha   90.00000000
_cell_angle_beta   90.00000000
_cell_angle_gamma   90.00000000
_symmetry_Int_Tables_number   1
_chemical_formula_structural   Cu4NiC12
_chemical_formula_sum   'Cu16 Ni4 C48'
_cell_volume   1869.88576702
_cell_formula_units_Z   4
loop_
 _symmetry_equiv_pos_site_id
 _symmetry_equiv_pos_as_xyz
  1  'x, y, z'
loop_
 _atom_site_type_symbol
 _atom_site_label
 _atom_site_symmetry_multiplicity
 _atom_site_fract_x
 _atom_site_fract_y
 _atom_site_fract_z
 _atom_site_occupancy
  C  C0  1  0.76410400  0.26410400  0.75000000  1
  C  C1  1  0.26410400  0.23589600  0.25000000  1
  C  C2  1  0.73589600  0.76410400  0.75000000  1
  C  C3  1  0.76410400  0.26410400  0.25000000  1
  C  C4  1  0.26410400  0.23589600  0.75000000  1
  C  C5  1  0.73589600  0.76410400  0.25000000  1
  C  C6  1  0.23589600  0.73589600  0.25000000  1
  C  C7  1  0.23589600  0.73589600  0.75000000  1
  Ni  Ni8  1  0.50000000  0.50000000  0.75000000  1
  Ni  Ni9  1  0.50000000  0.50000000  0.25000000  1
  Ni  Ni10  1  0.00000000  0.00000000  0.75000000  1
  Ni  Ni11  1  0.00000000  0.00000000  0.25000000  1
  Cu  Cu12  1  0.09068900  0.36626100  0.50000000  1
  Cu  Cu13  1  0.36626100  0.90931100  0.00000000  1
  Cu  Cu14  1  0.40931100  0.86626100  0.50000000  1
  Cu  Cu15  1  0.86626100  0.59068900  0.00000000  1
  Cu  Cu16  1  0.90931100  0.63373900  0.50000000  1
  Cu  Cu17  1  0.63373900  0.09068900  0.00000000  1
  Cu  Cu18  1  0.59068900  0.13373900  0.50000000  1
  Cu  Cu19  1  0.13373900  0.40931100  0.00000000  1
  Cu  Cu20  1  0.15560200  0.03857800  0.50000000  1
  Cu  Cu21  1  0.03857800  0.84439800  0.00000000  1
  Cu  Cu22  1  0.34439800  0.53857800  0.50000000  1
  Cu  Cu23  1  0.53857800  0.65560200  0.00000000  1
  Cu  Cu24  1  0.84439800  0.96142200  0.50000000  1
  Cu  Cu25  1  0.96142200  0.15560200  0.00000000  1
  Cu  Cu26  1  0.65560200  0.46142200  0.50000000  1
  Cu  Cu27  1  0.46142200  0.34439800  0.00000000  1
  C  C28  1  0.25605900  0.22788300  0.50000000  1
  C  C29  1  0.22788300  0.74394100  0.00000000  1
  C  C30  1  0.24394100  0.72788300  0.50000000  1
  C  C31  1  0.72788300  0.75605900  0.00000000  1
  C  C32  1  0.74394100  0.77211700  0.50000000  1
  C  C33  1  0.77211700  0.25605900  0.00000000  1
  C  C34  1  0.75605900  0.27211700  0.50000000  1
  C  C35  1  0.27211700  0.24394100  0.00000000  1
  C  C36  1  0.34991300  0.47627600  0.84900600  1
  C  C37  1  0.47627600  0.65008700  0.34900600  1
  C  C38  1  0.15008700  0.97627600  0.84900600  1
  C  C39  1  0.97627600  0.84991300  0.34900600  1
  C  C40  1  0.34991300  0.47627600  0.15099400  1
  C  C41  1  0.47627600  0.65008700  0.65099400  1
  C  C42  1  0.15008700  0.97627600  0.15099400  1
  C  C43  1  0.97627600  0.84991300  0.65099400  1
  C  C44  1  0.65008700  0.52372400  0.15099400  1
  C  C45  1  0.52372400  0.34991300  0.65099400  1
  C  C46  1  0.84991300  0.02372400  0.15099400  1
  C  C47  1  0.02372400  0.15008700  0.65099400  1
  C  C48  1  0.65008700  0.52372400  0.84900600  1
  C  C49  1  0.52372400  0.34991300  0.34900600  1
  C  C50  1  0.84991300  0.02372400  0.84900600  1
  C  C51  1  0.02372400  0.15008700  0.34900600  1
  C  C52  1  0.18329300  0.47679900  0.63093700  1
  C  C53  1  0.47679900  0.81670700  0.13093700  1
  C  C54  1  0.31670700  0.97679900  0.63093700  1
  C  C55  1  0.97679900  0.68329300  0.13093700  1
  C  C56  1  0.18329300  0.47679900  0.36906300  1
  C  C57  1  0.47679900  0.81670700  0.86906300  1
  C  C58  1  0.31670700  0.97679900  0.36906300  1
  C  C59  1  0.97679900  0.68329300  0.86906300  1
  C  C60  1  0.81670700  0.52320100  0.36906300  1
  C  C61  1  0.52320100  0.18329300  0.86906300  1
  C  C62  1  0.68329300  0.02320100  0.36906300  1
  C  C63  1  0.02320100  0.31670700  0.86906300  1
  C  C64  1  0.81670700  0.52320100  0.63093700  1
  C  C65  1  0.52320100  0.18329300  0.13093700  1
  C  C66  1  0.68329300  0.02320100  0.63093700  1
  C  C67  1  0.02320100  0.31670700  0.13093700  1
