# generated using pymatgen
data_Cu16NiC10
_symmetry_space_group_name_H-M   'P 1'
_cell_length_a   8.15914229
_cell_length_b   8.15914229
_cell_length_c   8.15914229
_cell_angle_alpha   109.47122063
_cell_angle_beta   109.47122063
_cell_angle_gamma   109.47122063
_symmetry_Int_Tables_number   1
_chemical_formula_structural   Cu16NiC10
_chemical_formula_sum   'Cu16 Ni1 C10'
_cell_volume   418.13029125
_cell_formula_units_Z   1
loop_
 _symmetry_equiv_pos_site_id
 _symmetry_equiv_pos_as_xyz
  1  'x, y, z'
loop_
 _atom_site_type_symbol
 _atom_site_label
 _atom_site_symmetry_multiplicity
 _atom_site_fract_x
 _atom_site_fract_y
 _atom_site_fract_z
 _atom_site_occupancy
  C  C0  1  0.00000000  0.60732700  0.00000000  1
  C  C1  1  0.00000000  0.00000000  0.60732700  1
  C  C2  1  0.60732700  0.00000000  0.00000000  1
  C  C3  1  0.39267300  0.39267300  0.39267300  1
  C  C4  1  0.25000000  0.50000000  0.75000000  1
  C  C5  1  0.75000000  0.25000000  0.50000000  1
  C  C6  1  0.50000000  0.25000000  0.75000000  1
  C  C7  1  0.75000000  0.50000000  0.25000000  1
  C  C8  1  0.50000000  0.75000000  0.25000000  1
  C  C9  1  0.25000000  0.75000000  0.50000000  1
  Ni  Ni10  1  0.00000000  0.00000000  0.00000000  1
  Cu  Cu11  1  0.00000000  0.69998700  0.39506500  1
  Cu  Cu12  1  0.69507800  0.30001300  0.30001300  1
  Cu  Cu13  1  0.00000000  0.39506500  0.69998700  1
  Cu  Cu14  1  0.60493500  0.60493500  0.30492200  1
  Cu  Cu15  1  0.60493500  0.30492200  0.60493500  1
  Cu  Cu16  1  0.39506500  0.00000000  0.69998700  1
  Cu  Cu17  1  0.30001300  0.30001300  0.69507800  1
  Cu  Cu18  1  0.69998700  0.00000000  0.39506500  1
  Cu  Cu19  1  0.69998700  0.39506500  0.00000000  1
  Cu  Cu20  1  0.30001300  0.69507800  0.30001300  1
  Cu  Cu21  1  0.39506500  0.69998700  0.00000000  1
  Cu  Cu22  1  0.81666600  0.81666600  0.81666600  1
  Cu  Cu23  1  0.18333400  0.00000000  0.00000000  1
  Cu  Cu24  1  0.00000000  0.18333400  0.00000000  1
  Cu  Cu25  1  0.00000000  0.00000000  0.18333400  1
  Cu  Cu26  1  0.30492200  0.60493500  0.60493500  1
