# generated using pymatgen
data_CuNi6C7
_symmetry_space_group_name_H-M   'P 1'
_cell_length_a   5.75888244
_cell_length_b   7.31461048
_cell_length_c   7.30324600
_cell_angle_alpha   90.00000000
_cell_angle_beta   90.00000000
_cell_angle_gamma   113.65916553
_symmetry_Int_Tables_number   1
_chemical_formula_structural   CuNi6C7
_chemical_formula_sum   'Cu2 Ni12 C14'
_cell_volume   281.78414791
_cell_formula_units_Z   2
loop_
 _symmetry_equiv_pos_site_id
 _symmetry_equiv_pos_as_xyz
  1  'x, y, z'
loop_
 _atom_site_type_symbol
 _atom_site_label
 _atom_site_symmetry_multiplicity
 _atom_site_fract_x
 _atom_site_fract_y
 _atom_site_fract_z
 _atom_site_occupancy
  C  C0  1  0.43026900  0.29866000  0.25000000  1
  C  C1  1  0.56973100  0.70134000  0.75000000  1
  C  C2  1  0.00000000  0.50000000  0.50000000  1
  C  C3  1  0.00000000  0.50000000  0.00000000  1
  C  C4  1  0.07677200  0.86674900  0.91065800  1
  C  C5  1  0.92322800  0.13325100  0.41065800  1
  C  C6  1  0.92322800  0.13325100  0.08934200  1
  C  C7  1  0.07677200  0.86674900  0.58934200  1
  C  C8  1  0.87532100  0.79878400  0.42881500  1
  C  C9  1  0.12467900  0.20121600  0.92881500  1
  C  C10  1  0.12467900  0.20121600  0.57118500  1
  C  C11  1  0.87532100  0.79878400  0.07118500  1
  C  C12  1  0.45067400  0.80553700  0.25000000  1
  C  C13  1  0.54932600  0.19446300  0.75000000  1
  Ni  Ni14  1  0.37422100  0.67519700  0.41707700  1
  Ni  Ni15  1  0.62577900  0.32480300  0.91707700  1
  Ni  Ni16  1  0.62577900  0.32480300  0.58292300  1
  Ni  Ni17  1  0.37422100  0.67519700  0.08292300  1
  Ni  Ni18  1  0.73899200  0.90467200  0.25000000  1
  Ni  Ni19  1  0.26100800  0.09532800  0.75000000  1
  Ni  Ni20  1  0.34278400  0.95547300  0.25000000  1
  Ni  Ni21  1  0.65721600  0.04452700  0.75000000  1
  Ni  Ni22  1  0.92602300  0.75337900  0.95577600  1
  Ni  Ni23  1  0.07397700  0.24662100  0.45577600  1
  Ni  Ni24  1  0.07397700  0.24662100  0.04422400  1
  Ni  Ni25  1  0.92602300  0.75337900  0.54422400  1
  Cu  Cu26  1  0.84996100  0.47590000  0.25000000  1
  Cu  Cu27  1  0.15003900  0.52410000  0.75000000  1
