# generated using pymatgen
data_Cu4Ni2C9
_symmetry_space_group_name_H-M   'P 1'
_cell_length_a   6.15075589
_cell_length_b   6.14417911
_cell_length_c   6.17313739
_cell_angle_alpha   89.91679771
_cell_angle_beta   119.89965274
_cell_angle_gamma   120.03897881
_symmetry_Int_Tables_number   1
_chemical_formula_structural   Cu4Ni2C9
_chemical_formula_sum   'Cu4 Ni2 C9'
_cell_volume   165.23347309
_cell_formula_units_Z   1
loop_
 _symmetry_equiv_pos_site_id
 _symmetry_equiv_pos_as_xyz
  1  'x, y, z'
loop_
 _atom_site_type_symbol
 _atom_site_label
 _atom_site_symmetry_multiplicity
 _atom_site_fract_x
 _atom_site_fract_y
 _atom_site_fract_z
 _atom_site_occupancy
  C  C0  1  0.50000400  0.49999800  0.00000700  1
  Ni  Ni1  1  0.00000200  0.99999500  0.00000400  1
  Ni  Ni2  1  0.50000000  0.99999600  0.00000200  1
  Cu  Cu3  1  0.50002800  0.00000900  0.50001400  1
  Cu  Cu4  1  0.49999300  0.49998600  0.50000400  1
  Cu  Cu5  1  0.99998900  0.50000000  0.99997600  1
  Cu  Cu6  1  0.99999700  0.49999500  0.49999800  1
  C  C7  1  0.01372300  0.78087300  0.21558000  1
  C  C8  1  0.51394800  0.76974400  0.75801600  1
  C  C9  1  0.48331800  0.78111000  0.21588400  1
  C  C10  1  0.02523000  0.77027400  0.78017700  1
  C  C11  1  0.51668000  0.21887800  0.78412100  1
  C  C12  1  0.48606300  0.23025100  0.24199700  1
  C  C13  1  0.97477700  0.22973200  0.21982500  1
  C  C14  1  0.98629800  0.21912200  0.78444100  1
