# generated using pymatgen
data_Cu(NiC)3
_symmetry_space_group_name_H-M   'P 1'
_cell_length_a   7.32036000
_cell_length_b   9.61002000
_cell_length_c   11.91310600
_cell_angle_alpha   90.00000000
_cell_angle_beta   90.00000000
_cell_angle_gamma   90.00000000
_symmetry_Int_Tables_number   1
_chemical_formula_structural   Cu(NiC)3
_chemical_formula_sum   'Cu4 Ni12 C12'
_cell_volume   838.07278294
_cell_formula_units_Z   4
loop_
 _symmetry_equiv_pos_site_id
 _symmetry_equiv_pos_as_xyz
  1  'x, y, z'
loop_
 _atom_site_type_symbol
 _atom_site_label
 _atom_site_symmetry_multiplicity
 _atom_site_fract_x
 _atom_site_fract_y
 _atom_site_fract_z
 _atom_site_occupancy
  C  C0  1  0.25000000  0.45422800  0.19156200  1
  C  C1  1  0.25000000  0.95422800  0.30843800  1
  C  C2  1  0.75000000  0.54577200  0.80843800  1
  C  C3  1  0.75000000  0.04577200  0.69156200  1
  C  C4  1  0.25000000  0.16422300  0.87590100  1
  C  C5  1  0.25000000  0.66422300  0.62409900  1
  C  C6  1  0.75000000  0.83577700  0.12409900  1
  C  C7  1  0.75000000  0.33577700  0.37590100  1
  C  C8  1  0.25000000  0.24139400  0.54878800  1
  C  C9  1  0.25000000  0.74139400  0.95121200  1
  C  C10  1  0.75000000  0.75860600  0.45121200  1
  C  C11  1  0.75000000  0.25860600  0.04878800  1
  Ni  Ni12  1  0.25000000  0.01816300  0.59813900  1
  Ni  Ni13  1  0.25000000  0.51816300  0.90186100  1
  Ni  Ni14  1  0.75000000  0.98183700  0.40186100  1
  Ni  Ni15  1  0.75000000  0.48183700  0.09813900  1
  Ni  Ni16  1  0.49566900  0.34358800  0.62168900  1
  Ni  Ni17  1  0.00433100  0.84358800  0.87831100  1
  Ni  Ni18  1  0.99566900  0.65641200  0.37831100  1
  Ni  Ni19  1  0.50433100  0.15641200  0.12168900  1
  Ni  Ni20  1  0.50433100  0.65641200  0.37831100  1
  Ni  Ni21  1  0.99566900  0.15641200  0.12168900  1
  Ni  Ni22  1  0.00433100  0.34358800  0.62168900  1
  Ni  Ni23  1  0.49566900  0.84358800  0.87831100  1
  Cu  Cu24  1  0.25000000  0.25749500  0.40113900  1
  Cu  Cu25  1  0.25000000  0.75749500  0.09886100  1
  Cu  Cu26  1  0.75000000  0.74250500  0.59886100  1
  Cu  Cu27  1  0.75000000  0.24250500  0.90113900  1
