# generated using pymatgen
data_CuNiC8
_symmetry_space_group_name_H-M   'P 1'
_cell_length_a   8.60088022
_cell_length_b   8.48484775
_cell_length_c   8.59817699
_cell_angle_alpha   90.00000000
_cell_angle_beta   90.00000000
_cell_angle_gamma   90.00000000
_symmetry_Int_Tables_number   1
_chemical_formula_structural   CuNiC8
_chemical_formula_sum   'Cu4 Ni4 C32'
_cell_volume   627.47053088
_cell_formula_units_Z   4
loop_
 _symmetry_equiv_pos_site_id
 _symmetry_equiv_pos_as_xyz
  1  'x, y, z'
loop_
 _atom_site_type_symbol
 _atom_site_label
 _atom_site_symmetry_multiplicity
 _atom_site_fract_x
 _atom_site_fract_y
 _atom_site_fract_z
 _atom_site_occupancy
  Ni  Ni0  1  -0.00000000  0.50000000  0.50000000  1
  Ni  Ni1  1  0.50000000  0.50000000  0.00000000  1
  Ni  Ni2  1  0.50000000  0.00000000  0.00000000  1
  Ni  Ni3  1  0.00000000  0.00000000  0.50000000  1
  C  C4  1  0.50000000  0.00000000  0.50000000  1
  C  C5  1  -0.00000000  0.50000000  0.00000000  1
  C  C6  1  -0.00000000  0.00000000  0.00000000  1
  C  C7  1  0.50000000  0.50000000  0.50000000  1
  Cu  Cu8  1  0.25000000  0.25000000  0.25000000  1
  Cu  Cu9  1  0.75000000  0.75000000  0.25000000  1
  Cu  Cu10  1  0.75000000  0.25000000  0.75000000  1
  Cu  Cu11  1  0.25000000  0.75000000  0.75000000  1
  C  C12  1  0.75000000  0.75000000  0.75000000  1
  C  C13  1  0.25000000  0.25000000  0.75000000  1
  C  C14  1  0.25000000  0.75000000  0.25000000  1
  C  C15  1  0.75000000  0.25000000  0.25000000  1
  C  C16  1  0.99313543  0.20741049  0.26093398  1
  C  C17  1  0.00686457  0.79258951  0.26093398  1
  C  C18  1  0.00686457  0.20741049  0.73906602  1
  C  C19  1  0.99313543  0.79258951  0.73906602  1
  C  C20  1  0.27490750  0.99330731  0.20998277  1
  C  C21  1  0.27490750  0.00669269  0.79001723  1
  C  C22  1  0.72509250  0.00669269  0.20998277  1
  C  C23  1  0.72509250  0.99330731  0.79001723  1
  C  C24  1  0.18902995  0.28241695  0.99400262  1
  C  C25  1  0.81097005  0.28241695  0.00599738  1
  C  C26  1  0.18902995  0.71758305  0.00599738  1
  C  C27  1  0.81097005  0.71758305  0.99400262  1
  C  C28  1  0.50686457  0.29258951  0.23906602  1
  C  C29  1  0.49313543  0.70741049  0.23906602  1
  C  C30  1  0.49313543  0.29258951  0.76093398  1
  C  C31  1  0.50686457  0.70741049  0.76093398  1
  C  C32  1  0.22509250  0.50669269  0.29001723  1
  C  C33  1  0.22509250  0.49330731  0.70998277  1
  C  C34  1  0.77490750  0.49330731  0.29001723  1
  C  C35  1  0.77490750  0.50669269  0.70998277  1
  C  C36  1  0.31097005  0.21758305  0.50599738  1
  C  C37  1  0.68902995  0.21758305  0.49400262  1
  C  C38  1  0.31097005  0.78241695  0.49400262  1
  C  C39  1  0.68902995  0.78241695  0.50599738  1
