# generated using pymatgen
data_CuNiC11
_symmetry_space_group_name_H-M   'P 1'
_cell_length_a   7.56575738
_cell_length_b   7.56575738
_cell_length_c   23.89680100
_cell_angle_alpha   90.00000000
_cell_angle_beta   90.00000000
_cell_angle_gamma   119.51726423
_symmetry_Int_Tables_number   1
_chemical_formula_structural   CuNiC11
_chemical_formula_sum   'Cu6 Ni6 C66'
_cell_volume   1190.32978194
_cell_formula_units_Z   6
loop_
 _symmetry_equiv_pos_site_id
 _symmetry_equiv_pos_as_xyz
  1  'x, y, z'
loop_
 _atom_site_type_symbol
 _atom_site_label
 _atom_site_symmetry_multiplicity
 _atom_site_fract_x
 _atom_site_fract_y
 _atom_site_fract_z
 _atom_site_occupancy
  Ni  Ni0  1  0.48890000  0.51110000  0.75000000  1
  Ni  Ni1  1  0.51110000  0.48890000  0.25000000  1
  Ni  Ni2  1  0.53769600  0.49483400  0.58386200  1
  Ni  Ni3  1  0.46230400  0.50516600  0.08386200  1
  Ni  Ni4  1  0.50516600  0.46230400  0.91613800  1
  Ni  Ni5  1  0.49483400  0.53769600  0.41613800  1
  Cu  Cu6  1  0.01678900  0.01678900  0.50000000  1
  Cu  Cu7  1  0.98321100  0.98321100  0.00000000  1
  Cu  Cu8  1  0.00048500  0.48509200  0.83319000  1
  Cu  Cu9  1  0.99951500  0.51490800  0.33319000  1
  Cu  Cu10  1  0.51490800  0.99951500  0.66681000  1
  Cu  Cu11  1  0.48509200  0.00048500  0.16681000  1
  C  C12  1  0.01904900  0.51829700  0.50193400  1
  C  C13  1  0.98095100  0.48170300  0.00193400  1
  C  C14  1  0.48170300  0.98095100  0.99806600  1
  C  C15  1  0.51829700  0.01904900  0.49806600  1
  C  C16  1  0.01290500  0.49770200  0.66493500  1
  C  C17  1  0.98709500  0.50229800  0.16493500  1
  C  C18  1  0.50229800  0.98709500  0.83506500  1
  C  C19  1  0.49770200  0.01290500  0.33506500  1
  C  C20  1  0.98729100  0.00230900  0.16850800  1
  C  C21  1  0.01270900  0.99769100  0.66850800  1
  C  C22  1  0.99769100  0.01270900  0.33149200  1
  C  C23  1  0.00230900  0.98729100  0.83149200  1
  C  C24  1  0.17538100  0.37892200  0.51620100  1
  C  C25  1  0.82461900  0.62107800  0.01620100  1
  C  C26  1  0.62107800  0.82461900  0.98379900  1
  C  C27  1  0.37892200  0.17538100  0.48379900  1
  C  C28  1  0.72097800  0.36414600  0.68012000  1
  C  C29  1  0.27902200  0.63585400  0.18012000  1
  C  C30  1  0.63585400  0.27902200  0.81988000  1
  C  C31  1  0.36414600  0.72097800  0.31988000  1
  C  C32  1  0.96446600  0.22434300  0.64864600  1
  C  C33  1  0.03553400  0.77565700  0.14864600  1
  C  C34  1  0.77565700  0.03553400  0.85135400  1
  C  C35  1  0.22434300  0.96446600  0.35135400  1
  C  C36  1  0.07559300  0.47619400  0.74339000  1
  C  C37  1  0.92440700  0.52380600  0.24339000  1
  C  C38  1  0.52380600  0.92440700  0.75661000  1
  C  C39  1  0.47619400  0.07559300  0.25661000  1
  C  C40  1  0.04162500  0.97074200  0.58954600  1
  C  C41  1  0.95837500  0.02925800  0.08954600  1
  C  C42  1  0.02925800  0.95837500  0.91045400  1
  C  C43  1  0.97074200  0.04162500  0.41045400  1
  C  C44  1  0.24709300  0.79181300  0.51715600  1
  C  C45  1  0.75290700  0.20818700  0.01715600  1
  C  C46  1  0.20818700  0.75290700  0.98284400  1
  C  C47  1  0.79181300  0.24709300  0.48284400  1
  C  C48  1  0.97469100  0.02530900  0.75000000  1
  C  C49  1  0.02530900  0.97469100  0.25000000  1
  C  C50  1  0.90598900  0.45912500  0.92305500  1
  C  C51  1  0.09401100  0.54087500  0.42305500  1
  C  C52  1  0.54087500  0.09401100  0.57694500  1
  C  C53  1  0.45912500  0.90598900  0.07694500  1
  C  C54  1  0.17094100  0.28261400  0.83731000  1
  C  C55  1  0.82905900  0.71738600  0.33731000  1
  C  C56  1  0.71738600  0.82905900  0.66269000  1
  C  C57  1  0.28261400  0.17094100  0.16269000  1
  C  C58  1  0.14173700  0.34751600  0.98853100  1
  C  C59  1  0.85826300  0.65248400  0.48853100  1
  C  C60  1  0.65248400  0.85826300  0.51146900  1
  C  C61  1  0.34751600  0.14173700  0.01146900  1
  C  C62  1  0.83589900  0.69241100  0.82379500  1
  C  C63  1  0.16410100  0.30758900  0.32379500  1
  C  C64  1  0.30758900  0.16410100  0.67620500  1
  C  C65  1  0.69241100  0.83589900  0.17620500  1
  C  C66  1  0.05809600  0.76776700  0.68525300  1
  C  C67  1  0.94190400  0.23223300  0.18525300  1
  C  C68  1  0.23223300  0.94190400  0.81474700  1
  C  C69  1  0.76776700  0.05809600  0.31474700  1
  C  C70  1  0.30551500  0.63738600  0.64835800  1
  C  C71  1  0.69448500  0.36261400  0.14835800  1
  C  C72  1  0.36261400  0.69448500  0.85164200  1
  C  C73  1  0.63738600  0.30551500  0.35164200  1
  C  C74  1  0.94387700  0.50628300  0.58330900  1
  C  C75  1  0.05612300  0.49371700  0.08330900  1
  C  C76  1  0.49371700  0.05612300  0.91669100  1
  C  C77  1  0.50628300  0.94387700  0.41669100  1
