# generated using pymatgen
data_Cu(NiC)4
_symmetry_space_group_name_H-M   'P 1'
_cell_length_a   7.95591400
_cell_length_b   8.12895000
_cell_length_c   15.14751100
_cell_angle_alpha   90.00000000
_cell_angle_beta   90.00000000
_cell_angle_gamma   90.00000000
_symmetry_Int_Tables_number   1
_chemical_formula_structural   Cu(NiC)4
_chemical_formula_sum   'Cu4 Ni16 C16'
_cell_volume   979.63841906
_cell_formula_units_Z   4
loop_
 _symmetry_equiv_pos_site_id
 _symmetry_equiv_pos_as_xyz
  1  'x, y, z'
loop_
 _atom_site_type_symbol
 _atom_site_label
 _atom_site_symmetry_multiplicity
 _atom_site_fract_x
 _atom_site_fract_y
 _atom_site_fract_z
 _atom_site_occupancy
  C  C0  1  0.24640700  0.75000000  0.78234100  1
  C  C1  1  0.25359300  0.75000000  0.28234100  1
  C  C2  1  0.75359300  0.25000000  0.21765900  1
  C  C3  1  0.74640700  0.25000000  0.71765900  1
  Ni  Ni4  1  0.30682900  0.25000000  0.02725500  1
  Ni  Ni5  1  0.19317100  0.25000000  0.52725500  1
  Ni  Ni6  1  0.69317100  0.75000000  0.97274500  1
  Ni  Ni7  1  0.80682900  0.75000000  0.47274500  1
  Ni  Ni8  1  0.14894600  0.25000000  0.88383200  1
  Ni  Ni9  1  0.35105400  0.25000000  0.38383200  1
  Ni  Ni10  1  0.85105400  0.75000000  0.11616800  1
  Ni  Ni11  1  0.64894600  0.75000000  0.61616800  1
  Ni  Ni12  1  0.37848100  0.16675700  0.09731100  1
  Ni  Ni13  1  0.12151900  0.33324300  0.59731100  1
  Ni  Ni14  1  0.62151900  0.66675700  0.90268900  1
  Ni  Ni15  1  0.87848100  0.83324300  0.40268900  1
  Ni  Ni16  1  0.62151900  0.83324300  0.90268900  1
  Ni  Ni17  1  0.87848100  0.66675700  0.40268900  1
  Ni  Ni18  1  0.37848100  0.33324300  0.09731100  1
  Ni  Ni19  1  0.12151900  0.16675700  0.59731100  1
  Cu  Cu20  1  0.22571600  0.25000000  0.95173700  1
  Cu  Cu21  1  0.27428400  0.25000000  0.45173700  1
  Cu  Cu22  1  0.77428400  0.75000000  0.04826300  1
  Cu  Cu23  1  0.72571600  0.75000000  0.54826300  1
  C  C24  1  0.45385500  0.97604100  0.79555000  1
  C  C25  1  0.04614500  0.52395900  0.29555000  1
  C  C26  1  0.54614500  0.47604100  0.20445000  1
  C  C27  1  0.95385500  0.02395900  0.70445000  1
  C  C28  1  0.54614500  0.02395900  0.20445000  1
  C  C29  1  0.95385500  0.47604100  0.70445000  1
  C  C30  1  0.45385500  0.52395900  0.79555000  1
  C  C31  1  0.04614500  0.97604100  0.29555000  1
  C  C32  1  0.17538200  0.75000000  0.92775100  1
  C  C33  1  0.32461800  0.75000000  0.42775100  1
  C  C34  1  0.82461800  0.25000000  0.07224900  1
  C  C35  1  0.67538200  0.25000000  0.57224900  1
