# generated using pymatgen
data_Cu2NiC9
_symmetry_space_group_name_H-M   'P 1'
_cell_length_a   10.12380500
_cell_length_b   10.18545500
_cell_length_c   13.88108200
_cell_angle_alpha   90.00000000
_cell_angle_beta   90.00000000
_cell_angle_gamma   90.00000000
_symmetry_Int_Tables_number   1
_chemical_formula_structural   Cu2NiC9
_chemical_formula_sum   'Cu16 Ni8 C72'
_cell_volume   1431.35554739
_cell_formula_units_Z   8
loop_
 _symmetry_equiv_pos_site_id
 _symmetry_equiv_pos_as_xyz
  1  'x, y, z'
loop_
 _atom_site_type_symbol
 _atom_site_label
 _atom_site_symmetry_multiplicity
 _atom_site_fract_x
 _atom_site_fract_y
 _atom_site_fract_z
 _atom_site_occupancy
  C  C0  1  0.37905500  0.95683800  0.62665000  1
  C  C1  1  0.62094500  0.04316200  0.37335000  1
  C  C2  1  0.12094500  0.45683800  0.37335000  1
  C  C3  1  0.62094500  0.54316200  0.12665000  1
  C  C4  1  0.87905500  0.54316200  0.62665000  1
  C  C5  1  0.37905500  0.45683800  0.87335000  1
  C  C6  1  0.87905500  0.04316200  0.87335000  1
  C  C7  1  0.12094500  0.95683800  0.12665000  1
  Ni  Ni8  1  0.41916900  0.77304600  0.98697900  1
  Ni  Ni9  1  0.58083100  0.22695400  0.01302100  1
  Ni  Ni10  1  0.08083100  0.27304600  0.01302100  1
  Ni  Ni11  1  0.58083100  0.72695400  0.48697900  1
  Ni  Ni12  1  0.91916900  0.72695400  0.98697900  1
  Ni  Ni13  1  0.41916900  0.27304600  0.51302100  1
  Ni  Ni14  1  0.91916900  0.22695400  0.51302100  1
  Ni  Ni15  1  0.08083100  0.77304600  0.48697900  1
  Cu  Cu16  1  0.28679600  0.58379500  0.58164800  1
  Cu  Cu17  1  0.71320400  0.41620500  0.41835200  1
  Cu  Cu18  1  0.21320400  0.08379500  0.41835200  1
  Cu  Cu19  1  0.71320400  0.91620500  0.08164800  1
  Cu  Cu20  1  0.78679600  0.91620500  0.58164800  1
  Cu  Cu21  1  0.28679600  0.08379500  0.91835200  1
  Cu  Cu22  1  0.78679600  0.41620500  0.91835200  1
  Cu  Cu23  1  0.21320400  0.58379500  0.08164800  1
  Cu  Cu24  1  0.13227700  0.73607400  0.79582800  1
  Cu  Cu25  1  0.86772300  0.26392600  0.20417200  1
  Cu  Cu26  1  0.36772300  0.23607400  0.20417200  1
  Cu  Cu27  1  0.86772300  0.76392600  0.29582800  1
  Cu  Cu28  1  0.63227700  0.76392600  0.79582800  1
  Cu  Cu29  1  0.13227700  0.23607400  0.70417200  1
  Cu  Cu30  1  0.63227700  0.26392600  0.70417200  1
  Cu  Cu31  1  0.36772300  0.73607400  0.29582800  1
  C  C32  1  0.33937100  0.94330800  0.98852700  1
  C  C33  1  0.66062900  0.05669200  0.01147300  1
  C  C34  1  0.16062900  0.44330800  0.01147300  1
  C  C35  1  0.66062900  0.55669200  0.48852700  1
  C  C36  1  0.83937100  0.55669200  0.98852700  1
  C  C37  1  0.33937100  0.44330800  0.51147300  1
  C  C38  1  0.83937100  0.05669200  0.51147300  1
  C  C39  1  0.16062900  0.94330800  0.48852700  1
  C  C40  1  0.40039300  0.72037000  0.55966000  1
  C  C41  1  0.59960700  0.27963000  0.44034000  1
  C  C42  1  0.09960700  0.22037000  0.44034000  1
  C  C43  1  0.59960700  0.77963000  0.05966000  1
  C  C44  1  0.90039300  0.77963000  0.55966000  1
  C  C45  1  0.40039300  0.22037000  0.94034000  1
  C  C46  1  0.90039300  0.27963000  0.94034000  1
  C  C47  1  0.09960700  0.72037000  0.05966000  1
  C  C48  1  0.10929500  0.59434300  0.54253200  1
  C  C49  1  0.89070500  0.40565700  0.45746800  1
  C  C50  1  0.39070500  0.09434300  0.45746800  1
  C  C51  1  0.89070500  0.90565700  0.04253200  1
  C  C52  1  0.60929500  0.90565700  0.54253200  1
  C  C53  1  0.10929500  0.09434300  0.95746800  1
  C  C54  1  0.60929500  0.40565700  0.95746800  1
  C  C55  1  0.39070500  0.59434300  0.04253200  1
  C  C56  1  0.01546400  0.61684800  0.75543200  1
  C  C57  1  0.98453600  0.38315200  0.24456800  1
  C  C58  1  0.48453600  0.11684800  0.24456800  1
  C  C59  1  0.98453600  0.88315200  0.25543200  1
  C  C60  1  0.51546400  0.88315200  0.75543200  1
  C  C61  1  0.01546400  0.11684800  0.74456800  1
  C  C62  1  0.51546400  0.38315200  0.74456800  1
  C  C63  1  0.48453600  0.61684800  0.25543200  1
  C  C64  1  0.20699900  0.80997700  0.69067000  1
  C  C65  1  0.79300100  0.19002300  0.30933000  1
  C  C66  1  0.29300100  0.30997700  0.30933000  1
  C  C67  1  0.79300100  0.69002300  0.19067000  1
  C  C68  1  0.70699900  0.69002300  0.69067000  1
  C  C69  1  0.20699900  0.30997700  0.80933000  1
  C  C70  1  0.70699900  0.19002300  0.80933000  1
  C  C71  1  0.29300100  0.80997700  0.19067000  1
  C  C72  1  0.29648600  0.53913700  0.70493500  1
  C  C73  1  0.70351400  0.46086300  0.29506500  1
  C  C74  1  0.20351400  0.03913700  0.29506500  1
  C  C75  1  0.70351400  0.96086300  0.20493500  1
  C  C76  1  0.79648600  0.96086300  0.70493500  1
  C  C77  1  0.29648600  0.03913700  0.79506500  1
  C  C78  1  0.79648600  0.46086300  0.79506500  1
  C  C79  1  0.20351400  0.53913700  0.20493500  1
  C  C80  1  0.03864700  0.85475100  0.86276500  1
  C  C81  1  0.96135300  0.14524900  0.13723500  1
  C  C82  1  0.46135300  0.35475100  0.13723500  1
  C  C83  1  0.96135300  0.64524900  0.36276500  1
  C  C84  1  0.53864700  0.64524900  0.86276500  1
  C  C85  1  0.03864700  0.35475100  0.63723500  1
  C  C86  1  0.53864700  0.14524900  0.63723500  1
  C  C87  1  0.46135300  0.85475100  0.36276500  1
  C  C88  1  0.25112700  0.66551200  0.87888900  1
  C  C89  1  0.74887300  0.33448800  0.12111100  1
  C  C90  1  0.24887300  0.16551200  0.12111100  1
  C  C91  1  0.74887300  0.83448800  0.37888900  1
  C  C92  1  0.75112700  0.83448800  0.87888900  1
  C  C93  1  0.25112700  0.16551200  0.62111100  1
  C  C94  1  0.75112700  0.33448800  0.62111100  1
  C  C95  1  0.24887300  0.66551200  0.37888900  1
