# generated using pymatgen
data_Cu2Ni6C29
_symmetry_space_group_name_H-M   'P 1'
_cell_length_a   7.78522135
_cell_length_b   7.78560100
_cell_length_c   7.69715558
_cell_angle_alpha   90.00000000
_cell_angle_beta   89.76752453
_cell_angle_gamma   90.00000000
_symmetry_Int_Tables_number   1
_chemical_formula_structural   Cu2Ni6C29
_chemical_formula_sum   'Cu2 Ni6 C29'
_cell_volume   466.54098091
_cell_formula_units_Z   1
loop_
 _symmetry_equiv_pos_site_id
 _symmetry_equiv_pos_as_xyz
  1  'x, y, z'
loop_
 _atom_site_type_symbol
 _atom_site_label
 _atom_site_symmetry_multiplicity
 _atom_site_fract_x
 _atom_site_fract_y
 _atom_site_fract_z
 _atom_site_occupancy
  C  C0  1  0.23168600  0.26548300  0.24784700  1
  C  C1  1  0.26528400  0.27158000  0.69521100  1
  C  C2  1  0.23168600  0.73451700  0.24784700  1
  C  C3  1  0.26528400  0.72842000  0.69521100  1
  C  C4  1  0.73735600  0.25746200  0.25672500  1
  C  C5  1  0.74588100  0.24571800  0.72036600  1
  C  C6  1  0.73735600  0.74253800  0.25672500  1
  C  C7  1  0.74588100  0.75428200  0.72036600  1
  Ni  Ni8  1  0.00760900  0.00000000  0.50256800  1
  Ni  Ni9  1  0.99213400  0.50000000  0.00790000  1
  Ni  Ni10  1  0.00021600  0.50000000  0.49777100  1
  Ni  Ni11  1  0.51078300  0.00000000  0.47858200  1
  Ni  Ni12  1  0.49754800  0.50000000  0.99140300  1
  Ni  Ni13  1  0.50555400  0.50000000  0.49571500  1
  Cu  Cu14  1  0.02038800  0.00000000  0.98843100  1
  Cu  Cu15  1  0.47880000  0.00000000  0.00026700  1
  C  C16  1  0.96275500  0.00000000  0.76698900  1
  C  C17  1  0.01034700  0.50000000  0.25428100  1
  C  C18  1  0.01042800  0.50000000  0.75590300  1
  C  C19  1  0.56662200  0.00000000  0.23154500  1
  C  C20  1  0.52699500  0.00000000  0.74883600  1
  C  C21  1  0.48966700  0.50000000  0.74501100  1
  C  C22  1  0.24254800  0.00000000  0.06403000  1
  C  C23  1  0.25705000  0.00000000  0.48294200  1
  C  C24  1  0.25212500  0.50000000  0.03080900  1
  C  C25  1  0.25935400  0.50000000  0.48226000  1
  C  C26  1  0.76219700  0.00000000  0.48665900  1
  C  C27  1  0.74004500  0.50000000  0.03617900  1
  C  C28  1  0.74878000  0.50000000  0.49288100  1
  C  C29  1  0.95575500  0.20418000  0.06803400  1
  C  C30  1  0.01278600  0.24834000  0.49826300  1
  C  C31  1  0.95575500  0.79582000  0.06803400  1
  C  C32  1  0.01278600  0.75166000  0.49826300  1
  C  C33  1  0.50572800  0.25486400  0.01957900  1
  C  C34  1  0.49955000  0.25585300  0.47349500  1
  C  C35  1  0.50572800  0.74513600  0.01957900  1
  C  C36  1  0.49955000  0.74414700  0.47349500  1
