# generated using pymatgen
data_Cu3Ni3C14
_symmetry_space_group_name_H-M   'P 1'
_cell_length_a   12.37885909
_cell_length_b   12.39320130
_cell_length_c   12.26210559
_cell_angle_alpha   89.87646080
_cell_angle_beta   90.09346629
_cell_angle_gamma   89.30873166
_symmetry_Int_Tables_number   1
_chemical_formula_structural   Cu3Ni3C14
_chemical_formula_sum   'Cu12 Ni12 C56'
_cell_volume   1881.03102813
_cell_formula_units_Z   4
loop_
 _symmetry_equiv_pos_site_id
 _symmetry_equiv_pos_as_xyz
  1  'x, y, z'
loop_
 _atom_site_type_symbol
 _atom_site_label
 _atom_site_symmetry_multiplicity
 _atom_site_fract_x
 _atom_site_fract_y
 _atom_site_fract_z
 _atom_site_occupancy
  C  C0  1  0.01207442  0.53380897  0.53184149  1
  C  C1  1  0.48375591  0.52381582  0.03053496  1
  C  C2  1  0.47185918  0.04127128  0.47190970  1
  C  C3  1  0.46976926  0.74782974  0.75284166  1
  Ni  Ni4  1  0.00163964  0.18908123  0.62360117  1
  Ni  Ni5  1  0.36809265  0.80849152  0.00105386  1
  Ni  Ni6  1  0.61781266  0.01631825  0.19293606  1
  Ni  Ni7  1  0.61613543  0.19306327  0.98366660  1
  Ni  Ni8  1  0.62573534  0.98960810  0.80709464  1
  Ni  Ni9  1  0.62199441  0.81077385  0.01362309  1
  Ni  Ni10  1  0.83359100  0.00122717  0.36155312  1
  Ni  Ni11  1  0.83815462  0.00041255  0.63586869  1
  Ni  Ni12  1  0.82580560  0.37038036  0.99330890  1
  Ni  Ni13  1  0.83552348  0.63750917  0.00863045  1
  Ni  Ni14  1  0.00634847  0.63236657  0.82275412  1
  Ni  Ni15  1  0.00162602  0.80832311  0.37355444  1
  C  C16  1  0.79637416  0.17956176  0.18936382  1
  C  C17  1  0.79752560  0.20009408  0.81542599  1
  C  C18  1  0.79438670  0.80343372  0.18580143  1
  C  C19  1  0.81407242  0.83001834  0.81374049  1
  Cu  Cu20  1  0.01149966  0.18519606  0.36371860  1
  Cu  Cu21  1  0.99876843  0.36538678  0.17923818  1
  Cu  Cu22  1  0.00760887  0.37806676  0.80417183  1
  Cu  Cu23  1  0.02118357  0.81458651  0.63346952  1
  Cu  Cu24  1  0.18505678  0.99978598  0.37064410  1
  Cu  Cu25  1  0.19048075  0.99865926  0.61833250  1
  Cu  Cu26  1  0.18200622  0.36957097  0.99180148  1
  Cu  Cu27  1  0.19172703  0.61112683  0.01769320  1
  Cu  Cu28  1  0.36832256  0.00294927  0.18260358  1
  Cu  Cu29  1  0.36098541  0.17649845  0.99395691  1
  Cu  Cu30  1  0.36501057  0.99123590  0.81289924  1
  Cu  Cu31  1  0.01593379  0.61846647  0.19768655  1
  C  C32  1  0.02288993  0.29328836  0.28685814  1
  C  C33  1  0.01879110  0.31051764  0.69281981  1
  C  C34  1  0.01867747  0.67947743  0.31387123  1
  C  C35  1  0.98648833  0.77646949  0.51207620  1
  C  C36  1  0.98075122  0.50240667  0.77270098  1
  C  C37  1  0.03649582  0.70695296  0.70656390  1
  C  C38  1  0.12396986  0.11676011  0.35460929  1
  C  C39  1  0.09536398  0.35213120  0.09080915  1
  C  C40  1  0.10843617  0.09717100  0.63706750  1
  C  C41  1  0.13367729  0.62083130  0.13813204  1
  C  C42  1  0.11998641  0.36897205  0.87544958  1
  C  C43  1  0.10627719  0.89957891  0.35642317  1
  C  C44  1  0.10574787  0.62782691  0.92161118  1
  C  C45  1  0.13519552  0.88050843  0.63312474  1
  C  C46  1  0.24343538  0.00131848  0.49340980  1
  C  C47  1  0.24397249  0.48497930  0.01075517  1
  C  C48  1  0.28577105  0.99775484  0.28640882  1
  C  C49  1  0.27219373  0.27479601  0.99209858  1
  C  C50  1  0.29536602  0.00295767  0.69922519  1
  C  C51  1  0.29396410  0.68923611  0.01149410  1
  C  C52  1  0.33775084  0.10768201  0.10500951  1
  C  C53  1  0.34497966  0.09987594  0.88629235  1
  C  C54  1  0.36416969  0.89341251  0.11344850  1
  C  C55  1  0.33573686  0.88139188  0.87873615  1
  C  C56  1  0.48515850  0.02497615  0.24079066  1
  C  C57  1  0.47980561  0.23072093  0.99121913  1
  C  C58  1  0.48977938  0.97984575  0.76786258  1
  C  C59  1  0.49887978  0.75233283  0.98260294  1
  C  C60  1  0.65361027  0.12603551  0.10558200  1
  C  C61  1  0.65056250  0.11572216  0.86635895  1
  C  C62  1  0.64263989  0.89194310  0.13047942  1
  C  C63  1  0.66322577  0.87912836  0.89325142  1
  C  C64  1  0.71157371  0.03680536  0.29783952  1
  C  C65  1  0.71797962  0.96504424  0.70191495  1
  C  C66  1  0.71019274  0.29629984  0.96739035  1
  C  C67  1  0.72145693  0.71309161  0.04658374  1
  C  C68  1  0.80651811  0.50454147  0.00211325  1
  C  C69  1  0.83545367  0.00158833  0.49857884  1
  C  C70  1  0.91413965  0.11266760  0.30758147  1
  C  C71  1  0.88401602  0.12845014  0.68331667  1
  C  C72  1  0.88525338  0.32078025  0.12199567  1
  C  C73  1  0.90971707  0.32640840  0.88132385  1
  C  C74  1  0.92162094  0.67344178  0.12086248  1
  C  C75  1  0.88740280  0.68911734  0.88354219  1
  C  C76  1  0.88328971  0.87244607  0.31467638  1
  C  C77  1  0.92622818  0.89349740  0.68870724  1
  C  C78  1  0.98392032  0.22390290  0.48537177  1
  C  C79  1  0.98502285  0.48999521  0.21973611  1
