# generated using pymatgen
data_Cu3Ni6C5
_symmetry_space_group_name_H-M   'P 1'
_cell_length_a   7.82893900
_cell_length_b   11.41192354
_cell_length_c   11.69602404
_cell_angle_alpha   105.14317193
_cell_angle_beta   90.00000000
_cell_angle_gamma   90.00000000
_symmetry_Int_Tables_number   1
_chemical_formula_structural   Cu3Ni6C5
_chemical_formula_sum   'Cu12 Ni24 C20'
_cell_volume   1008.67568930
_cell_formula_units_Z   4
loop_
 _symmetry_equiv_pos_site_id
 _symmetry_equiv_pos_as_xyz
  1  'x, y, z'
loop_
 _atom_site_type_symbol
 _atom_site_label
 _atom_site_symmetry_multiplicity
 _atom_site_fract_x
 _atom_site_fract_y
 _atom_site_fract_z
 _atom_site_occupancy
  C  C0  1  0.24085500  0.45192800  0.35667200  1
  C  C1  1  0.25069500  0.44495200  0.86494500  1
  C  C2  1  0.46337900  0.12894800  0.07299900  1
  C  C3  1  0.47343200  0.13947100  0.48966700  1
  C  C4  1  0.74085500  0.54807200  0.64332800  1
  C  C5  1  0.75069500  0.55504800  0.13505500  1
  C  C6  1  0.96337900  0.87105200  0.92700100  1
  C  C7  1  0.97343200  0.86052900  0.51033300  1
  C  C8  1  0.04582200  0.10788300  0.29237400  1
  C  C9  1  0.26164600  0.71754000  0.17478400  1
  C  C10  1  0.54582200  0.89211700  0.70762600  1
  C  C11  1  0.76164600  0.28246000  0.82521600  1
  C  C12  1  0.18814100  0.61822300  0.65890500  1
  C  C13  1  0.22405100  0.08335500  0.77171000  1
  C  C14  1  0.47158300  0.75023200  0.94337700  1
  C  C15  1  0.49033000  0.73938900  0.43002600  1
  C  C16  1  0.68814100  0.38177700  0.34109500  1
  C  C17  1  0.72405100  0.91664500  0.22829000  1
  C  C18  1  0.97158300  0.24976800  0.05662300  1
  C  C19  1  0.99033000  0.26061100  0.56997400  1
  Ni  Ni20  1  0.08861100  0.25985700  0.13281100  1
  Ni  Ni21  1  0.10749200  0.64117300  0.57240100  1
  Ni  Ni22  1  0.11000300  0.27256300  0.49972500  1
  Ni  Ni23  1  0.12220900  0.64631600  0.76174300  1
  Ni  Ni24  1  0.15533300  0.18596500  0.78841200  1
  Ni  Ni25  1  0.21849700  0.02371300  0.84870700  1
  Ni  Ni26  1  0.30286700  0.03738100  0.67341200  1
  Ni  Ni27  1  0.33192700  0.56596900  0.64149100  1
  Ni  Ni28  1  0.38014400  0.84322400  0.97372500  1
  Ni  Ni29  1  0.39705600  0.83170500  0.45405300  1
  Ni  Ni30  1  0.44661700  0.66095800  0.99077000  1
  Ni  Ni31  1  0.46718300  0.65460700  0.33518200  1
  Ni  Ni32  1  0.58861100  0.74014300  0.86718900  1
  Ni  Ni33  1  0.60749200  0.35882700  0.42759900  1
  Ni  Ni34  1  0.61000300  0.72743700  0.50027500  1
  Ni  Ni35  1  0.62220900  0.35368400  0.23825700  1
  Ni  Ni36  1  0.65533300  0.81403500  0.21158800  1
  Ni  Ni37  1  0.71849700  0.97628700  0.15129300  1
  Ni  Ni38  1  0.80286700  0.96261900  0.32658800  1
  Ni  Ni39  1  0.83192700  0.43403100  0.35850900  1
  Ni  Ni40  1  0.88014400  0.15677600  0.02627500  1
  Ni  Ni41  1  0.89705600  0.16829500  0.54594700  1
  Ni  Ni42  1  0.94661700  0.33904200  0.00923000  1
  Ni  Ni43  1  0.96718300  0.34539300  0.66481800  1
  Cu  Cu44  1  0.07450900  0.68946400  0.05556500  1
  Cu  Cu45  1  0.08114800  0.68866500  0.28651900  1
  Cu  Cu46  1  0.11319800  0.97916300  0.14971500  1
  Cu  Cu47  1  0.15186000  0.00333700  0.38293900  1
  Cu  Cu48  1  0.28510800  0.17266000  0.29036700  1
  Cu  Cu49  1  0.29340500  0.53944400  0.13077100  1
  Cu  Cu50  1  0.57450900  0.31053600  0.94443500  1
  Cu  Cu51  1  0.58114800  0.31133500  0.71348100  1
  Cu  Cu52  1  0.61319800  0.02083700  0.85028500  1
  Cu  Cu53  1  0.65186000  0.99666300  0.61706100  1
  Cu  Cu54  1  0.78510800  0.82734000  0.70963300  1
  Cu  Cu55  1  0.79340500  0.46055600  0.86922900  1
