# generated using pymatgen
data_Cu4Ni9C22
_symmetry_space_group_name_H-M   'P 1'
_cell_length_a   6.53838763
_cell_length_b   10.89787700
_cell_length_c   11.54566440
_cell_angle_alpha   61.83926016
_cell_angle_beta   89.87431301
_cell_angle_gamma   89.73368323
_symmetry_Int_Tables_number   1
_chemical_formula_structural   Cu4Ni9C22
_chemical_formula_sum   'Cu8 Ni18 C44'
_cell_volume   725.29003254
_cell_formula_units_Z   2
loop_
 _symmetry_equiv_pos_site_id
 _symmetry_equiv_pos_as_xyz
  1  'x, y, z'
loop_
 _atom_site_type_symbol
 _atom_site_label
 _atom_site_symmetry_multiplicity
 _atom_site_fract_x
 _atom_site_fract_y
 _atom_site_fract_z
 _atom_site_occupancy
  C  C0  1  0.33827700  0.86161000  0.52493500  1
  C  C1  1  0.83827700  0.38654400  0.47506500  1
  C  C2  1  0.16817300  0.94520500  0.86438100  1
  C  C3  1  0.66817300  0.80958600  0.13561900  1
  C  C4  1  0.82279500  0.99511800  0.59577700  1
  C  C5  1  0.32279500  0.59089500  0.40422300  1
  C  C6  1  0.71403400  0.99322100  0.80771600  1
  C  C7  1  0.21403400  0.80093700  0.19228400  1
  C  C8  1  0.47610800  0.08041100  0.61429500  1
  C  C9  1  0.97610800  0.69470600  0.38570500  1
  C  C10  1  0.87023600  0.79635900  0.53396400  1
  C  C11  1  0.37023600  0.33032300  0.46603600  1
  C  C12  1  0.13294500  0.14210700  0.48795800  1
  C  C13  1  0.63294500  0.63006500  0.51204200  1
  Ni  Ni14  1  0.57598000  0.56430100  0.81139200  1
  Ni  Ni15  1  0.07598000  0.37569300  0.18860800  1
  Ni  Ni16  1  0.75533700  0.62945700  0.88575700  1
  Ni  Ni17  1  0.25533700  0.51521400  0.11424300  1
  Ni  Ni18  1  0.57425600  0.50203100  0.98478800  1
  Ni  Ni19  1  0.07425600  0.48681800  0.01521200  1
  Ni  Ni20  1  0.20637700  0.40815400  0.85678600  1
  Ni  Ni21  1  0.70637700  0.26494100  0.14321400  1
  Ni  Ni22  1  0.17627400  0.49350100  0.68064000  1
  Ni  Ni23  1  0.67627400  0.17414000  0.31936000  1
  Ni  Ni24  1  0.95741000  0.44687200  0.78205200  1
  Ni  Ni25  1  0.45741000  0.22892400  0.21794800  1
  Ni  Ni26  1  0.13263600  0.12676200  0.30559800  1
  Ni  Ni27  1  0.63263600  0.43236000  0.69440200  1
  Ni  Ni28  1  0.95883900  0.12981300  0.11918000  1
  Ni  Ni29  1  0.45883900  0.24899300  0.88082000  1
  Ni  Ni30  1  0.18737900  0.09938600  0.11542400  1
  Ni  Ni31  1  0.68737900  0.21481000  0.88457600  1
  Cu  Cu32  1  0.45343600  0.70707000  0.87558000  1
  Cu  Cu33  1  0.95343600  0.58265100  0.12442000  1
  Cu  Cu34  1  0.10794500  0.27615000  0.77604700  1
  Cu  Cu35  1  0.60794500  0.05219600  0.22395300  1
  Cu  Cu36  1  0.59772600  0.59369700  0.88873900  1
  Cu  Cu37  1  0.09772600  0.48243600  0.11126100  1
  Cu  Cu38  1  0.11404500  0.41479000  0.77500700  1
  Cu  Cu39  1  0.61404500  0.18979700  0.22499300  1
  C  C40  1  0.93270800  0.88771100  0.57598200  1
  C  C41  1  0.43270800  0.46369300  0.42401800  1
  C  C42  1  0.85435100  0.95790700  0.73701300  1
  C  C43  1  0.35435100  0.69492000  0.26298700  1
  C  C44  1  0.60209200  0.99797900  0.57060200  1
  C  C45  1  0.10209200  0.56858100  0.42939800  1
  C  C46  1  0.77901900  0.97929400  0.92434800  1
  C  C47  1  0.27901900  0.90364300  0.07565200  1
  C  C48  1  0.52003700  0.04043800  0.75490800  1
  C  C49  1  0.02003700  0.79534600  0.24509200  1
  C  C50  1  0.01976500  0.76566900  0.46630400  1
  C  C51  1  0.51976500  0.23197300  0.53369600  1
  C  C52  1  0.25743900  0.05274900  0.60778000  1
  C  C53  1  0.75743900  0.66052900  0.39222000  1
  C  C54  1  0.18158000  0.29406800  0.44052300  1
  C  C55  1  0.68158000  0.73459100  0.55947700  1
  C  C56  1  0.19969000  0.09646600  0.39191800  1
  C  C57  1  0.69969000  0.48838400  0.60808200  1
  C  C58  1  0.91476400  0.13297700  0.51220100  1
  C  C59  1  0.41476400  0.64517900  0.48779900  1
  C  C60  1  0.45856300  0.75021600  0.96123700  1
  C  C61  1  0.95856300  0.71145300  0.03876300  1
  C  C62  1  0.32424500  0.75920800  0.78076700  1
  C  C63  1  0.82424500  0.53997500  0.21923300  1
  C  C64  1  0.21116600  0.17505900  0.86297300  1
  C  C65  1  0.71116600  0.03803100  0.13702700  1
  C  C66  1  0.00096900  0.26034600  0.69148700  1
  C  C67  1  0.50096900  0.95183300  0.30851300  1
  C  C68  1  0.09461500  0.15502900  0.13867900  1
  C  C69  1  0.59461500  0.29370800  0.86132100  1
