# generated using pymatgen
data_Cu11Ni17C
_symmetry_space_group_name_H-M   'P 1'
_cell_length_a   9.11822034
_cell_length_b   9.11822034
_cell_length_c   9.07928668
_cell_angle_alpha   70.56528119
_cell_angle_beta   70.56528119
_cell_angle_gamma   109.47882352
_symmetry_Int_Tables_number   1
_chemical_formula_structural   Cu11Ni17C
_chemical_formula_sum   'Cu11 Ni17 C1'
_cell_volume   581.56729953
_cell_formula_units_Z   1
loop_
 _symmetry_equiv_pos_site_id
 _symmetry_equiv_pos_as_xyz
  1  'x, y, z'
loop_
 _atom_site_type_symbol
 _atom_site_label
 _atom_site_symmetry_multiplicity
 _atom_site_fract_x
 _atom_site_fract_y
 _atom_site_fract_z
 _atom_site_occupancy
  Ni  Ni0  1  0.60392700  0.60392700  0.71640900  1
  Ni  Ni1  1  0.31514000  0.31514000  0.28636600  1
  Ni  Ni2  1  0.00053400  0.00053400  0.99985500  1
  Ni  Ni3  1  0.00105700  0.00105700  0.34297800  1
  Ni  Ni4  1  0.34477200  0.34477200  0.65507300  1
  Ni  Ni5  1  0.39642300  0.68311900  0.00177300  1
  Ni  Ni6  1  0.68578600  0.99934100  0.60305700  1
  Ni  Ni7  1  0.28746200  0.60326000  0.39730900  1
  Ni  Ni8  1  0.65418100  0.99887000  0.00025400  1
  Ni  Ni9  1  0.99881100  0.39637600  0.31725900  1
  Ni  Ni10  1  0.31619300  0.71391800  0.68404800  1
  Ni  Ni11  1  0.71391800  0.31619300  0.68404800  1
  Ni  Ni12  1  0.39637600  0.99881100  0.31725900  1
  Ni  Ni13  1  0.99887000  0.65418100  0.00025400  1
  Ni  Ni14  1  0.60326000  0.28746200  0.39730900  1
  Ni  Ni15  1  0.99934100  0.68578600  0.60305700  1
  Ni  Ni16  1  0.68311900  0.39642300  0.00177300  1
  Cu  Cu17  1  0.63714900  0.63714900  0.17063700  1
  Cu  Cu18  1  0.18606500  0.36632400  0.99916400  1
  Cu  Cu19  1  0.99645000  0.17970000  0.63662400  1
  Cu  Cu20  1  0.63466200  0.81884500  0.36432800  1
  Cu  Cu21  1  0.99930300  0.36549000  0.81569500  1
  Cu  Cu22  1  0.81490900  0.18081400  0.18606300  1
  Cu  Cu23  1  0.18081400  0.81490900  0.18606300  1
  Cu  Cu24  1  0.36549000  0.99930300  0.81569500  1
  Cu  Cu25  1  0.81884500  0.63466200  0.36432800  1
  Cu  Cu26  1  0.17970000  0.99645000  0.63662400  1
  Cu  Cu27  1  0.36632400  0.18606500  0.99916400  1
  C  C28  1  0.81590300  0.81590300  0.81717000  1
