# generated using pymatgen
data_CuNiC19
_symmetry_space_group_name_H-M   'P 1'
_cell_length_a   6.07833600
_cell_length_b   10.47589900
_cell_length_c   14.29658487
_cell_angle_alpha   89.95782344
_cell_angle_beta   90.00000000
_cell_angle_gamma   90.00000000
_symmetry_Int_Tables_number   1
_chemical_formula_structural   CuNiC19
_chemical_formula_sum   'Cu4 Ni4 C76'
_cell_volume   910.34957818
_cell_formula_units_Z   4
loop_
 _symmetry_equiv_pos_site_id
 _symmetry_equiv_pos_as_xyz
  1  'x, y, z'
loop_
 _atom_site_type_symbol
 _atom_site_label
 _atom_site_symmetry_multiplicity
 _atom_site_fract_x
 _atom_site_fract_y
 _atom_site_fract_z
 _atom_site_occupancy
  C  C0  1  0.74959900  0.00146200  0.66739700  1
  C  C1  1  0.24833800  0.00090700  0.99950100  1
  C  C2  1  0.75166200  0.00090700  0.99950100  1
  C  C3  1  0.24919100  0.00094200  0.33345200  1
  C  C4  1  0.75080900  0.00094200  0.33345200  1
  C  C5  1  0.25040100  0.00146200  0.66739700  1
  C  C6  1  0.24975300  0.49884600  0.50051100  1
  C  C7  1  0.75024700  0.49884600  0.50051100  1
  C  C8  1  0.24925800  0.49843900  0.16748800  1
  C  C9  1  0.75074200  0.49843900  0.16748800  1
  C  C10  1  0.25043600  0.49884200  0.83276700  1
  C  C11  1  0.74956400  0.49884200  0.83276700  1
  C  C12  1  0.50000000  0.78184000  0.16056200  1
  C  C13  1  0.50000000  0.78103400  0.82633800  1
  C  C14  1  0.00000000  0.71906300  0.65995800  1
  C  C15  1  0.50000000  0.27953200  0.00676300  1
  Ni  Ni16  1  0.50000000  0.78153000  0.49224400  1
  Ni  Ni17  1  0.00000000  0.71949800  0.99252800  1
  Ni  Ni18  1  0.00000000  0.71856200  0.32600300  1
  Ni  Ni19  1  0.50000000  0.28030100  0.34195100  1
  Cu  Cu20  1  0.50000000  0.27644600  0.67321100  1
  Cu  Cu21  1  0.00000000  0.22281700  0.83934600  1
  Cu  Cu22  1  0.00000000  0.21999600  0.50674200  1
  Cu  Cu23  1  0.00000000  0.21949700  0.17354300  1
  C  C24  1  0.00000000  0.90997100  0.80614300  1
  C  C25  1  0.00000000  0.90751900  0.13812200  1
  C  C26  1  0.00000000  0.90793100  0.47195300  1
  C  C27  1  0.50000000  0.59239300  0.30732800  1
  C  C28  1  0.50000000  0.59098800  0.63736000  1
  C  C29  1  0.50000000  0.59264100  0.97301800  1
  C  C30  1  0.00000000  0.40430900  0.36114300  1
  C  C31  1  0.00000000  0.40489100  0.02889500  1
  C  C32  1  0.00000000  0.40271700  0.69395000  1
  C  C33  1  0.50000000  0.09469700  0.85954400  1
  C  C34  1  0.50000000  0.09616400  0.19497200  1
  C  C35  1  0.50000000  0.09644600  0.52719200  1
  C  C36  1  0.50000000  0.95990800  0.23835600  1
  C  C37  1  0.50000000  0.95917500  0.56910300  1
  C  C38  1  0.50000000  0.95833200  0.90274300  1
  C  C39  1  0.00000000  0.90615900  0.57939700  1
  C  C40  1  0.00000000  0.90395700  0.91361500  1
  C  C41  1  0.00000000  0.90252500  0.24575600  1
  C  C42  1  0.20222000  0.83776200  0.09258700  1
  C  C43  1  0.79778000  0.83776200  0.09258700  1
  C  C44  1  0.20303200  0.83626900  0.42793800  1
  C  C45  1  0.79696800  0.83626900  0.42793800  1
  C  C46  1  0.20210400  0.84002400  0.76050800  1
  C  C47  1  0.79789600  0.84002400  0.76050800  1
  C  C48  1  0.70203800  0.66169800  0.59217300  1
  C  C49  1  0.29796200  0.66169800  0.59217300  1
  C  C50  1  0.70343300  0.66333300  0.26315600  1
  C  C51  1  0.29656700  0.66333300  0.26315600  1
  C  C52  1  0.70355600  0.66382200  0.92956400  1
  C  C53  1  0.29644400  0.66382200  0.92956400  1
  C  C54  1  0.50000000  0.59488200  0.41472400  1
  C  C55  1  0.50000000  0.59294300  0.08048100  1
  C  C56  1  0.50000000  0.59575800  0.74498000  1
  C  C57  1  0.00000000  0.54157300  0.40264800  1
  C  C58  1  0.00000000  0.54324100  0.06828900  1
  C  C59  1  0.00000000  0.53952700  0.73692400  1
  C  C60  1  0.50000000  0.45573100  0.26522700  1
  C  C61  1  0.50000000  0.45681900  0.92939200  1
  C  C62  1  0.50000000  0.45273500  0.59801700  1
  C  C63  1  0.00000000  0.40238800  0.25360500  1
  C  C64  1  0.00000000  0.39927500  0.92117300  1
  C  C65  1  0.00000000  0.40260500  0.58635500  1
  C  C66  1  0.20119700  0.33508000  0.07514700  1
  C  C67  1  0.20162800  0.33267000  0.40613700  1
  C  C68  1  0.20375600  0.33166600  0.73787200  1
  C  C69  1  0.79624400  0.33166600  0.73787200  1
  C  C70  1  0.79880300  0.33508000  0.07514700  1
  C  C71  1  0.79837200  0.33267000  0.40613700  1
  C  C72  1  0.70479400  0.16470000  0.90297600  1
  C  C73  1  0.29520600  0.16470000  0.90297600  1
  C  C74  1  0.70442100  0.16757900  0.23808600  1
  C  C75  1  0.70378400  0.16817500  0.57118700  1
  C  C76  1  0.29557900  0.16757900  0.23808600  1
  C  C77  1  0.29621600  0.16817500  0.57118700  1
  C  C78  1  0.50000000  0.09653900  0.75176800  1
  C  C79  1  0.50000000  0.09713400  0.41969500  1
  C  C80  1  0.50000000  0.09460800  0.08735800  1
  C  C81  1  0.00000000  0.04785100  0.76605300  1
  C  C82  1  0.00000000  0.04602700  0.09839900  1
  C  C83  1  0.00000000  0.04509500  0.43023900  1
