# generated using pymatgen
data_CuNi4C31
_symmetry_space_group_name_H-M   'P 1'
_cell_length_a   12.34446700
_cell_length_b   12.34446700
_cell_length_c   6.96745000
_cell_angle_alpha   90.00000000
_cell_angle_beta   90.00000000
_cell_angle_gamma   90.00000000
_symmetry_Int_Tables_number   1
_chemical_formula_structural   CuNi4C31
_chemical_formula_sum   'Cu2 Ni8 C62'
_cell_volume   1061.74089868
_cell_formula_units_Z   2
loop_
 _symmetry_equiv_pos_site_id
 _symmetry_equiv_pos_as_xyz
  1  'x, y, z'
loop_
 _atom_site_type_symbol
 _atom_site_label
 _atom_site_symmetry_multiplicity
 _atom_site_fract_x
 _atom_site_fract_y
 _atom_site_fract_z
 _atom_site_occupancy
  Ni  Ni0  1  0.01752100  0.72582900  0.99035900  1
  Ni  Ni1  1  0.98247900  0.27417100  0.99035900  1
  Ni  Ni2  1  0.48248000  0.22582900  0.49035900  1
  Ni  Ni3  1  0.51752100  0.77417100  0.49035900  1
  Ni  Ni4  1  0.27417100  0.98247900  0.99035900  1
  Ni  Ni5  1  0.72582900  0.01752100  0.99035900  1
  Ni  Ni6  1  0.22582900  0.48248000  0.49035900  1
  Ni  Ni7  1  0.77417100  0.51752100  0.49035900  1
  Cu  Cu8  1  0.00000000  0.00000000  0.33755000  1
  Cu  Cu9  1  0.50000000  0.50000000  0.83755000  1
  C  C10  1  0.70131900  0.70131900  0.99830300  1
  C  C11  1  0.29868100  0.29868100  0.99830300  1
  C  C12  1  0.79868100  0.20131900  0.49830300  1
  C  C13  1  0.20131900  0.79868100  0.49830300  1
  C  C14  1  0.96473600  0.76824100  0.52821200  1
  C  C15  1  0.03526400  0.23175900  0.52821200  1
  C  C16  1  0.53526400  0.26824100  0.02821200  1
  C  C17  1  0.46473600  0.73175900  0.02821200  1
  C  C18  1  0.23175900  0.03526400  0.52821200  1
  C  C19  1  0.76824100  0.96473600  0.52821200  1
  C  C20  1  0.26824100  0.53526400  0.02821200  1
  C  C21  1  0.73175900  0.46473600  0.02821200  1
  C  C22  1  0.81460300  0.81460300  0.29499800  1
  C  C23  1  0.18539700  0.18539700  0.29499800  1
  C  C24  1  0.68539700  0.31460300  0.79499800  1
  C  C25  1  0.31460300  0.68539700  0.79499800  1
  C  C26  1  0.76796200  0.76796200  0.62554800  1
  C  C27  1  0.23203800  0.23203800  0.62554800  1
  C  C28  1  0.73203800  0.26796200  0.12554800  1
  C  C29  1  0.26796200  0.73203800  0.12554800  1
  C  C30  1  0.00000000  0.00000000  0.91447500  1
  C  C31  1  0.50000000  0.50000000  0.41447500  1
  C  C32  1  0.00000000  0.50000000  0.75859700  1
  C  C33  1  0.50000000  0.00000000  0.25859700  1
  C  C34  1  0.50000000  0.00000000  0.75859700  1
  C  C35  1  0.00000000  0.50000000  0.25859700  1
  C  C36  1  0.69997000  0.69997000  0.74282500  1
  C  C37  1  0.30003000  0.30003000  0.74282500  1
  C  C38  1  0.80003000  0.19997000  0.24282500  1
  C  C39  1  0.19997000  0.80003000  0.24282500  1
  C  C40  1  0.57033100  0.73457600  0.08482300  1
  C  C41  1  0.42966900  0.26542400  0.08482300  1
  C  C42  1  0.92966900  0.23457600  0.58482300  1
  C  C43  1  0.07033100  0.76542400  0.58482300  1
  C  C44  1  0.26542400  0.42966900  0.08482300  1
  C  C45  1  0.73457600  0.57033100  0.08482300  1
  C  C46  1  0.23457600  0.92966900  0.58482300  1
  C  C47  1  0.76542400  0.07033100  0.58482300  1
  C  C48  1  0.79582700  0.79582700  0.09369600  1
  C  C49  1  0.20417300  0.20417300  0.09369600  1
  C  C50  1  0.70417300  0.29582700  0.59369600  1
  C  C51  1  0.29582700  0.70417300  0.59369600  1
  C  C52  1  0.93495800  0.79784600  0.34248400  1
  C  C53  1  0.06504200  0.20215400  0.34248400  1
  C  C54  1  0.56504200  0.29784600  0.84248400  1
  C  C55  1  0.43495800  0.70215400  0.84248400  1
  C  C56  1  0.20215400  0.06504200  0.34248400  1
  C  C57  1  0.79784600  0.93495800  0.34248400  1
  C  C58  1  0.29784600  0.56504200  0.84248400  1
  C  C59  1  0.70215400  0.43495800  0.84248400  1
  C  C60  1  0.74650900  0.74650900  0.41951400  1
  C  C61  1  0.25349100  0.25349100  0.41951400  1
  C  C62  1  0.75349100  0.24650900  0.91951400  1
  C  C63  1  0.24650900  0.75349100  0.91951400  1
  C  C64  1  0.88585200  0.74531600  0.66430000  1
  C  C65  1  0.11414800  0.25468400  0.66430000  1
  C  C66  1  0.61414800  0.24531600  0.16430000  1
  C  C67  1  0.38585200  0.75468400  0.16430000  1
  C  C68  1  0.25468400  0.11414800  0.66430000  1
  C  C69  1  0.74531600  0.88585200  0.66430000  1
  C  C70  1  0.24531600  0.61414800  0.16430000  1
  C  C71  1  0.75468400  0.38585200  0.16430000  1
