# generated using pymatgen
data_CuNiC14
_symmetry_space_group_name_H-M   'P 1'
_cell_length_a   6.29065260
_cell_length_b   6.31615680
_cell_length_c   10.32186448
_cell_angle_alpha   90.00000000
_cell_angle_beta   90.00000000
_cell_angle_gamma   120.13421133
_symmetry_Int_Tables_number   1
_chemical_formula_structural   CuNiC14
_chemical_formula_sum   'Cu1 Ni1 C14'
_cell_volume   354.68960313
_cell_formula_units_Z   1
loop_
 _symmetry_equiv_pos_site_id
 _symmetry_equiv_pos_as_xyz
  1  'x, y, z'
loop_
 _atom_site_type_symbol
 _atom_site_label
 _atom_site_symmetry_multiplicity
 _atom_site_fract_x
 _atom_site_fract_y
 _atom_site_fract_z
 _atom_site_occupancy
  C  C0  1  0.16753306  0.33376603  0.62500000  1
  C  C1  1  0.16793214  0.83396557  0.62500000  1
  C  C2  1  0.67031763  0.33527189  0.12500000  1
  C  C3  1  0.66620008  0.33248672  0.62500000  1
  C  C4  1  0.67031763  0.83504475  0.12500000  1
  C  C5  1  0.66620008  0.83371235  0.62500000  1
  C  C6  1  0.33088840  0.16783365  0.36836571  1
  C  C7  1  0.33088840  0.16783365  0.88163429  1
  C  C8  1  0.33088840  0.66305575  0.36836571  1
  C  C9  1  0.33088840  0.66305575  0.88163429  1
  C  C10  1  0.83720643  0.16860371  0.37195081  1
  C  C11  1  0.83720643  0.16860371  0.87804919  1
  C  C12  1  0.83419121  0.66709610  0.37431490  1
  C  C13  1  0.83419121  0.66709610  0.87568510  1
  Ni  Ni14  1  0.16179974  0.33089937  0.12500000  1
  Cu  Cu15  1  0.16335077  0.83167488  0.12500000  1
