# generated using pymatgen
data_Cu7NiC32
_symmetry_space_group_name_H-M   'P 1'
_cell_length_a   7.58903788
_cell_length_b   7.58903788
_cell_length_c   7.58903868
_cell_angle_alpha   89.97306618
_cell_angle_beta   89.97306618
_cell_angle_gamma   89.97307250
_symmetry_Int_Tables_number   1
_chemical_formula_structural   Cu7NiC32
_chemical_formula_sum   'Cu7 Ni1 C32'
_cell_volume   437.07912350
_cell_formula_units_Z   1
loop_
 _symmetry_equiv_pos_site_id
 _symmetry_equiv_pos_as_xyz
  1  'x, y, z'
loop_
 _atom_site_type_symbol
 _atom_site_label
 _atom_site_symmetry_multiplicity
 _atom_site_fract_x
 _atom_site_fract_y
 _atom_site_fract_z
 _atom_site_occupancy
  C  C0  1  0.75056600  0.75056600  0.75056600  1
  C  C1  1  0.24803200  0.24803200  0.75219400  1
  C  C2  1  0.75193800  0.24800400  0.75193800  1
  C  C3  1  0.24829300  0.24829300  0.24829300  1
  C  C4  1  0.75219400  0.24803200  0.24803200  1
  C  C5  1  0.24800400  0.75193800  0.75193800  1
  C  C6  1  0.24803200  0.75219400  0.24803200  1
  C  C7  1  0.75193800  0.75193800  0.24800400  1
  Ni  Ni8  1  0.00054700  0.00054700  0.00054700  1
  Cu  Cu9  1  0.49939000  0.00072500  0.00072500  1
  Cu  Cu10  1  0.00072500  0.00072500  0.49939000  1
  Cu  Cu11  1  0.49898400  0.00122600  0.49898400  1
  Cu  Cu12  1  0.00072500  0.49939000  0.00072500  1
  Cu  Cu13  1  0.49898400  0.49898400  0.00122600  1
  Cu  Cu14  1  0.00122600  0.49898400  0.49898400  1
  Cu  Cu15  1  0.49908500  0.49908500  0.49908500  1
  C  C16  1  0.00118400  0.25423200  0.00118400  1
  C  C17  1  0.49932800  0.24739600  0.00108600  1
  C  C18  1  0.00108600  0.24739600  0.49932800  1
  C  C19  1  0.49921500  0.25210500  0.49921500  1
  C  C20  1  0.00286600  0.74565100  0.00286600  1
  C  C21  1  0.49699900  0.75278500  0.00283400  1
  C  C22  1  0.00283400  0.75278500  0.49699900  1
  C  C23  1  0.49710600  0.74775000  0.49710600  1
  C  C24  1  0.00286600  0.00286600  0.74565100  1
  C  C25  1  0.49699900  0.00283400  0.75278500  1
  C  C26  1  0.00118400  0.00118400  0.25423200  1
  C  C27  1  0.49932800  0.00108600  0.24739600  1
  C  C28  1  0.00283400  0.49699900  0.75278500  1
  C  C29  1  0.49710600  0.49710600  0.74775000  1
  C  C30  1  0.00108600  0.49932800  0.24739600  1
  C  C31  1  0.49921500  0.49921500  0.25210500  1
  C  C32  1  0.25423200  0.00118400  0.00118400  1
  C  C33  1  0.74565100  0.00286600  0.00286600  1
  C  C34  1  0.24739600  0.00108600  0.49932800  1
  C  C35  1  0.75278500  0.00283400  0.49699900  1
  C  C36  1  0.24739600  0.49932800  0.00108600  1
  C  C37  1  0.75278500  0.49699900  0.00283400  1
  C  C38  1  0.25210500  0.49921500  0.49921500  1
  C  C39  1  0.74775000  0.49710600  0.49710600  1
