# generated using pymatgen
data_Cu4Ni29C13
_symmetry_space_group_name_H-M   'P 1'
_cell_length_a   11.12365000
_cell_length_b   11.12365000
_cell_length_c   7.80995300
_cell_angle_alpha   90.00000000
_cell_angle_beta   90.00000000
_cell_angle_gamma   90.00000000
_symmetry_Int_Tables_number   1
_chemical_formula_structural   Cu4Ni29C13
_chemical_formula_sum   'Cu8 Ni58 C26'
_cell_volume   966.36913704
_cell_formula_units_Z   2
loop_
 _symmetry_equiv_pos_site_id
 _symmetry_equiv_pos_as_xyz
  1  'x, y, z'
loop_
 _atom_site_type_symbol
 _atom_site_label
 _atom_site_symmetry_multiplicity
 _atom_site_fract_x
 _atom_site_fract_y
 _atom_site_fract_z
 _atom_site_occupancy
  C  C0  1  0.25000000  0.75000000  0.00000000  1
  C  C1  1  0.25000000  0.25000000  0.00000000  1
  C  C2  1  0.75000000  0.75000000  0.00000000  1
  C  C3  1  0.75000000  0.25000000  0.00000000  1
  C  C4  1  0.00000000  0.00000000  0.50000000  1
  C  C5  1  0.50000000  0.50000000  0.50000000  1
  Ni  Ni6  1  0.33822400  0.67437700  0.33638400  1
  Ni  Ni7  1  0.27339200  0.00000000  0.52479300  1
  Ni  Ni8  1  0.50000000  0.77339200  0.52479300  1
  Ni  Ni9  1  0.50000000  0.22660800  0.52479300  1
  Ni  Ni10  1  0.83588600  0.50000000  0.97348800  1
  Ni  Ni11  1  0.00000000  0.66411400  0.97348800  1
  Ni  Ni12  1  0.00000000  0.33588600  0.97348800  1
  Ni  Ni13  1  0.16411400  0.50000000  0.97348800  1
  Ni  Ni14  1  0.66411400  0.00000000  0.02651200  1
  Ni  Ni15  1  0.33588600  0.00000000  0.02651200  1
  Ni  Ni16  1  0.50000000  0.83588600  0.02651200  1
  Ni  Ni17  1  0.50000000  0.16411400  0.02651200  1
  Ni  Ni18  1  0.88457800  0.38457800  0.25072800  1
  Ni  Ni19  1  0.88457800  0.61542200  0.25072800  1
  Ni  Ni20  1  0.11542200  0.38457800  0.25072800  1
  Ni  Ni21  1  0.11542200  0.61542200  0.25072800  1
  Ni  Ni22  1  0.61542200  0.88457800  0.74927200  1
  Ni  Ni23  1  0.38457800  0.11542200  0.74927200  1
  Ni  Ni24  1  0.38457800  0.88457800  0.74927200  1
  Ni  Ni25  1  0.61542200  0.11542200  0.74927200  1
  Ni  Ni26  1  0.89018100  0.39018100  0.69929400  1
  Ni  Ni27  1  0.89018100  0.60981900  0.69929400  1
  Ni  Ni28  1  0.10981900  0.39018100  0.69929400  1
  Ni  Ni29  1  0.10981900  0.60981900  0.69929400  1
  Ni  Ni30  1  0.60981900  0.89018100  0.30070600  1
  Ni  Ni31  1  0.39018100  0.10981900  0.30070600  1
  Ni  Ni32  1  0.39018100  0.89018100  0.30070600  1
  Ni  Ni33  1  0.60981900  0.10981900  0.30070600  1
  Ni  Ni34  1  0.33822400  0.32562300  0.33638400  1
  Ni  Ni35  1  0.82562300  0.16177600  0.33638400  1
  Ni  Ni36  1  0.17437700  0.83822400  0.33638400  1
  Ni  Ni37  1  0.66177600  0.67437700  0.33638400  1
  Ni  Ni38  1  0.16177600  0.82562300  0.66361600  1
  Ni  Ni39  1  0.83822400  0.17437700  0.66361600  1
  Ni  Ni40  1  0.32562300  0.33822400  0.66361600  1
  Ni  Ni41  1  0.60969100  0.50000000  0.88925000  1
  Ni  Ni42  1  0.16177600  0.17437700  0.66361600  1
  Ni  Ni43  1  0.67437700  0.33822400  0.66361600  1
  Ni  Ni44  1  0.32562300  0.66177600  0.66361600  1
  Ni  Ni45  1  0.83822400  0.82562300  0.66361600  1
  Ni  Ni46  1  0.72660800  0.00000000  0.52479300  1
  Ni  Ni47  1  0.00000000  0.89030900  0.88925000  1
  Ni  Ni48  1  0.17437700  0.16177600  0.33638400  1
  Ni  Ni49  1  0.82562300  0.83822400  0.33638400  1
  Ni  Ni50  1  0.00000000  0.10969100  0.88925000  1
  Ni  Ni51  1  0.39030900  0.50000000  0.88925000  1
  Ni  Ni52  1  0.50000000  0.00000000  0.53103600  1
  Ni  Ni53  1  0.00000000  0.50000000  0.46896400  1
  Ni  Ni54  1  0.10969100  0.00000000  0.11075000  1
  Ni  Ni55  1  0.22660800  0.50000000  0.47520700  1
  Ni  Ni56  1  0.00000000  0.27339200  0.47520700  1
  Ni  Ni57  1  0.00000000  0.72660800  0.47520700  1
  Ni  Ni58  1  0.77339200  0.50000000  0.47520700  1
  Ni  Ni59  1  0.50000000  0.60969100  0.11075000  1
  Ni  Ni60  1  0.50000000  0.39030900  0.11075000  1
  Ni  Ni61  1  0.89030900  0.00000000  0.11075000  1
  Ni  Ni62  1  0.67437700  0.66177600  0.66361600  1
  Ni  Ni63  1  0.66177600  0.32562300  0.33638400  1
  Cu  Cu64  1  0.50000000  0.68086400  0.82440400  1
  Cu  Cu65  1  0.31913600  0.50000000  0.17559600  1
  Cu  Cu66  1  0.00000000  0.18086400  0.17559600  1
  Cu  Cu67  1  0.00000000  0.81913600  0.17559600  1
  Cu  Cu68  1  0.68086400  0.50000000  0.17559600  1
  Cu  Cu69  1  0.18086400  0.00000000  0.82440400  1
  Cu  Cu70  1  0.81913600  0.00000000  0.82440400  1
  Cu  Cu71  1  0.50000000  0.31913600  0.82440400  1
  C  C72  1  0.68612700  0.18612700  0.51722800  1
  C  C73  1  0.31387300  0.81387300  0.51722800  1
  C  C74  1  0.31387300  0.18612700  0.51722800  1
  C  C75  1  0.68612700  0.81387300  0.51722800  1
  C  C76  1  0.18612700  0.68612700  0.48277200  1
  C  C77  1  0.18612700  0.31387300  0.48277200  1
  C  C78  1  0.50000000  0.25607300  0.26069800  1
  C  C79  1  0.50000000  0.74392700  0.26069800  1
  C  C80  1  0.24392700  0.00000000  0.26069800  1
  C  C81  1  0.75607300  0.00000000  0.26069800  1
  C  C82  1  0.25607300  0.50000000  0.73930200  1
  C  C83  1  0.00000000  0.24392700  0.73930200  1
  C  C84  1  0.00000000  0.75607300  0.73930200  1
  C  C85  1  0.74392700  0.50000000  0.73930200  1
  C  C86  1  0.50000000  0.00000000  0.14768600  1
  C  C87  1  0.00000000  0.50000000  0.85231400  1
  C  C88  1  0.50000000  0.00000000  0.89012700  1
  C  C89  1  0.00000000  0.50000000  0.10987300  1
  C  C90  1  0.81387300  0.68612700  0.48277200  1
  C  C91  1  0.81387300  0.31387300  0.48277200  1
