# generated using pymatgen
data_Cu3Ni2
_symmetry_space_group_name_H-M   'P 1'
_cell_length_a   9.71686192
_cell_length_b   9.71686192
_cell_length_c   8.55842711
_cell_angle_alpha   83.10838629
_cell_angle_beta   83.10838629
_cell_angle_gamma   31.35109850
_symmetry_Int_Tables_number   1
_chemical_formula_structural   Cu3Ni2
_chemical_formula_sum   'Cu15 Ni10'
_cell_volume   417.14282462
_cell_formula_units_Z   5
loop_
 _symmetry_equiv_pos_site_id
 _symmetry_equiv_pos_as_xyz
  1  'x, y, z'
loop_
 _atom_site_type_symbol
 _atom_site_label
 _atom_site_symmetry_multiplicity
 _atom_site_fract_x
 _atom_site_fract_y
 _atom_site_fract_z
 _atom_site_occupancy
  Ni  Ni0  1  0.72038900  0.72038900  0.08575600  1
  Ni  Ni1  1  0.27961100  0.27961100  0.91424400  1
  Ni  Ni2  1  0.44568100  0.44568100  0.38258900  1
  Ni  Ni3  1  0.55431900  0.55431900  0.61741100  1
  Ni  Ni4  1  0.70897400  0.70897400  0.44653000  1
  Ni  Ni5  1  0.29102600  0.29102600  0.55347000  1
  Ni  Ni6  1  0.57747900  0.57747900  0.00782300  1
  Ni  Ni7  1  0.42252100  0.42252100  0.99217700  1
  Ni  Ni8  1  0.97851700  0.97851700  0.18136000  1
  Ni  Ni9  1  0.02148300  0.02148300  0.81864000  1
  Cu  Cu10  1  0.13029400  0.13029400  0.02984900  1
  Cu  Cu11  1  0.86970600  0.86970600  0.97015100  1
  Cu  Cu12  1  0.58164400  0.08325900  0.22711500  1
  Cu  Cu13  1  0.41835600  0.91674100  0.77288500  1
  Cu  Cu14  1  0.91674100  0.41835600  0.77288500  1
  Cu  Cu15  1  0.08325900  0.58164400  0.22711500  1
  Cu  Cu16  1  0.00000000  0.00000000  0.50000000  1
  Cu  Cu17  1  0.78387600  0.78387600  0.74204600  1
  Cu  Cu18  1  0.21612400  0.21612400  0.25795400  1
  Cu  Cu19  1  0.86378000  0.86378000  0.46537700  1
  Cu  Cu20  1  0.13622000  0.13622000  0.53462300  1
  Cu  Cu21  1  0.35707800  0.82480200  0.29805500  1
  Cu  Cu22  1  0.64292200  0.17519800  0.70194500  1
  Cu  Cu23  1  0.17519800  0.64292200  0.70194500  1
  Cu  Cu24  1  0.82480200  0.35707800  0.29805500  1
