# generated using pymatgen
data_CuNi7C16
_symmetry_space_group_name_H-M   'P 1'
_cell_length_a   8.68584500
_cell_length_b   8.65825900
_cell_length_c   12.28777100
_cell_angle_alpha   90.00000000
_cell_angle_beta   90.00000000
_cell_angle_gamma   90.00000000
_symmetry_Int_Tables_number   1
_chemical_formula_structural   CuNi7C16
_chemical_formula_sum   'Cu4 Ni28 C64'
_cell_volume   924.09316309
_cell_formula_units_Z   4
loop_
 _symmetry_equiv_pos_site_id
 _symmetry_equiv_pos_as_xyz
  1  'x, y, z'
loop_
 _atom_site_type_symbol
 _atom_site_label
 _atom_site_symmetry_multiplicity
 _atom_site_fract_x
 _atom_site_fract_y
 _atom_site_fract_z
 _atom_site_occupancy
  C  C0  1  0.74420300  0.25238400  0.00207100  1
  C  C1  1  0.25579700  0.74761600  0.50207100  1
  C  C2  1  0.75579700  0.25238400  0.50207100  1
  C  C3  1  0.24420300  0.74761600  0.00207100  1
  C  C4  1  0.99475300  0.02030700  0.77304400  1
  C  C5  1  0.00524700  0.97969300  0.27304400  1
  C  C6  1  0.50524700  0.02030700  0.27304400  1
  C  C7  1  0.49475300  0.97969300  0.77304400  1
  C  C8  1  0.99375900  0.47904500  0.77132700  1
  C  C9  1  0.00624100  0.52095500  0.27132700  1
  C  C10  1  0.50624100  0.47904500  0.27132700  1
  C  C11  1  0.49375900  0.52095500  0.77132700  1
  Ni  Ni12  1  0.00139300  0.00121100  0.02017200  1
  Ni  Ni13  1  0.99860700  0.99878900  0.52017200  1
  Ni  Ni14  1  0.49860700  0.00121100  0.52017200  1
  Ni  Ni15  1  0.50139300  0.99878900  0.02017200  1
  Ni  Ni16  1  0.75620400  0.75372800  0.76829500  1
  Ni  Ni17  1  0.24379600  0.24627200  0.26829500  1
  Ni  Ni18  1  0.74379600  0.75372800  0.26829500  1
  Ni  Ni19  1  0.25620400  0.24627200  0.76829500  1
  Ni  Ni20  1  0.00216100  0.49675500  0.01999300  1
  Ni  Ni21  1  0.99783900  0.50324500  0.51999300  1
  Ni  Ni22  1  0.49783900  0.49675500  0.51999300  1
  Ni  Ni23  1  0.50216100  0.50324500  0.01999300  1
  Ni  Ni24  1  0.75694200  0.59766700  0.94057900  1
  Ni  Ni25  1  0.24305800  0.40233300  0.44057900  1
  Ni  Ni26  1  0.74305800  0.59766700  0.44057900  1
  Ni  Ni27  1  0.25694200  0.40233300  0.94057900  1
  Ni  Ni28  1  0.75614700  0.90453600  0.94087300  1
  Ni  Ni29  1  0.24385300  0.09546400  0.44087300  1
  Ni  Ni30  1  0.74385300  0.90453600  0.44087300  1
  Ni  Ni31  1  0.25614700  0.09546400  0.94087300  1
  Ni  Ni32  1  0.90754500  0.74943400  0.09395200  1
  Ni  Ni33  1  0.09245500  0.25056600  0.59395200  1
  Ni  Ni34  1  0.59245500  0.74943400  0.59395200  1
  Ni  Ni35  1  0.40754500  0.25056600  0.09395200  1
  Ni  Ni36  1  0.05157000  0.24795900  0.11866100  1
  Ni  Ni37  1  0.94843000  0.75204100  0.61866100  1
  Ni  Ni38  1  0.44843000  0.24795900  0.61866100  1
  Ni  Ni39  1  0.55157000  0.75204100  0.11866100  1
  Cu  Cu40  1  0.76073000  0.24760000  0.77452000  1
  Cu  Cu41  1  0.23927000  0.75240000  0.27452000  1
  Cu  Cu42  1  0.73927000  0.24760000  0.27452000  1
  Cu  Cu43  1  0.26073000  0.75240000  0.77452000  1
  C  C44  1  0.77104200  0.74993700  0.00968000  1
  C  C45  1  0.22895800  0.25006300  0.50968000  1
  C  C46  1  0.72895800  0.74993700  0.50968000  1
  C  C47  1  0.27104200  0.25006300  0.00968000  1
  C  C48  1  0.83657000  0.02541000  0.99955200  1
  C  C49  1  0.16343000  0.97459000  0.49955200  1
  C  C50  1  0.66343000  0.02541000  0.49955200  1
  C  C51  1  0.33657000  0.97459000  0.99955200  1
  C  C52  1  0.91483100  0.54164000  0.92239300  1
  C  C53  1  0.08516900  0.45836000  0.42239300  1
  C  C54  1  0.58516900  0.54164000  0.42239300  1
  C  C55  1  0.41483100  0.45836000  0.92239300  1
  C  C56  1  0.82888300  0.87332200  0.83570600  1
  C  C57  1  0.17111700  0.12667800  0.33570600  1
  C  C58  1  0.67111700  0.87332200  0.33570600  1
  C  C59  1  0.32888300  0.12667800  0.83570600  1
  C  C60  1  0.66789900  0.48225200  0.00088200  1
  C  C61  1  0.33210100  0.51774800  0.50088200  1
  C  C62  1  0.83210100  0.48225200  0.50088200  1
  C  C63  1  0.16789900  0.51774800  0.00088200  1
  C  C64  1  0.59322200  0.94451300  0.92645100  1
  C  C65  1  0.40677800  0.05548700  0.42645100  1
  C  C66  1  0.90677800  0.94451300  0.42645100  1
  C  C67  1  0.09322200  0.05548700  0.92645100  1
  C  C68  1  0.68123800  0.63673300  0.83790700  1
  C  C69  1  0.31876200  0.36326700  0.33790700  1
  C  C70  1  0.81876200  0.63673300  0.33790700  1
  C  C71  1  0.18123800  0.36326700  0.83790700  1
  C  C72  1  0.87975700  0.67334700  0.70362800  1
  C  C73  1  0.12024300  0.32665300  0.20362800  1
  C  C74  1  0.62024300  0.67334700  0.20362800  1
  C  C75  1  0.37975700  0.32665300  0.70362800  1
  C  C76  1  0.04259500  0.08884500  0.12176600  1
  C  C77  1  0.95740500  0.91115500  0.62176600  1
  C  C78  1  0.45740500  0.08884500  0.62176600  1
  C  C79  1  0.54259500  0.91115500  0.12176600  1
  C  C80  1  0.03387300  0.83655000  0.04224500  1
  C  C81  1  0.96612700  0.16345000  0.54224500  1
  C  C82  1  0.46612700  0.83655000  0.54224500  1
  C  C83  1  0.53387300  0.16345000  0.04224500  1
  C  C84  1  0.85938900  0.82403300  0.19558200  1
  C  C85  1  0.14061100  0.17596700  0.69558200  1
  C  C86  1  0.64061100  0.82403300  0.69558200  1
  C  C87  1  0.35938900  0.17596700  0.19558200  1
  C  C88  1  0.95188500  0.58959700  0.11410400  1
  C  C89  1  0.04811500  0.41040300  0.61410400  1
  C  C90  1  0.54811500  0.58959700  0.61410400  1
  C  C91  1  0.45188500  0.41040300  0.11410400  1
  C  C92  1  0.96499100  0.32966800  0.04311700  1
  C  C93  1  0.03500900  0.67033200  0.54311700  1
  C  C94  1  0.53500900  0.32966800  0.54311700  1
  C  C95  1  0.46499100  0.67033200  0.04311700  1
