# generated using pymatgen
data_Cu15Ni2C3
_symmetry_space_group_name_H-M   'P 1'
_cell_length_a   6.97873664
_cell_length_b   6.97873664
_cell_length_c   6.97873612
_cell_angle_alpha   61.79884226
_cell_angle_beta   61.79884226
_cell_angle_gamma   61.79884890
_symmetry_Int_Tables_number   1
_chemical_formula_structural   Cu15Ni2C3
_chemical_formula_sum   'Cu15 Ni2 C3'
_cell_volume   250.01814843
_cell_formula_units_Z   1
loop_
 _symmetry_equiv_pos_site_id
 _symmetry_equiv_pos_as_xyz
  1  'x, y, z'
loop_
 _atom_site_type_symbol
 _atom_site_label
 _atom_site_symmetry_multiplicity
 _atom_site_fract_x
 _atom_site_fract_y
 _atom_site_fract_z
 _atom_site_occupancy
  C  C0  1  0.00145800  0.50689700  0.00145800  1
  C  C1  1  0.00145800  0.00145800  0.50689700  1
  C  C2  1  0.50689700  0.00145800  0.00145800  1
  Ni  Ni3  1  0.69050000  0.69050000  0.69050000  1
  Ni  Ni4  1  0.31481400  0.31481400  0.31481400  1
  Cu  Cu5  1  0.60384700  0.60384700  0.60384700  1
  Cu  Cu6  1  0.40110700  0.40110700  0.40110700  1
  Cu  Cu7  1  0.83400500  0.49264400  0.83400500  1
  Cu  Cu8  1  0.83400500  0.83400500  0.49264400  1
  Cu  Cu9  1  0.49264400  0.83400500  0.83400500  1
  Cu  Cu10  1  0.17109400  0.51277000  0.17109400  1
  Cu  Cu11  1  0.17109400  0.17109400  0.51277000  1
  Cu  Cu12  1  0.51277000  0.17109400  0.17109400  1
  Cu  Cu13  1  0.74193900  0.11087500  0.74193900  1
  Cu  Cu14  1  0.74193900  0.74193900  0.11087500  1
  Cu  Cu15  1  0.11087500  0.74193900  0.74193900  1
  Cu  Cu16  1  0.24935500  0.91557600  0.24935500  1
  Cu  Cu17  1  0.24935500  0.24935500  0.91557600  1
  Cu  Cu18  1  0.91557600  0.24935500  0.24935500  1
  Cu  Cu19  1  0.95536400  0.95536500  0.95536500  1
