# generated using pymatgen
data_Cu4NiC
_symmetry_space_group_name_H-M   'P 1'
_cell_length_a   12.79148975
_cell_length_b   12.79148975
_cell_length_c   10.07917400
_cell_angle_alpha   90.00000000
_cell_angle_beta   90.00000000
_cell_angle_gamma   119.99999869
_symmetry_Int_Tables_number   1
_chemical_formula_structural   Cu4NiC
_chemical_formula_sum   'Cu72 Ni18 C18'
_cell_volume   1428.22895741
_cell_formula_units_Z   18
loop_
 _symmetry_equiv_pos_site_id
 _symmetry_equiv_pos_as_xyz
  1  'x, y, z'
loop_
 _atom_site_type_symbol
 _atom_site_label
 _atom_site_symmetry_multiplicity
 _atom_site_fract_x
 _atom_site_fract_y
 _atom_site_fract_z
 _atom_site_occupancy
  C  C0  1  0.89566100  0.45111900  0.25984400  1
  C  C1  1  0.55545900  0.10433900  0.25984400  1
  C  C2  1  0.54888100  0.44454100  0.25984400  1
  C  C3  1  0.89566100  0.45111900  0.74015600  1
  C  C4  1  0.55545900  0.10433900  0.74015600  1
  C  C5  1  0.54888100  0.44454100  0.74015600  1
  C  C6  1  0.22797300  0.11733600  0.24364300  1
  C  C7  1  0.88936300  0.77202700  0.24364300  1
  C  C8  1  0.88266400  0.11063700  0.24364300  1
  C  C9  1  0.22797300  0.11733600  0.75635700  1
  C  C10  1  0.88936300  0.77202700  0.75635700  1
  C  C11  1  0.88266400  0.11063700  0.75635700  1
  C  C12  1  0.21319300  0.43756500  0.24433300  1
  C  C13  1  0.22437100  0.78680700  0.24433300  1
  C  C14  1  0.56243500  0.77562900  0.24433300  1
  C  C15  1  0.21319300  0.43756500  0.75566700  1
  C  C16  1  0.22437100  0.78680700  0.75566700  1
  C  C17  1  0.56243500  0.77562900  0.75566700  1
  Ni  Ni18  1  0.17409400  0.97689200  0.50000000  1
  Ni  Ni19  1  0.80279800  0.82590600  0.50000000  1
  Ni  Ni20  1  0.02310800  0.19720200  0.50000000  1
  Ni  Ni21  1  0.77899700  0.53466000  0.50000000  1
  Ni  Ni22  1  0.75566300  0.22100300  0.50000000  1
  Ni  Ni23  1  0.46534000  0.24433700  0.50000000  1
  Ni  Ni24  1  0.13399600  0.49847600  0.50000000  1
  Ni  Ni25  1  0.36448100  0.86600400  0.50000000  1
  Ni  Ni26  1  0.50152400  0.63551900  0.50000000  1
  Ni  Ni27  1  0.08688300  0.20220600  0.00000000  1
  Ni  Ni28  1  0.11532300  0.91311700  0.00000000  1
  Ni  Ni29  1  0.79779400  0.88467700  0.00000000  1
  Ni  Ni30  1  0.44246600  0.57256600  0.00000000  1
  Ni  Ni31  1  0.13010000  0.55753400  0.00000000  1
  Ni  Ni32  1  0.42743400  0.86990000  0.00000000  1
  Ni  Ni33  1  0.84574200  0.53621400  0.00000000  1
  Ni  Ni34  1  0.69047200  0.15425800  0.00000000  1
  Ni  Ni35  1  0.46378600  0.30952800  0.00000000  1
  Cu  Cu36  1  0.17914400  0.08130700  0.50000000  1
  Cu  Cu37  1  0.90216300  0.82085600  0.50000000  1
  Cu  Cu38  1  0.91869300  0.09783700  0.50000000  1
  Cu  Cu39  1  0.17308800  0.92787800  0.38722700  1
  Cu  Cu40  1  0.75479000  0.82691200  0.38722700  1
  Cu  Cu41  1  0.07212200  0.24521000  0.38722700  1
  Cu  Cu42  1  0.17308800  0.92787800  0.61277300  1
  Cu  Cu43  1  0.75479000  0.82691200  0.61277300  1
  Cu  Cu44  1  0.07212200  0.24521000  0.61277300  1
  Cu  Cu45  1  0.83444300  0.47273200  0.50000000  1
  Cu  Cu46  1  0.63828900  0.16555700  0.50000000  1
  Cu  Cu47  1  0.52726800  0.36171100  0.50000000  1
  Cu  Cu48  1  0.81249200  0.24795900  0.38751700  1
  Cu  Cu49  1  0.43546600  0.18750800  0.38751700  1
  Cu  Cu50  1  0.75204100  0.56453400  0.38751700  1
  Cu  Cu51  1  0.81249200  0.24795900  0.61248300  1
  Cu  Cu52  1  0.43546600  0.18750800  0.61248300  1
  Cu  Cu53  1  0.75204100  0.56453400  0.61248300  1
  Cu  Cu54  1  0.23343200  0.49441800  0.50000000  1
  Cu  Cu55  1  0.26098600  0.76656800  0.50000000  1
  Cu  Cu56  1  0.50558200  0.73901400  0.50000000  1
  Cu  Cu57  1  0.08480600  0.49849800  0.38777800  1
  Cu  Cu58  1  0.41369300  0.91519400  0.38777800  1
  Cu  Cu59  1  0.50150200  0.58630700  0.38777800  1
  Cu  Cu60  1  0.08480600  0.49849800  0.61222200  1
  Cu  Cu61  1  0.41369300  0.91519400  0.61222200  1
  Cu  Cu62  1  0.50150200  0.58630700  0.61222200  1
  Cu  Cu63  1  0.16693800  0.02976200  0.00000000  1
  Cu  Cu64  1  0.86282500  0.83306200  0.00000000  1
  Cu  Cu65  1  0.97023800  0.13717500  0.00000000  1
  Cu  Cu66  1  0.14483800  0.23470300  0.11192500  1
  Cu  Cu67  1  0.08986500  0.85516200  0.11192500  1
  Cu  Cu68  1  0.76529700  0.91013500  0.11192500  1
  Cu  Cu69  1  0.14483800  0.23470300  0.88807500  1
  Cu  Cu70  1  0.08986500  0.85516200  0.88807500  1
  Cu  Cu71  1  0.76529700  0.91013500  0.88807500  1
  Cu  Cu72  1  0.18547100  0.49553300  0.00000000  1
  Cu  Cu73  1  0.31006200  0.81452900  0.00000000  1
  Cu  Cu74  1  0.50446700  0.68993800  0.00000000  1
  Cu  Cu75  1  0.41221000  0.51540400  0.11240600  1
  Cu  Cu76  1  0.10319400  0.58779000  0.11240600  1
  Cu  Cu77  1  0.48459600  0.89680600  0.11240600  1
  Cu  Cu78  1  0.41221000  0.51540400  0.88759400  1
  Cu  Cu79  1  0.10319400  0.58779000  0.88759400  1
  Cu  Cu80  1  0.48459600  0.89680600  0.88759400  1
  Cu  Cu81  1  0.84894800  0.43622200  0.00000000  1
  Cu  Cu82  1  0.58727400  0.15105200  0.00000000  1
  Cu  Cu83  1  0.56377800  0.41272600  0.00000000  1
  Cu  Cu84  1  0.84531400  0.58534200  0.11207900  1
  Cu  Cu85  1  0.74002800  0.15468600  0.11207900  1
  Cu  Cu86  1  0.41465800  0.25997200  0.11207900  1
  Cu  Cu87  1  0.84531400  0.58534200  0.88792100  1
  Cu  Cu88  1  0.74002800  0.15468600  0.88792100  1
  Cu  Cu89  1  0.41465800  0.25997200  0.88792100  1
  Cu  Cu90  1  0.66666700  0.33333300  0.23761600  1
  Cu  Cu91  1  0.66666700  0.33333300  0.76238400  1
  Cu  Cu92  1  0.00000000  0.00000000  0.25548800  1
  Cu  Cu93  1  0.00000000  0.00000000  0.74451200  1
  Cu  Cu94  1  0.33333300  0.66666700  0.25963200  1
  Cu  Cu95  1  0.33333300  0.66666700  0.74036800  1
  Cu  Cu96  1  0.34052600  0.01011000  0.19362000  1
  Cu  Cu97  1  0.66958400  0.65947400  0.19362000  1
  Cu  Cu98  1  0.98989000  0.33041600  0.19362000  1
  Cu  Cu99  1  0.34052600  0.01011000  0.80638000  1
  Cu  Cu100  1  0.66958400  0.65947400  0.80638000  1
  Cu  Cu101  1  0.98989000  0.33041600  0.80638000  1
  Cu  Cu102  1  0.32649700  0.33500700  0.30450800  1
  Cu  Cu103  1  0.00851100  0.67350300  0.30450800  1
  Cu  Cu104  1  0.66499300  0.99148900  0.30450800  1
  Cu  Cu105  1  0.32649700  0.33500700  0.69549200  1
  Cu  Cu106  1  0.00851100  0.67350300  0.69549200  1
  Cu  Cu107  1  0.66499300  0.99148900  0.69549200  1
