# generated using pymatgen
data_Cu7(Ni3C2)2
_symmetry_space_group_name_H-M   'P 1'
_cell_length_a   4.42046100
_cell_length_b   4.42046100
_cell_length_c   19.76798600
_cell_angle_alpha   90.00000000
_cell_angle_beta   90.00000000
_cell_angle_gamma   90.00000000
_symmetry_Int_Tables_number   1
_chemical_formula_structural   Cu7(Ni3C2)2
_chemical_formula_sum   'Cu7 Ni6 C4'
_cell_volume   386.27584518
_cell_formula_units_Z   1
loop_
 _symmetry_equiv_pos_site_id
 _symmetry_equiv_pos_as_xyz
  1  'x, y, z'
loop_
 _atom_site_type_symbol
 _atom_site_label
 _atom_site_symmetry_multiplicity
 _atom_site_fract_x
 _atom_site_fract_y
 _atom_site_fract_z
 _atom_site_occupancy
  C  C0  1  0.50000000  0.50000000  0.37691200  1
  C  C1  1  0.50000000  0.50000000  0.89420500  1
  C  C2  1  0.00000000  0.00000000  0.11373900  1
  C  C3  1  0.00000000  0.00000000  0.62152700  1
  Ni  Ni4  1  0.50000000  0.00000000  0.01120200  1
  Ni  Ni5  1  0.50000000  0.00000000  0.49430200  1
  Ni  Ni6  1  0.00000000  0.50000000  0.01120200  1
  Ni  Ni7  1  0.00000000  0.50000000  0.49430200  1
  Ni  Ni8  1  0.50000000  0.50000000  0.15460300  1
  Ni  Ni9  1  0.50000000  0.50000000  0.68944400  1
  Cu  Cu10  1  0.50000000  0.00000000  0.24599800  1
  Cu  Cu11  1  0.50000000  0.00000000  0.76482200  1
  Cu  Cu12  1  0.00000000  0.50000000  0.24599800  1
  Cu  Cu13  1  0.00000000  0.50000000  0.76482200  1
  Cu  Cu14  1  0.50000000  0.50000000  0.56303100  1
  Cu  Cu15  1  0.00000000  0.00000000  0.41606700  1
  Cu  Cu16  1  0.00000000  0.00000000  0.93492400  1
