# generated using pymatgen
data_CuNiC8
_symmetry_space_group_name_H-M   'P 1'
_cell_length_a   5.27268000
_cell_length_b   9.03377100
_cell_length_c   18.47413200
_cell_angle_alpha   90.00000000
_cell_angle_beta   90.00000000
_cell_angle_gamma   90.00000000
_symmetry_Int_Tables_number   1
_chemical_formula_structural   CuNiC8
_chemical_formula_sum   'Cu8 Ni8 C64'
_cell_volume   879.96324868
_cell_formula_units_Z   8
loop_
 _symmetry_equiv_pos_site_id
 _symmetry_equiv_pos_as_xyz
  1  'x, y, z'
loop_
 _atom_site_type_symbol
 _atom_site_label
 _atom_site_symmetry_multiplicity
 _atom_site_fract_x
 _atom_site_fract_y
 _atom_site_fract_z
 _atom_site_occupancy
  Ni  Ni0  1  0.61875500  0.15032500  0.37614100  1
  Ni  Ni1  1  0.38124500  0.84967500  0.62385900  1
  Ni  Ni2  1  0.61875500  0.65032500  0.12385900  1
  Ni  Ni3  1  0.11875500  0.84967500  0.12385900  1
  Ni  Ni4  1  0.88124500  0.15032500  0.87614100  1
  Ni  Ni5  1  0.38124500  0.34967500  0.87614100  1
  Ni  Ni6  1  0.11875500  0.34967500  0.37614100  1
  Ni  Ni7  1  0.88124500  0.65032500  0.62385900  1
  C  C8  1  0.56481900  0.65896900  0.77256200  1
  C  C9  1  0.71868300  0.83724600  0.47425600  1
  C  C10  1  0.78131700  0.83724600  0.97425600  1
  C  C11  1  0.93518100  0.15896900  0.22743800  1
  C  C12  1  0.06481900  0.34103100  0.72743800  1
  C  C13  1  0.43518100  0.84103100  0.27256200  1
  C  C14  1  0.21868300  0.66275400  0.47425600  1
  C  C15  1  0.71868300  0.33724600  0.02574400  1
  C  C16  1  0.78131700  0.33724600  0.52574400  1
  C  C17  1  0.93518100  0.65896900  0.27256200  1
  C  C18  1  0.43518100  0.34103100  0.22743800  1
  C  C19  1  0.56481900  0.15896900  0.72743800  1
  C  C20  1  0.28131700  0.16275400  0.52574400  1
  C  C21  1  0.06481900  0.84103100  0.77256200  1
  C  C22  1  0.28131700  0.66275400  0.97425600  1
  C  C23  1  0.21868300  0.16275400  0.02574400  1
  Cu  Cu24  1  0.37561500  0.99790500  0.87546800  1
  Cu  Cu25  1  0.62438500  0.00209500  0.12453200  1
  Cu  Cu26  1  0.87561500  0.00209500  0.62453200  1
  Cu  Cu27  1  0.12438500  0.99790500  0.37546800  1
  Cu  Cu28  1  0.37561500  0.49790500  0.62453200  1
  Cu  Cu29  1  0.62438500  0.50209500  0.37546800  1
  Cu  Cu30  1  0.87561500  0.50209500  0.87546800  1
  Cu  Cu31  1  0.12438500  0.49790500  0.12453200  1
  C  C32  1  0.93211600  0.49984700  0.31237800  1
  C  C33  1  0.30599300  0.01416500  0.06728300  1
  C  C34  1  0.06788400  0.50015300  0.68762200  1
  C  C35  1  0.71389900  0.33949900  0.93641800  1
  C  C36  1  0.21389900  0.16050100  0.93641800  1
  C  C37  1  0.92213500  0.20470500  0.05060000  1
  C  C38  1  0.94614000  0.66028900  0.18376300  1
  C  C39  1  0.05386000  0.83971100  0.68376300  1
  C  C40  1  0.71389900  0.83949900  0.56358200  1
  C  C41  1  0.94614000  0.16028900  0.31623700  1
  C  C42  1  0.43211600  0.50015300  0.18762200  1
  C  C43  1  0.78610100  0.33949900  0.43641800  1
  C  C44  1  0.69400700  0.98583500  0.93271700  1
  C  C45  1  0.44614000  0.83971100  0.18376300  1
  C  C46  1  0.56788400  0.99984700  0.68762200  1
  C  C47  1  0.30599300  0.51416500  0.43271700  1
  C  C48  1  0.43211600  0.00015300  0.31237800  1
  C  C49  1  0.16355600  0.76872900  0.30199800  1
  C  C50  1  0.33644400  0.76872900  0.80199800  1
  C  C51  1  0.57786500  0.70470500  0.94940000  1
  C  C52  1  0.78610100  0.83949900  0.06358200  1
  C  C53  1  0.55386000  0.66028900  0.68376300  1
  C  C54  1  0.80599300  0.48583500  0.06728300  1
  C  C55  1  0.16355600  0.26872900  0.19800200  1
  C  C56  1  0.28610100  0.16050100  0.43641800  1
  C  C57  1  0.55386000  0.16028900  0.81623700  1
  C  C58  1  0.69400700  0.48583500  0.56728300  1
  C  C59  1  0.21389900  0.66050100  0.56358200  1
  C  C60  1  0.19400700  0.51416500  0.93271700  1
  C  C61  1  0.66355600  0.73127100  0.30199800  1
  C  C62  1  0.06788400  0.00015300  0.81237800  1
  C  C63  1  0.83644400  0.73127100  0.80199800  1
  C  C64  1  0.83644400  0.23127100  0.69800200  1
  C  C65  1  0.80599300  0.98583500  0.43271700  1
  C  C66  1  0.28610100  0.66050100  0.06358200  1
  C  C67  1  0.19400700  0.01416500  0.56728300  1
  C  C68  1  0.33644400  0.26872900  0.69800200  1
  C  C69  1  0.07786500  0.79529500  0.94940000  1
  C  C70  1  0.42213500  0.79529500  0.44940000  1
  C  C71  1  0.66355600  0.23127100  0.19800200  1
  C  C72  1  0.42213500  0.29529500  0.05060000  1
  C  C73  1  0.57786500  0.20470500  0.55060000  1
  C  C74  1  0.07786500  0.29529500  0.55060000  1
  C  C75  1  0.44614000  0.33971100  0.31623700  1
  C  C76  1  0.56788400  0.49984700  0.81237800  1
  C  C77  1  0.92213500  0.70470500  0.44940000  1
  C  C78  1  0.05386000  0.33971100  0.81623700  1
  C  C79  1  0.93211600  0.99984700  0.18762200  1
