# generated using pymatgen
data_CuNiC6
_symmetry_space_group_name_H-M   'P 1'
_cell_length_a   12.20180000
_cell_length_b   5.94312800
_cell_length_c   8.57510356
_cell_angle_alpha   70.40316292
_cell_angle_beta   90.00000000
_cell_angle_gamma   90.00000000
_symmetry_Int_Tables_number   1
_chemical_formula_structural   CuNiC6
_chemical_formula_sum   'Cu4 Ni4 C24'
_cell_volume   585.82012309
_cell_formula_units_Z   4
loop_
 _symmetry_equiv_pos_site_id
 _symmetry_equiv_pos_as_xyz
  1  'x, y, z'
loop_
 _atom_site_type_symbol
 _atom_site_label
 _atom_site_symmetry_multiplicity
 _atom_site_fract_x
 _atom_site_fract_y
 _atom_site_fract_z
 _atom_site_occupancy
  C  C0  1  0.08587000  0.55056800  0.81661800  1
  C  C1  1  0.91413000  0.44943200  0.18338200  1
  C  C2  1  0.58587000  0.44943200  0.68338200  1
  C  C3  1  0.41413000  0.55056800  0.31661800  1
  Ni  Ni4  1  0.90742000  0.03315800  0.84252800  1
  Ni  Ni5  1  0.09258000  0.96684200  0.15747200  1
  Ni  Ni6  1  0.59258000  0.03315800  0.34252800  1
  Ni  Ni7  1  0.40742000  0.96684200  0.65747200  1
  Cu  Cu8  1  0.35587100  0.16205400  0.03183600  1
  Cu  Cu9  1  0.64412900  0.83794600  0.96816400  1
  Cu  Cu10  1  0.85587100  0.83794600  0.46816400  1
  Cu  Cu11  1  0.14412900  0.16205400  0.53183600  1
  C  C12  1  0.93133700  0.78273900  0.67303600  1
  C  C13  1  0.05530700  0.27044300  0.67614500  1
  C  C14  1  0.81080800  0.16016500  0.36776100  1
  C  C15  1  0.47606400  0.77310900  0.48687400  1
  C  C16  1  0.71236100  0.69788100  0.50223700  1
  C  C17  1  0.78763900  0.69788100  0.00223700  1
  C  C18  1  0.44469300  0.27044300  0.17614500  1
  C  C19  1  0.55530700  0.72955700  0.82385500  1
  C  C20  1  0.52393600  0.22689100  0.51312600  1
  C  C21  1  0.43133700  0.21726100  0.82696400  1
  C  C22  1  0.28763900  0.30211900  0.49776300  1
  C  C23  1  0.06866300  0.21726100  0.32696400  1
  C  C24  1  0.56866300  0.78273900  0.17303600  1
  C  C25  1  0.21236100  0.30211900  0.99776300  1
  C  C26  1  0.97606400  0.22689100  0.01312600  1
  C  C27  1  0.02393600  0.77310900  0.98687400  1
  C  C28  1  0.18919200  0.83983500  0.63223900  1
  C  C29  1  0.94469300  0.72955700  0.32385500  1
  C  C30  1  0.31080800  0.83983500  0.13223900  1
  C  C31  1  0.68919200  0.16016500  0.86776100  1
