# generated using pymatgen
data_Cu6NiC10
_symmetry_space_group_name_H-M   'P 1'
_cell_length_a   8.15994418
_cell_length_b   8.15994418
_cell_length_c   5.50324500
_cell_angle_alpha   90.00000000
_cell_angle_beta   90.00000000
_cell_angle_gamma   120.00000142
_symmetry_Int_Tables_number   1
_chemical_formula_structural   Cu6NiC10
_chemical_formula_sum   'Cu6 Ni1 C10'
_cell_volume   317.33929195
_cell_formula_units_Z   1
loop_
 _symmetry_equiv_pos_site_id
 _symmetry_equiv_pos_as_xyz
  1  'x, y, z'
loop_
 _atom_site_type_symbol
 _atom_site_label
 _atom_site_symmetry_multiplicity
 _atom_site_fract_x
 _atom_site_fract_y
 _atom_site_fract_z
 _atom_site_occupancy
  C  C0  1  0.66666700  0.33333300  0.50000000  1
  C  C1  1  0.33333300  0.66666700  0.50000000  1
  C  C2  1  0.33333300  0.66666700  0.00000000  1
  C  C3  1  0.66666700  0.33333300  0.00000000  1
  C  C4  1  0.73770000  0.73770000  0.24048900  1
  C  C5  1  0.26230000  0.00000000  0.24048900  1
  C  C6  1  0.00000000  0.26230000  0.24048900  1
  C  C7  1  0.26230000  0.26230000  0.75951100  1
  C  C8  1  0.73770000  0.00000000  0.75951100  1
  C  C9  1  0.00000000  0.73770000  0.75951100  1
  Ni  Ni10  1  0.00000000  0.00000000  0.50000000  1
  Cu  Cu11  1  0.38558100  0.38558100  0.25474000  1
  Cu  Cu12  1  0.61441900  0.00000000  0.25474000  1
  Cu  Cu13  1  0.00000000  0.61441900  0.25474000  1
  Cu  Cu14  1  0.61441900  0.61441900  0.74526000  1
  Cu  Cu15  1  0.38558100  0.00000000  0.74526000  1
  Cu  Cu16  1  0.00000000  0.38558100  0.74526000  1
