# generated using pymatgen
data_Cu4NiC2
_symmetry_space_group_name_H-M   'P 1'
_cell_length_a   10.22236048
_cell_length_b   10.22236048
_cell_length_c   6.19829600
_cell_angle_alpha   90.00000000
_cell_angle_beta   90.00000000
_cell_angle_gamma   120.00000310
_symmetry_Int_Tables_number   1
_chemical_formula_structural   Cu4NiC2
_chemical_formula_sum   'Cu24 Ni6 C12'
_cell_volume   560.92566799
_cell_formula_units_Z   6
loop_
 _symmetry_equiv_pos_site_id
 _symmetry_equiv_pos_as_xyz
  1  'x, y, z'
loop_
 _atom_site_type_symbol
 _atom_site_label
 _atom_site_symmetry_multiplicity
 _atom_site_fract_x
 _atom_site_fract_y
 _atom_site_fract_z
 _atom_site_occupancy
  C  C0  1  0.00000000  0.50000000  0.50000000  1
  C  C1  1  0.00000000  0.50000000  0.00000000  1
  C  C2  1  0.50000000  0.50000000  0.50000000  1
  C  C3  1  0.50000000  0.50000000  0.00000000  1
  C  C4  1  0.50000000  0.00000000  0.50000000  1
  C  C5  1  0.50000000  0.00000000  0.00000000  1
  C  C6  1  0.19010800  0.63971000  0.75000000  1
  C  C7  1  0.44960300  0.80989200  0.75000000  1
  C  C8  1  0.36029000  0.55039700  0.75000000  1
  C  C9  1  0.63971000  0.44960300  0.25000000  1
  C  C10  1  0.55039700  0.19010800  0.25000000  1
  C  C11  1  0.80989200  0.36029000  0.25000000  1
  Ni  Ni12  1  0.20181200  0.76374000  0.25000000  1
  Ni  Ni13  1  0.23626000  0.43807300  0.25000000  1
  Ni  Ni14  1  0.56192700  0.79818800  0.25000000  1
  Ni  Ni15  1  0.43807300  0.20181200  0.75000000  1
  Ni  Ni16  1  0.76374000  0.56192700  0.75000000  1
  Ni  Ni17  1  0.79818800  0.23626000  0.75000000  1
  Cu  Cu18  1  0.14496800  0.70328600  0.43505100  1
  Cu  Cu19  1  0.14496800  0.70328600  0.06494900  1
  Cu  Cu20  1  0.32309800  0.89411500  0.25000000  1
  Cu  Cu21  1  0.12175600  0.52898000  0.75000000  1
  Cu  Cu22  1  0.10588500  0.42898400  0.25000000  1
  Cu  Cu23  1  0.40722400  0.87824400  0.75000000  1
  Cu  Cu24  1  0.29671400  0.44168100  0.43505100  1
  Cu  Cu25  1  0.29671400  0.44168100  0.06494900  1
  Cu  Cu26  1  0.55831900  0.85503200  0.06494900  1
  Cu  Cu27  1  0.55831900  0.85503200  0.43505100  1
  Cu  Cu28  1  0.47102000  0.59277600  0.75000000  1
  Cu  Cu29  1  0.57101600  0.67690200  0.25000000  1
  Cu  Cu30  1  0.42898400  0.32309800  0.75000000  1
  Cu  Cu31  1  0.52898000  0.40722400  0.25000000  1
  Cu  Cu32  1  0.44168100  0.14496800  0.56494900  1
  Cu  Cu33  1  0.44168100  0.14496800  0.93505100  1
  Cu  Cu34  1  0.70328600  0.55831900  0.93505100  1
  Cu  Cu35  1  0.70328600  0.55831900  0.56494900  1
  Cu  Cu36  1  0.59277600  0.12175600  0.25000000  1
  Cu  Cu37  1  0.89411500  0.57101600  0.75000000  1
  Cu  Cu38  1  0.87824400  0.47102000  0.25000000  1
  Cu  Cu39  1  0.67690200  0.10588500  0.75000000  1
  Cu  Cu40  1  0.85503200  0.29671400  0.93505100  1
  Cu  Cu41  1  0.85503200  0.29671400  0.56494900  1
