# generated using pymatgen
data_CuNiC5
_symmetry_space_group_name_H-M   'P 1'
_cell_length_a   3.89035357
_cell_length_b   15.56757433
_cell_length_c   6.87728519
_cell_angle_alpha   106.72859139
_cell_angle_beta   106.42918003
_cell_angle_gamma   90.01953858
_symmetry_Int_Tables_number   1
_chemical_formula_structural   CuNiC5
_chemical_formula_sum   'Cu4 Ni4 C20'
_cell_volume   381.07975654
_cell_formula_units_Z   4
loop_
 _symmetry_equiv_pos_site_id
 _symmetry_equiv_pos_as_xyz
  1  'x, y, z'
loop_
 _atom_site_type_symbol
 _atom_site_label
 _atom_site_symmetry_multiplicity
 _atom_site_fract_x
 _atom_site_fract_y
 _atom_site_fract_z
 _atom_site_occupancy
  Ni  Ni0  1  0.35814000  0.08944200  0.71469900  1
  Ni  Ni1  1  0.35547800  0.33938900  0.71342500  1
  Ni  Ni2  1  0.64186000  0.16055800  0.28530100  1
  Ni  Ni3  1  0.64452200  0.91061100  0.28657500  1
  Cu  Cu4  1  0.35541100  0.58768500  0.72585500  1
  Cu  Cu5  1  0.36167300  0.83757800  0.72282900  1
  Cu  Cu6  1  0.63832700  0.41242200  0.27717100  1
  Cu  Cu7  1  0.64458900  0.66231500  0.27414500  1
  C  C8  1  0.99610900  0.49774700  0.99512300  1
  C  C9  1  0.00389100  0.75225300  0.00487700  1
  C  C10  1  0.00167300  0.00119600  0.00238900  1
  C  C11  1  0.99832700  0.24880400  0.99761100  1
  C  C12  1  0.00000000  0.12500000  0.00000000  1
  C  C13  1  0.00256200  0.36951600  0.00496800  1
  C  C14  1  0.00000000  0.62500000  0.00000000  1
  C  C15  1  0.99743800  0.88048400  0.99503200  1
  C  C16  1  0.15775900  0.03959300  0.31276700  1
  C  C17  1  0.15619200  0.29329600  0.31743200  1
  C  C18  1  0.17009200  0.54038800  0.35790300  1
  C  C19  1  0.17329500  0.78737600  0.35258500  1
  C  C20  1  0.49684500  0.99885900  0.99000900  1
  C  C21  1  0.50315500  0.25114100  0.00999100  1
  C  C22  1  0.50410100  0.49858700  0.01013100  1
  C  C23  1  0.49589900  0.75141300  0.98986900  1
  C  C24  1  0.84224100  0.21040700  0.68723300  1
  C  C25  1  0.82670500  0.46262400  0.64741500  1
  C  C26  1  0.82990800  0.70961200  0.64209700  1
  C  C27  1  0.84380800  0.95670400  0.68256800  1
