# generated using pymatgen
data_CuNi2C9
_symmetry_space_group_name_H-M   'P 1'
_cell_length_a   13.31716463
_cell_length_b   13.31716463
_cell_length_c   13.31716463
_cell_angle_alpha   157.19653569
_cell_angle_beta   156.99479810
_cell_angle_gamma   32.61523640
_symmetry_Int_Tables_number   1
_chemical_formula_structural   CuNi2C9
_chemical_formula_sum   'Cu2 Ni4 C18'
_cell_volume   357.43066106
_cell_formula_units_Z   2
loop_
 _symmetry_equiv_pos_site_id
 _symmetry_equiv_pos_as_xyz
  1  'x, y, z'
loop_
 _atom_site_type_symbol
 _atom_site_label
 _atom_site_symmetry_multiplicity
 _atom_site_fract_x
 _atom_site_fract_y
 _atom_site_fract_z
 _atom_site_occupancy
  Ni  Ni0  1  0.82126900  0.77782000  0.95655100  1
  Ni  Ni1  1  0.17873100  0.22218000  0.04344900  1
  Ni  Ni2  1  0.67873100  0.63528200  0.95655100  1
  Ni  Ni3  1  0.32126900  0.36471800  0.04344900  1
  Cu  Cu4  1  0.50000000  0.50000000  0.00000000  1
  Cu  Cu5  1  0.00000000  0.00000000  0.00000000  1
  C  C6  1  0.42129100  0.92613800  0.50484700  1
  C  C7  1  0.57870900  0.07386200  0.49515300  1
  C  C8  1  0.07870900  0.58355600  0.50484700  1
  C  C9  1  0.92129100  0.41644400  0.49515300  1
  C  C10  1  0.00000000  0.50000000  0.00000000  1
  C  C11  1  0.50000000  0.50000000  0.50000000  1
  C  C12  1  0.19619100  0.19619100  0.50000000  1
  C  C13  1  0.30380900  0.80380900  0.00000000  1
  C  C14  1  0.80380900  0.80380900  0.50000000  1
  C  C15  1  0.69619100  0.19619100  0.00000000  1
  C  C16  1  0.69239800  0.69239800  0.50000000  1
  C  C17  1  0.80760200  0.30760200  0.00000000  1
  C  C18  1  0.30760200  0.30760200  0.50000000  1
  C  C19  1  0.19239800  0.69239800  0.00000000  1
  C  C20  1  0.84736800  0.33249100  0.48512400  1
  C  C21  1  0.15263200  0.66750900  0.51487600  1
  C  C22  1  0.65263200  0.13775600  0.48512400  1
  C  C23  1  0.34736800  0.86224400  0.51487600  1
