# generated using pymatgen
data_Cu8NiC9
_symmetry_space_group_name_H-M   'P 1'
_cell_length_a   7.73388731
_cell_length_b   7.73388731
_cell_length_c   7.73388731
_cell_angle_alpha   115.97785983
_cell_angle_beta   115.97785983
_cell_angle_gamma   97.12026187
_symmetry_Int_Tables_number   1
_chemical_formula_structural   Cu8NiC9
_chemical_formula_sum   'Cu16 Ni2 C18'
_cell_volume   344.10445184
_cell_formula_units_Z   2
loop_
 _symmetry_equiv_pos_site_id
 _symmetry_equiv_pos_as_xyz
  1  'x, y, z'
loop_
 _atom_site_type_symbol
 _atom_site_label
 _atom_site_symmetry_multiplicity
 _atom_site_fract_x
 _atom_site_fract_y
 _atom_site_fract_z
 _atom_site_occupancy
  C  C0  1  0.00000000  0.00000000  0.00000000  1
  C  C1  1  0.50000000  0.50000000  0.00000000  1
  C  C2  1  0.66847300  0.01452100  0.91035700  1
  C  C3  1  0.10416400  0.75811600  0.08964300  1
  C  C4  1  0.48547900  0.83152700  0.08964300  1
  C  C5  1  0.74188400  0.39583600  0.91035700  1
  C  C6  1  0.16847300  0.25811600  0.65395200  1
  C  C7  1  0.60416400  0.51452100  0.34604800  1
  C  C8  1  0.24188400  0.33152700  0.34604800  1
  C  C9  1  0.98547900  0.89583600  0.65395200  1
  C  C10  1  0.83781900  0.11391100  0.18760400  1
  C  C11  1  0.92630700  0.65021400  0.81239600  1
  C  C12  1  0.38608900  0.66218100  0.81239600  1
  C  C13  1  0.84978600  0.57369300  0.18760400  1
  C  C14  1  0.33781900  0.15021400  0.72390700  1
  C  C15  1  0.42630700  0.61391100  0.27609300  1
  C  C16  1  0.34978600  0.16218100  0.27609300  1
  C  C17  1  0.88608900  0.07369300  0.72390700  1
  Ni  Ni18  1  0.25000000  0.75000000  0.50000000  1
  Ni  Ni19  1  0.75000000  0.25000000  0.50000000  1
  Cu  Cu20  1  0.81503900  0.05408200  0.03116300  1
  Cu  Cu21  1  0.02291900  0.78387600  0.96883700  1
  Cu  Cu22  1  0.44591800  0.68496100  0.96883700  1
  Cu  Cu23  1  0.71612400  0.47708100  0.03116300  1
  Cu  Cu24  1  0.31503900  0.28387600  0.76095700  1
  Cu  Cu25  1  0.52291900  0.55408200  0.23904300  1
  Cu  Cu26  1  0.21612400  0.18496100  0.23904300  1
  Cu  Cu27  1  0.94591800  0.97708100  0.76095700  1
  Cu  Cu28  1  0.41360200  0.95899100  0.70748800  1
  Cu  Cu29  1  0.25150400  0.70611400  0.29251200  1
  Cu  Cu30  1  0.54100900  0.08639800  0.29251200  1
  Cu  Cu31  1  0.79388600  0.24849600  0.70748800  1
  Cu  Cu32  1  0.91360200  0.20611400  0.45461100  1
  Cu  Cu33  1  0.75150400  0.45899100  0.54538900  1
  Cu  Cu34  1  0.29388600  0.58639800  0.54538900  1
  Cu  Cu35  1  0.04100900  0.74849600  0.45461100  1
