# generated using pymatgen
data_CuNiC4
_symmetry_space_group_name_H-M   'P 1'
_cell_length_a   3.39821790
_cell_length_b   3.39821790
_cell_length_c   38.71046100
_cell_angle_alpha   90.00000000
_cell_angle_beta   90.00000000
_cell_angle_gamma   119.99999805
_symmetry_Int_Tables_number   1
_chemical_formula_structural   CuNiC4
_chemical_formula_sum   'Cu2 Ni2 C8'
_cell_volume   387.13410255
_cell_formula_units_Z   2
loop_
 _symmetry_equiv_pos_site_id
 _symmetry_equiv_pos_as_xyz
  1  'x, y, z'
loop_
 _atom_site_type_symbol
 _atom_site_label
 _atom_site_symmetry_multiplicity
 _atom_site_fract_x
 _atom_site_fract_y
 _atom_site_fract_z
 _atom_site_occupancy
  C  C0  1  0.00000000  0.00000000  0.70620200  1
  C  C1  1  0.33333300  0.66666700  0.04553500  1
  C  C2  1  0.33333300  0.66666700  0.14228300  1
  C  C3  1  0.00000000  0.00000000  0.60884200  1
  C  C4  1  0.00000000  0.00000000  0.09389600  1
  C  C5  1  0.00000000  0.00000000  0.46966000  1
  C  C6  1  0.33333300  0.66666700  0.28182400  1
  C  C7  1  0.33333300  0.66666700  0.65754600  1
  Ni  Ni8  1  0.00000000  0.00000000  0.32460000  1
  Ni  Ni9  1  0.00000000  0.00000000  0.23903800  1
  Cu  Cu10  1  0.33333300  0.66666700  0.43082400  1
  Cu  Cu11  1  0.33333300  0.66666700  0.50849800  1
