# generated using pymatgen
data_CuNi2C7
_symmetry_space_group_name_H-M   'P 1'
_cell_length_a   11.09355233
_cell_length_b   11.09355233
_cell_length_c   11.09355250
_cell_angle_alpha   33.45975831
_cell_angle_beta   33.45975831
_cell_angle_gamma   33.45976157
_symmetry_Int_Tables_number   1
_chemical_formula_structural   CuNi2C7
_chemical_formula_sum   'Cu2 Ni4 C14'
_cell_volume   369.60845261
_cell_formula_units_Z   2
loop_
 _symmetry_equiv_pos_site_id
 _symmetry_equiv_pos_as_xyz
  1  'x, y, z'
loop_
 _atom_site_type_symbol
 _atom_site_label
 _atom_site_symmetry_multiplicity
 _atom_site_fract_x
 _atom_site_fract_y
 _atom_site_fract_z
 _atom_site_occupancy
  Ni  Ni0  1  0.71844200  0.71844200  0.71844200  1
  Ni  Ni1  1  0.28155800  0.28155800  0.28155800  1
  Ni  Ni2  1  0.87201300  0.87201300  0.87201300  1
  Ni  Ni3  1  0.12798700  0.12798700  0.12798700  1
  Cu  Cu4  1  0.40278000  0.40278000  0.40278000  1
  Cu  Cu5  1  0.59722000  0.59722000  0.59722000  1
  C  C6  1  0.00000000  0.00000000  0.00000000  1
  C  C7  1  0.50000000  0.50000000  0.50000000  1
  C  C8  1  0.18552600  0.18552600  0.73935900  1
  C  C9  1  0.73935900  0.18552600  0.18552600  1
  C  C10  1  0.18552600  0.73935900  0.18552600  1
  C  C11  1  0.81447400  0.26064100  0.81447400  1
  C  C12  1  0.81447400  0.81447400  0.26064100  1
  C  C13  1  0.26064100  0.81447400  0.81447400  1
  C  C14  1  0.39551800  0.39551800  0.82522100  1
  C  C15  1  0.82522100  0.39551800  0.39551800  1
  C  C16  1  0.17477900  0.60448200  0.60448200  1
  C  C17  1  0.60448200  0.60448200  0.17477900  1
  C  C18  1  0.60448200  0.17477900  0.60448200  1
  C  C19  1  0.39551800  0.82522100  0.39551800  1
