# generated using pymatgen
data_Cu4Ni4C5
_symmetry_space_group_name_H-M   'P 1'
_cell_length_a   6.42118901
_cell_length_b   7.26733326
_cell_length_c   14.93291201
_cell_angle_alpha   90.00440106
_cell_angle_beta   90.00069711
_cell_angle_gamma   63.77598134
_symmetry_Int_Tables_number   1
_chemical_formula_structural   Cu4Ni4C5
_chemical_formula_sum   'Cu8 Ni8 C10'
_cell_volume   625.11932060
_cell_formula_units_Z   2
loop_
 _symmetry_equiv_pos_site_id
 _symmetry_equiv_pos_as_xyz
  1  'x, y, z'
loop_
 _atom_site_type_symbol
 _atom_site_label
 _atom_site_symmetry_multiplicity
 _atom_site_fract_x
 _atom_site_fract_y
 _atom_site_fract_z
 _atom_site_occupancy
  C  C0  1  0.74220500  0.01532300  0.75003500  1
  C  C1  1  0.75766800  0.98482400  0.25002900  1
  C  C2  1  0.00027800  0.99996600  0.99998200  1
  C  C3  1  0.49970100  0.00006200  0.49997600  1
  C  C4  1  0.25804600  0.98421900  0.24998700  1
  C  C5  1  0.24212400  0.01552300  0.74996800  1
  C  C6  1  0.60790500  0.78498700  0.05656800  1
  C  C7  1  0.39222100  0.21504400  0.94345400  1
  C  C8  1  0.89212000  0.21506200  0.55655600  1
  C  C9  1  0.10779700  0.78491600  0.44346000  1
  Ni  Ni10  1  0.11961600  0.76109000  0.83934100  1
  Ni  Ni11  1  0.88061700  0.23892700  0.16064900  1
  Ni  Ni12  1  0.38040300  0.23894400  0.33935600  1
  Ni  Ni13  1  0.61940200  0.76107100  0.66064200  1
  Ni  Ni14  1  0.15990300  0.67961100  0.11540100  1
  Ni  Ni15  1  0.84054500  0.32040900  0.88458700  1
  Ni  Ni16  1  0.34002100  0.32041600  0.61542600  1
  Ni  Ni17  1  0.65943900  0.67963800  0.38455300  1
  Cu  Cu18  1  0.30663200  0.99983200  0.00001500  1
  Cu  Cu19  1  0.80632300  0.99987800  0.49997100  1
  Cu  Cu20  1  0.69367900  0.00013300  0.99997100  1
  Cu  Cu21  1  0.19342400  0.00012100  0.50003500  1
  Cu  Cu22  1  0.54058400  0.91910800  0.17559400  1
  Cu  Cu23  1  0.45960900  0.08091400  0.82442700  1
  Cu  Cu24  1  0.95941600  0.08092000  0.67557500  1
  Cu  Cu25  1  0.04032400  0.91906200  0.32444300  1
