# generated using pymatgen
data_CuNiC
_symmetry_space_group_name_H-M   'P 1'
_cell_length_a   4.46868300
_cell_length_b   7.21289700
_cell_length_c   7.79687400
_cell_angle_alpha   90.00000000
_cell_angle_beta   90.00000000
_cell_angle_gamma   90.00000000
_symmetry_Int_Tables_number   1
_chemical_formula_structural   CuNiC
_chemical_formula_sum   'Cu4 Ni4 C4'
_cell_volume   251.31001389
_cell_formula_units_Z   4
loop_
 _symmetry_equiv_pos_site_id
 _symmetry_equiv_pos_as_xyz
  1  'x, y, z'
loop_
 _atom_site_type_symbol
 _atom_site_label
 _atom_site_symmetry_multiplicity
 _atom_site_fract_x
 _atom_site_fract_y
 _atom_site_fract_z
 _atom_site_occupancy
  C  C0  1  0.25000000  0.00921300  0.30565200  1
  C  C1  1  0.25000000  0.50921300  0.19434800  1
  C  C2  1  0.75000000  0.99078700  0.69434800  1
  C  C3  1  0.75000000  0.49078700  0.80565200  1
  Ni  Ni4  1  0.25000000  0.16859100  0.92367300  1
  Ni  Ni5  1  0.25000000  0.66859100  0.57632700  1
  Ni  Ni6  1  0.75000000  0.83140900  0.07632700  1
  Ni  Ni7  1  0.75000000  0.33140900  0.42367300  1
  Cu  Cu8  1  0.25000000  0.28541700  0.59780800  1
  Cu  Cu9  1  0.25000000  0.78541700  0.90219200  1
  Cu  Cu10  1  0.75000000  0.71458300  0.40219200  1
  Cu  Cu11  1  0.75000000  0.21458300  0.09780800  1
