# generated using pymatgen
data_CuNiC8
_symmetry_space_group_name_H-M   'P 1'
_cell_length_a   5.86793525
_cell_length_b   6.00897588
_cell_length_c   8.39480148
_cell_angle_alpha   90.09355652
_cell_angle_beta   89.62853927
_cell_angle_gamma   90.01676868
_symmetry_Int_Tables_number   1
_chemical_formula_structural   CuNiC8
_chemical_formula_sum   'Cu2 Ni2 C16'
_cell_volume   295.99643517
_cell_formula_units_Z   2
loop_
 _symmetry_equiv_pos_site_id
 _symmetry_equiv_pos_as_xyz
  1  'x, y, z'
loop_
 _atom_site_type_symbol
 _atom_site_label
 _atom_site_symmetry_multiplicity
 _atom_site_fract_x
 _atom_site_fract_y
 _atom_site_fract_z
 _atom_site_occupancy
  C  C0  1  0.51248154  0.54729059  0.25091320  1
  C  C1  1  0.48751846  0.45270941  0.74908680  1
  Ni  Ni2  1  0.50000000  -0.00000000  -0.00000000  1
  Ni  Ni3  1  -0.00000000  0.50000000  0.50000000  1
  Cu  Cu4  1  0.98667727  0.04874081  0.24885238  1
  Cu  Cu5  1  0.01332273  0.95125919  0.75114762  1
  C  C6  1  -0.00000000  0.50000000  -0.00000000  1
  C  C7  1  0.50000000  -0.00000000  0.50000000  1
  C  C8  1  0.18302034  0.22035829  0.94878760  1
  C  C9  1  0.31452065  0.72260855  0.55048978  1
  C  C10  1  0.81697966  0.77964171  0.05121240  1
  C  C11  1  0.68547935  0.27739145  0.44951022  1
  C  C12  1  0.27689976  0.69045397  0.95178524  1
  C  C13  1  0.22195062  0.18853852  0.55057698  1
  C  C14  1  0.72310024  0.30954603  0.04821476  1
  C  C15  1  0.77804938  0.81146148  0.44942302  1
  C  C16  1  0.40258015  0.97303746  0.26835053  1
  C  C17  1  0.09034821  0.46834159  0.23177997  1
  C  C18  1  0.59741985  0.02696254  0.73164947  1
  C  C19  1  0.90965179  0.53165841  0.76822003  1
