# generated using pymatgen
data_Cu3NiC3
_symmetry_space_group_name_H-M   'P 1'
_cell_length_a   6.76076625
_cell_length_b   6.76076625
_cell_length_c   6.76076625
_cell_angle_alpha   147.91952985
_cell_angle_beta   147.91952985
_cell_angle_gamma   46.00417043
_symmetry_Int_Tables_number   1
_chemical_formula_structural   Cu3NiC3
_chemical_formula_sum   'Cu3 Ni1 C3'
_cell_volume   86.86955997
_cell_formula_units_Z   1
loop_
 _symmetry_equiv_pos_site_id
 _symmetry_equiv_pos_as_xyz
  1  'x, y, z'
loop_
 _atom_site_type_symbol
 _atom_site_label
 _atom_site_symmetry_multiplicity
 _atom_site_fract_x
 _atom_site_fract_y
 _atom_site_fract_z
 _atom_site_occupancy
  C  C0  1  0.52041500  0.52041500  0.00000000  1
  C  C1  1  0.80740700  0.80740700  0.00000000  1
  C  C2  1  0.16550000  0.16550000  0.00000000  1
  Ni  Ni3  1  0.99701600  0.99701600  0.00000000  1
  Cu  Cu4  1  0.66684000  0.16684000  0.50000000  1
  Cu  Cu5  1  0.16684000  0.66684000  0.50000000  1
  Cu  Cu6  1  0.32868100  0.32868100  0.00000000  1
