# generated using pymatgen
data_Cu5(NiC2)3
_symmetry_space_group_name_H-M   'P 1'
_cell_length_a   7.51444919
_cell_length_b   12.37235600
_cell_length_c   12.92874127
_cell_angle_alpha   90.00000000
_cell_angle_beta   94.29338870
_cell_angle_gamma   90.00000000
_symmetry_Int_Tables_number   1
_chemical_formula_structural   Cu5(NiC2)3
_chemical_formula_sum   'Cu40 Ni24 C48'
_cell_volume   1198.63061130
_cell_formula_units_Z   8
loop_
 _symmetry_equiv_pos_site_id
 _symmetry_equiv_pos_as_xyz
  1  'x, y, z'
loop_
 _atom_site_type_symbol
 _atom_site_label
 _atom_site_symmetry_multiplicity
 _atom_site_fract_x
 _atom_site_fract_y
 _atom_site_fract_z
 _atom_site_occupancy
  C  C0  1  0.28689100  0.59623900  0.26783400  1
  C  C1  1  0.71310900  0.09623900  0.23216600  1
  C  C2  1  0.71310900  0.40376100  0.73216600  1
  C  C3  1  0.28689100  0.90376100  0.76783400  1
  C  C4  1  0.05205100  0.64970900  0.50984400  1
  C  C5  1  0.94794900  0.14970900  0.99015600  1
  C  C6  1  0.94794900  0.35029100  0.49015600  1
  C  C7  1  0.05205100  0.85029100  0.00984400  1
  C  C8  1  0.90384700  0.63484500  0.40714800  1
  C  C9  1  0.09615300  0.13484500  0.09285200  1
  C  C10  1  0.09615300  0.36515500  0.59285200  1
  C  C11  1  0.90384700  0.86515500  0.90714800  1
  C  C12  1  0.02425300  0.74724400  0.41909100  1
  C  C13  1  0.97574700  0.24724400  0.08090900  1
  C  C14  1  0.97574700  0.25275600  0.58090900  1
  C  C15  1  0.02425300  0.75275600  0.91909100  1
  C  C16  1  0.88987000  0.90821400  0.42106100  1
  C  C17  1  0.11013000  0.40821400  0.07893900  1
  C  C18  1  0.11013000  0.09178600  0.57893900  1
  C  C19  1  0.88987000  0.59178600  0.92106100  1
  C  C20  1  0.67415800  0.89391100  0.38709100  1
  C  C21  1  0.32584200  0.39391100  0.11290900  1
  C  C22  1  0.32584200  0.10608900  0.61290900  1
  C  C23  1  0.67415800  0.60608900  0.88709100  1
  C  C24  1  0.73677100  0.95937000  0.49564200  1
  C  C25  1  0.26322900  0.45937000  0.00435800  1
  C  C26  1  0.26322900  0.04063000  0.50435800  1
  C  C27  1  0.73677100  0.54063000  0.99564200  1
  C  C28  1  0.31077100  0.65088900  0.64006100  1
  C  C29  1  0.68922900  0.15088900  0.85993900  1
  C  C30  1  0.68922900  0.34911100  0.35993900  1
  C  C31  1  0.31077100  0.84911100  0.14006100  1
  C  C32  1  0.26741500  0.52983700  0.61619700  1
  C  C33  1  0.73258500  0.02983700  0.88380300  1
  C  C34  1  0.73258500  0.47016300  0.38380300  1
  C  C35  1  0.26741500  0.97016300  0.11619700  1
  C  C36  1  0.14601400  0.90526700  0.27866800  1
  C  C37  1  0.85398600  0.40526700  0.22133200  1
  C  C38  1  0.85398600  0.09473300  0.72133200  1
  C  C39  1  0.14601400  0.59473300  0.77866800  1
  C  C40  1  0.23817400  0.88129000  0.38741900  1
  C  C41  1  0.76182600  0.38129000  0.11258100  1
  C  C42  1  0.76182600  0.11871000  0.61258100  1
  C  C43  1  0.23817400  0.61871000  0.88741900  1
  C  C44  1  0.75762900  0.75558500  0.54173600  1
  C  C45  1  0.24237100  0.25558500  0.95826400  1
  C  C46  1  0.24237100  0.24441500  0.45826400  1
  C  C47  1  0.75762900  0.74441500  0.04173600  1
  Ni  Ni48  1  0.95780800  0.82451700  0.63951800  1
  Ni  Ni49  1  0.04219200  0.32451700  0.86048200  1
  Ni  Ni50  1  0.04219200  0.17548300  0.36048200  1
  Ni  Ni51  1  0.95780800  0.67548300  0.13951800  1
  Ni  Ni52  1  0.56312300  0.83000500  0.62121300  1
  Ni  Ni53  1  0.43687700  0.33000500  0.87878700  1
  Ni  Ni54  1  0.43687700  0.16999500  0.37878700  1
  Ni  Ni55  1  0.56312300  0.66999500  0.12121300  1
  Ni  Ni56  1  0.56437800  0.69252400  0.43497200  1
  Ni  Ni57  1  0.43562200  0.19252400  0.06502800  1
  Ni  Ni58  1  0.43562200  0.30747600  0.56502800  1
  Ni  Ni59  1  0.56437800  0.80747600  0.93497200  1
  Ni  Ni60  1  0.75519100  0.61297500  0.62603200  1
  Ni  Ni61  1  0.24480900  0.11297500  0.87396800  1
  Ni  Ni62  1  0.24480900  0.38702500  0.37396800  1
  Ni  Ni63  1  0.75519100  0.88702500  0.12603200  1
  Ni  Ni64  1  0.96040000  0.68903900  0.45941300  1
  Ni  Ni65  1  0.03960000  0.18903900  0.04058700  1
  Ni  Ni66  1  0.03960000  0.31096100  0.54058700  1
  Ni  Ni67  1  0.96040000  0.81096100  0.95941300  1
  Ni  Ni68  1  0.76661000  0.89572200  0.44949500  1
  Ni  Ni69  1  0.23339000  0.39572200  0.05050500  1
  Ni  Ni70  1  0.23339000  0.10427800  0.55050500  1
  Ni  Ni71  1  0.76661000  0.60427800  0.94949500  1
  Cu  Cu72  1  0.08783400  0.86581200  0.59859200  1
  Cu  Cu73  1  0.91216600  0.36581200  0.90140800  1
  Cu  Cu74  1  0.91216600  0.13418800  0.40140800  1
  Cu  Cu75  1  0.08783400  0.63418800  0.09859200  1
  Cu  Cu76  1  0.95315700  0.82476000  0.73552600  1
  Cu  Cu77  1  0.04684300  0.32476000  0.76447400  1
  Cu  Cu78  1  0.04684300  0.17524000  0.26447400  1
  Cu  Cu79  1  0.95315700  0.67524000  0.23552600  1
  Cu  Cu80  1  0.55813500  0.93073300  0.62516500  1
  Cu  Cu81  1  0.44186500  0.43073300  0.87483500  1
  Cu  Cu82  1  0.44186500  0.06926700  0.37483500  1
  Cu  Cu83  1  0.55813500  0.56926700  0.12516500  1
  Cu  Cu84  1  0.45064000  0.77608400  0.66680900  1
  Cu  Cu85  1  0.54936000  0.27608400  0.83319100  1
  Cu  Cu86  1  0.54936000  0.22391600  0.33319100  1
  Cu  Cu87  1  0.45064000  0.72391600  0.16680900  1
  Cu  Cu88  1  0.59337000  0.60879500  0.38410600  1
  Cu  Cu89  1  0.40663000  0.10879500  0.11589400  1
  Cu  Cu90  1  0.40663000  0.39120500  0.61589400  1
  Cu  Cu91  1  0.59337000  0.89120500  0.88410600  1
  Cu  Cu92  1  0.41890700  0.74100400  0.41804100  1
  Cu  Cu93  1  0.58109300  0.24100400  0.08195900  1
  Cu  Cu94  1  0.58109300  0.25899600  0.58195900  1
  Cu  Cu95  1  0.41890700  0.75899600  0.91804100  1
  Cu  Cu96  1  0.78831300  0.52607700  0.58126600  1
  Cu  Cu97  1  0.21168700  0.02607700  0.91873400  1
  Cu  Cu98  1  0.21168700  0.47392300  0.41873400  1
  Cu  Cu99  1  0.78831300  0.97392300  0.08126600  1
  Cu  Cu100  1  0.71872300  0.61080700  0.71858400  1
  Cu  Cu101  1  0.28127700  0.11080700  0.78141600  1
  Cu  Cu102  1  0.28127700  0.38919300  0.28141600  1
  Cu  Cu103  1  0.71872300  0.88919300  0.21858400  1
  Cu  Cu104  1  0.21314800  0.59761700  0.63756000  1
  Cu  Cu105  1  0.78685200  0.09761700  0.86244000  1
  Cu  Cu106  1  0.78685200  0.40238300  0.36244000  1
  Cu  Cu107  1  0.21314800  0.90238300  0.13756000  1
  Cu  Cu108  1  0.12157100  0.89668300  0.35241400  1
  Cu  Cu109  1  0.87842900  0.39668300  0.14758600  1
  Cu  Cu110  1  0.87842900  0.10331700  0.64758600  1
  Cu  Cu111  1  0.12157100  0.60331700  0.85241400  1
