# generated using pymatgen
data_Cu8(NiC6)5
_symmetry_space_group_name_H-M   'P 1'
_cell_length_a   5.34768947
_cell_length_b   10.05930000
_cell_length_c   27.84128480
_cell_angle_alpha   79.89406305
_cell_angle_beta   87.97989767
_cell_angle_gamma   77.26634665
_symmetry_Int_Tables_number   1
_chemical_formula_structural   Cu8(NiC6)5
_chemical_formula_sum   'Cu24 Ni15 C90'
_cell_volume   1438.18462316
_cell_formula_units_Z   3
loop_
 _symmetry_equiv_pos_site_id
 _symmetry_equiv_pos_as_xyz
  1  'x, y, z'
loop_
 _atom_site_type_symbol
 _atom_site_label
 _atom_site_symmetry_multiplicity
 _atom_site_fract_x
 _atom_site_fract_y
 _atom_site_fract_z
 _atom_site_occupancy
  C  C0  1  0.45669218  0.27688732  0.51778599  1
  C  C1  1  0.54563655  0.73060767  0.48313118  1
  C  C2  1  0.52405425  0.88125680  0.18231509  1
  C  C3  1  0.47589922  0.11882570  0.81770588  1
  C  C4  1  0.03651179  0.81288144  0.33242732  1
  C  C5  1  0.96255472  0.18847601  0.66824523  1
  C  C6  1  0.45363310  0.45497246  0.14759576  1
  C  C7  1  0.54645995  0.54495550  0.85242857  1
  C  C8  1  0.00000285  0.49997319  0.00003697  1
  Ni  Ni9  1  0.47815136  0.35469803  0.27406255  1
  Ni  Ni10  1  0.52202756  0.64531379  0.72584116  1
  Ni  Ni11  1  0.50817483  0.96013260  0.05962630  1
  Ni  Ni12  1  0.49184277  0.03985782  0.94035749  1
  Ni  Ni13  1  0.97844740  0.32828854  0.33329703  1
  Ni  Ni14  1  0.02252903  0.67138935  0.66614429  1
  Ni  Ni15  1  0.96454443  0.39336404  0.21431899  1
  Ni  Ni16  1  0.03547154  0.60670974  0.78558010  1
  Ni  Ni17  1  0.47779059  0.29882123  0.39295757  1
  Ni  Ni18  1  0.52416985  0.69787916  0.60688724  1
  Ni  Ni19  1  0.00000230  0.99998941  0.00001038  1
  Ni  Ni20  1  0.96360248  0.28332724  0.45197082  1
  Ni  Ni21  1  0.01828025  0.72664533  0.54403722  1
  Ni  Ni22  1  0.00489269  0.92693271  0.12232103  1
  Ni  Ni23  1  0.99507662  0.07307613  0.87765288  1
  Cu  Cu24  1  0.29174047  0.69275113  0.05282900  1
  Cu  Cu25  1  0.70828881  0.30723175  0.94715891  1
  Cu  Cu26  1  0.69017464  0.57932616  0.38798859  1
  Cu  Cu27  1  0.30919731  0.42146515  0.61194511  1
  Cu  Cu28  1  0.23280374  0.99953092  0.55631950  1
  Cu  Cu29  1  0.77735151  0.98918123  0.44819581  1
  Cu  Cu30  1  0.21985932  0.21158315  0.11298461  1
  Cu  Cu31  1  0.78015417  0.78840962  0.88700091  1
  Cu  Cu32  1  0.26547462  0.07755621  0.27836334  1
  Cu  Cu33  1  0.73508909  0.92270206  0.72122007  1
  Cu  Cu34  1  0.72300268  0.24003762  0.05982082  1
  Cu  Cu35  1  0.27701152  0.75996086  0.94016473  1
  Cu  Cu36  1  0.80335259  0.64871764  0.10996553  1
  Cu  Cu37  1  0.19666742  0.35126241  0.89003602  1
  Cu  Cu38  1  0.18794494  0.66585462  0.21940489  1
  Cu  Cu39  1  0.81205118  0.33413687  0.78059076  1
  Cu  Cu40  1  0.26262381  0.02579566  0.39074630  1
  Cu  Cu41  1  0.73850552  0.97350520  0.60879452  1
  Cu  Cu42  1  0.18547916  0.56245131  0.44474207  1
  Cu  Cu43  1  0.81647603  0.43632252  0.55539543  1
  Cu  Cu44  1  0.77862001  0.09280375  0.22094895  1
  Cu  Cu45  1  0.22155095  0.90747323  0.77883538  1
  Cu  Cu46  1  0.69356418  0.63088391  0.27589374  1
  Cu  Cu47  1  0.30642358  0.36915334  0.72400485  1
  C  C48  1  0.25669346  0.19743938  0.00469974  1
  C  C49  1  0.74331786  0.80254364  0.99531336  1
  C  C50  1  0.24705691  0.52609558  0.33487080  1
  C  C51  1  0.75285537  0.47365949  0.66519414  1
  C  C52  1  0.73492009  0.12367938  0.33474783  1
  C  C53  1  0.26526224  0.87638209  0.66608776  1
  C  C54  1  0.36550369  0.07033919  0.48303233  1
  C  C55  1  0.37438953  0.21999991  0.18606168  1
  C  C56  1  0.62566762  0.77995238  0.81392249  1
  C  C57  1  0.39616050  0.70115757  0.25816578  1
  C  C58  1  0.60389276  0.29881602  0.74180820  1
  C  C59  1  0.03329494  0.94864530  0.41307585  1
  C  C60  1  0.96389244  0.05399123  0.58478216  1
  C  C61  1  0.53964824  0.02804966  0.25161709  1
  C  C62  1  0.46038090  0.97228603  0.74789403  1
  C  C63  1  0.19070126  0.24364328  0.27580609  1
  C  C64  1  0.80934397  0.75655556  0.72403404  1
  C  C65  1  0.46068599  0.05044240  0.58273452  1
  C  C66  1  0.53530375  0.95182487  0.41869870  1
  C  C67  1  0.39049623  0.63278727  0.40443376  1
  C  C68  1  0.60872528  0.36619406  0.59519118  1
  C  C69  1  0.70257427  0.15591301  0.44824899  1
  C  C70  1  0.29631058  0.83807970  0.55382557  1
  C  C71  1  0.20982652  0.10337009  0.50128137  1
  C  C72  1  0.80077503  0.88896660  0.49976302  1
  C  C73  1  0.68776578  0.22287253  0.33386992  1
  C  C74  1  0.31241723  0.77773006  0.66587320  1
  C  C75  1  0.28517254  0.04823651  0.11400532  1
  C  C76  1  0.71484654  0.95173371  0.88601846  1
  C  C77  1  0.73632024  0.81389053  0.11053897  1
  C  C78  1  0.26370267  0.18607304  0.88950228  1
  C  C79  1  0.79964241  0.04059989  0.16972899  1
  C  C80  1  0.20049501  0.95955342  0.83008048  1
  C  C81  1  0.71579774  0.66301534  0.33184282  1
  C  C82  1  0.28446893  0.33667490  0.66810922  1
  C  C83  1  0.27304025  0.42865387  0.33318945  1
  C  C84  1  0.72688366  0.57101616  0.66694136  1
  C  C85  1  0.89903998  0.71310792  0.24542672  1
  C  C86  1  0.10096955  0.28689554  0.75453965  1
  C  C87  1  0.29340700  0.10070480  0.00237778  1
  C  C88  1  0.70659454  0.89926343  0.99765754  1
  C  C89  1  0.18901791  0.19018157  0.39205538  1
  C  C90  1  0.80965703  0.80956883  0.60883963  1
  C  C91  1  0.10763649  0.36460740  0.58137084  1
  C  C92  1  0.89393583  0.63379791  0.41870420  1
  C  C93  1  0.76231830  0.41302959  0.39046632  1
  C  C94  1  0.23639536  0.58695840  0.60965831  1
  C  C95  1  0.43647530  0.29121581  0.08307585  1
  C  C96  1  0.56358170  0.70878502  0.91693408  1
  C  C97  1  0.79111969  0.07626913  0.05906335  1
  C  C98  1  0.20886598  0.92370726  0.94095691  1
  C  C99  1  0.20594009  0.76379510  0.16826680  1
  C  C100  1  0.79412513  0.23620345  0.83172771  1
  C  C101  1  0.03724362  0.01988101  0.25608776  1
  C  C102  1  0.96290250  0.98035974  0.74368465  1
  C  C103  1  0.80108230  0.38033728  0.50559046  1
  C  C104  1  0.20652151  0.61502739  0.49494026  1
  C  C105  1  0.25396253  0.49891248  0.22149950  1
  C  C106  1  0.74603395  0.50108062  0.77856281  1
  C  C107  1  0.80706793  0.54079815  0.15951859  1
  C  C108  1  0.19296491  0.45926553  0.84049411  1
  C  C109  1  0.25065948  0.39663295  0.44423641  1
  C  C110  1  0.74954897  0.60149608  0.55569695  1
  C  C111  1  0.94008798  0.29260985  0.08817900  1
  C  C112  1  0.05986277  0.70738781  0.91183159  1
  C  C113  1  0.08332904  0.60535241  0.07992317  1
  C  C114  1  0.91674275  0.39462526  0.92009347  1
  C  C115  1  0.21254890  0.26102399  0.16794282  1
  C  C116  1  0.78743397  0.73896133  0.83205794  1
  C  C117  1  0.70231202  0.26042258  0.21936545  1
  C  C118  1  0.29774913  0.73978943  0.78055248  1
  C  C119  1  0.21708288  0.85527406  0.05601913  1
  C  C120  1  0.78296313  0.14468363  0.94401365  1
  C  C121  1  0.29132211  0.99072028  0.33477529  1
  C  C122  1  0.71335852  0.01010227  0.66467544  1
  C  C123  1  0.58376264  0.61733524  0.07267493  1
  C  C124  1  0.41620773  0.38262794  0.92734971  1
  C  C125  1  0.28117495  0.66613108  0.99548492  1
  C  C126  1  0.71884766  0.33387145  0.00450975  1
  C  C127  1  0.76439172  0.46592066  0.27504150  1
  C  C128  1  0.23566653  0.53405715  0.72499933  1
