# generated using pymatgen
data_CuNiC12
_symmetry_space_group_name_H-M   'P 1'
_cell_length_a   7.11178500
_cell_length_b   10.86291100
_cell_length_c   11.34340710
_cell_angle_alpha   69.09731473
_cell_angle_beta   90.00000000
_cell_angle_gamma   90.00000000
_symmetry_Int_Tables_number   1
_chemical_formula_structural   CuNiC12
_chemical_formula_sum   'Cu4 Ni4 C48'
_cell_volume   818.65803490
_cell_formula_units_Z   4
loop_
 _symmetry_equiv_pos_site_id
 _symmetry_equiv_pos_as_xyz
  1  'x, y, z'
loop_
 _atom_site_type_symbol
 _atom_site_label
 _atom_site_symmetry_multiplicity
 _atom_site_fract_x
 _atom_site_fract_y
 _atom_site_fract_z
 _atom_site_occupancy
  Ni  Ni0  1  0.63886300  0.96037300  0.35045700  1
  Ni  Ni1  1  0.36113700  0.03962700  0.64954300  1
  Ni  Ni2  1  0.13886300  0.53962700  0.64954300  1
  Ni  Ni3  1  0.86113700  0.46037300  0.35045700  1
  Cu  Cu4  1  0.36348000  0.66177700  0.24652900  1
  Cu  Cu5  1  0.63652000  0.33822300  0.75347100  1
  Cu  Cu6  1  0.86348000  0.83822300  0.75347100  1
  Cu  Cu7  1  0.13652000  0.16177700  0.24652900  1
  C  C8  1  0.85463600  0.74556000  0.11144900  1
  C  C9  1  0.14536400  0.25444000  0.88855100  1
  C  C10  1  0.35463600  0.75444000  0.88855100  1
  C  C11  1  0.64536400  0.24556000  0.11144900  1
  C  C12  1  0.64769200  0.64823300  0.54073300  1
  C  C13  1  0.35230800  0.35176700  0.45926700  1
  C  C14  1  0.14769200  0.85176700  0.45926700  1
  C  C15  1  0.85230800  0.14823300  0.54073300  1
  C  C16  1  0.81677800  0.89502700  0.10675400  1
  C  C17  1  0.18322200  0.10497300  0.89324600  1
  C  C18  1  0.31677800  0.60497300  0.89324600  1
  C  C19  1  0.68322200  0.39502700  0.10675400  1
  C  C20  1  0.54911700  0.82556700  0.80417500  1
  C  C21  1  0.45088300  0.17443300  0.19582500  1
  C  C22  1  0.04911700  0.67443300  0.19582500  1
  C  C23  1  0.95088300  0.32556700  0.80417500  1
  C  C24  1  0.82310300  0.53852300  0.56604800  1
  C  C25  1  0.17689700  0.46147700  0.43395200  1
  C  C26  1  0.32310300  0.96147700  0.43395200  1
  C  C27  1  0.67689700  0.03852300  0.56604800  1
  C  C28  1  0.37201400  0.90819400  0.19568500  1
  C  C29  1  0.62798600  0.09180600  0.80431500  1
  C  C30  1  0.87201400  0.59180600  0.80431500  1
  C  C31  1  0.12798600  0.40819400  0.19568500  1
  C  C32  1  0.59269200  0.71932100  0.38749700  1
  C  C33  1  0.40730800  0.28067900  0.61250300  1
  C  C34  1  0.09269200  0.78067900  0.61250300  1
  C  C35  1  0.90730800  0.21932100  0.38749700  1
  C  C36  1  0.69239100  0.77488800  0.58708800  1
  C  C37  1  0.30760900  0.22511200  0.41291200  1
  C  C38  1  0.19239100  0.72511200  0.41291200  1
  C  C39  1  0.80760900  0.27488800  0.58708800  1
  C  C40  1  0.97397800  0.94970200  0.37546500  1
  C  C41  1  0.02602200  0.05029800  0.62453500  1
  C  C42  1  0.47397800  0.55029800  0.62453500  1
  C  C43  1  0.52602200  0.44970200  0.37546500  1
  C  C44  1  0.38156200  0.76567900  0.03263000  1
  C  C45  1  0.61843800  0.23432100  0.96737000  1
  C  C46  1  0.88156200  0.73432100  0.96737000  1
  C  C47  1  0.11843800  0.26567900  0.03263000  1
  C  C48  1  0.28432600  0.47250000  0.16844600  1
  C  C49  1  0.71567400  0.52750000  0.83155400  1
  C  C50  1  0.78432600  0.02750000  0.83155400  1
  C  C51  1  0.21567400  0.97250000  0.16844600  1
  C  C52  1  0.68536900  0.63690600  0.18729000  1
  C  C53  1  0.31463100  0.36309400  0.81271000  1
  C  C54  1  0.18536900  0.86309400  0.81271000  1
  C  C55  1  0.81463100  0.13690600  0.18729000  1
