# generated using pymatgen
data_Cu6Ni4C5
_symmetry_space_group_name_H-M   'P 1'
_cell_length_a   7.68397383
_cell_length_b   7.68397383
_cell_length_c   7.68397383
_cell_angle_alpha   60.00000000
_cell_angle_beta   60.00000000
_cell_angle_gamma   60.00000000
_symmetry_Int_Tables_number   1
_chemical_formula_structural   Cu6Ni4C5
_chemical_formula_sum   'Cu12 Ni8 C10'
_cell_volume   320.80611136
_cell_formula_units_Z   2
loop_
 _symmetry_equiv_pos_site_id
 _symmetry_equiv_pos_as_xyz
  1  'x, y, z'
loop_
 _atom_site_type_symbol
 _atom_site_label
 _atom_site_symmetry_multiplicity
 _atom_site_fract_x
 _atom_site_fract_y
 _atom_site_fract_z
 _atom_site_occupancy
  C  C0  1  0.50000000  0.50000000  0.50000000  1
  C  C1  1  0.80457100  0.80457100  0.80457100  1
  C  C2  1  0.80457100  0.58628600  0.80457100  1
  C  C3  1  0.58628600  0.80457100  0.80457100  1
  C  C4  1  0.19542900  0.19542900  0.19542900  1
  C  C5  1  0.19542900  0.41371400  0.19542900  1
  C  C6  1  0.41371400  0.19542900  0.19542900  1
  C  C7  1  0.80457100  0.80457100  0.58628600  1
  C  C8  1  0.19542900  0.19542900  0.41371400  1
  C  C9  1  0.00000000  0.00000000  0.00000000  1
  Ni  Ni10  1  0.19283900  0.80716100  0.19283900  1
  Ni  Ni11  1  0.80716100  0.80716100  0.19283900  1
  Ni  Ni12  1  0.80716100  0.19283900  0.19283900  1
  Ni  Ni13  1  0.80716100  0.19283900  0.80716100  1
  Ni  Ni14  1  0.19283900  0.19283900  0.80716100  1
  Ni  Ni15  1  0.19283900  0.80716100  0.80716100  1
  Ni  Ni16  1  0.75000000  0.75000000  0.75000000  1
  Ni  Ni17  1  0.25000000  0.25000000  0.25000000  1
  Cu  Cu18  1  0.84890600  0.65000200  0.15109400  1
  Cu  Cu19  1  0.65000200  0.34999800  0.15109400  1
  Cu  Cu20  1  0.34999800  0.84890600  0.15109400  1
  Cu  Cu21  1  0.15109400  0.34999800  0.84890600  1
  Cu  Cu22  1  0.34999800  0.65000200  0.84890600  1
  Cu  Cu23  1  0.65000200  0.15109400  0.84890600  1
  Cu  Cu24  1  0.34999800  0.15109400  0.65000200  1
  Cu  Cu25  1  0.84890600  0.15109400  0.34999800  1
  Cu  Cu26  1  0.65000200  0.84890600  0.34999800  1
  Cu  Cu27  1  0.15109400  0.84890600  0.65000200  1
  Cu  Cu28  1  0.15109400  0.65000200  0.34999800  1
  Cu  Cu29  1  0.84890600  0.34999800  0.65000200  1
