# generated using pymatgen
data_Cu6Ni3C2
_symmetry_space_group_name_H-M   'P 1'
_cell_length_a   10.30548197
_cell_length_b   10.30548197
_cell_length_c   10.30548091
_cell_angle_alpha   33.99514794
_cell_angle_beta   33.99514794
_cell_angle_gamma   33.99514750
_symmetry_Int_Tables_number   1
_chemical_formula_structural   Cu6Ni3C2
_chemical_formula_sum   'Cu12 Ni6 C4'
_cell_volume   304.98368685
_cell_formula_units_Z   2
loop_
 _symmetry_equiv_pos_site_id
 _symmetry_equiv_pos_as_xyz
  1  'x, y, z'
loop_
 _atom_site_type_symbol
 _atom_site_label
 _atom_site_symmetry_multiplicity
 _atom_site_fract_x
 _atom_site_fract_y
 _atom_site_fract_z
 _atom_site_occupancy
  C  C0  1  0.83524200  0.83524200  0.83524200  1
  C  C1  1  0.33524200  0.33524200  0.33524200  1
  C  C2  1  0.16475800  0.16475800  0.16475800  1
  C  C3  1  0.66475800  0.66475800  0.66475800  1
  Ni  Ni4  1  0.25000000  0.55101300  0.94898700  1
  Ni  Ni5  1  0.55101300  0.94898700  0.25000000  1
  Ni  Ni6  1  0.94898700  0.25000000  0.55101300  1
  Ni  Ni7  1  0.05101300  0.75000000  0.44898700  1
  Ni  Ni8  1  0.75000000  0.44898700  0.05101300  1
  Ni  Ni9  1  0.44898700  0.05101300  0.75000000  1
  Cu  Cu10  1  0.13915300  0.54188200  0.94801500  1
  Cu  Cu11  1  0.54188200  0.94801500  0.13915300  1
  Cu  Cu12  1  0.94801500  0.13915300  0.54188200  1
  Cu  Cu13  1  0.04188200  0.63915300  0.44801500  1
  Cu  Cu14  1  0.63915300  0.44801500  0.04188200  1
  Cu  Cu15  1  0.44801500  0.04188200  0.63915300  1
  Cu  Cu16  1  0.86084700  0.45811800  0.05198500  1
  Cu  Cu17  1  0.45811800  0.05198500  0.86084700  1
  Cu  Cu18  1  0.05198500  0.86084700  0.45811800  1
  Cu  Cu19  1  0.95811800  0.36084700  0.55198500  1
  Cu  Cu20  1  0.36084700  0.55198500  0.95811800  1
  Cu  Cu21  1  0.55198500  0.95811800  0.36084700  1
