# generated using pymatgen
data_Cu6NiC16
_symmetry_space_group_name_H-M   'P 1'
_cell_length_a   7.67394500
_cell_length_b   12.52087400
_cell_length_c   13.08644841
_cell_angle_alpha   90.00000000
_cell_angle_beta   107.04974882
_cell_angle_gamma   90.00000000
_symmetry_Int_Tables_number   1
_chemical_formula_structural   Cu6NiC16
_chemical_formula_sum   'Cu18 Ni3 C48'
_cell_volume   1202.14256169
_cell_formula_units_Z   3
loop_
 _symmetry_equiv_pos_site_id
 _symmetry_equiv_pos_as_xyz
  1  'x, y, z'
loop_
 _atom_site_type_symbol
 _atom_site_label
 _atom_site_symmetry_multiplicity
 _atom_site_fract_x
 _atom_site_fract_y
 _atom_site_fract_z
 _atom_site_occupancy
  C  C0  1  0.34905800  0.00000000  0.58533600  1
  C  C1  1  0.76372200  0.00000000  0.41466400  1
  C  C2  1  0.26868900  0.50000000  0.22693500  1
  C  C3  1  0.04175400  0.50000000  0.77306500  1
  Ni  Ni4  1  0.95274400  0.00000000  0.87969900  1
  Ni  Ni5  1  0.07304400  0.00000000  0.12030100  1
  Ni  Ni6  1  0.56344600  0.50000000  0.00000000  1
  Cu  Cu7  1  0.09778200  0.19369500  0.00000000  1
  Cu  Cu8  1  0.09778200  0.80630500  0.00000000  1
  Cu  Cu9  1  0.96589100  0.22652000  0.80353500  1
  Cu  Cu10  1  0.16235600  0.77348000  0.19646500  1
  Cu  Cu11  1  0.96589100  0.77348000  0.80353500  1
  Cu  Cu12  1  0.16235600  0.22652000  0.19646500  1
  Cu  Cu13  1  0.78892300  0.10223100  0.65998200  1
  Cu  Cu14  1  0.12894100  0.89776900  0.34001800  1
  Cu  Cu15  1  0.78892300  0.89776900  0.65998200  1
  Cu  Cu16  1  0.12894100  0.10223100  0.34001800  1
  Cu  Cu17  1  0.64250700  0.26006400  0.71717000  1
  Cu  Cu18  1  0.92533700  0.73993600  0.28283000  1
  Cu  Cu19  1  0.64250700  0.73993600  0.71717000  1
  Cu  Cu20  1  0.92533700  0.26006400  0.28283000  1
  Cu  Cu21  1  0.02590100  0.21598300  0.62631200  1
  Cu  Cu22  1  0.39959000  0.78401700  0.37368800  1
  Cu  Cu23  1  0.02590100  0.78401700  0.62631200  1
  Cu  Cu24  1  0.39959000  0.21598300  0.37368800  1
  C  C25  1  0.00853200  0.09419100  0.00000000  1
  C  C26  1  0.00853200  0.90580900  0.00000000  1
  C  C27  1  0.90924100  0.89029500  0.77679200  1
  C  C28  1  0.13244900  0.10970500  0.22320800  1
  C  C29  1  0.90924100  0.10970500  0.77679200  1
  C  C30  1  0.13244900  0.89029500  0.22320800  1
  C  C31  1  0.09492300  0.23824100  0.90590900  1
  C  C32  1  0.18901500  0.76175900  0.09409100  1
  C  C33  1  0.09492300  0.76175900  0.90590900  1
  C  C34  1  0.18901500  0.23824100  0.09409100  1
  C  C35  1  0.71067600  0.00000000  0.63244100  1
  C  C36  1  0.07823600  0.00000000  0.36755900  1
  C  C37  1  0.79804700  0.28739100  0.79647900  1
  C  C38  1  0.00156800  0.71260900  0.20352100  1
  C  C39  1  0.79804700  0.71260900  0.79647900  1
  C  C40  1  0.00156800  0.28739100  0.20352100  1
  C  C41  1  0.48459200  0.31638000  0.70876200  1
  C  C42  1  0.77583000  0.68362000  0.29123800  1
  C  C43  1  0.48459200  0.68362000  0.70876200  1
  C  C44  1  0.77583000  0.31638000  0.29123800  1
  C  C45  1  0.63609200  0.17808100  0.64654900  1
  C  C46  1  0.98954300  0.82191900  0.35345100  1
  C  C47  1  0.63609200  0.82191900  0.64654900  1
  C  C48  1  0.98954300  0.17808100  0.35345100  1
  C  C49  1  0.04327600  0.26903800  0.72089400  1
  C  C50  1  0.32238200  0.73096200  0.27910600  1
  C  C51  1  0.04327600  0.73096200  0.72089400  1
  C  C52  1  0.32238200  0.26903800  0.27910600  1
  C  C53  1  0.57089200  0.24822200  0.43234900  1
  C  C54  1  0.13854300  0.75177800  0.56765100  1
  C  C55  1  0.57089200  0.75177800  0.43234900  1
  C  C56  1  0.13854300  0.24822200  0.56765100  1
  C  C57  1  0.90745100  0.13183000  0.59316100  1
  C  C58  1  0.31429000  0.86817000  0.40683900  1
  C  C59  1  0.90745100  0.86817000  0.59316100  1
  C  C60  1  0.31429000  0.13183000  0.40683900  1
  C  C61  1  0.75672200  0.39976300  0.00000000  1
  C  C62  1  0.75672200  0.60023700  0.00000000  1
  C  C63  1  0.39254700  0.41560900  0.88873700  1
  C  C64  1  0.50381000  0.58439100  0.11126300  1
  C  C65  1  0.39254700  0.58439100  0.88873700  1
  C  C66  1  0.50381000  0.41560900  0.11126300  1
  C  C67  1  0.78730600  0.50000000  0.15282700  1
  C  C68  1  0.63447900  0.50000000  0.84717300  1
