# generated using pymatgen
data_Cu(NiC2)3
_symmetry_space_group_name_H-M   'P 1'
_cell_length_a   6.58375600
_cell_length_b   6.36614100
_cell_length_c   11.08819258
_cell_angle_alpha   55.31611969
_cell_angle_beta   90.00000000
_cell_angle_gamma   90.00000000
_symmetry_Int_Tables_number   1
_chemical_formula_structural   Cu(NiC2)3
_chemical_formula_sum   'Cu2 Ni6 C12'
_cell_volume   382.15824465
_cell_formula_units_Z   2
loop_
 _symmetry_equiv_pos_site_id
 _symmetry_equiv_pos_as_xyz
  1  'x, y, z'
loop_
 _atom_site_type_symbol
 _atom_site_label
 _atom_site_symmetry_multiplicity
 _atom_site_fract_x
 _atom_site_fract_y
 _atom_site_fract_z
 _atom_site_occupancy
  Ni  Ni0  1  0.50000000  0.50000000  0.00000000  1
  Ni  Ni1  1  0.00000000  0.50000000  0.50000000  1
  Ni  Ni2  1  0.04993200  0.73372800  0.75337900  1
  Ni  Ni3  1  0.95006800  0.26627200  0.24662100  1
  Ni  Ni4  1  0.54993200  0.26627200  0.74662100  1
  Ni  Ni5  1  0.45006800  0.73372800  0.25337900  1
  Cu  Cu6  1  0.50000000  0.00000000  0.50000000  1
  Cu  Cu7  1  0.00000000  0.00000000  0.00000000  1
  C  C8  1  0.77204400  0.76717400  0.56519900  1
  C  C9  1  0.22795600  0.23282600  0.43480100  1
  C  C10  1  0.27204400  0.23282600  0.93480100  1
  C  C11  1  0.72795600  0.76717400  0.06519900  1
  C  C12  1  0.44869300  0.88363900  0.72306500  1
  C  C13  1  0.55130700  0.11636100  0.27693500  1
  C  C14  1  0.94869300  0.11636100  0.77693500  1
  C  C15  1  0.05130700  0.88363900  0.22306500  1
  C  C16  1  0.32529800  0.67366100  0.54823300  1
  C  C17  1  0.67470200  0.32633900  0.45176700  1
  C  C18  1  0.82529800  0.32633900  0.95176700  1
  C  C19  1  0.17470200  0.67366100  0.04823300  1
