# generated using pymatgen
data_CuNiC9
_symmetry_space_group_name_H-M   'P 1'
_cell_length_a   10.91609900
_cell_length_b   7.77484800
_cell_length_c   8.72444710
_cell_angle_alpha   73.38121567
_cell_angle_beta   90.00000000
_cell_angle_gamma   90.00000000
_symmetry_Int_Tables_number   1
_chemical_formula_structural   CuNiC9
_chemical_formula_sum   'Cu4 Ni4 C36'
_cell_volume   709.52309040
_cell_formula_units_Z   4
loop_
 _symmetry_equiv_pos_site_id
 _symmetry_equiv_pos_as_xyz
  1  'x, y, z'
loop_
 _atom_site_type_symbol
 _atom_site_label
 _atom_site_symmetry_multiplicity
 _atom_site_fract_x
 _atom_site_fract_y
 _atom_site_fract_z
 _atom_site_occupancy
  Ni  Ni0  1  0.82142500  0.82294400  0.56006800  1
  Ni  Ni1  1  0.17857500  0.17705600  0.43993200  1
  Ni  Ni2  1  0.32142500  0.17705600  0.93993200  1
  Ni  Ni3  1  0.67857500  0.82294400  0.06006800  1
  Cu  Cu4  1  0.39967100  0.76374700  0.75689600  1
  Cu  Cu5  1  0.60032900  0.23625300  0.24310400  1
  Cu  Cu6  1  0.89967100  0.23625300  0.74310400  1
  Cu  Cu7  1  0.10032900  0.76374700  0.25689600  1
  C  C8  1  0.13446000  0.56386000  0.69287200  1
  C  C9  1  0.86554000  0.43614000  0.30712800  1
  C  C10  1  0.63446000  0.43614000  0.80712800  1
  C  C11  1  0.36554000  0.56386000  0.19287200  1
  C  C12  1  0.09770000  0.86993200  0.82080900  1
  C  C13  1  0.90230000  0.13006800  0.17919100  1
  C  C14  1  0.59770000  0.13006800  0.67919100  1
  C  C15  1  0.40230000  0.86993200  0.32080900  1
  C  C16  1  0.07433500  0.37895000  0.73632800  1
  C  C17  1  0.92566500  0.62105000  0.26367200  1
  C  C18  1  0.57433500  0.62105000  0.76367200  1
  C  C19  1  0.42566500  0.37895000  0.23632800  1
  C  C20  1  0.22616000  0.92459000  0.75077900  1
  C  C21  1  0.77384000  0.07541000  0.24922100  1
  C  C22  1  0.72616000  0.07541000  0.74922100  1
  C  C23  1  0.27384000  0.92459000  0.25077900  1
  C  C24  1  0.26991600  0.54767500  0.74174200  1
  C  C25  1  0.73008400  0.45232500  0.25825800  1
  C  C26  1  0.76991600  0.45232500  0.75825800  1
  C  C27  1  0.23008400  0.54767500  0.24174200  1
  C  C28  1  0.11012500  0.67333100  0.52036500  1
  C  C29  1  0.88987500  0.32666900  0.47963500  1
  C  C30  1  0.61012500  0.32666900  0.97963500  1
  C  C31  1  0.38987500  0.67333100  0.02036500  1
  C  C32  1  0.40859400  0.85485300  0.49731700  1
  C  C33  1  0.59140600  0.14514700  0.50268300  1
  C  C34  1  0.90859400  0.14514700  0.00268300  1
  C  C35  1  0.09140600  0.85485300  0.99731700  1
  C  C36  1  0.06533200  0.67092500  0.80451800  1
  C  C37  1  0.93466800  0.32907500  0.19548200  1
  C  C38  1  0.56533200  0.32907500  0.69548200  1
  C  C39  1  0.43466800  0.67092500  0.30451800  1
  C  C40  1  0.49953300  0.00557700  0.77901900  1
  C  C41  1  0.50046700  0.99442300  0.22098100  1
  C  C42  1  0.99953300  0.99442300  0.72098100  1
  C  C43  1  0.00046700  0.00557700  0.27901900  1
