# generated using pymatgen
data_CuNi2C29
_symmetry_space_group_name_H-M   'P 1'
_cell_length_a   8.60898400
_cell_length_b   9.16356400
_cell_length_c   18.76149353
_cell_angle_alpha   63.11578168
_cell_angle_beta   90.00000000
_cell_angle_gamma   90.00000000
_symmetry_Int_Tables_number   1
_chemical_formula_structural   CuNi2C29
_chemical_formula_sum   'Cu4 Ni8 C116'
_cell_volume   1320.11163423
_cell_formula_units_Z   4
loop_
 _symmetry_equiv_pos_site_id
 _symmetry_equiv_pos_as_xyz
  1  'x, y, z'
loop_
 _atom_site_type_symbol
 _atom_site_label
 _atom_site_symmetry_multiplicity
 _atom_site_fract_x
 _atom_site_fract_y
 _atom_site_fract_z
 _atom_site_occupancy
  C  C0  1  0.82430400  0.52761500  0.37218000  1
  C  C1  1  0.67569600  0.52761500  0.87218000  1
  C  C2  1  0.17569600  0.47238500  0.62782000  1
  C  C3  1  0.32430400  0.47238500  0.12782000  1
  C  C4  1  0.03927600  0.83871200  0.32733800  1
  C  C5  1  0.46072400  0.83871200  0.82733800  1
  C  C6  1  0.96072400  0.16128800  0.67266200  1
  C  C7  1  0.53927600  0.16128800  0.17266200  1
  C  C8  1  0.67522300  0.94441400  0.43773200  1
  C  C9  1  0.82477700  0.94441400  0.93773200  1
  C  C10  1  0.32477700  0.05558600  0.56226800  1
  C  C11  1  0.17522300  0.05558600  0.06226800  1
  C  C12  1  0.92450200  0.72021900  0.48074200  1
  C  C13  1  0.57549800  0.72021900  0.98074200  1
  C  C14  1  0.07549800  0.27978100  0.51925800  1
  C  C15  1  0.42450200  0.27978100  0.01925800  1
  C  C16  1  0.54225600  0.22448300  0.43907100  1
  C  C17  1  0.95774400  0.22448300  0.93907100  1
  C  C18  1  0.45774400  0.77551700  0.56092900  1
  C  C19  1  0.04225600  0.77551700  0.06092900  1
  C  C20  1  0.73092000  0.93715100  0.29177900  1
  C  C21  1  0.76908000  0.93715100  0.79177900  1
  C  C22  1  0.26908000  0.06284900  0.70822100  1
  C  C23  1  0.23092000  0.06284900  0.20822100  1
  C  C24  1  0.08702500  0.68158300  0.27738600  1
  C  C25  1  0.41297500  0.68158300  0.77738600  1
  C  C26  1  0.91297500  0.31841700  0.72261400  1
  C  C27  1  0.58702500  0.31841700  0.22261400  1
  C  C28  1  0.39633800  0.34159300  0.32962300  1
  C  C29  1  0.10366200  0.34159300  0.82962300  1
  C  C30  1  0.60366200  0.65840700  0.67037700  1
  C  C31  1  0.89633800  0.65840700  0.17037700  1
  C  C32  1  0.00374700  0.92229300  0.62634500  1
  C  C33  1  0.49625300  0.92229300  0.12634500  1
  C  C34  1  0.99625300  0.07770700  0.37365500  1
  C  C35  1  0.50374700  0.07770700  0.87365500  1
  C  C36  1  0.81637700  0.89446700  0.61310600  1
  C  C37  1  0.68362300  0.89446700  0.11310600  1
  C  C38  1  0.18362300  0.10553300  0.38689400  1
  C  C39  1  0.31637700  0.10553300  0.88689400  1
  C  C40  1  0.94835600  0.75486500  0.61666200  1
  C  C41  1  0.55164400  0.75486500  0.11666200  1
  C  C42  1  0.05164400  0.24513500  0.38333800  1
  C  C43  1  0.44835600  0.24513500  0.88333800  1
  C  C44  1  0.90092100  0.77890400  0.70131200  1
  C  C45  1  0.59907900  0.77890400  0.20131200  1
  C  C46  1  0.09907900  0.22109600  0.29868800  1
  C  C47  1  0.40092100  0.22109600  0.79868800  1
  C  C48  1  0.42827000  0.71395800  0.42448300  1
  C  C49  1  0.07173000  0.71395800  0.92448300  1
  C  C50  1  0.57173000  0.28604200  0.57551700  1
  C  C51  1  0.92827000  0.28604200  0.07551700  1
  C  C52  1  0.47427600  0.56524500  0.39863900  1
  C  C53  1  0.02572400  0.56524500  0.89863900  1
  C  C54  1  0.52572400  0.43475500  0.60136100  1
  C  C55  1  0.97427600  0.43475500  0.10136100  1
  C  C56  1  0.30280000  0.55664100  0.44603200  1
  C  C57  1  0.19720000  0.55664100  0.94603200  1
  C  C58  1  0.69720000  0.44335900  0.55396800  1
  C  C59  1  0.80280000  0.44335900  0.05396800  1
  C  C60  1  0.33173000  0.70158500  0.35011700  1
  C  C61  1  0.16827000  0.70158500  0.85011700  1
  C  C62  1  0.66827000  0.29841500  0.64988300  1
  C  C63  1  0.83173000  0.29841500  0.14988300  1
  Ni  Ni64  1  0.91752800  0.83634700  0.63988400  1
  Ni  Ni65  1  0.58247200  0.83634700  0.13988400  1
  Ni  Ni66  1  0.08247200  0.16365300  0.36011600  1
  Ni  Ni67  1  0.41752800  0.16365300  0.86011600  1
  Ni  Ni68  1  0.38386800  0.63416800  0.40464900  1
  Ni  Ni69  1  0.11613200  0.63416800  0.90464900  1
  Ni  Ni70  1  0.61613200  0.36583200  0.59535100  1
  Ni  Ni71  1  0.88386800  0.36583200  0.09535100  1
  Cu  Cu72  1  0.81087000  0.45387000  0.25510400  1
  Cu  Cu73  1  0.68913000  0.45387000  0.75510400  1
  Cu  Cu74  1  0.18913000  0.54613000  0.74489600  1
  Cu  Cu75  1  0.31087000  0.54613000  0.24489600  1
  C  C76  1  0.68737900  0.07808000  0.20772400  1
  C  C77  1  0.81262100  0.07808000  0.70772400  1
  C  C78  1  0.31262100  0.92192000  0.79227600  1
  C  C79  1  0.18737900  0.92192000  0.29227600  1
  C  C80  1  0.05473000  0.78826000  0.41429100  1
  C  C81  1  0.44527000  0.78826000  0.91429100  1
  C  C82  1  0.94527000  0.21174000  0.58570900  1
  C  C83  1  0.55473000  0.21174000  0.08570900  1
  C  C84  1  0.82782500  0.87715100  0.46958800  1
  C  C85  1  0.67217500  0.87715100  0.96958800  1
  C  C86  1  0.17217500  0.12284900  0.53041200  1
  C  C87  1  0.32782500  0.12284900  0.03041200  1
  C  C88  1  0.45526000  0.17008000  0.52066700  1
  C  C89  1  0.04474000  0.17008000  0.02066700  1
  C  C90  1  0.54474000  0.82992000  0.47933300  1
  C  C91  1  0.95526000  0.82992000  0.97933300  1
  C  C92  1  0.66606000  0.09337000  0.44987500  1
  C  C93  1  0.83394000  0.09337000  0.94987500  1
  C  C94  1  0.33394000  0.90663000  0.55012500  1
  C  C95  1  0.16606000  0.90663000  0.05012500  1
  C  C96  1  0.65502300  0.98866600  0.35260900  1
  C  C97  1  0.84497700  0.98866600  0.85260900  1
  C  C98  1  0.34497700  0.01133400  0.64739100  1
  C  C99  1  0.15502300  0.01133400  0.14739100  1
  C  C100  1  0.91063300  0.96025600  0.29380500  1
  C  C101  1  0.58936700  0.96025600  0.79380500  1
  C  C102  1  0.08936700  0.03974400  0.70619500  1
  C  C103  1  0.41063300  0.03974400  0.20619500  1
  C  C104  1  0.81900100  0.59849400  0.46955100  1
  C  C105  1  0.68099900  0.59849400  0.96955100  1
  C  C106  1  0.18099900  0.40150600  0.53044900  1
  C  C107  1  0.31900100  0.40150600  0.03044900  1
  C  C108  1  0.00392600  0.65903700  0.56175100  1
  C  C109  1  0.49607400  0.65903700  0.06175100  1
  C  C110  1  0.99607400  0.34096300  0.43824900  1
  C  C111  1  0.50392600  0.34096300  0.93824900  1
  C  C112  1  0.61444400  0.38814100  0.41923200  1
  C  C113  1  0.88555600  0.38814100  0.91923200  1
  C  C114  1  0.38555600  0.61185900  0.58076800  1
  C  C115  1  0.11444400  0.61185900  0.08076800  1
  C  C116  1  0.68340800  0.76925300  0.30298900  1
  C  C117  1  0.81659200  0.76925300  0.80298900  1
  C  C118  1  0.31659200  0.23074700  0.69701100  1
  C  C119  1  0.18340800  0.23074700  0.19701100  1
  C  C120  1  0.01558000  0.69614900  0.31410500  1
  C  C121  1  0.48442000  0.69614900  0.81410500  1
  C  C122  1  0.98442000  0.30385100  0.68589500  1
  C  C123  1  0.51558000  0.30385100  0.18589500  1
  C  C124  1  0.42127900  0.22906100  0.37484500  1
  C  C125  1  0.07872100  0.22906100  0.87484500  1
  C  C126  1  0.57872100  0.77093900  0.62515500  1
  C  C127  1  0.92127900  0.77093900  0.12515500  1
