# generated using pymatgen
data_Cu2NiC8
_symmetry_space_group_name_H-M   'P 1'
_cell_length_a   9.78207700
_cell_length_b   7.45339800
_cell_length_c   8.16213504
_cell_angle_alpha   72.88945936
_cell_angle_beta   90.00000000
_cell_angle_gamma   90.00000000
_symmetry_Int_Tables_number   1
_chemical_formula_structural   Cu2NiC8
_chemical_formula_sum   'Cu8 Ni4 C32'
_cell_volume   568.75919400
_cell_formula_units_Z   4
loop_
 _symmetry_equiv_pos_site_id
 _symmetry_equiv_pos_as_xyz
  1  'x, y, z'
loop_
 _atom_site_type_symbol
 _atom_site_label
 _atom_site_symmetry_multiplicity
 _atom_site_fract_x
 _atom_site_fract_y
 _atom_site_fract_z
 _atom_site_occupancy
  C  C0  1  0.81795100  0.18091600  0.44182700  1
  C  C1  1  0.31795100  0.81908400  0.05817300  1
  C  C2  1  0.18204900  0.81908400  0.55817300  1
  C  C3  1  0.68204900  0.18091600  0.94182700  1
  Ni  Ni4  1  0.10042400  0.23852600  0.74063300  1
  Ni  Ni5  1  0.60042400  0.76147400  0.75936700  1
  Ni  Ni6  1  0.89957600  0.76147400  0.25936700  1
  Ni  Ni7  1  0.39957600  0.23852600  0.24063300  1
  Cu  Cu8  1  0.40301300  0.12642600  0.66864800  1
  Cu  Cu9  1  0.90301300  0.87357400  0.83135200  1
  Cu  Cu10  1  0.59698700  0.87357400  0.33135200  1
  Cu  Cu11  1  0.09698700  0.12642600  0.16864800  1
  Cu  Cu12  1  0.13078300  0.43417400  0.31166700  1
  Cu  Cu13  1  0.63078300  0.56582600  0.18833300  1
  Cu  Cu14  1  0.86921700  0.56582600  0.68833300  1
  Cu  Cu15  1  0.36921700  0.43417400  0.81166700  1
  C  C16  1  0.28085000  0.44282800  0.25428700  1
  C  C17  1  0.78085000  0.55717200  0.24571300  1
  C  C18  1  0.71915000  0.55717200  0.74571300  1
  C  C19  1  0.21915000  0.44282800  0.75428700  1
  C  C20  1  0.99911000  0.97768000  0.27555400  1
  C  C21  1  0.49911000  0.02232000  0.22444600  1
  C  C22  1  0.00089000  0.02232000  0.72444600  1
  C  C23  1  0.50089000  0.97768000  0.77555400  1
  C  C24  1  0.10423700  0.32259900  0.49694500  1
  C  C25  1  0.60423700  0.67740100  0.00305500  1
  C  C26  1  0.89576300  0.67740100  0.50305500  1
  C  C27  1  0.39576300  0.32259900  0.99694500  1
  C  C28  1  0.09195100  0.15017000  0.97957000  1
  C  C29  1  0.59195100  0.84983000  0.52043000  1
  C  C30  1  0.90804900  0.84983000  0.02043000  1
  C  C31  1  0.40804900  0.15017000  0.47957000  1
  C  C32  1  0.04674700  0.32321500  0.19731300  1
  C  C33  1  0.54674700  0.67678500  0.30268700  1
  C  C34  1  0.95325300  0.67678500  0.80268700  1
  C  C35  1  0.45325300  0.32321500  0.69731300  1
  C  C36  1  0.25904900  0.08552400  0.74524000  1
  C  C37  1  0.75904900  0.91447600  0.75476000  1
  C  C38  1  0.74095100  0.91447600  0.25476000  1
  C  C39  1  0.24095100  0.08552400  0.24524000  1
  C  C40  1  0.43058200  0.63122800  0.76129100  1
  C  C41  1  0.93058200  0.36877200  0.73870900  1
  C  C42  1  0.56941800  0.36877200  0.23870900  1
  C  C43  1  0.06941800  0.63122800  0.26129100  1
