# generated using pymatgen
data_CuNiC7
_symmetry_space_group_name_H-M   'P 1'
_cell_length_a   4.02652300
_cell_length_b   4.02652300
_cell_length_c   7.89682200
_cell_angle_alpha   90.00000000
_cell_angle_beta   90.00000000
_cell_angle_gamma   90.00000000
_symmetry_Int_Tables_number   1
_chemical_formula_structural   CuNiC7
_chemical_formula_sum   'Cu1 Ni1 C7'
_cell_volume   128.03028645
_cell_formula_units_Z   1
loop_
 _symmetry_equiv_pos_site_id
 _symmetry_equiv_pos_as_xyz
  1  'x, y, z'
loop_
 _atom_site_type_symbol
 _atom_site_label
 _atom_site_symmetry_multiplicity
 _atom_site_fract_x
 _atom_site_fract_y
 _atom_site_fract_z
 _atom_site_occupancy
  C  C0  1  0.00000000  0.00000000  0.99494000  1
  C  C1  1  0.00000000  0.00000000  0.44264800  1
  Ni  Ni2  1  0.50000000  0.50000000  0.27011700  1
  Cu  Cu3  1  0.50000000  0.50000000  0.68553000  1
  C  C4  1  0.00000000  0.50000000  0.64301900  1
  C  C5  1  0.50000000  0.00000000  0.64301900  1
  C  C6  1  0.00000000  0.50000000  0.28256600  1
  C  C7  1  0.50000000  0.00000000  0.28256600  1
  C  C8  1  0.50000000  0.50000000  0.94351100  1
