# generated using pymatgen
data_Cu(NiC6)2
_symmetry_space_group_name_H-M   'P 1'
_cell_length_a   7.19555100
_cell_length_b   7.50631900
_cell_length_c   10.44873500
_cell_angle_alpha   90.00000000
_cell_angle_beta   90.00000000
_cell_angle_gamma   90.00000000
_symmetry_Int_Tables_number   1
_chemical_formula_structural   Cu(NiC6)2
_chemical_formula_sum   'Cu2 Ni4 C24'
_cell_volume   564.35813209
_cell_formula_units_Z   2
loop_
 _symmetry_equiv_pos_site_id
 _symmetry_equiv_pos_as_xyz
  1  'x, y, z'
loop_
 _atom_site_type_symbol
 _atom_site_label
 _atom_site_symmetry_multiplicity
 _atom_site_fract_x
 _atom_site_fract_y
 _atom_site_fract_z
 _atom_site_occupancy
  C  C0  1  0.00000000  0.68503300  0.00000000  1
  C  C1  1  0.50000000  0.31496700  0.50000000  1
  C  C2  1  0.25000000  0.00000000  0.75000000  1
  C  C3  1  0.25000000  0.00000000  0.25000000  1
  C  C4  1  0.75000000  0.00000000  0.75000000  1
  C  C5  1  0.50000000  0.82744900  0.50000000  1
  C  C6  1  0.00000000  0.17255100  0.00000000  1
  C  C7  1  0.75000000  0.00000000  0.25000000  1
  Ni  Ni8  1  0.50000000  0.56892800  0.81993600  1
  Ni  Ni9  1  0.00000000  0.43107200  0.68006400  1
  Ni  Ni10  1  0.50000000  0.56892800  0.18006400  1
  Ni  Ni11  1  0.00000000  0.43107200  0.31993600  1
  Cu  Cu12  1  0.00000000  0.87163400  0.50000000  1
  Cu  Cu13  1  0.50000000  0.12836600  0.00000000  1
  C  C14  1  0.00000000  0.93381800  0.87594200  1
  C  C15  1  0.00000000  0.44480700  0.84841800  1
  C  C16  1  0.50000000  0.55519300  0.34841800  1
  C  C17  1  0.31097800  0.70733700  0.84824000  1
  C  C18  1  0.18902200  0.29266300  0.34824000  1
  C  C19  1  0.81097800  0.29266300  0.34824000  1
  C  C20  1  0.50000000  0.06618200  0.62405800  1
  C  C21  1  0.68902200  0.70733700  0.84824000  1
  C  C22  1  0.68902200  0.70733700  0.15176000  1
  C  C23  1  0.81097800  0.29266300  0.65176000  1
  C  C24  1  0.00000000  0.93381800  0.12405800  1
  C  C25  1  0.50000000  0.06618200  0.37594200  1
  C  C26  1  0.18902200  0.29266300  0.65176000  1
  C  C27  1  0.31097800  0.70733700  0.15176000  1
  C  C28  1  0.50000000  0.55519300  0.65158200  1
  C  C29  1  0.00000000  0.44480700  0.15158200  1
