# generated using pymatgen
data_CuNiC18
_symmetry_space_group_name_H-M   'P 1'
_cell_length_a   5.12159300
_cell_length_b   5.55251489
_cell_length_c   8.87963706
_cell_angle_alpha   105.39338494
_cell_angle_beta   90.00922061
_cell_angle_gamma   117.41520184
_symmetry_Int_Tables_number   1
_chemical_formula_structural   CuNiC18
_chemical_formula_sum   'Cu1 Ni1 C18'
_cell_volume   213.89501382
_cell_formula_units_Z   1
loop_
 _symmetry_equiv_pos_site_id
 _symmetry_equiv_pos_as_xyz
  1  'x, y, z'
loop_
 _atom_site_type_symbol
 _atom_site_label
 _atom_site_symmetry_multiplicity
 _atom_site_fract_x
 _atom_site_fract_y
 _atom_site_fract_z
 _atom_site_occupancy
  Ni  Ni0  1  0.53246300  0.88451900  0.17998900  1
  C  C1  1  0.71472300  0.86426300  0.57072000  1
  C  C2  1  0.21968000  0.36006600  0.07396700  1
  C  C3  1  0.78342600  0.63561600  0.93129900  1
  C  C4  1  0.28250300  0.14079300  0.42407400  1
  C  C5  1  0.46245300  0.10604500  0.81957400  1
  Cu  Cu6  1  0.03986700  0.40168200  0.67766500  1
  C  C7  1  0.97283700  0.61988900  0.32467000  1
  C  C8  1  0.50880100  0.45754900  0.28136500  1
  C  C9  1  0.99422600  0.95219100  0.78086800  1
  C  C10  1  0.03653600  0.26213200  0.47223600  1
  C  C11  1  0.54052800  0.75694600  0.98130100  1
  C  C12  1  0.06468700  0.62570200  0.11411600  1
  C  C13  1  0.56241400  0.12565000  0.60633100  1
  C  C14  1  0.99309000  0.04047700  0.21840300  1
  C  C15  1  0.49253600  0.54654900  0.71777100  1
  C  C16  1  0.46381100  0.23613400  0.02758600  1
  C  C17  1  0.95910100  0.73558200  0.52301600  1
  C  C18  1  0.43368800  0.87001300  0.38663200  1
  C  C19  1  0.94263000  0.37820000  0.88842000  1
