# generated using pymatgen
data_CuNi2C7
_symmetry_space_group_name_H-M   'P 1'
_cell_length_a   6.10021287
_cell_length_b   25.24076746
_cell_length_c   6.10021287
_cell_angle_alpha   83.23092966
_cell_angle_beta   120.34890467
_cell_angle_gamma   96.76907034
_symmetry_Int_Tables_number   1
_chemical_formula_structural   CuNi2C7
_chemical_formula_sum   'Cu5 Ni10 C35'
_cell_volume   803.04472902
_cell_formula_units_Z   5
loop_
 _symmetry_equiv_pos_site_id
 _symmetry_equiv_pos_as_xyz
  1  'x, y, z'
loop_
 _atom_site_type_symbol
 _atom_site_label
 _atom_site_symmetry_multiplicity
 _atom_site_fract_x
 _atom_site_fract_y
 _atom_site_fract_z
 _atom_site_occupancy
  Ni  Ni0  1  0.24807800  0.25194000  0.75192200  1
  Ni  Ni1  1  0.64765900  0.45092000  0.35234100  1
  Ni  Ni2  1  0.04768200  0.65093600  0.95231800  1
  Ni  Ni3  1  0.44753600  0.85062000  0.55246400  1
  Ni  Ni4  1  0.84759800  0.05013700  0.15240200  1
  Ni  Ni5  1  0.95246400  0.34938000  0.04753600  1
  Ni  Ni6  1  0.35231800  0.54906400  0.64768200  1
  Ni  Ni7  1  0.75234100  0.74908000  0.24765900  1
  Ni  Ni8  1  0.15192200  0.94806000  0.84807800  1
  Ni  Ni9  1  0.55240200  0.14986300  0.44759800  1
  Cu  Cu10  1  0.29998100  0.40008900  0.70001900  1
  Cu  Cu11  1  0.70000000  0.60000000  0.30000000  1
  Cu  Cu12  1  0.10001900  0.79991100  0.89998100  1
  Cu  Cu13  1  0.50014100  0.00007300  0.49985900  1
  Cu  Cu14  1  0.89985900  0.19992700  0.10014100  1
  C  C15  1  0.20000000  0.10000000  0.80000000  1
  C  C16  1  0.59991500  0.29975100  0.40008500  1
  C  C17  1  0.00002400  0.49993500  0.99997600  1
  C  C18  1  0.39997600  0.70006500  0.60002400  1
  C  C19  1  0.80008500  0.90024900  0.19991500  1
  C  C20  1  0.45932500  0.34545000  0.07783300  1
  C  C21  1  0.85947200  0.54562300  0.67798200  1
  C  C22  1  0.25962100  0.74561200  0.27827900  1
  C  C23  1  0.65966100  0.94588000  0.87808200  1
  C  C24  1  0.05973600  0.14543400  0.47774200  1
  C  C25  1  0.92216700  0.34545000  0.54067500  1
  C  C26  1  0.32201800  0.54562300  0.14052800  1
  C  C27  1  0.72172100  0.74561200  0.74037900  1
  C  C28  1  0.12191800  0.94588000  0.34033900  1
  C  C29  1  0.52225800  0.14543400  0.94026400  1
  C  C30  1  0.74033900  0.25412000  0.72191800  1
  C  C31  1  0.14037900  0.45438800  0.32172100  1
  C  C32  1  0.54052800  0.65437700  0.92201800  1
  C  C33  1  0.94067500  0.85455000  0.52216700  1
  C  C34  1  0.34026400  0.05456600  0.12225800  1
  C  C35  1  0.27808200  0.25412000  0.25966100  1
  C  C36  1  0.67827900  0.45438800  0.85962100  1
  C  C37  1  0.07798200  0.65437700  0.45947200  1
  C  C38  1  0.47783300  0.85455000  0.05932500  1
  C  C39  1  0.87774200  0.05456600  0.65973600  1
  C  C40  1  0.13806800  0.45442600  0.86193200  1
  C  C41  1  0.53825200  0.65441200  0.46174800  1
  C  C42  1  0.93836200  0.85457800  0.06163800  1
  C  C43  1  0.33849100  0.05462900  0.66150900  1
  C  C44  1  0.73805600  0.25415800  0.26194400  1
  C  C45  1  0.06150900  0.14537100  0.93849100  1
  C  C46  1  0.46163800  0.34542200  0.53836200  1
  C  C47  1  0.86174800  0.54558800  0.13825200  1
  C  C48  1  0.26193200  0.74557400  0.73806800  1
  C  C49  1  0.66194400  0.94584200  0.33805600  1
