# generated using pymatgen
data_Cu2NiC8
_symmetry_space_group_name_H-M   'P 1'
_cell_length_a   6.93589773
_cell_length_b   6.93589773
_cell_length_c   3.98116400
_cell_angle_alpha   90.00000000
_cell_angle_beta   90.00000000
_cell_angle_gamma   115.11750058
_symmetry_Int_Tables_number   1
_chemical_formula_structural   Cu2NiC8
_chemical_formula_sum   'Cu2 Ni1 C8'
_cell_volume   173.41023123
_cell_formula_units_Z   1
loop_
 _symmetry_equiv_pos_site_id
 _symmetry_equiv_pos_as_xyz
  1  'x, y, z'
loop_
 _atom_site_type_symbol
 _atom_site_label
 _atom_site_symmetry_multiplicity
 _atom_site_fract_x
 _atom_site_fract_y
 _atom_site_fract_z
 _atom_site_occupancy
  Ni  Ni0  1  0.99538800  0.00461200  0.00000000  1
  Cu  Cu1  1  0.49732500  0.00319100  0.50000000  1
  Cu  Cu2  1  0.99680900  0.50267500  0.50000000  1
  C  C3  1  0.66164900  0.33835100  0.50000000  1
  C  C4  1  0.33255400  0.66744600  0.50000000  1
  C  C5  1  0.55545900  0.44454100  0.00000000  1
  C  C6  1  0.69590000  0.93898700  0.00000000  1
  C  C7  1  0.29794700  0.06571600  0.00000000  1
  C  C8  1  0.93428400  0.70205300  0.00000000  1
  C  C9  1  0.06101300  0.30410000  0.00000000  1
  C  C10  1  0.99877100  0.00122900  0.50000000  1
