# generated using pymatgen
data_Cu5(NiC)2
_symmetry_space_group_name_H-M   'P 1'
_cell_length_a   7.72822300
_cell_length_b   10.91863400
_cell_length_c   16.70794300
_cell_angle_alpha   90.00000000
_cell_angle_beta   90.00000000
_cell_angle_gamma   90.00000000
_symmetry_Int_Tables_number   1
_chemical_formula_structural   Cu5(NiC)2
_chemical_formula_sum   'Cu20 Ni8 C8'
_cell_volume   1409.84360476
_cell_formula_units_Z   4
loop_
 _symmetry_equiv_pos_site_id
 _symmetry_equiv_pos_as_xyz
  1  'x, y, z'
loop_
 _atom_site_type_symbol
 _atom_site_label
 _atom_site_symmetry_multiplicity
 _atom_site_fract_x
 _atom_site_fract_y
 _atom_site_fract_z
 _atom_site_occupancy
  C  C0  1  0.73931400  0.75000000  0.64641200  1
  C  C1  1  0.26068600  0.25000000  0.35358800  1
  C  C2  1  0.23931400  0.25000000  0.85358800  1
  C  C3  1  0.76068600  0.75000000  0.14641200  1
  Ni  Ni4  1  0.84268100  0.49236600  0.85842000  1
  Ni  Ni5  1  0.15731900  0.50763400  0.14158000  1
  Ni  Ni6  1  0.34268100  0.50763400  0.64158000  1
  Ni  Ni7  1  0.15731900  0.99236600  0.14158000  1
  Ni  Ni8  1  0.65731900  0.49236600  0.35842000  1
  Ni  Ni9  1  0.84268100  0.00763400  0.85842000  1
  Ni  Ni10  1  0.65731900  0.00763400  0.35842000  1
  Ni  Ni11  1  0.34268100  0.99236600  0.64158000  1
  Cu  Cu12  1  0.63201800  0.75000000  0.51255000  1
  Cu  Cu13  1  0.36798200  0.25000000  0.48745000  1
  Cu  Cu14  1  0.13201800  0.25000000  0.98745000  1
  Cu  Cu15  1  0.86798200  0.75000000  0.01255000  1
  Cu  Cu16  1  0.04485800  0.75000000  0.67268100  1
  Cu  Cu17  1  0.95514200  0.25000000  0.32731900  1
  Cu  Cu18  1  0.54485800  0.25000000  0.82731900  1
  Cu  Cu19  1  0.45514200  0.75000000  0.17268100  1
  Cu  Cu20  1  0.83317200  0.38132900  0.56805000  1
  Cu  Cu21  1  0.16682800  0.61867100  0.43195000  1
  Cu  Cu22  1  0.33317200  0.61867100  0.93195000  1
  Cu  Cu23  1  0.16682800  0.88132900  0.43195000  1
  Cu  Cu24  1  0.66682800  0.38132900  0.06805000  1
  Cu  Cu25  1  0.83317200  0.11867100  0.56805000  1
  Cu  Cu26  1  0.66682800  0.11867100  0.06805000  1
  Cu  Cu27  1  0.33317200  0.88132900  0.93195000  1
  Cu  Cu28  1  0.55872300  0.75000000  0.76326600  1
  Cu  Cu29  1  0.44127700  0.25000000  0.23673400  1
  Cu  Cu30  1  0.05872300  0.25000000  0.73673400  1
  Cu  Cu31  1  0.94127700  0.75000000  0.26326600  1
  C  C32  1  0.13399700  0.75000000  0.48637200  1
  C  C33  1  0.86600300  0.25000000  0.51362800  1
  C  C34  1  0.63399700  0.25000000  0.01362800  1
  C  C35  1  0.36600300  0.75000000  0.98637200  1
