# generated using pymatgen
data_Cu3(NiC10)2
_symmetry_space_group_name_H-M   'P 1'
_cell_length_a   5.45175574
_cell_length_b   5.54668617
_cell_length_c   39.05695995
_cell_angle_alpha   89.96108677
_cell_angle_beta   90.05068239
_cell_angle_gamma   90.00573792
_symmetry_Int_Tables_number   1
_chemical_formula_structural   Cu3(NiC10)2
_chemical_formula_sum   'Cu12 Ni8 C80'
_cell_volume   1181.04962947
_cell_formula_units_Z   4
loop_
 _symmetry_equiv_pos_site_id
 _symmetry_equiv_pos_as_xyz
  1  'x, y, z'
loop_
 _atom_site_type_symbol
 _atom_site_label
 _atom_site_symmetry_multiplicity
 _atom_site_fract_x
 _atom_site_fract_y
 _atom_site_fract_z
 _atom_site_occupancy
  C  C0  1  0.00543100  0.97375600  0.34714500  1
  C  C1  1  0.00417800  0.97396700  0.55013600  1
  C  C2  1  0.00397300  0.97407000  0.75033800  1
  C  C3  1  0.00345000  0.97676000  0.95106400  1
  C  C4  1  0.49793900  0.47868300  0.14818100  1
  C  C5  1  0.49649400  0.48161300  0.55014600  1
  C  C6  1  0.49708800  0.48164900  0.75039400  1
  C  C7  1  0.49696300  0.48258800  0.95106500  1
  C  C8  1  0.00578600  0.95803900  0.14813200  1
  C  C9  1  0.49809600  0.46572600  0.34689100  1
  C  C10  1  0.50902100  0.54293400  0.05248400  1
  C  C11  1  0.50708700  0.54082700  0.25205200  1
  C  C12  1  0.50870500  0.53897900  0.65027500  1
  C  C13  1  0.50655400  0.53734900  0.45009900  1
  C  C14  1  0.50864500  0.53944400  0.85061200  1
  C  C15  1  0.99123200  0.04889500  0.25196700  1
  C  C16  1  0.98986600  0.04747600  0.05202500  1
  C  C17  1  0.98973900  0.05256000  0.45027400  1
  C  C18  1  0.98895300  0.05121100  0.65028000  1
  C  C19  1  0.98992300  0.05072200  0.85057900  1
  Ni  Ni20  1  0.49465800  0.00401500  0.50019400  1
  Ni  Ni21  1  0.49623500  0.00530000  0.90156300  1
  Ni  Ni22  1  0.49506200  0.00449300  0.70087300  1
  Ni  Ni23  1  0.49431900  0.01000500  0.00077000  1
  Ni  Ni24  1  0.50010500  0.00735100  0.19947700  1
  Ni  Ni25  1  0.49700200  0.00194700  0.39770000  1
  Ni  Ni26  1  0.49506100  0.00806600  0.59874200  1
  Ni  Ni27  1  0.49496900  0.00835000  0.79942100  1
  Cu  Cu28  1  0.00809400  0.51459000  0.00149400  1
  Cu  Cu29  1  0.00549600  0.51449100  0.10152500  1
  Cu  Cu30  1  0.00814500  0.50468700  0.20001000  1
  Cu  Cu31  1  0.00038500  0.51824300  0.30129800  1
  Cu  Cu32  1  0.00367800  0.51111500  0.40079100  1
  Cu  Cu33  1  0.99692000  0.51000400  0.50350200  1
  Cu  Cu34  1  0.00889000  0.51373200  0.60173800  1
  Cu  Cu35  1  0.99748000  0.50993500  0.70397400  1
  Cu  Cu36  1  0.00904100  0.51393700  0.80200800  1
  Cu  Cu37  1  0.99917800  0.51086800  0.90389000  1
  Cu  Cu38  1  0.49742700  0.01864400  0.10057900  1
  Cu  Cu39  1  0.49434600  0.01190300  0.29941400  1
  C  C40  1  0.07513800  0.47869300  0.04992100  1
  C  C41  1  0.07402800  0.47830600  0.24889900  1
  C  C42  1  0.07747000  0.47776800  0.44750000  1
  C  C43  1  0.07738200  0.47884600  0.64821500  1
  C  C44  1  0.07632500  0.47879200  0.84864000  1
  C  C45  1  0.20941100  0.20259400  0.39219300  1
  C  C46  1  0.20417600  0.20134000  0.59347500  1
  C  C47  1  0.19335600  0.19466100  0.19288700  1
  C  C48  1  0.20303600  0.20041500  0.79390000  1
  C  C49  1  0.20664100  0.19947200  0.10643300  1
  C  C50  1  0.22227500  0.21084500  0.30596100  1
  C  C51  1  0.20471300  0.20377800  0.50492100  1
  C  C52  1  0.20284200  0.20174200  0.99458300  1
  C  C53  1  0.20464800  0.20337300  0.70520100  1
  C  C54  1  0.20444700  0.20271400  0.90541800  1
  C  C55  1  0.28206800  0.71000000  0.10676800  1
  C  C56  1  0.28868700  0.70531100  0.19285200  1
  C  C57  1  0.29505700  0.70383200  0.30608900  1
  C  C58  1  0.30667000  0.69344500  0.39202500  1
  C  C59  1  0.29483200  0.70258900  0.59341400  1
  C  C60  1  0.29384800  0.70107400  0.90563000  1
  C  C61  1  0.29361600  0.70223100  0.70554300  1
  C  C62  1  0.29518600  0.70149400  0.79381300  1
  C  C63  1  0.29297200  0.70241200  0.50524100  1
  C  C64  1  0.29332800  0.70115800  0.99445000  1
  C  C65  1  0.42387500  0.97544800  0.05056000  1
  C  C66  1  0.42174400  0.97725000  0.24986800  1
  C  C67  1  0.42075100  0.97663500  0.64959600  1
  C  C68  1  0.41990600  0.97609300  0.44909600  1
  C  C69  1  0.42185800  0.97628300  0.84995900  1
  C  C70  1  0.57465800  0.01533400  0.34923400  1
  C  C71  1  0.57483200  0.01697500  0.15005300  1
  C  C72  1  0.57478800  0.01499900  0.54945500  1
  C  C73  1  0.57407700  0.01466100  0.74971300  1
  C  C74  1  0.57184500  0.01305900  0.95037600  1
  C  C75  1  0.71000200  0.28241000  0.00977300  1
  C  C76  1  0.71052200  0.27535300  0.09120800  1
  C  C77  1  0.71242300  0.28068900  0.29204900  1
  C  C78  1  0.70227200  0.28904000  0.20961500  1
  C  C79  1  0.71039000  0.28083800  0.60909700  1
  C  C80  1  0.70883100  0.28657900  0.40773700  1
  C  C81  1  0.71268200  0.27969800  0.48974600  1
  C  C82  1  0.71256200  0.28004500  0.69019100  1
  C  C83  1  0.70974400  0.28135300  0.80931100  1
  C  C84  1  0.71265600  0.27976600  0.89057100  1
  C  C85  1  0.78738600  0.78070200  0.09262900  1
  C  C86  1  0.78888400  0.78033400  0.00946100  1
  C  C87  1  0.78614300  0.78029800  0.69036000  1
  C  C88  1  0.79137800  0.79051000  0.20780000  1
  C  C89  1  0.78701900  0.77838000  0.29066600  1
  C  C90  1  0.78558500  0.78006600  0.49005400  1
  C  C91  1  0.79422600  0.78611600  0.40891300  1
  C  C92  1  0.78706400  0.78122200  0.60887700  1
  C  C93  1  0.78674700  0.77975600  0.89073700  1
  C  C94  1  0.78777400  0.78122900  0.80907200  1
  C  C95  1  0.93453500  0.51522400  0.15020600  1
  C  C96  1  0.92978500  0.51525400  0.34922200  1
  C  C97  1  0.93394900  0.51439200  0.54887700  1
  C  C98  1  0.93479900  0.51431900  0.74912800  1
  C  C99  1  0.93653600  0.51388300  0.94971200  1
