# generated using pymatgen
data_Cu3Ni13C9
_symmetry_space_group_name_H-M   'P 1'
_cell_length_a   6.81775686
_cell_length_b   5.66451033
_cell_length_c   6.94125506
_cell_angle_alpha   88.21382131
_cell_angle_beta   94.77391569
_cell_angle_gamma   88.99887447
_symmetry_Int_Tables_number   1
_chemical_formula_structural   Cu3Ni13C9
_chemical_formula_sum   'Cu3 Ni13 C9'
_cell_volume   266.95214486
_cell_formula_units_Z   1
loop_
 _symmetry_equiv_pos_site_id
 _symmetry_equiv_pos_as_xyz
  1  'x, y, z'
loop_
 _atom_site_type_symbol
 _atom_site_label
 _atom_site_symmetry_multiplicity
 _atom_site_fract_x
 _atom_site_fract_y
 _atom_site_fract_z
 _atom_site_occupancy
  C  C0  1  0.38467000  0.87915900  0.11707700  1
  C  C1  1  0.36313000  0.35878100  0.10604500  1
  C  C2  1  0.12583000  0.66758000  0.37914900  1
  C  C3  1  0.86994500  0.14265600  0.11715400  1
  C  C4  1  0.38654700  0.13023900  0.62952900  1
  C  C5  1  0.10268000  0.84311500  0.84251400  1
  C  C6  1  0.65645500  0.86139000  0.40642000  1
  C  C7  1  0.61255100  0.60640700  0.85434100  1
  C  C8  1  0.88092600  0.34470100  0.63293800  1
  Ni  Ni9  1  0.15291300  0.10647800  0.05805600  1
  Ni  Ni10  1  0.17494700  0.62973200  0.09790600  1
  Ni  Ni11  1  0.56425600  0.59379700  0.12544600  1
  Ni  Ni12  1  0.07159500  0.61183100  0.64398600  1
  Ni  Ni13  1  0.37110300  0.87999900  0.42034800  1
  Ni  Ni14  1  0.09490800  0.10608500  0.65926400  1
  Ni  Ni15  1  0.59355900  0.10745300  0.17999700  1
  Ni  Ni16  1  0.40736100  0.86135800  0.82187000  1
  Ni  Ni17  1  0.66613200  0.11431000  0.58660500  1
  Ni  Ni18  1  0.90833700  0.88627300  0.31642600  1
  Ni  Ni19  1  0.42190000  0.36644300  0.82853900  1
  Ni  Ni20  1  0.67606600  0.59281100  0.59076400  1
  Ni  Ni21  1  0.82582900  0.37231200  0.89685700  1
  Cu  Cu22  1  0.32121300  0.37243700  0.40810500  1
  Cu  Cu23  1  0.92298200  0.37886900  0.35126500  1
  Cu  Cu24  1  0.81416700  0.85244900  0.90939600  1
