# generated using pymatgen
data_Cu27(Ni6C)2
_symmetry_space_group_name_H-M   'P 1'
_cell_length_a   13.76016042
_cell_length_b   13.76016042
_cell_length_c   13.76016042
_cell_angle_alpha   90.00000000
_cell_angle_beta   90.00000000
_cell_angle_gamma   90.00000000
_symmetry_Int_Tables_number   1
_chemical_formula_structural   Cu27(Ni6C)2
_chemical_formula_sum   'Cu108 Ni48 C8'
_cell_volume   2605.37649768
_cell_formula_units_Z   4
loop_
 _symmetry_equiv_pos_site_id
 _symmetry_equiv_pos_as_xyz
  1  'x, y, z'
loop_
 _atom_site_type_symbol
 _atom_site_label
 _atom_site_symmetry_multiplicity
 _atom_site_fract_x
 _atom_site_fract_y
 _atom_site_fract_z
 _atom_site_occupancy
  C  C0  1  0.06081506  0.06081506  0.06081506  1
  C  C1  1  0.43918494  0.93918494  0.56081506  1
  C  C2  1  0.93918494  0.56081506  0.43918494  1
  C  C3  1  0.81081506  0.31081506  0.18918494  1
  C  C4  1  0.56081506  0.43918494  0.93918494  1
  C  C5  1  0.68918494  0.68918494  0.68918494  1
  C  C6  1  0.31081506  0.18918494  0.81081506  1
  C  C7  1  0.18918494  0.81081506  0.31081506  1
  Ni  Ni8  1  0.09767417  0.42288815  0.35963792  1
  Ni  Ni9  1  0.40232583  0.57711185  0.85963792  1
  Ni  Ni10  1  0.90232583  0.92288815  0.14036208  1
  Ni  Ni11  1  0.35963792  0.09767417  0.42288815  1
  Ni  Ni12  1  0.17288815  0.34767417  0.89036208  1
  Ni  Ni13  1  0.59767417  0.07711185  0.64036208  1
  Ni  Ni14  1  0.85963792  0.40232583  0.57711185  1
  Ni  Ni15  1  0.32711185  0.65232583  0.39036208  1
  Ni  Ni16  1  0.14036208  0.90232583  0.92288815  1
  Ni  Ni17  1  0.67288815  0.15232583  0.10963792  1
  Ni  Ni18  1  0.64036208  0.59767417  0.07711185  1
  Ni  Ni19  1  0.82711185  0.84767417  0.60963792  1
  Ni  Ni20  1  0.42288815  0.35963792  0.09767417  1
  Ni  Ni21  1  0.84767417  0.60963792  0.82711185  1
  Ni  Ni22  1  0.92288815  0.14036208  0.90232583  1
  Ni  Ni23  1  0.65232583  0.39036208  0.32711185  1
  Ni  Ni24  1  0.07711185  0.64036208  0.59767417  1
  Ni  Ni25  1  0.34767417  0.89036208  0.17288815  1
  Ni  Ni26  1  0.57711185  0.85963792  0.40232583  1
  Ni  Ni27  1  0.15232583  0.10963792  0.67288815  1
  Ni  Ni28  1  0.89036208  0.17288815  0.34767417  1
  Ni  Ni29  1  0.39036208  0.32711185  0.65232583  1
  Ni  Ni30  1  0.60963792  0.82711185  0.84767417  1
  Ni  Ni31  1  0.10963792  0.67288815  0.15232583  1
  Ni  Ni32  1  0.12500000  0.19877702  0.44877702  1
  Ni  Ni33  1  0.37500000  0.80122298  0.94877702  1
  Ni  Ni34  1  0.87500000  0.69877702  0.05122298  1
  Ni  Ni35  1  0.44877702  0.12500000  0.19877702  1
  Ni  Ni36  1  0.94877702  0.37500000  0.80122298  1
  Ni  Ni37  1  0.62500000  0.30122298  0.55122298  1
  Ni  Ni38  1  0.55122298  0.62500000  0.30122298  1
  Ni  Ni39  1  0.05122298  0.87500000  0.69877702  1
  Ni  Ni40  1  0.19877702  0.44877702  0.12500000  1
  Ni  Ni41  1  0.69877702  0.05122298  0.87500000  1
  Ni  Ni42  1  0.30122298  0.55122298  0.62500000  1
  Ni  Ni43  1  0.80122298  0.94877702  0.37500000  1
  Ni  Ni44  1  0.12500000  0.02103714  0.27103714  1
  Ni  Ni45  1  0.37500000  0.97896286  0.77103714  1
  Ni  Ni46  1  0.87500000  0.52103714  0.22896286  1
  Ni  Ni47  1  0.27103714  0.12500000  0.02103714  1
  Ni  Ni48  1  0.77103714  0.37500000  0.97896286  1
  Ni  Ni49  1  0.62500000  0.47896286  0.72896286  1
  Ni  Ni50  1  0.72896286  0.62500000  0.47896286  1
  Ni  Ni51  1  0.22896286  0.87500000  0.52103714  1
  Ni  Ni52  1  0.02103714  0.27103714  0.12500000  1
  Ni  Ni53  1  0.52103714  0.22896286  0.87500000  1
  Ni  Ni54  1  0.47896286  0.72896286  0.62500000  1
  Ni  Ni55  1  0.97896286  0.77103714  0.37500000  1
  Cu  Cu56  1  0.12500000  0.95376122  0.20376122  1
  Cu  Cu57  1  0.37500000  0.04623878  0.70376122  1
  Cu  Cu58  1  0.87500000  0.45376122  0.29623878  1
  Cu  Cu59  1  0.20376122  0.12500000  0.95376122  1
  Cu  Cu60  1  0.70376122  0.37500000  0.04623878  1
  Cu  Cu61  1  0.62500000  0.54623878  0.79623878  1
  Cu  Cu62  1  0.79623878  0.62500000  0.54623878  1
  Cu  Cu63  1  0.29623878  0.87500000  0.45376122  1
  Cu  Cu64  1  0.95376122  0.20376122  0.12500000  1
  Cu  Cu65  1  0.45376122  0.29623878  0.87500000  1
  Cu  Cu66  1  0.54623878  0.79623878  0.62500000  1
  Cu  Cu67  1  0.04623878  0.70376122  0.37500000  1
  Cu  Cu68  1  0.09597447  0.10374845  0.24809288  1
  Cu  Cu69  1  0.40402553  0.89625155  0.74809288  1
  Cu  Cu70  1  0.90402553  0.60374845  0.25190712  1
  Cu  Cu71  1  0.24809288  0.09597447  0.10374845  1
  Cu  Cu72  1  0.85374845  0.34597447  0.00190712  1
  Cu  Cu73  1  0.59597447  0.39625155  0.75190712  1
  Cu  Cu74  1  0.74809288  0.40402553  0.89625155  1
  Cu  Cu75  1  0.64625155  0.65402553  0.50190712  1
  Cu  Cu76  1  0.25190712  0.90402553  0.60374845  1
  Cu  Cu77  1  0.35374845  0.15402553  0.99809288  1
  Cu  Cu78  1  0.75190712  0.59597447  0.39625155  1
  Cu  Cu79  1  0.14625155  0.84597447  0.49809288  1
  Cu  Cu80  1  0.10374845  0.24809288  0.09597447  1
  Cu  Cu81  1  0.84597447  0.49809288  0.14625155  1
  Cu  Cu82  1  0.60374845  0.25190712  0.90402553  1
  Cu  Cu83  1  0.65402553  0.50190712  0.64625155  1
  Cu  Cu84  1  0.39625155  0.75190712  0.59597447  1
  Cu  Cu85  1  0.34597447  0.00190712  0.85374845  1
  Cu  Cu86  1  0.89625155  0.74809288  0.40402553  1
  Cu  Cu87  1  0.15402553  0.99809288  0.35374845  1
  Cu  Cu88  1  0.00190712  0.85374845  0.34597447  1
  Cu  Cu89  1  0.50190712  0.64625155  0.65402553  1
  Cu  Cu90  1  0.49809288  0.14625155  0.84597447  1
  Cu  Cu91  1  0.99809288  0.35374845  0.15402553  1
  Cu  Cu92  1  0.04886492  0.39953114  0.43432430  1
  Cu  Cu93  1  0.45113508  0.60046886  0.93432430  1
  Cu  Cu94  1  0.95113508  0.89953114  0.06567570  1
  Cu  Cu95  1  0.43432430  0.04886492  0.39953114  1
  Cu  Cu96  1  0.14953114  0.29886492  0.81567570  1
  Cu  Cu97  1  0.54886492  0.10046886  0.56567570  1
  Cu  Cu98  1  0.93432430  0.45113508  0.60046886  1
  Cu  Cu99  1  0.35046886  0.70113508  0.31567570  1
  Cu  Cu100  1  0.06567570  0.95113508  0.89953114  1
  Cu  Cu101  1  0.64953114  0.20113508  0.18432430  1
  Cu  Cu102  1  0.56567570  0.54886492  0.10046886  1
  Cu  Cu103  1  0.85046886  0.79886492  0.68432430  1
  Cu  Cu104  1  0.39953114  0.43432430  0.04886492  1
  Cu  Cu105  1  0.79886492  0.68432430  0.85046886  1
  Cu  Cu106  1  0.89953114  0.06567570  0.95113508  1
  Cu  Cu107  1  0.70113508  0.31567570  0.35046886  1
  Cu  Cu108  1  0.10046886  0.56567570  0.54886492  1
  Cu  Cu109  1  0.29886492  0.81567570  0.14953114  1
  Cu  Cu110  1  0.60046886  0.93432430  0.45113508  1
  Cu  Cu111  1  0.20113508  0.18432430  0.64953114  1
  Cu  Cu112  1  0.81567570  0.14953114  0.29886492  1
  Cu  Cu113  1  0.31567570  0.35046886  0.70113508  1
  Cu  Cu114  1  0.68432430  0.85046886  0.79886492  1
  Cu  Cu115  1  0.18432430  0.64953114  0.20113508  1
  Cu  Cu116  1  0.15968485  0.36730017  0.32464654  1
  Cu  Cu117  1  0.34031515  0.63269983  0.82464654  1
  Cu  Cu118  1  0.84031515  0.86730017  0.17535346  1
  Cu  Cu119  1  0.32464654  0.15968485  0.36730017  1
  Cu  Cu120  1  0.11730017  0.40968485  0.92535346  1
  Cu  Cu121  1  0.65968485  0.13269983  0.67535346  1
  Cu  Cu122  1  0.82464654  0.34031515  0.63269983  1
  Cu  Cu123  1  0.38269983  0.59031515  0.42535346  1
  Cu  Cu124  1  0.17535346  0.84031515  0.86730017  1
  Cu  Cu125  1  0.61730017  0.09031515  0.07464654  1
  Cu  Cu126  1  0.67535346  0.65968485  0.13269983  1
  Cu  Cu127  1  0.88269983  0.90968485  0.57464654  1
  Cu  Cu128  1  0.36730017  0.32464654  0.15968485  1
  Cu  Cu129  1  0.90968485  0.57464654  0.88269983  1
  Cu  Cu130  1  0.86730017  0.17535346  0.84031515  1
  Cu  Cu131  1  0.59031515  0.42535346  0.38269983  1
  Cu  Cu132  1  0.13269983  0.67535346  0.65968485  1
  Cu  Cu133  1  0.40968485  0.92535346  0.11730017  1
  Cu  Cu134  1  0.63269983  0.82464654  0.34031515  1
  Cu  Cu135  1  0.09031515  0.07464654  0.61730017  1
  Cu  Cu136  1  0.92535346  0.11730017  0.40968485  1
  Cu  Cu137  1  0.42535346  0.38269983  0.59031515  1
  Cu  Cu138  1  0.57464654  0.88269983  0.90968485  1
  Cu  Cu139  1  0.07464654  0.61730017  0.09031515  1
  Cu  Cu140  1  0.08111128  0.50563764  0.32160795  1
  Cu  Cu141  1  0.41888872  0.49436236  0.82160795  1
  Cu  Cu142  1  0.91888872  0.00563764  0.17839205  1
  Cu  Cu143  1  0.32160795  0.08111128  0.50563764  1
  Cu  Cu144  1  0.25563764  0.33111128  0.92839205  1
  Cu  Cu145  1  0.58111128  0.99436236  0.67839205  1
  Cu  Cu146  1  0.82160795  0.41888872  0.49436236  1
  Cu  Cu147  1  0.24436236  0.66888872  0.42839205  1
  Cu  Cu148  1  0.17839205  0.91888872  0.00563764  1
  Cu  Cu149  1  0.75563764  0.16888872  0.07160795  1
  Cu  Cu150  1  0.67839205  0.58111128  0.99436236  1
  Cu  Cu151  1  0.74436236  0.83111128  0.57160795  1
  Cu  Cu152  1  0.50563764  0.32160795  0.08111128  1
  Cu  Cu153  1  0.83111128  0.57160795  0.74436236  1
  Cu  Cu154  1  0.00563764  0.17839205  0.91888872  1
  Cu  Cu155  1  0.66888872  0.42839205  0.24436236  1
  Cu  Cu156  1  0.99436236  0.67839205  0.58111128  1
  Cu  Cu157  1  0.33111128  0.92839205  0.25563764  1
  Cu  Cu158  1  0.49436236  0.82160795  0.41888872  1
  Cu  Cu159  1  0.16888872  0.07160795  0.75563764  1
  Cu  Cu160  1  0.92839205  0.25563764  0.33111128  1
  Cu  Cu161  1  0.42839205  0.24436236  0.66888872  1
  Cu  Cu162  1  0.57160795  0.74436236  0.83111128  1
  Cu  Cu163  1  0.07160795  0.75563764  0.16888872  1
