# generated using pymatgen
data_Cu7NiC32
_symmetry_space_group_name_H-M   'P 1'
_cell_length_a   7.88570998
_cell_length_b   7.88570998
_cell_length_c   7.88571004
_cell_angle_alpha   89.99578695
_cell_angle_beta   89.99578695
_cell_angle_gamma   89.99578710
_symmetry_Int_Tables_number   1
_chemical_formula_structural   Cu7NiC32
_chemical_formula_sum   'Cu7 Ni1 C32'
_cell_volume   490.36831664
_cell_formula_units_Z   1
loop_
 _symmetry_equiv_pos_site_id
 _symmetry_equiv_pos_as_xyz
  1  'x, y, z'
loop_
 _atom_site_type_symbol
 _atom_site_label
 _atom_site_symmetry_multiplicity
 _atom_site_fract_x
 _atom_site_fract_y
 _atom_site_fract_z
 _atom_site_occupancy
  C  C0  1  0.74968600  0.25032800  0.74968600  1
  C  C1  1  0.25032400  0.25032400  0.74968500  1
  C  C2  1  0.74968500  0.25032400  0.25032400  1
  C  C3  1  0.25030400  0.25030400  0.25030400  1
  C  C4  1  0.25032800  0.74968600  0.74968600  1
  C  C5  1  0.74968600  0.74968600  0.25032800  1
  C  C6  1  0.25032400  0.74968500  0.25032400  1
  C  C7  1  0.74969500  0.74969500  0.74969500  1
  Ni  Ni8  1  0.50016200  0.50016200  0.50016200  1
  Cu  Cu9  1  0.50026900  0.99972500  0.99972500  1
  Cu  Cu10  1  0.99973000  0.99973000  0.99973000  1
  Cu  Cu11  1  0.50027700  0.99972000  0.50027700  1
  Cu  Cu12  1  0.99972500  0.99972500  0.50026900  1
  Cu  Cu13  1  0.50027700  0.50027700  0.99972000  1
  Cu  Cu14  1  0.99972500  0.50026900  0.99972500  1
  Cu  Cu15  1  0.99972000  0.50027700  0.50027700  1
  C  C16  1  0.50001600  0.25028000  0.99998100  1
  C  C17  1  0.99997900  0.25012500  0.99997900  1
  C  C18  1  0.50002100  0.25065700  0.50002100  1
  C  C19  1  0.99998100  0.25028000  0.50001600  1
  C  C20  1  0.50105700  0.74972700  0.99894600  1
  C  C21  1  0.99894200  0.74987800  0.99894200  1
  C  C22  1  0.50112300  0.74928400  0.50112300  1
  C  C23  1  0.99894600  0.74972700  0.50105700  1
  C  C24  1  0.50105700  0.99894600  0.74972700  1
  C  C25  1  0.99894200  0.99894200  0.74987800  1
  C  C26  1  0.50001600  0.99998100  0.25028000  1
  C  C27  1  0.99997900  0.99997900  0.25012500  1
  C  C28  1  0.50112300  0.50112300  0.74928400  1
  C  C29  1  0.99894600  0.50105700  0.74972700  1
  C  C30  1  0.50002100  0.50002100  0.25065700  1
  C  C31  1  0.99998100  0.50001600  0.25028000  1
  C  C32  1  0.74987800  0.99894200  0.99894200  1
  C  C33  1  0.25012500  0.99997900  0.99997900  1
  C  C34  1  0.74972700  0.99894600  0.50105700  1
  C  C35  1  0.25028000  0.99998100  0.50001600  1
  C  C36  1  0.74972700  0.50105700  0.99894600  1
  C  C37  1  0.25028000  0.50001600  0.99998100  1
  C  C38  1  0.74928400  0.50112300  0.50112300  1
  C  C39  1  0.25065700  0.50002100  0.50002100  1
