# generated using pymatgen
data_CuNiC8
_symmetry_space_group_name_H-M   'P 1'
_cell_length_a   5.85269204
_cell_length_b   5.85269204
_cell_length_c   19.23891100
_cell_angle_alpha   90.00000000
_cell_angle_beta   90.00000000
_cell_angle_gamma   120.00000046
_symmetry_Int_Tables_number   1
_chemical_formula_structural   CuNiC8
_chemical_formula_sum   'Cu4 Ni4 C32'
_cell_volume   570.71917075
_cell_formula_units_Z   4
loop_
 _symmetry_equiv_pos_site_id
 _symmetry_equiv_pos_as_xyz
  1  'x, y, z'
loop_
 _atom_site_type_symbol
 _atom_site_label
 _atom_site_symmetry_multiplicity
 _atom_site_fract_x
 _atom_site_fract_y
 _atom_site_fract_z
 _atom_site_occupancy
  C  C0  1  0.00000000  0.00000000  0.50000000  1
  C  C1  1  0.00000000  0.00000000  0.00000000  1
  C  C2  1  0.33333300  0.66666700  0.75000000  1
  C  C3  1  0.66666700  0.33333300  0.25000000  1
  C  C4  1  0.33333300  0.66666700  0.35824000  1
  C  C5  1  0.66666700  0.33333300  0.64176000  1
  C  C6  1  0.66666700  0.33333300  0.85824000  1
  C  C7  1  0.33333300  0.66666700  0.14176000  1
  Ni  Ni8  1  0.33333300  0.66666700  0.93631800  1
  Ni  Ni9  1  0.66666700  0.33333300  0.06368200  1
  Ni  Ni10  1  0.66666700  0.33333300  0.43631800  1
  Ni  Ni11  1  0.33333300  0.66666700  0.56368200  1
  Cu  Cu12  1  0.00000000  0.00000000  0.31758500  1
  Cu  Cu13  1  0.00000000  0.00000000  0.68241500  1
  Cu  Cu14  1  0.00000000  0.00000000  0.81758500  1
  Cu  Cu15  1  0.00000000  0.00000000  0.18241500  1
  C  C16  1  0.50000000  0.50000000  0.50000000  1
  C  C17  1  0.50000000  0.00000000  0.50000000  1
  C  C18  1  0.00000000  0.50000000  0.50000000  1
  C  C19  1  0.50000000  0.50000000  0.00000000  1
  C  C20  1  0.50000000  0.00000000  0.00000000  1
  C  C21  1  0.00000000  0.50000000  0.00000000  1
  C  C22  1  0.15378900  0.84621100  0.25000000  1
  C  C23  1  0.15378900  0.30757800  0.25000000  1
  C  C24  1  0.69242200  0.84621100  0.25000000  1
  C  C25  1  0.84621100  0.15378900  0.75000000  1
  C  C26  1  0.84621100  0.69242200  0.75000000  1
  C  C27  1  0.30757800  0.15378900  0.75000000  1
  C  C28  1  0.17026500  0.82973500  0.87961900  1
  C  C29  1  0.17026500  0.34053000  0.87961900  1
  C  C30  1  0.65947000  0.82973500  0.87961900  1
  C  C31  1  0.82973500  0.17026500  0.12038100  1
  C  C32  1  0.82973500  0.65947000  0.12038100  1
  C  C33  1  0.34053000  0.17026500  0.12038100  1
  C  C34  1  0.82973500  0.17026500  0.37961900  1
  C  C35  1  0.82973500  0.65947000  0.37961900  1
  C  C36  1  0.34053000  0.17026500  0.37961900  1
  C  C37  1  0.17026500  0.82973500  0.62038100  1
  C  C38  1  0.17026500  0.34053000  0.62038100  1
  C  C39  1  0.65947000  0.82973500  0.62038100  1
