# generated using pymatgen
data_Cu18Ni8C39
_symmetry_space_group_name_H-M   'P 1'
_cell_length_a   13.73885560
_cell_length_b   13.73885560
_cell_length_c   8.28283697
_cell_angle_alpha   72.71782059
_cell_angle_beta   72.71782059
_cell_angle_gamma   35.33188858
_symmetry_Int_Tables_number   1
_chemical_formula_structural   Cu18Ni8C39
_chemical_formula_sum   'Cu18 Ni8 C39'
_cell_volume   859.08528018
_cell_formula_units_Z   1
loop_
 _symmetry_equiv_pos_site_id
 _symmetry_equiv_pos_as_xyz
  1  'x, y, z'
loop_
 _atom_site_type_symbol
 _atom_site_label
 _atom_site_symmetry_multiplicity
 _atom_site_fract_x
 _atom_site_fract_y
 _atom_site_fract_z
 _atom_site_occupancy
  Ni  Ni0  1  0.88119500  0.90388600  0.42893300  1
  Ni  Ni1  1  0.89629800  0.21760200  0.11246000  1
  Ni  Ni2  1  0.24200000  0.54540400  0.78648400  1
  Ni  Ni3  1  0.57075000  0.88078800  0.45312500  1
  Ni  Ni4  1  0.09611400  0.11880500  0.57106700  1
  Ni  Ni5  1  0.78239800  0.10370200  0.88754000  1
  Ni  Ni6  1  0.11921200  0.42925000  0.54687500  1
  Ni  Ni7  1  0.45459600  0.75800000  0.21351600  1
  Cu  Cu8  1  0.16740100  0.83391500  0.74986000  1
  Cu  Cu9  1  0.49707200  0.17051900  0.41618200  1
  Cu  Cu10  1  0.83493800  0.50037500  0.08258200  1
  Cu  Cu11  1  0.91694100  0.08305900  0.50000000  1
  Cu  Cu12  1  0.25070200  0.41686700  0.16786800  1
  Cu  Cu13  1  0.58313300  0.74929800  0.83213200  1
  Cu  Cu14  1  0.08329800  0.75130500  0.08385100  1
  Cu  Cu15  1  0.41494900  0.08552700  0.75540800  1
  Cu  Cu16  1  0.74844800  0.41761900  0.41738500  1
  Cu  Cu17  1  0.74867400  0.91676200  0.16514100  1
  Cu  Cu18  1  0.08323800  0.25132600  0.83485900  1
  Cu  Cu19  1  0.41715700  0.58284300  0.50000000  1
  Cu  Cu20  1  0.49962500  0.16506200  0.91741800  1
  Cu  Cu21  1  0.82948100  0.50292800  0.58381800  1
  Cu  Cu22  1  0.16608500  0.83259900  0.25014000  1
  Cu  Cu23  1  0.58238100  0.25155200  0.58261500  1
  Cu  Cu24  1  0.91447300  0.58505100  0.24459200  1
  Cu  Cu25  1  0.24869500  0.91670200  0.91614900  1
  C  C26  1  0.99637200  0.94561600  0.38931700  1
  C  C27  1  0.34024500  0.27490400  0.06025200  1
  C  C28  1  0.66578500  0.61313900  0.72054700  1
  C  C29  1  0.90471600  0.85533000  0.20482600  1
  C  C30  1  0.23998600  0.18474400  0.86815400  1
  C  C31  1  0.57592600  0.51513900  0.53421400  1
  C  C32  1  0.63366000  0.12551700  0.48178500  1
  C  C33  1  0.96045900  0.46693600  0.14471300  1
  C  C34  1  0.29102100  0.80144000  0.81571100  1
  C  C35  1  0.60922700  0.00044100  0.33467900  1
  C  C36  1  0.94388300  0.33119500  0.00269200  1
  C  C37  1  0.27447300  0.66787500  0.66657800  1
  C  C38  1  0.18093200  0.57704700  0.03491300  1
  C  C39  1  0.51622700  0.90982100  0.70165600  1
  C  C40  1  0.85485300  0.23892900  0.36633200  1
  C  C41  1  0.46136400  0.29873100  0.76024700  1
  C  C42  1  0.79291300  0.63366400  0.42588600  1
  C  C43  1  0.12792700  0.96759500  0.09642400  1
  C  C44  1  0.05438400  0.00362800  0.61068300  1
  C  C45  1  0.38686100  0.33421500  0.27945300  1
  C  C46  1  0.72509600  0.65975500  0.93974800  1
  C  C47  1  0.48486100  0.42407400  0.46578600  1
  C  C48  1  0.81525600  0.76001400  0.13184600  1
  C  C49  1  0.14467000  0.09528400  0.79517400  1
  C  C50  1  0.19856000  0.70897900  0.18428900  1
  C  C51  1  0.53306400  0.03954100  0.85528700  1
  C  C52  1  0.87448300  0.36634000  0.51821500  1
  C  C53  1  0.66880500  0.05611700  0.99730800  1
  C  C54  1  0.99955900  0.39077300  0.66532100  1
  C  C55  1  0.33212500  0.72552700  0.33342200  1
  C  C56  1  0.76107100  0.14514700  0.63366800  1
  C  C57  1  0.09017900  0.48377300  0.29834400  1
  C  C58  1  0.42295300  0.81906800  0.96508700  1
  C  C59  1  0.03240500  0.87207300  0.90357600  1
  C  C60  1  0.36633600  0.20708700  0.57411400  1
  C  C61  1  0.70126900  0.53863600  0.23975300  1
  C  C62  1  0.01756300  0.65833700  0.64710900  1
  C  C63  1  0.34166300  0.98243700  0.35289100  1
  C  C64  1  0.69531600  0.30468400  0.00000000  1
