# generated using pymatgen
data_Cu3Ni2C11
_symmetry_space_group_name_H-M   'P 1'
_cell_length_a   6.69383500
_cell_length_b   9.92967000
_cell_length_c   13.29246400
_cell_angle_alpha   90.00000000
_cell_angle_beta   90.00000000
_cell_angle_gamma   90.00000000
_symmetry_Int_Tables_number   1
_chemical_formula_structural   Cu3Ni2C11
_chemical_formula_sum   'Cu12 Ni8 C44'
_cell_volume   883.51781575
_cell_formula_units_Z   4
loop_
 _symmetry_equiv_pos_site_id
 _symmetry_equiv_pos_as_xyz
  1  'x, y, z'
loop_
 _atom_site_type_symbol
 _atom_site_label
 _atom_site_symmetry_multiplicity
 _atom_site_fract_x
 _atom_site_fract_y
 _atom_site_fract_z
 _atom_site_occupancy
  Ni  Ni0  1  0.75000000  0.21376200  0.25000000  1
  Ni  Ni1  1  0.75000000  0.78623800  0.75000000  1
  Ni  Ni2  1  0.25000000  0.78623800  0.75000000  1
  Ni  Ni3  1  0.25000000  0.21376200  0.25000000  1
  Ni  Ni4  1  0.50000000  0.99651100  0.12703900  1
  Ni  Ni5  1  0.50000000  0.00348900  0.87296100  1
  Ni  Ni6  1  0.00000000  0.99651100  0.37296100  1
  Ni  Ni7  1  0.00000000  0.00348900  0.62703900  1
  C  C8  1  0.75000000  0.66146100  0.25000000  1
  C  C9  1  0.75000000  0.33853900  0.75000000  1
  C  C10  1  0.25000000  0.33853900  0.75000000  1
  C  C11  1  0.25000000  0.66146100  0.25000000  1
  Cu  Cu12  1  0.50000000  0.44111300  0.37929800  1
  Cu  Cu13  1  0.50000000  0.55888700  0.62070200  1
  Cu  Cu14  1  0.00000000  0.44111300  0.12070200  1
  Cu  Cu15  1  0.00000000  0.55888700  0.87929800  1
  Cu  Cu16  1  0.50000000  0.91547800  0.36774900  1
  Cu  Cu17  1  0.50000000  0.08452200  0.63225100  1
  Cu  Cu18  1  0.00000000  0.91547800  0.13225100  1
  Cu  Cu19  1  0.00000000  0.08452200  0.86774900  1
  Cu  Cu20  1  0.50000000  0.69391000  0.03209900  1
  Cu  Cu21  1  0.50000000  0.30609000  0.96790100  1
  Cu  Cu22  1  0.00000000  0.69391000  0.46790100  1
  Cu  Cu23  1  0.00000000  0.30609000  0.53209900  1
  C  C24  1  0.50000000  0.15778300  0.20402000  1
  C  C25  1  0.50000000  0.84221700  0.79598000  1
  C  C26  1  0.00000000  0.15778300  0.29598000  1
  C  C27  1  0.00000000  0.84221700  0.70402000  1
  C  C28  1  0.70242500  0.33674300  0.35906300  1
  C  C29  1  0.70242500  0.66325700  0.64093700  1
  C  C30  1  0.79757500  0.33674300  0.14093700  1
  C  C31  1  0.79757500  0.66325700  0.85906300  1
  C  C32  1  0.29757500  0.66325700  0.64093700  1
  C  C33  1  0.29757500  0.33674300  0.35906300  1
  C  C34  1  0.20242500  0.66325700  0.85906300  1
  C  C35  1  0.20242500  0.33674300  0.14093700  1
  C  C36  1  0.50000000  0.54304800  0.27139500  1
  C  C37  1  0.50000000  0.45695200  0.72860500  1
  C  C38  1  0.00000000  0.54304800  0.22860500  1
  C  C39  1  0.00000000  0.45695200  0.77139500  1
  C  C40  1  0.50000000  0.85976100  0.24145300  1
  C  C41  1  0.50000000  0.14023900  0.75854700  1
  C  C42  1  0.00000000  0.85976100  0.25854700  1
  C  C43  1  0.00000000  0.14023900  0.74145300  1
  C  C44  1  0.69744200  0.02858700  0.36859000  1
  C  C45  1  0.69744200  0.97141300  0.63141000  1
  C  C46  1  0.80255800  0.02858700  0.13141000  1
  C  C47  1  0.80255800  0.97141300  0.86859000  1
  C  C48  1  0.30255800  0.97141300  0.63141000  1
  C  C49  1  0.30255800  0.02858700  0.36859000  1
  C  C50  1  0.19744200  0.97141300  0.86859000  1
  C  C51  1  0.19744200  0.02858700  0.13141000  1
  C  C52  1  0.70900400  0.67164600  0.10620000  1
  C  C53  1  0.70900400  0.32835400  0.89380000  1
  C  C54  1  0.79099600  0.67164600  0.39380000  1
  C  C55  1  0.79099600  0.32835400  0.60620000  1
  C  C56  1  0.29099600  0.32835400  0.89380000  1
  C  C57  1  0.29099600  0.67164600  0.10620000  1
  C  C58  1  0.20900400  0.32835400  0.60620000  1
  C  C59  1  0.20900400  0.67164600  0.39380000  1
  C  C60  1  0.50000000  0.87306700  0.01630400  1
  C  C61  1  0.50000000  0.12693300  0.98369600  1
  C  C62  1  0.00000000  0.87306700  0.48369600  1
  C  C63  1  0.00000000  0.12693300  0.51630400  1
