# generated using pymatgen
data_Cu30NiC33
_symmetry_space_group_name_H-M   'P 1'
_cell_length_a   8.68100300
_cell_length_b   8.68100300
_cell_length_c   8.66923800
_cell_angle_alpha   90.00000000
_cell_angle_beta   90.00000000
_cell_angle_gamma   90.00000000
_symmetry_Int_Tables_number   1
_chemical_formula_structural   Cu30NiC33
_chemical_formula_sum   'Cu30 Ni1 C33'
_cell_volume   653.31215528
_cell_formula_units_Z   1
loop_
 _symmetry_equiv_pos_site_id
 _symmetry_equiv_pos_as_xyz
  1  'x, y, z'
loop_
 _atom_site_type_symbol
 _atom_site_label
 _atom_site_symmetry_multiplicity
 _atom_site_fract_x
 _atom_site_fract_y
 _atom_site_fract_z
 _atom_site_occupancy
  C  C0  1  0.00000000  0.00000000  0.00000000  1
  Ni  Ni1  1  0.00000000  0.00000000  0.50000000  1
  Cu  Cu2  1  0.50000000  0.00000000  0.00000000  1
  Cu  Cu3  1  0.50000000  0.00000000  0.50000000  1
  Cu  Cu4  1  0.00000000  0.50000000  0.00000000  1
  Cu  Cu5  1  0.00000000  0.50000000  0.50000000  1
  Cu  Cu6  1  0.50000000  0.50000000  0.00000000  1
  Cu  Cu7  1  0.50000000  0.50000000  0.50000000  1
  Cu  Cu8  1  0.26247500  0.00000000  0.25014900  1
  Cu  Cu9  1  0.26247500  0.00000000  0.74985100  1
  Cu  Cu10  1  0.73752500  0.00000000  0.25014900  1
  Cu  Cu11  1  0.73752500  0.00000000  0.74985100  1
  Cu  Cu12  1  0.25218300  0.50000000  0.25021900  1
  Cu  Cu13  1  0.25218300  0.50000000  0.74978100  1
  Cu  Cu14  1  0.74781700  0.50000000  0.25021900  1
  Cu  Cu15  1  0.74781700  0.50000000  0.74978100  1
  Cu  Cu16  1  0.00000000  0.26247500  0.25014900  1
  Cu  Cu17  1  0.00000000  0.26247500  0.74985100  1
  Cu  Cu18  1  0.50000000  0.25218300  0.25021900  1
  Cu  Cu19  1  0.50000000  0.25218300  0.74978100  1
  Cu  Cu20  1  0.00000000  0.73752500  0.25014900  1
  Cu  Cu21  1  0.00000000  0.73752500  0.74985100  1
  Cu  Cu22  1  0.50000000  0.74781700  0.25021900  1
  Cu  Cu23  1  0.50000000  0.74781700  0.74978100  1
  Cu  Cu24  1  0.25646800  0.25646800  0.00000000  1
  Cu  Cu25  1  0.25362300  0.25362300  0.50000000  1
  Cu  Cu26  1  0.74353200  0.25646800  0.00000000  1
  Cu  Cu27  1  0.74637700  0.25362300  0.50000000  1
  Cu  Cu28  1  0.25646800  0.74353200  0.00000000  1
  Cu  Cu29  1  0.25362300  0.74637700  0.50000000  1
  Cu  Cu30  1  0.74353200  0.74353200  0.00000000  1
  Cu  Cu31  1  0.74637700  0.74637700  0.50000000  1
  C  C32  1  0.00000000  0.27038200  0.00000000  1
  C  C33  1  0.00000000  0.25853600  0.50000000  1
  C  C34  1  0.50000000  0.25387700  0.00000000  1
  C  C35  1  0.50000000  0.25160600  0.50000000  1
  C  C36  1  0.00000000  0.72961800  0.00000000  1
  C  C37  1  0.00000000  0.74146400  0.50000000  1
  C  C38  1  0.50000000  0.74612300  0.00000000  1
  C  C39  1  0.50000000  0.74839400  0.50000000  1
  C  C40  1  0.24932200  0.24932200  0.24909300  1
  C  C41  1  0.24932200  0.24932200  0.75090700  1
  C  C42  1  0.75067800  0.24932200  0.24909300  1
  C  C43  1  0.75067800  0.24932200  0.75090700  1
  C  C44  1  0.24932200  0.75067800  0.24909300  1
  C  C45  1  0.24932200  0.75067800  0.75090700  1
  C  C46  1  0.75067800  0.75067800  0.24909300  1
  C  C47  1  0.75067800  0.75067800  0.75090700  1
  C  C48  1  0.00000000  0.00000000  0.26690900  1
  C  C49  1  0.00000000  0.00000000  0.73309100  1
  C  C50  1  0.50000000  0.00000000  0.25342600  1
  C  C51  1  0.50000000  0.00000000  0.74657400  1
  C  C52  1  0.00000000  0.50000000  0.25342600  1
  C  C53  1  0.00000000  0.50000000  0.74657400  1
  C  C54  1  0.50000000  0.50000000  0.25075100  1
  C  C55  1  0.50000000  0.50000000  0.74924900  1
  C  C56  1  0.27038200  0.00000000  0.00000000  1
  C  C57  1  0.25853600  0.00000000  0.50000000  1
  C  C58  1  0.72961800  0.00000000  0.00000000  1
  C  C59  1  0.74146400  0.00000000  0.50000000  1
  C  C60  1  0.25387700  0.50000000  0.00000000  1
  C  C61  1  0.25160600  0.50000000  0.50000000  1
  C  C62  1  0.74612300  0.50000000  0.00000000  1
  C  C63  1  0.74839400  0.50000000  0.50000000  1
