# generated using pymatgen
data_Cu4NiC
_symmetry_space_group_name_H-M   'P 1'
_cell_length_a   9.82199680
_cell_length_b   12.37622367
_cell_length_c   12.37622963
_cell_angle_alpha   120.00005770
_cell_angle_beta   90.00000000
_cell_angle_gamma   90.00000000
_symmetry_Int_Tables_number   1
_chemical_formula_structural   Cu4NiC
_chemical_formula_sum   'Cu72 Ni18 C18'
_cell_volume   1302.88677566
_cell_formula_units_Z   18
loop_
 _symmetry_equiv_pos_site_id
 _symmetry_equiv_pos_as_xyz
  1  'x, y, z'
loop_
 _atom_site_type_symbol
 _atom_site_label
 _atom_site_symmetry_multiplicity
 _atom_site_fract_x
 _atom_site_fract_y
 _atom_site_fract_z
 _atom_site_occupancy
  C  C0  1  0.23993393  0.88163617  0.77009027  1
  C  C1  1  0.23993415  0.22990766  0.11154416  1
  C  C2  1  0.23993399  0.88845774  0.11836717  1
  C  C3  1  0.76006607  0.88163617  0.77009027  1
  C  C4  1  0.76006585  0.22990766  0.11154416  1
  C  C5  1  0.76006601  0.88845774  0.11836717  1
  C  C6  1  0.25673665  0.21554567  0.43775804  1
  C  C7  1  0.25673709  0.56224666  0.77779093  1
  C  C8  1  0.25673724  0.22221049  0.78445213  1
  C  C9  1  0.74326335  0.21554567  0.43775804  1
  C  C10  1  0.74326291  0.56224666  0.77779093  1
  C  C11  1  0.74326276  0.22221049  0.78445213  1
  C  C12  1  0.25634429  0.89657544  0.45447143  1
  C  C13  1  0.25634432  0.54552465  0.44210347  1
  C  C14  1  0.25634580  0.55789673  0.10342235  1
  C  C15  1  0.74365571  0.89657544  0.45447143  1
  C  C16  1  0.74365568  0.54552465  0.44210347  1
  C  C17  1  0.74365420  0.55789673  0.10342235  1
  Ni  Ni18  1  0.00000000  0.35296229  0.49014181  1
  Ni  Ni19  1  0.00000000  0.50985980  0.86282171  1
  Ni  Ni20  1  0.00000000  0.13717966  0.64703620  1
  Ni  Ni21  1  0.00000000  0.79707360  0.88779337  1
  Ni  Ni22  1  0.00000000  0.11220787  0.90928043  1
  Ni  Ni23  1  0.00000000  0.09071810  0.20292770  1
  Ni  Ni24  1  0.00000000  0.83640827  0.53211658  1
  Ni  Ni25  1  0.00000000  0.46787716  0.30429032  1
  Ni  Ni26  1  0.00000000  0.69570968  0.16359147  1
  Ni  Ni27  1  0.50000000  0.12947185  0.57783108  1
  Ni  Ni28  1  0.50000000  0.42216890  0.55164141  1
  Ni  Ni29  1  0.50000000  0.44836101  0.87052993  1
  Ni  Ni30  1  0.50000000  0.76287015  0.22519729  1
  Ni  Ni31  1  0.50000000  0.77480030  0.53766936  1
  Ni  Ni32  1  0.50000000  0.46232547  0.23712908  1
  Ni  Ni33  1  0.50000000  0.79802317  0.81911020  1
  Ni  Ni34  1  0.50000000  0.18089162  0.97891038  1
  Ni  Ni35  1  0.50000000  0.02109072  0.20198200  1
  Cu  Cu36  1  0.00000000  0.24536628  0.48536972  1
  Cu  Cu37  1  0.00000000  0.51463342  0.75999900  1
  Cu  Cu38  1  0.00000000  0.24000374  0.75463212  1
  Cu  Cu39  1  0.11576174  0.40243441  0.49091951  1
  Cu  Cu40  1  0.11576233  0.50908134  0.91151578  1
  Cu  Cu41  1  0.11576197  0.08848536  0.59756260  1
  Cu  Cu42  1  0.88423826  0.40243441  0.49091951  1
  Cu  Cu43  1  0.88423767  0.50908134  0.91151578  1
  Cu  Cu44  1  0.88423803  0.08848536  0.59756260  1
  Cu  Cu45  1  0.00000000  0.85908964  0.82881864  1
  Cu  Cu46  1  0.00000000  0.17117955  0.03026956  1
  Cu  Cu47  1  0.00000000  0.96972789  0.14091084  1
  Cu  Cu48  1  0.11526660  0.08377298  0.85095206  1
  Cu  Cu49  1  0.11526681  0.14904593  0.23281990  1
  Cu  Cu50  1  0.11526639  0.76718171  0.91622896  1
  Cu  Cu51  1  0.88473340  0.08377298  0.85095206  1
  Cu  Cu52  1  0.88473319  0.14904593  0.23281990  1
  Cu  Cu53  1  0.88473361  0.76718171  0.91622896  1
  Cu  Cu54  1  0.00000000  0.84114484  0.42991835  1
  Cu  Cu55  1  0.00000000  0.57007690  0.41122544  1
  Cu  Cu56  1  0.00000000  0.58877377  0.15885367  1
  Cu  Cu57  1  0.11513708  0.83629118  0.58193728  1
  Cu  Cu58  1  0.11513659  0.41805641  0.25435312  1
  Cu  Cu59  1  0.11513673  0.74564751  0.16370895  1
  Cu  Cu60  1  0.88486292  0.83629118  0.58193728  1
  Cu  Cu61  1  0.88486341  0.41805641  0.25435312  1
  Cu  Cu62  1  0.88486327  0.74564751  0.16370895  1
  Cu  Cu63  1  0.50000000  0.30184955  0.49766594  1
  Cu  Cu64  1  0.50000000  0.50233775  0.80418690  1
  Cu  Cu65  1  0.50000000  0.19581809  0.69815107  1
  Cu  Cu66  1  0.38539752  0.09640104  0.51832520  1
  Cu  Cu67  1  0.38539752  0.48167581  0.57807849  1
  Cu  Cu68  1  0.38539787  0.42192400  0.90359956  1
  Cu  Cu69  1  0.61460248  0.09640104  0.51832520  1
  Cu  Cu70  1  0.61460248  0.48167581  0.57807849  1
  Cu  Cu71  1  0.61460213  0.42192400  0.90359956  1
  Cu  Cu72  1  0.50000000  0.83956637  0.48132657  1
  Cu  Cu73  1  0.50000000  0.51866737  0.35823795  1
  Cu  Cu74  1  0.50000000  0.64176143  0.16043229  1
  Cu  Cu75  1  0.38490037  0.82144259  0.25656226  1
  Cu  Cu76  1  0.38490073  0.74343571  0.56487709  1
  Cu  Cu77  1  0.38490036  0.43511821  0.17855634  1
  Cu  Cu78  1  0.61509963  0.82144259  0.25656226  1
  Cu  Cu79  1  0.61509927  0.74343571  0.56487709  1
  Cu  Cu80  1  0.61509964  0.43511821  0.17855634  1
  Cu  Cu81  1  0.50000000  0.90154343  0.81655196  1
  Cu  Cu82  1  0.50000000  0.18344775  0.08498865  1
  Cu  Cu83  1  0.50000000  0.91501204  0.09845983  1
  Cu  Cu84  1  0.38506815  0.74807468  0.81919250  1
  Cu  Cu85  1  0.38506836  0.18081005  0.92888080  1
  Cu  Cu86  1  0.38506883  0.07112088  0.25193027  1
  Cu  Cu87  1  0.61493185  0.74807468  0.81919250  1
  Cu  Cu88  1  0.61493164  0.18081005  0.92888080  1
  Cu  Cu89  1  0.61493117  0.07112088  0.25193027  1
  Cu  Cu90  1  0.25840001  0.00000030  0.00000012  1
  Cu  Cu91  1  0.74159999  0.00000030  0.00000012  1
  Cu  Cu92  1  0.24652784  0.33333637  0.66666866  1
  Cu  Cu93  1  0.75347216  0.33333637  0.66666866  1
  Cu  Cu94  1  0.24362704  0.66666309  0.33333193  1
  Cu  Cu95  1  0.75637296  0.66666309  0.33333193  1
  Cu  Cu96  1  0.30848885  0.32268841  0.32540894  1
  Cu  Cu97  1  0.30848816  0.67459279  0.99728235  1
  Cu  Cu98  1  0.30848668  0.00271839  0.67730821  1
  Cu  Cu99  1  0.69151115  0.32268841  0.32540894  1
  Cu  Cu100  1  0.69151184  0.67459279  0.99728235  1
  Cu  Cu101  1  0.69151332  0.00271839  0.67730821  1
  Cu  Cu102  1  0.19362666  0.99840463  0.34084385  1
  Cu  Cu103  1  0.19362602  0.65915768  0.65756149  1
  Cu  Cu104  1  0.19362573  0.34243762  0.00159442  1
  Cu  Cu105  1  0.80637334  0.99840463  0.34084385  1
  Cu  Cu106  1  0.80637398  0.65915768  0.65756149  1
  Cu  Cu107  1  0.80637427  0.34243762  0.00159442  1
