# generated using pymatgen
data_Cu7Ni5C3
_symmetry_space_group_name_H-M   'P 1'
_cell_length_a   13.23919200
_cell_length_b   8.62502900
_cell_length_c   8.96593997
_cell_angle_alpha   70.43037765
_cell_angle_beta   90.00000000
_cell_angle_gamma   90.00000000
_symmetry_Int_Tables_number   1
_chemical_formula_structural   Cu7Ni5C3
_chemical_formula_sum   'Cu14 Ni10 C6'
_cell_volume   964.66646991
_cell_formula_units_Z   2
loop_
 _symmetry_equiv_pos_site_id
 _symmetry_equiv_pos_as_xyz
  1  'x, y, z'
loop_
 _atom_site_type_symbol
 _atom_site_label
 _atom_site_symmetry_multiplicity
 _atom_site_fract_x
 _atom_site_fract_y
 _atom_site_fract_z
 _atom_site_occupancy
  C  C0  1  0.39361500  0.52366100  0.44373700  1
  C  C1  1  0.60638500  0.47633900  0.55626300  1
  C  C2  1  0.89361500  0.47633900  0.55626300  1
  C  C3  1  0.10638500  0.52366100  0.44373700  1
  C  C4  1  0.25000000  0.89789500  0.02617600  1
  C  C5  1  0.75000000  0.10210500  0.97382400  1
  Ni  Ni6  1  0.25000000  0.91716900  0.76396100  1
  Ni  Ni7  1  0.75000000  0.08283100  0.23603900  1
  Ni  Ni8  1  0.96946700  0.76173600  0.37609600  1
  Ni  Ni9  1  0.03053300  0.23826400  0.62390400  1
  Ni  Ni10  1  0.46946700  0.23826400  0.62390400  1
  Ni  Ni11  1  0.53053300  0.76173600  0.37609600  1
  Ni  Ni12  1  0.47468100  0.66529600  0.63652100  1
  Ni  Ni13  1  0.52531900  0.33470400  0.36347900  1
  Ni  Ni14  1  0.97468100  0.33470400  0.36347900  1
  Ni  Ni15  1  0.02531900  0.66529600  0.63652100  1
  Cu  Cu16  1  0.38695400  0.65040300  0.11052100  1
  Cu  Cu17  1  0.61304600  0.34959700  0.88947900  1
  Cu  Cu18  1  0.88695400  0.34959700  0.88947900  1
  Cu  Cu19  1  0.11304600  0.65040300  0.11052100  1
  Cu  Cu20  1  0.38509900  0.09173100  0.04428700  1
  Cu  Cu21  1  0.61490100  0.90826900  0.95571300  1
  Cu  Cu22  1  0.88509900  0.90826900  0.95571300  1
  Cu  Cu23  1  0.11490100  0.09173100  0.04428700  1
  Cu  Cu24  1  0.25000000  0.77725900  0.37605700  1
  Cu  Cu25  1  0.75000000  0.22274100  0.62394300  1
  Cu  Cu26  1  0.25000000  0.33426300  0.36590500  1
  Cu  Cu27  1  0.75000000  0.66573700  0.63409500  1
  Cu  Cu28  1  0.25000000  0.44195100  0.68538200  1
  Cu  Cu29  1  0.75000000  0.55804900  0.31461800  1
