# generated using pymatgen
data_Cu(NiC5)2
_symmetry_space_group_name_H-M   'P 1'
_cell_length_a   5.27353533
_cell_length_b   5.91557627
_cell_length_c   19.23424370
_cell_angle_alpha   90.04562424
_cell_angle_beta   89.73522685
_cell_angle_gamma   89.99559453
_symmetry_Int_Tables_number   1
_chemical_formula_structural   Cu(NiC5)2
_chemical_formula_sum   'Cu4 Ni8 C40'
_cell_volume   600.02487566
_cell_formula_units_Z   4
loop_
 _symmetry_equiv_pos_site_id
 _symmetry_equiv_pos_as_xyz
  1  'x, y, z'
loop_
 _atom_site_type_symbol
 _atom_site_label
 _atom_site_symmetry_multiplicity
 _atom_site_fract_x
 _atom_site_fract_y
 _atom_site_fract_z
 _atom_site_occupancy
  C  C0  1  0.73107000  0.15912900  0.11328300  1
  C  C1  1  0.73104600  0.65913100  0.61328700  1
  C  C2  1  0.76455700  0.65828400  0.38670200  1
  C  C3  1  0.76453800  0.15827900  0.88671100  1
  C  C4  1  0.26446700  0.34293100  0.38669900  1
  C  C5  1  0.26445400  0.84292700  0.88670900  1
  C  C6  1  0.23118700  0.84429800  0.11335900  1
  C  C7  1  0.23116400  0.34429600  0.61336200  1
  Ni  Ni8  1  0.76804400  0.15506500  0.28190800  1
  Ni  Ni9  1  0.76805100  0.65507100  0.78192900  1
  Ni  Ni10  1  0.72805500  0.65547800  0.21788700  1
  Ni  Ni11  1  0.72806500  0.15547300  0.71790800  1
  Ni  Ni12  1  0.22818000  0.34748600  0.21823000  1
  Ni  Ni13  1  0.22818600  0.84748700  0.71825200  1
  Ni  Ni14  1  0.26818400  0.84621400  0.28229400  1
  Ni  Ni15  1  0.26819000  0.34620500  0.78231600  1
  Cu  Cu16  1  0.74804000  0.14007400  0.49995000  1
  Cu  Cu17  1  0.24821000  0.86244700  0.49997600  1
  Cu  Cu18  1  0.74801000  0.63999100  0.99993500  1
  Cu  Cu19  1  0.24819500  0.36258500  0.99998200  1
  C  C20  1  0.06965800  0.11843600  0.06817200  1
  C  C21  1  0.06948700  0.61838700  0.56812000  1
  C  C22  1  0.42648700  0.61782000  0.43189400  1
  C  C23  1  0.42646800  0.11779800  0.93187200  1
  C  C24  1  0.92629200  0.38325000  0.43192300  1
  C  C25  1  0.92627500  0.88328100  0.93188200  1
  C  C26  1  0.56970300  0.88462900  0.06802400  1
  C  C27  1  0.56968400  0.38460900  0.56798300  1
  C  C28  1  0.58381900  0.37849200  0.05763600  1
  C  C29  1  0.58382500  0.87847400  0.55764700  1
  C  C30  1  0.91207000  0.87748200  0.44234000  1
  C  C31  1  0.91207600  0.37748700  0.94235300  1
  C  C32  1  0.41229700  0.12398300  0.44220600  1
  C  C33  1  0.41230200  0.62396600  0.94221800  1
  C  C34  1  0.08441500  0.62471500  0.05771700  1
  C  C35  1  0.08442600  0.12473000  0.55772800  1
  C  C36  1  0.43004000  0.10402500  0.17649200  1
  C  C37  1  0.43001200  0.60406800  0.67648900  1
  C  C38  1  0.06547100  0.60281400  0.32353200  1
  C  C39  1  0.06535900  0.10271600  0.82351400  1
  C  C40  1  0.92954800  0.89896000  0.17644000  1
  C  C41  1  0.92955300  0.39891500  0.67640900  1
  C  C42  1  0.56518200  0.39802200  0.32340100  1
  C  C43  1  0.56511300  0.89808400  0.82338900  1
  C  C44  1  0.35641300  0.65127500  0.19310600  1
  C  C45  1  0.35653300  0.15128000  0.69308000  1
  C  C46  1  0.13907700  0.14915800  0.30717100  1
  C  C47  1  0.13912100  0.64919900  0.80713900  1
  C  C48  1  0.63974700  0.85219400  0.30707600  1
  C  C49  1  0.63988400  0.35212800  0.80705500  1
  C  C50  1  0.85723100  0.35261600  0.19299700  1
  C  C51  1  0.85724900  0.85266400  0.69298300  1
