# generated using pymatgen
data_Cu3Ni2C13
_symmetry_space_group_name_H-M   'P 1'
_cell_length_a   9.36448501
_cell_length_b   9.36448501
_cell_length_c   9.36448493
_cell_angle_alpha   53.86367709
_cell_angle_beta   53.86367709
_cell_angle_gamma   53.86367612
_symmetry_Int_Tables_number   1
_chemical_formula_structural   Cu3Ni2C13
_chemical_formula_sum   'Cu6 Ni4 C26'
_cell_volume   497.40987607
_cell_formula_units_Z   2
loop_
 _symmetry_equiv_pos_site_id
 _symmetry_equiv_pos_as_xyz
  1  'x, y, z'
loop_
 _atom_site_type_symbol
 _atom_site_label
 _atom_site_symmetry_multiplicity
 _atom_site_fract_x
 _atom_site_fract_y
 _atom_site_fract_z
 _atom_site_occupancy
  C  C0  1  0.50000000  0.50000000  0.50000000  1
  C  C1  1  0.00000000  0.00000000  0.00000000  1
  Ni  Ni2  1  0.15387700  0.15387700  0.15387700  1
  Ni  Ni3  1  0.84612300  0.84612300  0.84612300  1
  Ni  Ni4  1  0.35199600  0.35199600  0.35199600  1
  Ni  Ni5  1  0.64800400  0.64800400  0.64800400  1
  Cu  Cu6  1  0.03956700  0.46055800  0.75109600  1
  Cu  Cu7  1  0.46055800  0.75109600  0.03956700  1
  Cu  Cu8  1  0.75109600  0.03956700  0.46055800  1
  Cu  Cu9  1  0.96043300  0.53944200  0.24890400  1
  Cu  Cu10  1  0.53944200  0.24890400  0.96043300  1
  Cu  Cu11  1  0.24890400  0.96043300  0.53944200  1
  C  C12  1  0.02640900  0.31708800  0.95686600  1
  C  C13  1  0.31708800  0.95686600  0.02640900  1
  C  C14  1  0.95686600  0.02640900  0.31708800  1
  C  C15  1  0.97359100  0.68291200  0.04313400  1
  C  C16  1  0.68291200  0.04313400  0.97359100  1
  C  C17  1  0.04313400  0.97359100  0.68291200  1
  C  C18  1  0.02719300  0.65106200  0.71520900  1
  C  C19  1  0.65106200  0.71520900  0.02719300  1
  C  C20  1  0.71520900  0.02719300  0.65106200  1
  C  C21  1  0.97280700  0.34893800  0.28479100  1
  C  C22  1  0.34893800  0.28479100  0.97280700  1
  C  C23  1  0.28479100  0.97280700  0.34893800  1
  C  C24  1  0.88137200  0.48148200  0.72237900  1
  C  C25  1  0.48148200  0.72237900  0.88137200  1
  C  C26  1  0.72237900  0.88137200  0.48148100  1
  C  C27  1  0.11862800  0.51851900  0.27762100  1
  C  C28  1  0.51851900  0.27762100  0.11862800  1
  C  C29  1  0.27762100  0.11862800  0.51851800  1
  C  C30  1  0.23494600  0.37824000  0.60835300  1
  C  C31  1  0.37824000  0.60835300  0.23494600  1
  C  C32  1  0.60835300  0.23494600  0.37824000  1
  C  C33  1  0.76505400  0.62176000  0.39164700  1
  C  C34  1  0.62176000  0.39164700  0.76505400  1
  C  C35  1  0.39164700  0.76505400  0.62176000  1
