# generated using pymatgen
data_Cu5(NiC2)3
_symmetry_space_group_name_H-M   'P 1'
_cell_length_a   9.04424451
_cell_length_b   9.04424451
_cell_length_c   9.04424451
_cell_angle_alpha   109.47122063
_cell_angle_beta   109.47122063
_cell_angle_gamma   109.47122063
_symmetry_Int_Tables_number   1
_chemical_formula_structural   Cu5(NiC2)3
_chemical_formula_sum   'Cu10 Ni6 C12'
_cell_volume   569.50165883
_cell_formula_units_Z   2
loop_
 _symmetry_equiv_pos_site_id
 _symmetry_equiv_pos_as_xyz
  1  'x, y, z'
loop_
 _atom_site_type_symbol
 _atom_site_label
 _atom_site_symmetry_multiplicity
 _atom_site_fract_x
 _atom_site_fract_y
 _atom_site_fract_z
 _atom_site_occupancy
  Ni  Ni0  1  0.80281500  0.00000000  0.80281500  1
  Ni  Ni1  1  0.19718600  0.19718600  0.00000000  1
  Ni  Ni2  1  0.80281500  0.80281500  0.00000000  1
  Ni  Ni3  1  0.00000000  0.19718600  0.19718500  1
  Ni  Ni4  1  0.00000000  0.80281500  0.80281400  1
  Ni  Ni5  1  0.19718600  0.00000000  0.19718600  1
  Cu  Cu6  1  0.50000000  0.25000000  0.75000000  1
  Cu  Cu7  1  0.75000000  0.25000000  0.50000000  1
  Cu  Cu8  1  0.25000000  0.75000000  0.50000000  1
  Cu  Cu9  1  0.75000000  0.50000000  0.25000000  1
  Cu  Cu10  1  0.42212400  0.42212400  0.42212400  1
  Cu  Cu11  1  0.00000000  0.57787600  0.00000000  1
  Cu  Cu12  1  0.57787600  0.00000000  0.00000000  1
  Cu  Cu13  1  0.00000000  0.00000000  0.57787600  1
  Cu  Cu14  1  0.25000000  0.50000000  0.75000000  1
  Cu  Cu15  1  0.50000000  0.75000000  0.25000000  1
  C  C16  1  0.51109800  0.51109800  0.74270600  1
  C  C17  1  0.00000000  0.23160800  0.48890200  1
  C  C18  1  0.23160800  0.00000000  0.48890200  1
  C  C19  1  0.76839200  0.25729400  0.76839200  1
  C  C20  1  0.25729400  0.76839200  0.76839200  1
  C  C21  1  0.74270600  0.51109800  0.51109800  1
  C  C22  1  0.51109800  0.74270600  0.51109800  1
  C  C23  1  0.23160800  0.48890200  0.00000000  1
  C  C24  1  0.48890200  0.23160800  0.00000000  1
  C  C25  1  0.76839200  0.76839200  0.25729400  1
  C  C26  1  0.48890200  0.00000000  0.23160800  1
  C  C27  1  0.00000000  0.48890200  0.23160800  1
