# generated using pymatgen
data_Cu4Ni2C7
_symmetry_space_group_name_H-M   'P 1'
_cell_length_a   9.78410500
_cell_length_b   5.79178000
_cell_length_c   18.44232945
_cell_angle_alpha   84.53271766
_cell_angle_beta   90.00000000
_cell_angle_gamma   90.00000000
_symmetry_Int_Tables_number   1
_chemical_formula_structural   Cu4Ni2C7
_chemical_formula_sum   'Cu16 Ni8 C28'
_cell_volume   1040.32425282
_cell_formula_units_Z   4
loop_
 _symmetry_equiv_pos_site_id
 _symmetry_equiv_pos_as_xyz
  1  'x, y, z'
loop_
 _atom_site_type_symbol
 _atom_site_label
 _atom_site_symmetry_multiplicity
 _atom_site_fract_x
 _atom_site_fract_y
 _atom_site_fract_z
 _atom_site_occupancy
  C  C0  1  0.40930300  0.74300300  0.13924400  1
  C  C1  1  0.59069700  0.25699700  0.86075600  1
  C  C2  1  0.90930300  0.25699700  0.36075600  1
  C  C3  1  0.09069700  0.74300300  0.63924400  1
  Ni  Ni4  1  0.62748100  0.48277500  0.33962300  1
  Ni  Ni5  1  0.37251900  0.51722500  0.66037700  1
  Ni  Ni6  1  0.12748100  0.51722500  0.16037700  1
  Ni  Ni7  1  0.87251900  0.48277500  0.83962300  1
  Ni  Ni8  1  0.55571500  0.24934000  0.12867700  1
  Ni  Ni9  1  0.44428500  0.75066000  0.87132300  1
  Ni  Ni10  1  0.05571500  0.75066000  0.37132300  1
  Ni  Ni11  1  0.94428500  0.24934000  0.62867700  1
  Cu  Cu12  1  0.89878800  0.68266900  0.05386300  1
  Cu  Cu13  1  0.10121200  0.31733100  0.94613700  1
  Cu  Cu14  1  0.39878800  0.31733100  0.44613700  1
  Cu  Cu15  1  0.60121200  0.68266900  0.55386300  1
  Cu  Cu16  1  0.79930500  0.80153300  0.21870300  1
  Cu  Cu17  1  0.20069500  0.19846700  0.78129700  1
  Cu  Cu18  1  0.29930500  0.19846700  0.28129700  1
  Cu  Cu19  1  0.70069500  0.80153300  0.71870300  1
  Cu  Cu20  1  0.89846600  0.94020300  0.11894300  1
  Cu  Cu21  1  0.10153400  0.05979700  0.88105700  1
  Cu  Cu22  1  0.39846600  0.05979700  0.38105700  1
  Cu  Cu23  1  0.60153400  0.94020300  0.61894300  1
  Cu  Cu24  1  0.79062600  0.72318900  0.49161000  1
  Cu  Cu25  1  0.20937400  0.27681100  0.50839000  1
  Cu  Cu26  1  0.29062600  0.27681100  0.00839000  1
  Cu  Cu27  1  0.70937400  0.72318900  0.99161000  1
  C  C28  1  0.76504100  0.88077100  0.42550100  1
  C  C29  1  0.23495900  0.11922900  0.57449900  1
  C  C30  1  0.26504100  0.11922900  0.07449900  1
  C  C31  1  0.73495900  0.88077100  0.92550100  1
  C  C32  1  0.79993700  0.01429100  0.25637200  1
  C  C33  1  0.20006300  0.98570900  0.74362800  1
  C  C34  1  0.29993700  0.98570900  0.24362800  1
  C  C35  1  0.70006300  0.01429100  0.75637200  1
  C  C36  1  0.88549200  0.61526400  0.25390900  1
  C  C37  1  0.11450800  0.38473600  0.74609100  1
  C  C38  1  0.38549200  0.38473600  0.24609100  1
  C  C39  1  0.61450800  0.61526400  0.75390900  1
  C  C40  1  0.81538300  0.48259600  0.47567100  1
  C  C41  1  0.18461700  0.51740400  0.52432900  1
  C  C42  1  0.31538300  0.51740400  0.02432900  1
  C  C43  1  0.68461700  0.48259600  0.97567100  1
  C  C44  1  0.66249000  0.72021800  0.20100100  1
  C  C45  1  0.33751000  0.27978200  0.79899900  1
  C  C46  1  0.16249000  0.27978200  0.29899900  1
  C  C47  1  0.83751000  0.72021800  0.70100100  1
  C  C48  1  0.60762000  0.81618000  0.03939400  1
  C  C49  1  0.39238000  0.18382000  0.96060600  1
  C  C50  1  0.10762000  0.18382000  0.46060600  1
  C  C51  1  0.89238000  0.81618000  0.53939400  1
