# generated using pymatgen
data_Cu(NiC4)2
_symmetry_space_group_name_H-M   'P 1'
_cell_length_a   5.55447400
_cell_length_b   7.27147800
_cell_length_c   15.44979600
_cell_angle_alpha   90.00000000
_cell_angle_beta   90.00000000
_cell_angle_gamma   90.00000000
_symmetry_Int_Tables_number   1
_chemical_formula_structural   Cu(NiC4)2
_chemical_formula_sum   'Cu4 Ni8 C32'
_cell_volume   624.00544896
_cell_formula_units_Z   4
loop_
 _symmetry_equiv_pos_site_id
 _symmetry_equiv_pos_as_xyz
  1  'x, y, z'
loop_
 _atom_site_type_symbol
 _atom_site_label
 _atom_site_symmetry_multiplicity
 _atom_site_fract_x
 _atom_site_fract_y
 _atom_site_fract_z
 _atom_site_occupancy
  C  C0  1  0.25000000  0.73733800  0.61377000  1
  C  C1  1  0.75000000  0.26266200  0.38623000  1
  C  C2  1  0.75000000  0.73733800  0.88623000  1
  C  C3  1  0.25000000  0.26266200  0.11377000  1
  Ni  Ni4  1  0.75000000  0.99414000  0.67196400  1
  Ni  Ni5  1  0.25000000  0.00586000  0.32803600  1
  Ni  Ni6  1  0.25000000  0.99414000  0.82803600  1
  Ni  Ni7  1  0.75000000  0.00586000  0.17196400  1
  Ni  Ni8  1  0.75000000  0.48674900  0.67522000  1
  Ni  Ni9  1  0.25000000  0.51325100  0.32478000  1
  Ni  Ni10  1  0.25000000  0.48674900  0.82478000  1
  Ni  Ni11  1  0.75000000  0.51325100  0.17522000  1
  Cu  Cu12  1  0.75000000  0.78524800  0.46178000  1
  Cu  Cu13  1  0.25000000  0.21475200  0.53822000  1
  Cu  Cu14  1  0.25000000  0.78524800  0.03822000  1
  Cu  Cu15  1  0.75000000  0.21475200  0.96178000  1
  C  C16  1  0.75000000  0.23214600  0.61166900  1
  C  C17  1  0.25000000  0.76785400  0.38833100  1
  C  C18  1  0.25000000  0.23214600  0.88833100  1
  C  C19  1  0.75000000  0.76785400  0.11166900  1
  C  C20  1  0.00860200  0.54356100  0.60005000  1
  C  C21  1  0.50860200  0.45643900  0.39995000  1
  C  C22  1  0.99139800  0.54356100  0.89995000  1
  C  C23  1  0.49139800  0.45643900  0.10005000  1
  C  C24  1  0.99139800  0.45643900  0.39995000  1
  C  C25  1  0.49139800  0.54356100  0.60005000  1
  C  C26  1  0.00860200  0.45643900  0.10005000  1
  C  C27  1  0.50860200  0.54356100  0.89995000  1
  C  C28  1  0.75000000  0.76099100  0.73151400  1
  C  C29  1  0.25000000  0.23900900  0.26848600  1
  C  C30  1  0.25000000  0.76099100  0.76848600  1
  C  C31  1  0.75000000  0.23900900  0.23151400  1
  C  C32  1  0.99876900  0.92203400  0.58864100  1
  C  C33  1  0.49876900  0.07796600  0.41135900  1
  C  C34  1  0.00123100  0.92203400  0.91135900  1
  C  C35  1  0.50123100  0.07796600  0.08864100  1
  C  C36  1  0.00123100  0.07796600  0.41135900  1
  C  C37  1  0.50123100  0.92203400  0.58864100  1
  C  C38  1  0.99876900  0.07796600  0.08864100  1
  C  C39  1  0.49876900  0.92203400  0.91135900  1
  C  C40  1  0.50000000  0.10578000  0.75000000  1
  C  C41  1  0.00000000  0.89422000  0.25000000  1
  C  C42  1  0.50000000  0.89422000  0.25000000  1
  C  C43  1  0.00000000  0.10578000  0.75000000  1
