# generated using pymatgen
data_Cu2Ni3
_symmetry_space_group_name_H-M   'P 1'
_cell_length_a   3.94157022
_cell_length_b   3.94157022
_cell_length_c   12.11473600
_cell_angle_alpha   90.00000000
_cell_angle_beta   90.00000000
_cell_angle_gamma   120.00000362
_symmetry_Int_Tables_number   1
_chemical_formula_structural   Cu2Ni3
_chemical_formula_sum   'Cu4 Ni6'
_cell_volume   162.99831150
_cell_formula_units_Z   2
loop_
 _symmetry_equiv_pos_site_id
 _symmetry_equiv_pos_as_xyz
  1  'x, y, z'
loop_
 _atom_site_type_symbol
 _atom_site_label
 _atom_site_symmetry_multiplicity
 _atom_site_fract_x
 _atom_site_fract_y
 _atom_site_fract_z
 _atom_site_occupancy
  Ni  Ni0  1  0.33333300  0.66666700  0.56522300  1
  Ni  Ni1  1  0.66666700  0.33333300  0.06522300  1
  Ni  Ni2  1  0.66666700  0.33333300  0.43477700  1
  Ni  Ni3  1  0.33333300  0.66666700  0.93477700  1
  Ni  Ni4  1  0.00000000  0.00000000  0.25000000  1
  Ni  Ni5  1  0.00000000  0.00000000  0.75000000  1
  Cu  Cu6  1  0.33333300  0.66666700  0.36282600  1
  Cu  Cu7  1  0.66666700  0.33333300  0.86282600  1
  Cu  Cu8  1  0.66666700  0.33333300  0.63717400  1
  Cu  Cu9  1  0.33333300  0.66666700  0.13717400  1
