# generated using pymatgen
data_Cu3NiC20
_symmetry_space_group_name_H-M   'P 1'
_cell_length_a   10.86018900
_cell_length_b   10.86018900
_cell_length_c   10.86018900
_cell_angle_alpha   90.00000000
_cell_angle_beta   90.00000000
_cell_angle_gamma   90.00000000
_symmetry_Int_Tables_number   1
_chemical_formula_structural   Cu3NiC20
_chemical_formula_sum   'Cu12 Ni4 C80'
_cell_volume   1280.89092892
_cell_formula_units_Z   4
loop_
 _symmetry_equiv_pos_site_id
 _symmetry_equiv_pos_as_xyz
  1  'x, y, z'
loop_
 _atom_site_type_symbol
 _atom_site_label
 _atom_site_symmetry_multiplicity
 _atom_site_fract_x
 _atom_site_fract_y
 _atom_site_fract_z
 _atom_site_occupancy
  C  C0  1  0.00000000  0.76410100  0.00000000  1
  C  C1  1  0.00000000  0.23589900  0.00000000  1
  C  C2  1  0.50000000  0.26410100  0.50000000  1
  C  C3  1  0.50000000  0.73589900  0.50000000  1
  C  C4  1  0.00000000  0.00000000  0.76410100  1
  C  C5  1  0.00000000  0.00000000  0.23589900  1
  C  C6  1  0.50000000  0.50000000  0.26410100  1
  C  C7  1  0.50000000  0.50000000  0.73589900  1
  C  C8  1  0.76410100  0.00000000  0.00000000  1
  C  C9  1  0.23589900  0.00000000  0.00000000  1
  C  C10  1  0.26410100  0.50000000  0.50000000  1
  C  C11  1  0.73589900  0.50000000  0.50000000  1
  C  C12  1  0.75000000  0.25000000  0.25000000  1
  C  C13  1  0.25000000  0.25000000  0.75000000  1
  C  C14  1  0.25000000  0.75000000  0.25000000  1
  C  C15  1  0.75000000  0.75000000  0.75000000  1
  Ni  Ni16  1  0.25000000  0.75000000  0.75000000  1
  Ni  Ni17  1  0.75000000  0.75000000  0.25000000  1
  Ni  Ni18  1  0.75000000  0.25000000  0.75000000  1
  Ni  Ni19  1  0.25000000  0.25000000  0.25000000  1
  Cu  Cu20  1  0.50000000  0.75130000  0.00000000  1
  Cu  Cu21  1  0.50000000  0.24870000  0.00000000  1
  Cu  Cu22  1  0.00000000  0.50000000  0.75130000  1
  Cu  Cu23  1  0.00000000  0.50000000  0.24870000  1
  Cu  Cu24  1  0.75130000  0.00000000  0.50000000  1
  Cu  Cu25  1  0.24870000  0.00000000  0.50000000  1
  Cu  Cu26  1  0.00000000  0.74870000  0.50000000  1
  Cu  Cu27  1  0.00000000  0.25130000  0.50000000  1
  Cu  Cu28  1  0.50000000  0.00000000  0.74870000  1
  Cu  Cu29  1  0.50000000  0.00000000  0.25130000  1
  Cu  Cu30  1  0.74870000  0.50000000  0.00000000  1
  Cu  Cu31  1  0.25130000  0.50000000  0.00000000  1
  C  C32  1  0.16499600  0.08151100  0.62068200  1
  C  C33  1  0.83500400  0.08151100  0.37931800  1
  C  C34  1  0.83500400  0.91848900  0.62068200  1
  C  C35  1  0.16499600  0.91848900  0.37931800  1
  C  C36  1  0.88761600  0.57623300  0.34237000  1
  C  C37  1  0.11238400  0.57623300  0.65763000  1
  C  C38  1  0.11238400  0.42376700  0.34237000  1
  C  C39  1  0.88761600  0.42376700  0.65763000  1
  C  C40  1  0.62068200  0.16499600  0.08151100  1
  C  C41  1  0.37931800  0.83500400  0.08151100  1
  C  C42  1  0.62068200  0.83500400  0.91848900  1
  C  C43  1  0.37931800  0.16499600  0.91848900  1
  C  C44  1  0.34237000  0.88761600  0.57623300  1
  C  C45  1  0.65763000  0.11238400  0.57623300  1
  C  C46  1  0.34237000  0.11238400  0.42376700  1
  C  C47  1  0.65763000  0.88761600  0.42376700  1
  C  C48  1  0.08151100  0.62068200  0.16499600  1
  C  C49  1  0.08151100  0.37931800  0.83500400  1
  C  C50  1  0.91848900  0.62068200  0.83500400  1
  C  C51  1  0.91848900  0.37931800  0.16499600  1
  C  C52  1  0.57623300  0.34237000  0.88761600  1
  C  C53  1  0.57623300  0.65763000  0.11238400  1
  C  C54  1  0.42376700  0.34237000  0.11238400  1
  C  C55  1  0.42376700  0.65763000  0.88761600  1
  C  C56  1  0.33500400  0.41848900  0.87931800  1
  C  C57  1  0.66499600  0.41848900  0.12068200  1
  C  C58  1  0.66499600  0.58151100  0.87931800  1
  C  C59  1  0.33500400  0.58151100  0.12068200  1
  C  C60  1  0.61238400  0.92376700  0.15763000  1
  C  C61  1  0.38761600  0.92376700  0.84237000  1
  C  C62  1  0.38761600  0.07623300  0.15763000  1
  C  C63  1  0.61238400  0.07623300  0.84237000  1
  C  C64  1  0.87931800  0.33500400  0.41848900  1
  C  C65  1  0.12068200  0.66499600  0.41848900  1
  C  C66  1  0.87931800  0.66499600  0.58151100  1
  C  C67  1  0.12068200  0.33500400  0.58151100  1
  C  C68  1  0.15763000  0.61238400  0.92376700  1
  C  C69  1  0.84237000  0.38761600  0.92376700  1
  C  C70  1  0.15763000  0.38761600  0.07623300  1
  C  C71  1  0.84237000  0.61238400  0.07623300  1
  C  C72  1  0.41848900  0.87931800  0.33500400  1
  C  C73  1  0.41848900  0.12068200  0.66499600  1
  C  C74  1  0.58151100  0.87931800  0.66499600  1
  C  C75  1  0.58151100  0.12068200  0.33500400  1
  C  C76  1  0.92376700  0.15763000  0.61238400  1
  C  C77  1  0.92376700  0.84237000  0.38761600  1
  C  C78  1  0.07623300  0.15763000  0.38761600  1
  C  C79  1  0.07623300  0.84237000  0.61238400  1
  C  C80  1  0.13004600  0.86995400  0.86995400  1
  C  C81  1  0.86995400  0.86995400  0.13004600  1
  C  C82  1  0.86995400  0.13004600  0.86995400  1
  C  C83  1  0.13004600  0.13004600  0.13004600  1
  C  C84  1  0.62905300  0.37094700  0.37094700  1
  C  C85  1  0.37094700  0.37094700  0.62905300  1
  C  C86  1  0.37094700  0.62905300  0.37094700  1
  C  C87  1  0.62905300  0.62905300  0.62905300  1
  C  C88  1  0.36995400  0.63004600  0.63004600  1
  C  C89  1  0.63004600  0.63004600  0.36995400  1
  C  C90  1  0.63004600  0.36995400  0.63004600  1
  C  C91  1  0.36995400  0.36995400  0.36995400  1
  C  C92  1  0.87094700  0.12905300  0.12905300  1
  C  C93  1  0.12905300  0.12905300  0.87094700  1
  C  C94  1  0.12905300  0.87094700  0.12905300  1
  C  C95  1  0.87094700  0.87094700  0.87094700  1
