# generated using pymatgen
data_Cu(NiC3)2
_symmetry_space_group_name_H-M   'P 1'
_cell_length_a   12.45465653
_cell_length_b   12.45465653
_cell_length_c   11.60986266
_cell_angle_alpha   65.77594479
_cell_angle_beta   65.77594479
_cell_angle_gamma   100.38296296
_symmetry_Int_Tables_number   1
_chemical_formula_structural   Cu(NiC3)2
_chemical_formula_sum   'Cu6 Ni12 C36'
_cell_volume   1359.81229960
_cell_formula_units_Z   6
loop_
 _symmetry_equiv_pos_site_id
 _symmetry_equiv_pos_as_xyz
  1  'x, y, z'
loop_
 _atom_site_type_symbol
 _atom_site_label
 _atom_site_symmetry_multiplicity
 _atom_site_fract_x
 _atom_site_fract_y
 _atom_site_fract_z
 _atom_site_occupancy
  Ni  Ni0  1  0.98973100  0.72663700  0.89417700  1
  Ni  Ni1  1  0.72663700  0.98973100  0.39417700  1
  Ni  Ni2  1  0.77951000  0.41898400  0.07791500  1
  Ni  Ni3  1  0.41898400  0.77951000  0.57791500  1
  Ni  Ni4  1  0.17250100  0.24105100  0.96521400  1
  Ni  Ni5  1  0.24105100  0.17250100  0.46521400  1
  Ni  Ni6  1  0.48292100  0.44916600  0.77755500  1
  Ni  Ni7  1  0.44916600  0.48292100  0.27755500  1
  Ni  Ni8  1  0.11802800  0.81733500  0.27769500  1
  Ni  Ni9  1  0.81733500  0.11802800  0.77769500  1
  Ni  Ni10  1  0.91426200  0.51051200  0.45403100  1
  Ni  Ni11  1  0.51051200  0.91426200  0.95403100  1
  C  C12  1  0.00866000  0.51828200  0.02740900  1
  C  C13  1  0.51828200  0.00866000  0.52740900  1
  C  C14  1  0.01800100  0.54507300  0.85801800  1
  C  C15  1  0.54507300  0.01800100  0.35801800  1
  C  C16  1  0.35412900  0.21270700  0.00185700  1
  C  C17  1  0.21270700  0.35412900  0.50185700  1
  C  C18  1  0.37907600  0.21768000  0.83532200  1
  C  C19  1  0.21768000  0.37907600  0.33532200  1
  C  C20  1  0.87957100  0.68753500  0.49714500  1
  C  C21  1  0.68753500  0.87957100  0.99714500  1
  C  C22  1  0.88910300  0.71693600  0.32695100  1
  C  C23  1  0.71693600  0.88910300  0.82695100  1
  Cu  Cu24  1  0.96456200  0.54434600  0.96126000  1
  Cu  Cu25  1  0.54434600  0.96456200  0.46126000  1
  Cu  Cu26  1  0.35474500  0.26464800  0.89849400  1
  Cu  Cu27  1  0.26464800  0.35474500  0.39849400  1
  Cu  Cu28  1  0.93386900  0.69082600  0.39239800  1
  Cu  Cu29  1  0.69082600  0.93386900  0.89239800  1
  C  C30  1  0.89926800  0.74744100  0.76084300  1
  C  C31  1  0.74744100  0.89926800  0.26084300  1
  C  C32  1  0.81984800  0.68267600  0.10628500  1
  C  C33  1  0.68267600  0.81984800  0.60628500  1
  C  C34  1  0.74969800  0.33241300  0.30419500  1
  C  C35  1  0.33241300  0.74969800  0.80419500  1
  C  C36  1  0.81619800  0.26420300  0.03772800  1
  C  C37  1  0.26420300  0.81619800  0.53772800  1
  C  C38  1  0.21546000  0.41116400  0.75452900  1
  C  C39  1  0.41116400  0.21546000  0.25452900  1
  C  C40  1  0.15079200  0.33135700  0.09913900  1
  C  C41  1  0.33135700  0.15079200  0.59913900  1
  C  C42  1  0.63900000  0.41232700  0.81427800  1
  C  C43  1  0.41232700  0.63900000  0.31427800  1
  C  C44  1  0.56597000  0.47554300  0.55300900  1
  C  C45  1  0.47554300  0.56597000  0.05300900  1
  C  C46  1  0.07806100  0.97000400  0.32014500  1
  C  C47  1  0.97000400  0.07806100  0.82014500  1
  C  C48  1  0.15143400  0.90594200  0.04917600  1
  C  C49  1  0.90594200  0.15143400  0.54917600  1
  C  C50  1  0.08519700  0.56096700  0.23911000  1
  C  C51  1  0.56096700  0.08519700  0.73911000  1
  C  C52  1  0.00824600  0.49218300  0.58396100  1
  C  C53  1  0.49218300  0.00824600  0.08396100  1
