# generated using pymatgen
data_Cu6Ni2C
_symmetry_space_group_name_H-M   'P 1'
_cell_length_a   5.41811100
_cell_length_b   6.37920428
_cell_length_c   16.17630300
_cell_angle_alpha   90.00000000
_cell_angle_beta   90.00000000
_cell_angle_gamma   115.12976059
_symmetry_Int_Tables_number   1
_chemical_formula_structural   Cu6Ni2C
_chemical_formula_sum   'Cu24 Ni8 C4'
_cell_volume   506.18513846
_cell_formula_units_Z   4
loop_
 _symmetry_equiv_pos_site_id
 _symmetry_equiv_pos_as_xyz
  1  'x, y, z'
loop_
 _atom_site_type_symbol
 _atom_site_label
 _atom_site_symmetry_multiplicity
 _atom_site_fract_x
 _atom_site_fract_y
 _atom_site_fract_z
 _atom_site_occupancy
  C  C0  1  0.00000000  0.50000000  0.50000000  1
  C  C1  1  0.50000000  0.50000000  0.00000000  1
  C  C2  1  0.00000000  0.00000000  0.25000000  1
  C  C3  1  0.00000000  0.00000000  0.75000000  1
  Ni  Ni4  1  0.50000000  0.50000000  0.45120300  1
  Ni  Ni5  1  0.00000000  0.50000000  0.04879700  1
  Ni  Ni6  1  0.50000000  0.50000000  0.54879700  1
  Ni  Ni7  1  0.00000000  0.50000000  0.95120300  1
  Ni  Ni8  1  0.50000000  0.00000000  0.20152200  1
  Ni  Ni9  1  0.50000000  0.00000000  0.29847800  1
  Ni  Ni10  1  0.50000000  0.00000000  0.79847800  1
  Ni  Ni11  1  0.50000000  0.00000000  0.70152200  1
  Cu  Cu12  1  0.29185500  0.49988900  0.41636100  1
  Cu  Cu13  1  0.70814500  0.50011100  0.41636100  1
  Cu  Cu14  1  0.79196600  0.50011100  0.08363900  1
  Cu  Cu15  1  0.20803400  0.49988900  0.08363900  1
  Cu  Cu16  1  0.70814500  0.50011100  0.58363900  1
  Cu  Cu17  1  0.29185500  0.49988900  0.58363900  1
  Cu  Cu18  1  0.20803400  0.49988900  0.91636100  1
  Cu  Cu19  1  0.79196600  0.50011100  0.91636100  1
  Cu  Cu20  1  0.28851300  0.99283500  0.16643500  1
  Cu  Cu21  1  0.71148700  0.00716500  0.16643500  1
  Cu  Cu22  1  0.29567800  0.00716500  0.33356500  1
  Cu  Cu23  1  0.70432200  0.99283500  0.33356500  1
  Cu  Cu24  1  0.71148700  0.00716500  0.83356500  1
  Cu  Cu25  1  0.28851300  0.99283500  0.83356500  1
  Cu  Cu26  1  0.70432200  0.99283500  0.66643500  1
  Cu  Cu27  1  0.29567800  0.00716500  0.66643500  1
  Cu  Cu28  1  0.14997500  0.80136700  0.50000000  1
  Cu  Cu29  1  0.85002500  0.19863300  0.50000000  1
  Cu  Cu30  1  0.34860800  0.19863300  0.00000000  1
  Cu  Cu31  1  0.65139200  0.80136700  0.00000000  1
  Cu  Cu32  1  0.15455000  0.30910100  0.25000000  1
  Cu  Cu33  1  0.84545000  0.69089900  0.25000000  1
  Cu  Cu34  1  0.84545000  0.69089900  0.75000000  1
  Cu  Cu35  1  0.15455000  0.30910100  0.75000000  1
