# generated using pymatgen
data_Cu6Ni3C13
_symmetry_space_group_name_H-M   'P 1'
_cell_length_a   5.87904000
_cell_length_b   8.43252300
_cell_length_c   10.67961500
_cell_angle_alpha   90.00000000
_cell_angle_beta   90.00000000
_cell_angle_gamma   90.00000000
_symmetry_Int_Tables_number   1
_chemical_formula_structural   Cu6Ni3C13
_chemical_formula_sum   'Cu12 Ni6 C26'
_cell_volume   529.44340896
_cell_formula_units_Z   2
loop_
 _symmetry_equiv_pos_site_id
 _symmetry_equiv_pos_as_xyz
  1  'x, y, z'
loop_
 _atom_site_type_symbol
 _atom_site_label
 _atom_site_symmetry_multiplicity
 _atom_site_fract_x
 _atom_site_fract_y
 _atom_site_fract_z
 _atom_site_occupancy
  Ni  Ni0  1  0.61675000  0.00000000  0.75000000  1
  Ni  Ni1  1  0.38325000  0.00000000  0.25000000  1
  Ni  Ni2  1  0.50000000  0.26314300  0.50000000  1
  Ni  Ni3  1  0.50000000  0.73685700  0.50000000  1
  Ni  Ni4  1  0.50000000  0.73685700  0.00000000  1
  Ni  Ni5  1  0.50000000  0.26314300  0.00000000  1
  Cu  Cu6  1  0.78142800  0.31654400  0.75000000  1
  Cu  Cu7  1  0.21857200  0.68345600  0.25000000  1
  Cu  Cu8  1  0.78142800  0.68345600  0.75000000  1
  Cu  Cu9  1  0.21857200  0.31654400  0.25000000  1
  Cu  Cu10  1  0.00000000  0.35487400  0.50000000  1
  Cu  Cu11  1  0.00000000  0.64512600  0.50000000  1
  Cu  Cu12  1  0.00000000  0.64512600  0.00000000  1
  Cu  Cu13  1  0.00000000  0.35487400  0.00000000  1
  Cu  Cu14  1  0.14818600  0.14598200  0.75000000  1
  Cu  Cu15  1  0.85181400  0.85401800  0.25000000  1
  Cu  Cu16  1  0.14818600  0.85401800  0.75000000  1
  Cu  Cu17  1  0.85181400  0.14598200  0.25000000  1
  C  C18  1  0.26499800  0.50000000  0.75000000  1
  C  C19  1  0.73500200  0.50000000  0.25000000  1
  C  C20  1  0.00000000  0.00000000  0.50000000  1
  C  C21  1  0.00000000  0.00000000  0.00000000  1
  C  C22  1  0.25350400  0.50000000  0.56145000  1
  C  C23  1  0.74649600  0.50000000  0.43855000  1
  C  C24  1  0.25350400  0.50000000  0.93855000  1
  C  C25  1  0.74649600  0.50000000  0.06145000  1
  C  C26  1  0.28066800  0.00000000  0.60687700  1
  C  C27  1  0.71933200  0.00000000  0.39312300  1
  C  C28  1  0.28066800  0.00000000  0.89312300  1
  C  C29  1  0.71933200  0.00000000  0.10687700  1
  C  C30  1  0.13286000  0.17295200  0.11025000  1
  C  C31  1  0.86714000  0.82704800  0.88975000  1
  C  C32  1  0.13286000  0.82704800  0.38975000  1
  C  C33  1  0.86714000  0.17295200  0.88975000  1
  C  C34  1  0.86714000  0.17295200  0.61025000  1
  C  C35  1  0.13286000  0.82704800  0.11025000  1
  C  C36  1  0.86714000  0.82704800  0.61025000  1
  C  C37  1  0.13286000  0.17295200  0.38975000  1
  C  C38  1  0.43163500  0.30163100  0.75000000  1
  C  C39  1  0.56836500  0.69836900  0.25000000  1
  C  C40  1  0.43163500  0.69836900  0.75000000  1
  C  C41  1  0.56836500  0.30163100  0.25000000  1
  C  C42  1  0.94572500  0.50000000  0.75000000  1
  C  C43  1  0.05427500  0.50000000  0.25000000  1
