# generated using pymatgen
data_CuNi3C7
_symmetry_space_group_name_H-M   'P 1'
_cell_length_a   6.74329200
_cell_length_b   10.96203200
_cell_length_c   14.18477100
_cell_angle_alpha   90.00000000
_cell_angle_beta   90.00000000
_cell_angle_gamma   90.00000000
_symmetry_Int_Tables_number   1
_chemical_formula_structural   CuNi3C7
_chemical_formula_sum   'Cu8 Ni24 C56'
_cell_volume   1048.54086373
_cell_formula_units_Z   8
loop_
 _symmetry_equiv_pos_site_id
 _symmetry_equiv_pos_as_xyz
  1  'x, y, z'
loop_
 _atom_site_type_symbol
 _atom_site_label
 _atom_site_symmetry_multiplicity
 _atom_site_fract_x
 _atom_site_fract_y
 _atom_site_fract_z
 _atom_site_occupancy
  Ni  Ni0  1  0.30348800  0.51369000  0.13292400  1
  Ni  Ni1  1  0.69651200  0.01369000  0.36707600  1
  Ni  Ni2  1  0.19651200  0.48631000  0.63292400  1
  Ni  Ni3  1  0.80348800  0.98631000  0.86707600  1
  Ni  Ni4  1  0.69651200  0.48631000  0.86707600  1
  Ni  Ni5  1  0.30348800  0.98631000  0.63292400  1
  Ni  Ni6  1  0.80348800  0.51369000  0.36707600  1
  Ni  Ni7  1  0.19651200  0.01369000  0.13292400  1
  Ni  Ni8  1  0.09143800  0.68335000  0.24323600  1
  Ni  Ni9  1  0.90856200  0.18335000  0.25676400  1
  Ni  Ni10  1  0.40856200  0.31665000  0.74323600  1
  Ni  Ni11  1  0.59143800  0.81665000  0.75676400  1
  Ni  Ni12  1  0.90856200  0.31665000  0.75676400  1
  Ni  Ni13  1  0.09143800  0.81665000  0.74323600  1
  Ni  Ni14  1  0.59143800  0.68335000  0.25676400  1
  Ni  Ni15  1  0.40856200  0.18335000  0.24323600  1
  Ni  Ni16  1  0.38526100  0.59851700  0.45207700  1
  Ni  Ni17  1  0.61473900  0.09851700  0.04792300  1
  Ni  Ni18  1  0.11473900  0.40148300  0.95207700  1
  Ni  Ni19  1  0.88526100  0.90148300  0.54792300  1
  Ni  Ni20  1  0.61473900  0.40148300  0.54792300  1
  Ni  Ni21  1  0.38526100  0.90148300  0.95207700  1
  Ni  Ni22  1  0.88526100  0.59851700  0.04792300  1
  Ni  Ni23  1  0.11473900  0.09851700  0.45207700  1
  Cu  Cu24  1  0.29114600  0.87035900  0.38527700  1
  Cu  Cu25  1  0.70885400  0.37035900  0.11472300  1
  Cu  Cu26  1  0.20885400  0.12964100  0.88527700  1
  Cu  Cu27  1  0.79114600  0.62964100  0.61472300  1
  Cu  Cu28  1  0.70885400  0.12964100  0.61472300  1
  Cu  Cu29  1  0.29114600  0.62964100  0.88527700  1
  Cu  Cu30  1  0.79114600  0.87035900  0.11472300  1
  Cu  Cu31  1  0.20885400  0.37035900  0.38527700  1
  C  C32  1  0.41521500  0.76558400  0.42645900  1
  C  C33  1  0.58478500  0.26558400  0.07354100  1
  C  C34  1  0.08478500  0.23441600  0.92645900  1
  C  C35  1  0.91521500  0.73441600  0.57354100  1
  C  C36  1  0.58478500  0.23441600  0.57354100  1
  C  C37  1  0.41521500  0.73441600  0.92645900  1
  C  C38  1  0.91521500  0.76558400  0.07354100  1
  C  C39  1  0.08478500  0.26558400  0.42645900  1
  C  C40  1  0.16559800  0.92868100  0.46743200  1
  C  C41  1  0.83440200  0.42868100  0.03256800  1
  C  C42  1  0.33440200  0.07131900  0.96743200  1
  C  C43  1  0.66559800  0.57131900  0.53256800  1
  C  C44  1  0.83440200  0.07131900  0.53256800  1
  C  C45  1  0.16559800  0.57131900  0.96743200  1
  C  C46  1  0.66559800  0.92868100  0.03256800  1
  C  C47  1  0.33440200  0.42868100  0.46743200  1
  C  C48  1  0.42691300  0.97634300  0.35148700  1
  C  C49  1  0.57308700  0.47634300  0.14851300  1
  C  C50  1  0.07308700  0.02365700  0.85148700  1
  C  C51  1  0.92691300  0.52365700  0.64851300  1
  C  C52  1  0.57308700  0.02365700  0.64851300  1
  C  C53  1  0.42691300  0.52365700  0.85148700  1
  C  C54  1  0.92691300  0.97634300  0.14851300  1
  C  C55  1  0.07308700  0.47634300  0.35148700  1
  C  C56  1  0.15562700  0.83071000  0.30359600  1
  C  C57  1  0.84437300  0.33071000  0.19640400  1
  C  C58  1  0.34437300  0.16929000  0.80359600  1
  C  C59  1  0.65562700  0.66929000  0.69640400  1
  C  C60  1  0.84437300  0.16929000  0.69640400  1
  C  C61  1  0.15562700  0.66929000  0.80359600  1
  C  C62  1  0.65562700  0.83071000  0.19640400  1
  C  C63  1  0.34437300  0.33071000  0.30359600  1
  C  C64  1  0.03882600  0.56049700  0.15665600  1
  C  C65  1  0.96117400  0.06049700  0.34334400  1
  C  C66  1  0.46117400  0.43950300  0.65665600  1
  C  C67  1  0.53882600  0.93950300  0.84334400  1
  C  C68  1  0.96117400  0.43950300  0.84334400  1
  C  C69  1  0.03882600  0.93950300  0.65665600  1
  C  C70  1  0.53882600  0.56049700  0.34334400  1
  C  C71  1  0.46117400  0.06049700  0.15665600  1
  C  C72  1  0.34680800  0.66421200  0.19401800  1
  C  C73  1  0.65319200  0.16421200  0.30598200  1
  C  C74  1  0.15319200  0.33578800  0.69401800  1
  C  C75  1  0.84680800  0.83578800  0.80598200  1
  C  C76  1  0.65319200  0.33578800  0.80598200  1
  C  C77  1  0.34680800  0.83578800  0.69401800  1
  C  C78  1  0.84680800  0.66421200  0.30598200  1
  C  C79  1  0.15319200  0.16421200  0.19401800  1
  C  C80  1  0.24672300  0.88052400  0.06092900  1
  C  C81  1  0.75327700  0.38052400  0.43907100  1
  C  C82  1  0.25327700  0.11947600  0.56092900  1
  C  C83  1  0.74672300  0.61947600  0.93907100  1
  C  C84  1  0.75327700  0.11947600  0.93907100  1
  C  C85  1  0.24672300  0.61947600  0.56092900  1
  C  C86  1  0.74672300  0.88052400  0.43907100  1
  C  C87  1  0.25327700  0.38052400  0.06092900  1
