# generated using pymatgen
data_Cu8Ni2C3
_symmetry_space_group_name_H-M   'P 1'
_cell_length_a   5.62583600
_cell_length_b   5.08392900
_cell_length_c   10.60556631
_cell_angle_alpha   85.15373141
_cell_angle_beta   90.00000000
_cell_angle_gamma   90.00000000
_symmetry_Int_Tables_number   1
_chemical_formula_structural   Cu8Ni2C3
_chemical_formula_sum   'Cu16 Ni4 C6'
_cell_volume   302.24909327
_cell_formula_units_Z   2
loop_
 _symmetry_equiv_pos_site_id
 _symmetry_equiv_pos_as_xyz
  1  'x, y, z'
loop_
 _atom_site_type_symbol
 _atom_site_label
 _atom_site_symmetry_multiplicity
 _atom_site_fract_x
 _atom_site_fract_y
 _atom_site_fract_z
 _atom_site_occupancy
  C  C0  1  0.50000000  0.00000000  0.50000000  1
  C  C1  1  0.00000000  0.00000000  0.00000000  1
  C  C2  1  0.00437300  0.75993500  0.58311500  1
  C  C3  1  0.50437300  0.24006500  0.91688500  1
  C  C4  1  0.99562700  0.24006500  0.41688500  1
  C  C5  1  0.49562700  0.75993500  0.08311500  1
  Ni  Ni6  1  0.80829200  0.67551100  0.82055500  1
  Ni  Ni7  1  0.30829200  0.32448900  0.67944500  1
  Ni  Ni8  1  0.19170800  0.32448900  0.17944500  1
  Ni  Ni9  1  0.69170800  0.67551100  0.32055500  1
  Cu  Cu10  1  0.31586900  0.94013600  0.95353000  1
  Cu  Cu11  1  0.81586900  0.05986400  0.54647000  1
  Cu  Cu12  1  0.68413100  0.05986400  0.04647000  1
  Cu  Cu13  1  0.18413100  0.94013600  0.45353000  1
  Cu  Cu14  1  0.90748300  0.90131000  0.83585600  1
  Cu  Cu15  1  0.40748300  0.09869000  0.66414400  1
  Cu  Cu16  1  0.09251700  0.09869000  0.16414400  1
  Cu  Cu17  1  0.59251700  0.90131000  0.33585600  1
  Cu  Cu18  1  0.72040200  0.53501900  0.91741600  1
  Cu  Cu19  1  0.22040200  0.46498100  0.58258400  1
  Cu  Cu20  1  0.27959800  0.46498100  0.08258400  1
  Cu  Cu21  1  0.77959800  0.53501900  0.41741600  1
  Cu  Cu22  1  0.79897700  0.59350200  0.70909500  1
  Cu  Cu23  1  0.29897700  0.40649800  0.79090500  1
  Cu  Cu24  1  0.20102300  0.40649800  0.29090500  1
  Cu  Cu25  1  0.70102300  0.59350200  0.20909500  1
