# generated using pymatgen
data_Cu3(NiC2)2
_symmetry_space_group_name_H-M   'P 1'
_cell_length_a   12.92812800
_cell_length_b   12.92812800
_cell_length_c   12.92812800
_cell_angle_alpha   90.00000000
_cell_angle_beta   90.00000000
_cell_angle_gamma   90.00000000
_symmetry_Int_Tables_number   1
_chemical_formula_structural   Cu3(NiC2)2
_chemical_formula_sum   'Cu24 Ni16 C32'
_cell_volume   2160.76198253
_cell_formula_units_Z   8
loop_
 _symmetry_equiv_pos_site_id
 _symmetry_equiv_pos_as_xyz
  1  'x, y, z'
loop_
 _atom_site_type_symbol
 _atom_site_label
 _atom_site_symmetry_multiplicity
 _atom_site_fract_x
 _atom_site_fract_y
 _atom_site_fract_z
 _atom_site_occupancy
  C  C0  1  0.25083800  0.52701000  0.98752900  1
  C  C1  1  0.74916200  0.02701000  0.51247100  1
  C  C2  1  0.24916200  0.47299000  0.48752900  1
  C  C3  1  0.75083800  0.97299000  0.01247100  1
  C  C4  1  0.98752900  0.25083800  0.52701000  1
  C  C5  1  0.51247100  0.74916200  0.02701000  1
  C  C6  1  0.48752900  0.24916200  0.47299000  1
  C  C7  1  0.01247100  0.75083800  0.97299000  1
  C  C8  1  0.52701000  0.98752900  0.25083800  1
  C  C9  1  0.02701000  0.51247100  0.74916200  1
  C  C10  1  0.47299000  0.48752900  0.24916200  1
  C  C11  1  0.97299000  0.01247100  0.75083800  1
  C  C12  1  0.74916200  0.47299000  0.01247100  1
  C  C13  1  0.25083800  0.97299000  0.48752900  1
  C  C14  1  0.75083800  0.52701000  0.51247100  1
  C  C15  1  0.24916200  0.02701000  0.98752900  1
  C  C16  1  0.01247100  0.74916200  0.47299000  1
  C  C17  1  0.48752900  0.25083800  0.97299000  1
  C  C18  1  0.51247100  0.75083800  0.52701000  1
  C  C19  1  0.98752900  0.24916200  0.02701000  1
  C  C20  1  0.47299000  0.01247100  0.74916200  1
  C  C21  1  0.97299000  0.48752900  0.25083800  1
  C  C22  1  0.52701000  0.51247100  0.75083800  1
  C  C23  1  0.02701000  0.98752900  0.24916200  1
  C  C24  1  0.27990700  0.72009300  0.22009300  1
  C  C25  1  0.72009300  0.22009300  0.27990700  1
  C  C26  1  0.22009300  0.27990700  0.72009300  1
  C  C27  1  0.77990700  0.77990700  0.77990700  1
  C  C28  1  0.72009300  0.27990700  0.77990700  1
  C  C29  1  0.27990700  0.77990700  0.72009300  1
  C  C30  1  0.77990700  0.72009300  0.27990700  1
  C  C31  1  0.22009300  0.22009300  0.22009300  1
  Ni  Ni32  1  0.05445600  0.94554400  0.44554400  1
  Ni  Ni33  1  0.94554400  0.44554400  0.05445600  1
  Ni  Ni34  1  0.44554400  0.05445600  0.94554400  1
  Ni  Ni35  1  0.55445600  0.55445600  0.55445600  1
  Ni  Ni36  1  0.94554400  0.05445600  0.55445600  1
  Ni  Ni37  1  0.05445600  0.55445600  0.94554400  1
  Ni  Ni38  1  0.55445600  0.94554400  0.05445600  1
  Ni  Ni39  1  0.44554400  0.44554400  0.44554400  1
  Ni  Ni40  1  0.39601600  0.60398400  0.10398400  1
  Ni  Ni41  1  0.60398400  0.10398400  0.39601600  1
  Ni  Ni42  1  0.10398400  0.39601600  0.60398400  1
  Ni  Ni43  1  0.89601600  0.89601600  0.89601600  1
  Ni  Ni44  1  0.60398400  0.39601600  0.89601600  1
  Ni  Ni45  1  0.39601600  0.89601600  0.60398400  1
  Ni  Ni46  1  0.89601600  0.60398400  0.39601600  1
  Ni  Ni47  1  0.10398400  0.10398400  0.10398400  1
  Cu  Cu48  1  0.23450500  0.68557600  0.42970600  1
  Cu  Cu49  1  0.76549500  0.18557600  0.07029400  1
  Cu  Cu50  1  0.26549500  0.31442400  0.92970600  1
  Cu  Cu51  1  0.73450500  0.81442400  0.57029400  1
  Cu  Cu52  1  0.42970600  0.23450500  0.68557600  1
  Cu  Cu53  1  0.07029400  0.76549500  0.18557600  1
  Cu  Cu54  1  0.92970600  0.26549500  0.31442400  1
  Cu  Cu55  1  0.57029400  0.73450500  0.81442400  1
  Cu  Cu56  1  0.68557600  0.42970600  0.23450500  1
  Cu  Cu57  1  0.18557600  0.07029400  0.76549500  1
  Cu  Cu58  1  0.31442400  0.92970600  0.26549500  1
  Cu  Cu59  1  0.81442400  0.57029400  0.73450500  1
  Cu  Cu60  1  0.76549500  0.31442400  0.57029400  1
  Cu  Cu61  1  0.23450500  0.81442400  0.92970600  1
  Cu  Cu62  1  0.73450500  0.68557600  0.07029400  1
  Cu  Cu63  1  0.26549500  0.18557600  0.42970600  1
  Cu  Cu64  1  0.57029400  0.76549500  0.31442400  1
  Cu  Cu65  1  0.92970600  0.23450500  0.81442400  1
  Cu  Cu66  1  0.07029400  0.73450500  0.68557600  1
  Cu  Cu67  1  0.42970600  0.26549500  0.18557600  1
  Cu  Cu68  1  0.31442400  0.57029400  0.76549500  1
  Cu  Cu69  1  0.81442400  0.92970600  0.23450500  1
  Cu  Cu70  1  0.68557600  0.07029400  0.73450500  1
  Cu  Cu71  1  0.18557600  0.42970600  0.26549500  1
