# generated using pymatgen
data_Cu4Ni3C13
_symmetry_space_group_name_H-M   'P 1'
_cell_length_a   6.29785278
_cell_length_b   6.29785278
_cell_length_c   6.29785278
_cell_angle_alpha   109.47122063
_cell_angle_beta   109.47122063
_cell_angle_gamma   109.47122063
_symmetry_Int_Tables_number   1
_chemical_formula_structural   Cu4Ni3C13
_chemical_formula_sum   'Cu4 Ni3 C13'
_cell_volume   192.28952330
_cell_formula_units_Z   1
loop_
 _symmetry_equiv_pos_site_id
 _symmetry_equiv_pos_as_xyz
  1  'x, y, z'
loop_
 _atom_site_type_symbol
 _atom_site_label
 _atom_site_symmetry_multiplicity
 _atom_site_fract_x
 _atom_site_fract_y
 _atom_site_fract_z
 _atom_site_occupancy
  C  C0  1  0.00000000  0.00000000  0.00000000  1
  Ni  Ni1  1  0.50000000  0.00000000  0.50000000  1
  Ni  Ni2  1  0.50000000  0.50000000  0.00000000  1
  Ni  Ni3  1  0.00000000  0.50000000  0.50000000  1
  Cu  Cu4  1  0.00000000  0.50000000  0.00000000  1
  Cu  Cu5  1  0.50000000  0.00000000  0.00000000  1
  Cu  Cu6  1  0.50000000  0.50000000  0.50000000  1
  Cu  Cu7  1  0.00000000  0.00000000  0.50000000  1
  C  C8  1  0.31053400  0.13935500  0.82882100  1
  C  C9  1  0.68946600  0.86064500  0.17117900  1
  C  C10  1  0.68946600  0.51828700  0.82882100  1
  C  C11  1  0.48171300  0.17117900  0.31053400  1
  C  C12  1  0.17117900  0.31053400  0.48171300  1
  C  C13  1  0.82882100  0.31053400  0.13935500  1
  C  C14  1  0.86064500  0.17117900  0.68946600  1
  C  C15  1  0.82882100  0.68946600  0.51828700  1
  C  C16  1  0.31053400  0.48171300  0.17117900  1
  C  C17  1  0.51828700  0.82882100  0.68946600  1
  C  C18  1  0.17117900  0.68946600  0.86064500  1
  C  C19  1  0.13935500  0.82882100  0.31053400  1
