# generated using pymatgen
data_Cu2NiC
_symmetry_space_group_name_H-M   'P 1'
_cell_length_a   8.04681800
_cell_length_b   9.25485700
_cell_length_c   10.04885400
_cell_angle_alpha   90.00000000
_cell_angle_beta   90.00000000
_cell_angle_gamma   90.00000000
_symmetry_Int_Tables_number   1
_chemical_formula_structural   Cu2NiC
_chemical_formula_sum   'Cu24 Ni12 C12'
_cell_volume   748.35976136
_cell_formula_units_Z   12
loop_
 _symmetry_equiv_pos_site_id
 _symmetry_equiv_pos_as_xyz
  1  'x, y, z'
loop_
 _atom_site_type_symbol
 _atom_site_label
 _atom_site_symmetry_multiplicity
 _atom_site_fract_x
 _atom_site_fract_y
 _atom_site_fract_z
 _atom_site_occupancy
  C  C0  1  0.74074800  0.82786800  0.04690600  1
  C  C1  1  0.74074800  0.17213200  0.95309400  1
  C  C2  1  0.25925200  0.67213200  0.54690600  1
  C  C3  1  0.25925200  0.32786800  0.45309400  1
  C  C4  1  0.25925200  0.17213200  0.95309400  1
  C  C5  1  0.25925200  0.82786800  0.04690600  1
  C  C6  1  0.74074800  0.32786800  0.45309400  1
  C  C7  1  0.74074800  0.67213200  0.54690600  1
  C  C8  1  0.50000000  0.83564900  0.32210800  1
  C  C9  1  0.50000000  0.16435100  0.67789200  1
  C  C10  1  0.50000000  0.66435100  0.82210800  1
  C  C11  1  0.50000000  0.33564900  0.17789200  1
  Ni  Ni12  1  0.75067200  0.58534400  0.24952000  1
  Ni  Ni13  1  0.75067200  0.41465600  0.75048000  1
  Ni  Ni14  1  0.24932800  0.91465600  0.74952000  1
  Ni  Ni15  1  0.24932800  0.08534400  0.25048000  1
  Ni  Ni16  1  0.24932800  0.41465600  0.75048000  1
  Ni  Ni17  1  0.24932800  0.58534400  0.24952000  1
  Ni  Ni18  1  0.75067200  0.08534400  0.25048000  1
  Ni  Ni19  1  0.75067200  0.91465600  0.74952000  1
  Ni  Ni20  1  0.74527600  0.00000000  0.50000000  1
  Ni  Ni21  1  0.25472400  0.50000000  0.00000000  1
  Ni  Ni22  1  0.25472400  0.00000000  0.50000000  1
  Ni  Ni23  1  0.74527600  0.50000000  0.00000000  1
  Cu  Cu24  1  0.84234700  0.83673000  0.31894900  1
  Cu  Cu25  1  0.84234700  0.16327000  0.68105100  1
  Cu  Cu26  1  0.15765300  0.66327000  0.81894900  1
  Cu  Cu27  1  0.15765300  0.33673000  0.18105100  1
  Cu  Cu28  1  0.15765300  0.16327000  0.68105100  1
  Cu  Cu29  1  0.15765300  0.83673000  0.31894900  1
  Cu  Cu30  1  0.84234700  0.33673000  0.18105100  1
  Cu  Cu31  1  0.84234700  0.66327000  0.81894900  1
  Cu  Cu32  1  0.50000000  0.54126000  0.37624400  1
  Cu  Cu33  1  0.50000000  0.45874000  0.62375600  1
  Cu  Cu34  1  0.50000000  0.95874000  0.87624400  1
  Cu  Cu35  1  0.50000000  0.04126000  0.12375600  1
  Cu  Cu36  1  0.00000000  0.54245600  0.37388100  1
  Cu  Cu37  1  0.00000000  0.45754400  0.62611900  1
  Cu  Cu38  1  0.00000000  0.95754400  0.87388100  1
  Cu  Cu39  1  0.00000000  0.04245600  0.12611900  1
  Cu  Cu40  1  0.50000000  0.63034400  0.10150800  1
  Cu  Cu41  1  0.50000000  0.36965600  0.89849200  1
  Cu  Cu42  1  0.50000000  0.86965600  0.60150800  1
  Cu  Cu43  1  0.50000000  0.13034400  0.39849200  1
  Cu  Cu44  1  0.00000000  0.62618500  0.09419200  1
  Cu  Cu45  1  0.00000000  0.37381500  0.90580800  1
  Cu  Cu46  1  0.00000000  0.87381500  0.59419200  1
  Cu  Cu47  1  0.00000000  0.12618500  0.40580800  1
