# generated using pymatgen
data_Cu5Ni2C25
_symmetry_space_group_name_H-M   'P 1'
_cell_length_a   2.91023700
_cell_length_b   8.35269251
_cell_length_c   11.88019699
_cell_angle_alpha   89.27144567
_cell_angle_beta   90.00000000
_cell_angle_gamma   90.00000000
_symmetry_Int_Tables_number   1
_chemical_formula_structural   Cu5Ni2C25
_chemical_formula_sum   'Cu5 Ni2 C25'
_cell_volume   288.76422175
_cell_formula_units_Z   1
loop_
 _symmetry_equiv_pos_site_id
 _symmetry_equiv_pos_as_xyz
  1  'x, y, z'
loop_
 _atom_site_type_symbol
 _atom_site_label
 _atom_site_symmetry_multiplicity
 _atom_site_fract_x
 _atom_site_fract_y
 _atom_site_fract_z
 _atom_site_occupancy
  C  C0  1  0.50000000  0.25469600  0.12341900  1
  C  C1  1  0.50000000  0.74530400  0.37658100  1
  C  C2  1  0.50000000  0.26413500  0.63085700  1
  C  C3  1  0.00000000  0.49933500  0.99599700  1
  C  C4  1  0.00000000  0.00000000  0.25000000  1
  C  C5  1  0.00000000  0.50066500  0.50400300  1
  C  C6  1  0.50000000  0.73586500  0.86914300  1
  C  C7  1  0.00000000  0.00000000  0.75000000  1
  C  C8  1  0.00000000  0.50000000  0.75000000  1
  Ni  Ni9  1  0.00000000  0.00110500  0.99790100  1
  Ni  Ni10  1  0.00000000  0.99889500  0.50209900  1
  Cu  Cu11  1  0.00000000  0.50000000  0.25000000  1
  Cu  Cu12  1  0.50000000  0.27492500  0.86817100  1
  Cu  Cu13  1  0.50000000  0.74396400  0.12667300  1
  Cu  Cu14  1  0.50000000  0.25603600  0.37332700  1
  Cu  Cu15  1  0.50000000  0.72507500  0.63182900  1
  C  C16  1  0.50000000  0.99907100  0.11031200  1
  C  C17  1  0.50000000  0.49601500  0.36884900  1
  C  C18  1  0.50000000  0.00268300  0.60920700  1
  C  C19  1  0.00000000  0.22939200  0.99214800  1
  C  C20  1  0.00000000  0.75190300  0.24181800  1
  C  C21  1  0.00000000  0.23514000  0.49082600  1
  C  C22  1  0.50000000  0.48841700  0.87908800  1
  C  C23  1  0.00000000  0.75657400  0.74045000  1
  C  C24  1  0.50000000  0.50398500  0.13115100  1
  C  C25  1  0.50000000  0.00092900  0.38968800  1
  C  C26  1  0.50000000  0.51158300  0.62091200  1
  C  C27  1  0.00000000  0.76486000  0.00917400  1
  C  C28  1  0.00000000  0.24809700  0.25818200  1
  C  C29  1  0.00000000  0.77060800  0.50785200  1
  C  C30  1  0.50000000  0.99731700  0.89079300  1
  C  C31  1  0.00000000  0.24342600  0.75955000  1
