# generated using pymatgen
data_Cu(NiC2)2
_symmetry_space_group_name_H-M   'P 1'
_cell_length_a   6.48227636
_cell_length_b   6.48227636
_cell_length_c   5.66706639
_cell_angle_alpha   65.06208894
_cell_angle_beta   65.06208894
_cell_angle_gamma   29.89766094
_symmetry_Int_Tables_number   1
_chemical_formula_structural   Cu(NiC2)2
_chemical_formula_sum   'Cu1 Ni2 C4'
_cell_volume   106.79698054
_cell_formula_units_Z   1
loop_
 _symmetry_equiv_pos_site_id
 _symmetry_equiv_pos_as_xyz
  1  'x, y, z'
loop_
 _atom_site_type_symbol
 _atom_site_label
 _atom_site_symmetry_multiplicity
 _atom_site_fract_x
 _atom_site_fract_y
 _atom_site_fract_z
 _atom_site_occupancy
  Ni  Ni0  1  0.75725800  0.75725800  0.18939300  1
  Ni  Ni1  1  0.24274200  0.24274200  0.81060700  1
  Cu  Cu2  1  0.50000000  0.50000000  0.50000000  1
  C  C3  1  0.38352400  0.38352400  0.95907900  1
  C  C4  1  0.61647600  0.61647600  0.04092100  1
  C  C5  1  0.85273400  0.85273400  0.48540700  1
  C  C6  1  0.14726600  0.14726600  0.51459300  1
