# generated using pymatgen
data_Cu24Ni5C27
_symmetry_space_group_name_H-M   'P 1'
_cell_length_a   5.13117100
_cell_length_b   5.18956058
_cell_length_c   22.80949957
_cell_angle_alpha   89.74986186
_cell_angle_beta   88.60360759
_cell_angle_gamma   89.09274626
_symmetry_Int_Tables_number   1
_chemical_formula_structural   Cu24Ni5C27
_chemical_formula_sum   'Cu24 Ni5 C27'
_cell_volume   607.12196800
_cell_formula_units_Z   1
loop_
 _symmetry_equiv_pos_site_id
 _symmetry_equiv_pos_as_xyz
  1  'x, y, z'
loop_
 _atom_site_type_symbol
 _atom_site_label
 _atom_site_symmetry_multiplicity
 _atom_site_fract_x
 _atom_site_fract_y
 _atom_site_fract_z
 _atom_site_occupancy
  C  C0  1  0.57955600  0.05367300  0.85877000  1
  C  C1  1  0.77191300  0.85886800  0.33661500  1
  C  C2  1  0.02064400  0.99846400  0.98329700  1
  C  C3  1  0.13158900  0.15204200  0.68287400  1
  C  C4  1  0.26621700  0.35858600  0.33639200  1
  C  C5  1  0.52021800  0.49984100  0.98982300  1
  C  C6  1  0.64382000  0.64721600  0.66360400  1
  C  C7  1  0.91116000  0.49434800  0.17493000  1
  C  C8  1  0.46858100  0.78642000  0.10852600  1
  C  C9  1  0.07074300  0.89189900  0.51996300  1
  C  C10  1  0.22939900  0.75949400  0.21939200  1
  C  C11  1  0.57710700  0.93840100  0.16815000  1
  C  C12  1  0.69947000  0.00889300  0.09969200  1
  C  C13  1  0.14780900  0.87425800  0.21092200  1
  C  C14  1  0.52687500  0.12317100  0.25605100  1
  C  C15  1  0.38951700  0.10221800  0.12100500  1
  C  C16  1  0.33624500  0.15583500  0.58426500  1
  C  C17  1  0.10716500  0.16287200  0.61260400  1
  C  C18  1  0.92967300  0.38124300  0.45590600  1
  C  C19  1  0.66130200  0.19801800  0.46630600  1
  C  C20  1  0.72273300  0.42508000  0.51613400  1
  C  C21  1  0.63491800  0.51271800  0.44890700  1
  C  C22  1  0.52505200  0.54799100  0.85444900  1
  C  C23  1  0.15962800  0.46406600  0.78856500  1
  C  C24  1  0.87819000  0.62090400  0.79707500  1
  C  C25  1  0.11114800  0.67819900  0.84567500  1
  C  C26  1  0.14315300  0.78963300  0.77657900  1
  Ni  Ni27  1  0.06184800  0.39090000  0.15345600  1
  Ni  Ni28  1  0.19700600  0.73159400  0.51763300  1
  Ni  Ni29  1  0.53152100  0.96063000  0.12467800  1
  Ni  Ni30  1  0.73809200  0.37761600  0.47243600  1
  Ni  Ni31  1  0.07681100  0.63798700  0.80219800  1
  Cu  Cu32  1  0.56142700  0.48415900  0.06476000  1
  Cu  Cu33  1  0.38118500  0.28912400  0.25668000  1
  Cu  Cu34  1  0.01610700  0.60286100  0.31242100  1
  Cu  Cu35  1  0.51658700  0.61254400  0.33369100  1
  Cu  Cu36  1  0.81767600  0.82477100  0.41104500  1
  Cu  Cu37  1  0.71098600  0.63186200  0.59184900  1
  Cu  Cu38  1  0.96011800  0.01778200  0.05882300  1
  Cu  Cu39  1  0.38853800  0.88152500  0.68249500  1
  Cu  Cu40  1  0.67893400  0.94560200  0.25497700  1
  Cu  Cu41  1  0.86783800  0.89224100  0.69134100  1
  Cu  Cu42  1  0.02523000  0.10345200  0.32540400  1
  Cu  Cu43  1  0.15764400  0.13999400  0.76239000  1
  Cu  Cu44  1  0.52187500  0.11295900  0.35203200  1
  Cu  Cu45  1  0.07536500  0.97434600  0.90445000  1
  Cu  Cu46  1  0.20141800  0.39028200  0.41079700  1
  Cu  Cu47  1  0.77158600  0.25931700  0.96757200  1
  Cu  Cu48  1  0.51135500  0.13401100  0.56641200  1
  Cu  Cu49  1  0.27984900  0.24350900  0.98607200  1
  Cu  Cu50  1  0.39432400  0.40939100  0.68238800  1
  Cu  Cu51  1  0.87298200  0.41386000  0.69520100  1
  Cu  Cu52  1  0.57494200  0.55871200  0.80776100  1
  Cu  Cu53  1  0.45275300  0.53154200  0.90440900  1
  Cu  Cu54  1  0.75819300  0.75449300  0.97438400  1
  Cu  Cu55  1  0.26426000  0.74324900  0.99524000  1
