# generated using pymatgen
data_CuNiC8
_symmetry_space_group_name_H-M   'P 1'
_cell_length_a   8.82389686
_cell_length_b   8.80669950
_cell_length_c   8.78273480
_cell_angle_alpha   90.00000000
_cell_angle_beta   90.00000000
_cell_angle_gamma   90.00000000
_symmetry_Int_Tables_number   1
_chemical_formula_structural   CuNiC8
_chemical_formula_sum   'Cu4 Ni4 C32'
_cell_volume   682.50112250
_cell_formula_units_Z   4
loop_
 _symmetry_equiv_pos_site_id
 _symmetry_equiv_pos_as_xyz
  1  'x, y, z'
loop_
 _atom_site_type_symbol
 _atom_site_label
 _atom_site_symmetry_multiplicity
 _atom_site_fract_x
 _atom_site_fract_y
 _atom_site_fract_z
 _atom_site_occupancy
  C  C0  1  0.00000000  0.00000000  0.00000000  1
  C  C1  1  0.50000000  0.50000000  0.50000000  1
  C  C2  1  0.50000000  0.00000000  0.50000000  1
  C  C3  1  0.00000000  0.00000000  0.50000000  1
  Ni  Ni4  1  0.75058049  0.74884105  0.75046237  1
  Ni  Ni5  1  0.24941951  0.25115895  0.75046237  1
  Ni  Ni6  1  0.24941951  0.74884105  0.24953763  1
  Ni  Ni7  1  0.75058049  0.25115895  0.24953763  1
  Cu  Cu8  1  0.00000000  0.50000000  0.50000000  1
  Cu  Cu9  1  0.50000000  0.50000000  0.00000000  1
  Cu  Cu10  1  0.50000000  0.00000000  0.00000000  1
  Cu  Cu11  1  0.00000000  0.50000000  0.00000000  1
  C  C12  1  0.24925726  0.25084744  0.25042292  1
  C  C13  1  0.75074274  0.74915256  0.25042292  1
  C  C14  1  0.75074274  0.25084744  0.74957708  1
  C  C15  1  0.24925726  0.74915256  0.74957708  1
  C  C16  1  0.01257269  0.21178126  0.28346551  1
  C  C17  1  0.98742731  0.78821874  0.28346551  1
  C  C18  1  0.98742731  0.21178126  0.71653449  1
  C  C19  1  0.01257269  0.78821874  0.71653449  1
  C  C20  1  0.28800394  0.01645614  0.20572418  1
  C  C21  1  0.28800394  0.98354386  0.79427582  1
  C  C22  1  0.71199606  0.98354386  0.20572418  1
  C  C23  1  0.71199606  0.01645614  0.79427582  1
  C  C24  1  0.20753146  0.28730872  0.01337519  1
  C  C25  1  0.79246854  0.28730872  0.98662481  1
  C  C26  1  0.20753146  0.71269128  0.98662481  1
  C  C27  1  0.79246854  0.71269128  0.01337519  1
  C  C28  1  0.48783502  0.29202158  0.21203161  1
  C  C29  1  0.51216498  0.70797842  0.21203161  1
  C  C30  1  0.51216498  0.29202158  0.78796839  1
  C  C31  1  0.48783502  0.70797842  0.78796839  1
  C  C32  1  0.21243102  0.48365523  0.29263421  1
  C  C33  1  0.21243102  0.51634477  0.70736579  1
  C  C34  1  0.78756898  0.51634477  0.29263421  1
  C  C35  1  0.78756898  0.48365523  0.70736579  1
  C  C36  1  0.28937075  0.21720090  0.48546907  1
  C  C37  1  0.71062925  0.21720090  0.51453093  1
  C  C38  1  0.28937075  0.78279910  0.51453093  1
  C  C39  1  0.71062925  0.78279910  0.48546907  1
