# generated using pymatgen
data_CuNi14C17
_symmetry_space_group_name_H-M   'P 1'
_cell_length_a   4.36722200
_cell_length_b   8.63698300
_cell_length_c   8.72199000
_cell_angle_alpha   90.00000000
_cell_angle_beta   90.00000000
_cell_angle_gamma   90.00000000
_symmetry_Int_Tables_number   1
_chemical_formula_structural   CuNi14C17
_chemical_formula_sum   'Cu1 Ni14 C17'
_cell_volume   328.99016738
_cell_formula_units_Z   1
loop_
 _symmetry_equiv_pos_site_id
 _symmetry_equiv_pos_as_xyz
  1  'x, y, z'
loop_
 _atom_site_type_symbol
 _atom_site_label
 _atom_site_symmetry_multiplicity
 _atom_site_fract_x
 _atom_site_fract_y
 _atom_site_fract_z
 _atom_site_occupancy
  C  C0  1  0.00000000  0.00000000  0.00000000  1
  Ni  Ni1  1  0.00000000  0.50000000  0.00000000  1
  Ni  Ni2  1  0.00000000  0.50000000  0.50000000  1
  Ni  Ni3  1  0.50000000  0.00000000  0.25041400  1
  Ni  Ni4  1  0.50000000  0.00000000  0.74958600  1
  Ni  Ni5  1  0.50000000  0.50000000  0.25004600  1
  Ni  Ni6  1  0.50000000  0.50000000  0.74995400  1
  Ni  Ni7  1  0.50000000  0.25571100  0.00000000  1
  Ni  Ni8  1  0.50000000  0.25424600  0.50000000  1
  Ni  Ni9  1  0.50000000  0.74428900  0.00000000  1
  Ni  Ni10  1  0.50000000  0.74575400  0.50000000  1
  Ni  Ni11  1  0.00000000  0.25494300  0.25075100  1
  Ni  Ni12  1  0.00000000  0.25494300  0.74924900  1
  Ni  Ni13  1  0.00000000  0.74505700  0.25075100  1
  Ni  Ni14  1  0.00000000  0.74505700  0.74924900  1
  Cu  Cu15  1  0.00000000  0.00000000  0.50000000  1
  C  C16  1  0.00000000  0.26454300  0.00000000  1
  C  C17  1  0.00000000  0.26303200  0.50000000  1
  C  C18  1  0.00000000  0.73545700  0.00000000  1
  C  C19  1  0.00000000  0.73696800  0.50000000  1
  C  C20  1  0.50000000  0.24884200  0.25033900  1
  C  C21  1  0.50000000  0.24884200  0.74966100  1
  C  C22  1  0.50000000  0.75115800  0.25033900  1
  C  C23  1  0.50000000  0.75115800  0.74966100  1
  C  C24  1  0.50000000  0.00000000  0.00000000  1
  C  C25  1  0.50000000  0.00000000  0.50000000  1
  C  C26  1  0.50000000  0.50000000  0.00000000  1
  C  C27  1  0.50000000  0.50000000  0.50000000  1
  C  C28  1  0.00000000  0.00000000  0.25062100  1
  C  C29  1  0.00000000  0.00000000  0.74937900  1
  C  C30  1  0.00000000  0.50000000  0.25103300  1
  C  C31  1  0.00000000  0.50000000  0.74896700  1
