# generated using pymatgen
data_Cu4Ni2C17
_symmetry_space_group_name_H-M   'P 1'
_cell_length_a   9.44397260
_cell_length_b   9.44397260
_cell_length_c   10.17830529
_cell_angle_alpha   59.13353200
_cell_angle_beta   59.13353200
_cell_angle_gamma   48.47546646
_symmetry_Int_Tables_number   1
_chemical_formula_structural   Cu4Ni2C17
_chemical_formula_sum   'Cu8 Ni4 C34'
_cell_volume   561.85872728
_cell_formula_units_Z   2
loop_
 _symmetry_equiv_pos_site_id
 _symmetry_equiv_pos_as_xyz
  1  'x, y, z'
loop_
 _atom_site_type_symbol
 _atom_site_label
 _atom_site_symmetry_multiplicity
 _atom_site_fract_x
 _atom_site_fract_y
 _atom_site_fract_z
 _atom_site_occupancy
  C  C0  1  0.23400000  0.16240000  0.53998600  1
  C  C1  1  0.83760000  0.76600000  0.96001400  1
  C  C2  1  0.16240000  0.23400000  0.03998600  1
  C  C3  1  0.65254600  0.34745400  0.25000000  1
  C  C4  1  0.76600000  0.83760000  0.46001400  1
  C  C5  1  0.34745400  0.65254600  0.75000000  1
  Ni  Ni6  1  0.20831300  0.79168700  0.25000000  1
  Ni  Ni7  1  0.79168700  0.20831300  0.75000000  1
  Ni  Ni8  1  0.00000000  0.00000000  0.00000000  1
  Ni  Ni9  1  0.00000000  0.00000000  0.50000000  1
  Cu  Cu10  1  0.11487700  0.53420400  0.65415100  1
  Cu  Cu11  1  0.53420400  0.11487700  0.15415100  1
  Cu  Cu12  1  0.21582200  0.53235800  0.14677200  1
  Cu  Cu13  1  0.53235800  0.21582200  0.64677200  1
  Cu  Cu14  1  0.46579600  0.88512300  0.84584900  1
  Cu  Cu15  1  0.78417800  0.46764200  0.85322800  1
  Cu  Cu16  1  0.46764200  0.78417800  0.35322800  1
  Cu  Cu17  1  0.88512300  0.46579600  0.34584900  1
  C  C18  1  0.29084800  0.87615000  0.50295900  1
  C  C19  1  0.89405000  0.96263300  0.72464800  1
  C  C20  1  0.64739000  0.45934300  0.81011000  1
  C  C21  1  0.96263300  0.89405000  0.22464800  1
  C  C22  1  0.92889500  0.26701300  0.49452500  1
  C  C23  1  0.50234900  0.05119700  0.81676800  1
  C  C24  1  0.45934300  0.64739000  0.31011000  1
  C  C25  1  0.73298700  0.07110500  0.00547500  1
  C  C26  1  0.49765100  0.94880300  0.18323200  1
  C  C27  1  0.67241200  0.65825600  0.40857600  1
  C  C28  1  0.10595000  0.03736700  0.27535200  1
  C  C29  1  0.07110500  0.73298700  0.50547500  1
  C  C30  1  0.94880300  0.49765100  0.68323200  1
  C  C31  1  0.87615000  0.29084800  0.00295900  1
  C  C32  1  0.65825600  0.67241200  0.90857600  1
  C  C33  1  0.26701300  0.92889500  0.99452500  1
  C  C34  1  0.47017700  0.89431400  0.68102500  1
  C  C35  1  0.32758800  0.34174400  0.59142400  1
  C  C36  1  0.10568600  0.52982300  0.81897500  1
  C  C37  1  0.34174400  0.32758800  0.09142400  1
  C  C38  1  0.05119700  0.50234900  0.31676800  1
  C  C39  1  0.03736700  0.10595000  0.77535200  1
  C  C40  1  0.89431400  0.47017700  0.18102500  1
  C  C41  1  0.35261000  0.54065700  0.18989000  1
  C  C42  1  0.52982300  0.10568600  0.31897500  1
  C  C43  1  0.54065700  0.35261000  0.68989000  1
  C  C44  1  0.12385000  0.70915200  0.99704100  1
  C  C45  1  0.70915200  0.12385000  0.49704100  1
