# generated using pymatgen
data_Cu4(Ni3C2)3
_symmetry_space_group_name_H-M   'P 1'
_cell_length_a   10.33540100
_cell_length_b   10.46627100
_cell_length_c   16.06629313
_cell_angle_alpha   71.21728724
_cell_angle_beta   90.00000000
_cell_angle_gamma   90.00000000
_symmetry_Int_Tables_number   1
_chemical_formula_structural   Cu4(Ni3C2)3
_chemical_formula_sum   'Cu32 Ni72 C48'
_cell_volume   1645.38933924
_cell_formula_units_Z   8
loop_
 _symmetry_equiv_pos_site_id
 _symmetry_equiv_pos_as_xyz
  1  'x, y, z'
loop_
 _atom_site_type_symbol
 _atom_site_label
 _atom_site_symmetry_multiplicity
 _atom_site_fract_x
 _atom_site_fract_y
 _atom_site_fract_z
 _atom_site_occupancy
  C  C0  1  0.88895100  0.80736500  0.03944700  1
  C  C1  1  0.11104900  0.19263500  0.96055300  1
  C  C2  1  0.38895100  0.69263500  0.96055300  1
  C  C3  1  0.61104900  0.30736500  0.03944700  1
  C  C4  1  0.32529700  0.95261400  0.30538300  1
  C  C5  1  0.67470300  0.04738600  0.69461700  1
  C  C6  1  0.82529700  0.54738600  0.69461700  1
  C  C7  1  0.17470300  0.45261400  0.30538300  1
  C  C8  1  0.80671900  0.51511400  0.15768800  1
  C  C9  1  0.19328100  0.48488600  0.84231200  1
  C  C10  1  0.30671900  0.98488600  0.84231200  1
  C  C11  1  0.69328100  0.01511400  0.15768800  1
  C  C12  1  0.58382900  0.66936600  0.34823800  1
  C  C13  1  0.41617100  0.33063400  0.65176200  1
  C  C14  1  0.08382900  0.83063400  0.65176200  1
  C  C15  1  0.91617100  0.16936600  0.34823800  1
  C  C16  1  0.94836300  0.89453700  0.44829300  1
  C  C17  1  0.05163700  0.10546300  0.55170700  1
  C  C18  1  0.44836300  0.60546300  0.55170700  1
  C  C19  1  0.55163700  0.39453700  0.44829300  1
  C  C20  1  0.61939100  0.98996100  0.61507300  1
  C  C21  1  0.38060900  0.01003900  0.38492700  1
  C  C22  1  0.11939100  0.51003900  0.38492700  1
  C  C23  1  0.88060900  0.48996100  0.61507300  1
  C  C24  1  0.16336300  0.92651900  0.10650700  1
  C  C25  1  0.83663700  0.07348100  0.89349300  1
  C  C26  1  0.66336300  0.57348100  0.89349300  1
  C  C27  1  0.33663700  0.42651900  0.10650700  1
  C  C28  1  0.72567500  0.85091500  0.05031500  1
  C  C29  1  0.27432500  0.14908500  0.94968500  1
  C  C30  1  0.22567500  0.64908500  0.94968500  1
  C  C31  1  0.77432500  0.35091500  0.05031500  1
  C  C32  1  0.60919900  0.66354900  0.55087800  1
  C  C33  1  0.39080100  0.33645100  0.44912200  1
  C  C34  1  0.10919900  0.83645100  0.44912200  1
  C  C35  1  0.89080100  0.16354900  0.55087800  1
  C  C36  1  0.11077500  0.77764400  0.17419900  1
  C  C37  1  0.88922500  0.22235600  0.82580100  1
  C  C38  1  0.61077500  0.72235600  0.82580100  1
  C  C39  1  0.38922500  0.27764400  0.17419900  1
  C  C40  1  0.92009700  0.96729800  0.62188900  1
  C  C41  1  0.07990300  0.03270200  0.37811100  1
  C  C42  1  0.42009700  0.53270200  0.37811100  1
  C  C43  1  0.57990300  0.46729800  0.62188900  1
  C  C44  1  0.85961700  0.92186700  0.11817900  1
  C  C45  1  0.14038300  0.07813300  0.88182100  1
  C  C46  1  0.35961700  0.57813300  0.88182100  1
  C  C47  1  0.64038300  0.42186700  0.11817900  1
  Ni  Ni48  1  0.45564000  0.84069800  0.06609300  1
  Ni  Ni49  1  0.54436000  0.15930200  0.93390700  1
  Ni  Ni50  1  0.95564000  0.65930200  0.93390700  1
  Ni  Ni51  1  0.04436000  0.34069800  0.06609300  1
  Ni  Ni52  1  0.98641500  0.99979700  0.20404900  1
  Ni  Ni53  1  0.01358500  0.00020300  0.79595100  1
  Ni  Ni54  1  0.48641500  0.50020300  0.79595100  1
  Ni  Ni55  1  0.51358500  0.49979700  0.20404900  1
  Ni  Ni56  1  0.40711800  0.74549200  0.29029500  1
  Ni  Ni57  1  0.59288200  0.25450800  0.70970500  1
  Ni  Ni58  1  0.90711800  0.75450800  0.70970500  1
  Ni  Ni59  1  0.09288200  0.24549200  0.29029500  1
  Ni  Ni60  1  0.52339000  0.92071200  0.10422400  1
  Ni  Ni61  1  0.47661000  0.07928800  0.89577600  1
  Ni  Ni62  1  0.02339000  0.57928800  0.89577600  1
  Ni  Ni63  1  0.97661000  0.42071200  0.10422400  1
  Ni  Ni64  1  0.62796100  0.54202500  0.20967200  1
  Ni  Ni65  1  0.37203900  0.45797500  0.79032800  1
  Ni  Ni66  1  0.12796100  0.95797500  0.79032800  1
  Ni  Ni67  1  0.87203900  0.04202500  0.20967200  1
  Ni  Ni68  1  0.79224800  0.99637000  0.15787800  1
  Ni  Ni69  1  0.20775200  0.00363000  0.84212200  1
  Ni  Ni70  1  0.29224800  0.50363000  0.84212200  1
  Ni  Ni71  1  0.70775200  0.49637000  0.15787800  1
  Ni  Ni72  1  0.75924200  0.53613800  0.41168800  1
  Ni  Ni73  1  0.24075800  0.46386200  0.58831200  1
  Ni  Ni74  1  0.25924200  0.96386200  0.58831200  1
  Ni  Ni75  1  0.74075800  0.03613800  0.41168800  1
  Ni  Ni76  1  0.79882000  0.93624900  0.65518900  1
  Ni  Ni77  1  0.20118000  0.06375100  0.34481100  1
  Ni  Ni78  1  0.29882000  0.56375100  0.34481100  1
  Ni  Ni79  1  0.70118000  0.43624900  0.65518900  1
  Ni  Ni80  1  0.98265500  0.92567600  0.14722800  1
  Ni  Ni81  1  0.01734500  0.07432400  0.85277200  1
  Ni  Ni82  1  0.48265500  0.57432400  0.85277200  1
  Ni  Ni83  1  0.51734500  0.42567600  0.14722800  1
  Ni  Ni84  1  0.67605600  0.91626500  0.44573100  1
  Ni  Ni85  1  0.32394400  0.08373500  0.55426900  1
  Ni  Ni86  1  0.17605600  0.58373500  0.55426900  1
  Ni  Ni87  1  0.82394400  0.41626500  0.44573100  1
  Ni  Ni88  1  0.54313300  0.58602000  0.56865000  1
  Ni  Ni89  1  0.45686700  0.41398000  0.43135000  1
  Ni  Ni90  1  0.04313300  0.91398000  0.43135000  1
  Ni  Ni91  1  0.95686700  0.08602000  0.56865000  1
  Ni  Ni92  1  0.45365200  0.99797100  0.14333600  1
  Ni  Ni93  1  0.54634800  0.00202900  0.85666400  1
  Ni  Ni94  1  0.95365200  0.50202900  0.85666400  1
  Ni  Ni95  1  0.04634800  0.49797100  0.14333600  1
  Ni  Ni96  1  0.83096300  0.64632200  0.36270900  1
  Ni  Ni97  1  0.16903700  0.35367800  0.63729100  1
  Ni  Ni98  1  0.33096300  0.85367800  0.63729100  1
  Ni  Ni99  1  0.66903700  0.14632200  0.36270900  1
  Ni  Ni100  1  0.98607700  0.85076700  0.65600000  1
  Ni  Ni101  1  0.01392300  0.14923300  0.34400000  1
  Ni  Ni102  1  0.48607700  0.64923300  0.34400000  1
  Ni  Ni103  1  0.51392300  0.35076700  0.65600000  1
  Ni  Ni104  1  0.79474300  0.80503400  0.70959800  1
  Ni  Ni105  1  0.20525700  0.19496600  0.29040200  1
  Ni  Ni106  1  0.29474300  0.69496600  0.29040200  1
  Ni  Ni107  1  0.70525700  0.30503400  0.70959800  1
  Ni  Ni108  1  0.41421000  0.36246600  0.12361700  1
  Ni  Ni109  1  0.58579000  0.63753400  0.87638300  1
  Ni  Ni110  1  0.91421000  0.13753400  0.87638300  1
  Ni  Ni111  1  0.08579000  0.86246600  0.12361700  1
  Ni  Ni112  1  0.30138000  0.97351200  0.36147600  1
  Ni  Ni113  1  0.69862000  0.02648800  0.63852400  1
  Ni  Ni114  1  0.80138000  0.52648800  0.63852400  1
  Ni  Ni115  1  0.19862000  0.47351200  0.36147600  1
  Ni  Ni116  1  0.82157300  0.85855800  0.06343400  1
  Ni  Ni117  1  0.17842700  0.14144200  0.93656600  1
  Ni  Ni118  1  0.32157300  0.64144200  0.93656600  1
  Ni  Ni119  1  0.67842700  0.35855800  0.06343400  1
  Cu  Cu120  1  0.75805500  0.74260000  0.32146100  1
  Cu  Cu121  1  0.24194500  0.25740000  0.67853900  1
  Cu  Cu122  1  0.25805500  0.75740000  0.67853900  1
  Cu  Cu123  1  0.74194500  0.24260000  0.32146100  1
  Cu  Cu124  1  0.56395300  0.89264500  0.42691000  1
  Cu  Cu125  1  0.43604700  0.10735500  0.57309000  1
  Cu  Cu126  1  0.06395300  0.60735500  0.57309000  1
  Cu  Cu127  1  0.93604700  0.39264500  0.42691000  1
  Cu  Cu128  1  0.97167800  0.55896600  0.18026400  1
  Cu  Cu129  1  0.02832200  0.44103400  0.81973600  1
  Cu  Cu130  1  0.47167800  0.94103400  0.81973600  1
  Cu  Cu131  1  0.52832200  0.05896600  0.18026400  1
  Cu  Cu132  1  0.53105400  0.77722200  0.03151600  1
  Cu  Cu133  1  0.46894600  0.22277800  0.96848400  1
  Cu  Cu134  1  0.03105400  0.72277800  0.96848400  1
  Cu  Cu135  1  0.96894600  0.27722200  0.03151600  1
  Cu  Cu136  1  0.95055900  0.65509800  0.36183400  1
  Cu  Cu137  1  0.04944100  0.34490200  0.63816600  1
  Cu  Cu138  1  0.45055900  0.84490200  0.63816600  1
  Cu  Cu139  1  0.54944100  0.15509800  0.36183400  1
  Cu  Cu140  1  0.33633500  0.82926000  0.06435100  1
  Cu  Cu141  1  0.66366500  0.17074000  0.93564900  1
  Cu  Cu142  1  0.83633500  0.67074000  0.93564900  1
  Cu  Cu143  1  0.16366500  0.32926000  0.06435100  1
  Cu  Cu144  1  0.66559600  0.98963600  0.85606900  1
  Cu  Cu145  1  0.33440400  0.01036400  0.14393100  1
  Cu  Cu146  1  0.16559600  0.51036400  0.14393100  1
  Cu  Cu147  1  0.83440400  0.48963600  0.85606900  1
  Cu  Cu148  1  0.74656300  0.82640200  0.49750800  1
  Cu  Cu149  1  0.25343700  0.17359800  0.50249200  1
  Cu  Cu150  1  0.24656300  0.67359800  0.50249200  1
  Cu  Cu151  1  0.75343700  0.32640200  0.49750800  1
