# generated using pymatgen
data_Cu2Ni6C19
_symmetry_space_group_name_H-M   'P 1'
_cell_length_a   11.26127700
_cell_length_b   11.59610100
_cell_length_c   14.81199500
_cell_angle_alpha   90.00000000
_cell_angle_beta   90.00000000
_cell_angle_gamma   90.00000000
_symmetry_Int_Tables_number   1
_chemical_formula_structural   Cu2Ni6C19
_chemical_formula_sum   'Cu8 Ni24 C76'
_cell_volume   1934.25259105
_cell_formula_units_Z   4
loop_
 _symmetry_equiv_pos_site_id
 _symmetry_equiv_pos_as_xyz
  1  'x, y, z'
loop_
 _atom_site_type_symbol
 _atom_site_label
 _atom_site_symmetry_multiplicity
 _atom_site_fract_x
 _atom_site_fract_y
 _atom_site_fract_z
 _atom_site_occupancy
  C  C0  1  0.25000000  0.04834300  0.61666500  1
  C  C1  1  0.25000000  0.45165700  0.11666500  1
  C  C2  1  0.75000000  0.95165700  0.38333500  1
  C  C3  1  0.75000000  0.54834300  0.88333500  1
  C  C4  1  0.25000000  0.72366700  0.91768200  1
  C  C5  1  0.25000000  0.77633300  0.41768200  1
  C  C6  1  0.75000000  0.27633300  0.08231800  1
  C  C7  1  0.75000000  0.22366700  0.58231800  1
  Ni  Ni8  1  0.25000000  0.93941200  0.79176200  1
  Ni  Ni9  1  0.25000000  0.56058800  0.29176200  1
  Ni  Ni10  1  0.75000000  0.06058800  0.20823800  1
  Ni  Ni11  1  0.75000000  0.43941200  0.70823800  1
  Ni  Ni12  1  0.25000000  0.83503100  0.72669900  1
  Ni  Ni13  1  0.25000000  0.66496900  0.22669900  1
  Ni  Ni14  1  0.75000000  0.16496900  0.27330100  1
  Ni  Ni15  1  0.75000000  0.33503100  0.77330100  1
  Ni  Ni16  1  0.01409000  0.56375400  0.89834000  1
  Ni  Ni17  1  0.48591000  0.93624600  0.39834000  1
  Ni  Ni18  1  0.51409000  0.43624600  0.10166000  1
  Ni  Ni19  1  0.98591000  0.06375400  0.60166000  1
  Ni  Ni20  1  0.98591000  0.43624600  0.10166000  1
  Ni  Ni21  1  0.51409000  0.06375400  0.60166000  1
  Ni  Ni22  1  0.48591000  0.56375400  0.89834000  1
  Ni  Ni23  1  0.01409000  0.93624600  0.39834000  1
  Ni  Ni24  1  0.02958200  0.18908300  0.60931200  1
  Ni  Ni25  1  0.47041800  0.31091700  0.10931200  1
  Ni  Ni26  1  0.52958200  0.81091700  0.39068800  1
  Ni  Ni27  1  0.97041800  0.68908300  0.89068800  1
  Ni  Ni28  1  0.97041800  0.81091700  0.39068800  1
  Ni  Ni29  1  0.52958200  0.68908300  0.89068800  1
  Ni  Ni30  1  0.47041800  0.18908300  0.60931200  1
  Ni  Ni31  1  0.02958200  0.31091700  0.10931200  1
  Cu  Cu32  1  0.25000000  0.35064100  0.77938500  1
  Cu  Cu33  1  0.25000000  0.14935900  0.27938500  1
  Cu  Cu34  1  0.75000000  0.64935900  0.22061500  1
  Cu  Cu35  1  0.75000000  0.85064100  0.72061500  1
  Cu  Cu36  1  0.25000000  0.18678900  0.92575300  1
  Cu  Cu37  1  0.25000000  0.31321100  0.42575300  1
  Cu  Cu38  1  0.75000000  0.81321100  0.07424700  1
  Cu  Cu39  1  0.75000000  0.68678900  0.57424700  1
  C  C40  1  0.25000000  0.04187400  0.75613000  1
  C  C41  1  0.25000000  0.45812600  0.25613000  1
  C  C42  1  0.75000000  0.95812600  0.24387000  1
  C  C43  1  0.75000000  0.54187400  0.74387000  1
  C  C44  1  0.25000000  0.92256900  0.87436500  1
  C  C45  1  0.25000000  0.57743100  0.37436500  1
  C  C46  1  0.75000000  0.07743100  0.12563500  1
  C  C47  1  0.75000000  0.42256900  0.62563500  1
  C  C48  1  0.25000000  0.73556600  0.76089500  1
  C  C49  1  0.25000000  0.76443400  0.26089500  1
  C  C50  1  0.75000000  0.26443400  0.23910500  1
  C  C51  1  0.75000000  0.23556600  0.73910500  1
  C  C52  1  0.25000000  0.85747700  0.64222400  1
  C  C53  1  0.25000000  0.64252300  0.14222400  1
  C  C54  1  0.75000000  0.14252300  0.35777600  1
  C  C55  1  0.75000000  0.35747700  0.85777600  1
  C  C56  1  0.12241600  0.54360900  0.89938900  1
  C  C57  1  0.37758400  0.95639100  0.39938900  1
  C  C58  1  0.62241600  0.45639100  0.10061100  1
  C  C59  1  0.87758400  0.04360900  0.60061100  1
  C  C60  1  0.87758400  0.45639100  0.10061100  1
  C  C61  1  0.62241600  0.04360900  0.60061100  1
  C  C62  1  0.37758400  0.54360900  0.89938900  1
  C  C63  1  0.12241600  0.95639100  0.39938900  1
  C  C64  1  0.06864400  0.98610500  0.59514400  1
  C  C65  1  0.43135600  0.51389500  0.09514400  1
  C  C66  1  0.56864400  0.01389500  0.40485600  1
  C  C67  1  0.93135600  0.48610500  0.90485600  1
  C  C68  1  0.93135600  0.01389500  0.40485600  1
  C  C69  1  0.56864400  0.48610500  0.90485600  1
  C  C70  1  0.43135600  0.98610500  0.59514400  1
  C  C71  1  0.06864400  0.51389500  0.09514400  1
  C  C72  1  0.04318300  0.76980800  0.88696300  1
  C  C73  1  0.45681700  0.73019200  0.38696300  1
  C  C74  1  0.54318300  0.23019200  0.11303700  1
  C  C75  1  0.95681700  0.26980800  0.61303700  1
  C  C76  1  0.95681700  0.23019200  0.11303700  1
  C  C77  1  0.54318300  0.26980800  0.61303700  1
  C  C78  1  0.45681700  0.76980800  0.88696300  1
  C  C79  1  0.04318300  0.73019200  0.38696300  1
  C  C80  1  0.14281000  0.20220500  0.61007900  1
  C  C81  1  0.35719000  0.29779500  0.11007900  1
  C  C82  1  0.64281000  0.79779500  0.38992100  1
  C  C83  1  0.85719000  0.70220500  0.88992100  1
  C  C84  1  0.85719000  0.79779500  0.38992100  1
  C  C85  1  0.64281000  0.70220500  0.88992100  1
  C  C86  1  0.35719000  0.20220500  0.61007900  1
  C  C87  1  0.14281000  0.29779500  0.11007900  1
  C  C88  1  0.25000000  0.99114700  0.06394200  1
  C  C89  1  0.25000000  0.50885300  0.56394200  1
  C  C90  1  0.75000000  0.00885300  0.93605800  1
  C  C91  1  0.75000000  0.49114700  0.43605800  1
  C  C92  1  0.15212000  0.21587700  0.90031000  1
  C  C93  1  0.34788000  0.28412300  0.40031000  1
  C  C94  1  0.65212000  0.78412300  0.09969000  1
  C  C95  1  0.84788000  0.71587700  0.59969000  1
  C  C96  1  0.84788000  0.78412300  0.09969000  1
  C  C97  1  0.65212000  0.71587700  0.59969000  1
  C  C98  1  0.34788000  0.21587700  0.90031000  1
  C  C99  1  0.15212000  0.28412300  0.40031000  1
  C  C100  1  0.02318900  0.52327000  0.53255000  1
  C  C101  1  0.47681100  0.97673000  0.03255000  1
  C  C102  1  0.52318900  0.47673000  0.46745000  1
  C  C103  1  0.97681100  0.02327000  0.96745000  1
  C  C104  1  0.97681100  0.47673000  0.46745000  1
  C  C105  1  0.52318900  0.02327000  0.96745000  1
  C  C106  1  0.47681100  0.52327000  0.53255000  1
  C  C107  1  0.02318900  0.97673000  0.03255000  1
