# generated using pymatgen
data_CuNiC4
_symmetry_space_group_name_H-M   'P 1'
_cell_length_a   8.60276772
_cell_length_b   8.60276772
_cell_length_c   8.60276773
_cell_angle_alpha   90.91256042
_cell_angle_beta   90.91256042
_cell_angle_gamma   90.91255819
_symmetry_Int_Tables_number   1
_chemical_formula_structural   CuNiC4
_chemical_formula_sum   'Cu6 Ni6 C24'
_cell_volume   636.42543975
_cell_formula_units_Z   6
loop_
 _symmetry_equiv_pos_site_id
 _symmetry_equiv_pos_as_xyz
  1  'x, y, z'
loop_
 _atom_site_type_symbol
 _atom_site_label
 _atom_site_symmetry_multiplicity
 _atom_site_fract_x
 _atom_site_fract_y
 _atom_site_fract_z
 _atom_site_occupancy
  Ni  Ni0  1  0.34165900  0.34165900  0.34165900  1
  Ni  Ni1  1  0.65942700  0.65942700  0.65942700  1
  Ni  Ni2  1  0.50300200  0.99934300  0.99934300  1
  Ni  Ni3  1  0.99934300  0.99934300  0.50300200  1
  Ni  Ni4  1  0.99934300  0.50300200  0.99934300  1
  Ni  Ni5  1  0.01589900  0.01589900  0.01589900  1
  Cu  Cu6  1  0.63093600  0.36914500  0.99989100  1
  Cu  Cu7  1  0.36914500  0.99989100  0.63093600  1
  Cu  Cu8  1  0.99989100  0.63093600  0.36914500  1
  Cu  Cu9  1  0.63093600  0.99989100  0.36914500  1
  Cu  Cu10  1  0.99989100  0.36914500  0.63093600  1
  Cu  Cu11  1  0.36914500  0.63093600  0.99989100  1
  C  C12  1  0.67222000  0.21000600  0.67222000  1
  C  C13  1  0.21000600  0.67222000  0.67222000  1
  C  C14  1  0.67222000  0.67222000  0.21000600  1
  C  C15  1  0.32786100  0.79012000  0.32786100  1
  C  C16  1  0.79012000  0.32786100  0.32786100  1
  C  C17  1  0.32786100  0.32786100  0.79012000  1
  C  C18  1  0.79901900  0.27455500  0.79901900  1
  C  C19  1  0.27455500  0.79901900  0.79901900  1
  C  C20  1  0.79901900  0.79901900  0.27455500  1
  C  C21  1  0.20099500  0.72596900  0.20099500  1
  C  C22  1  0.72596900  0.20099500  0.20099500  1
  C  C23  1  0.20099500  0.20099500  0.72596900  1
  C  C24  1  0.50007000  0.28771000  0.71266000  1
  C  C25  1  0.28771000  0.71266000  0.50007000  1
  C  C26  1  0.71266000  0.50007000  0.28771000  1
  C  C27  1  0.50007000  0.71266000  0.28771000  1
  C  C28  1  0.71266000  0.28771000  0.50007000  1
  C  C29  1  0.28771000  0.50007000  0.71266000  1
  C  C30  1  0.64714400  0.02382100  0.64714400  1
  C  C31  1  0.02382100  0.64714400  0.64714400  1
  C  C32  1  0.64714400  0.64714400  0.02382100  1
  C  C33  1  0.35170600  0.97667500  0.35170600  1
  C  C34  1  0.97667500  0.35170600  0.35170600  1
  C  C35  1  0.35170600  0.35170600  0.97667500  1
