# generated using pymatgen
data_CuNi3C13
_symmetry_space_group_name_H-M   'P 1'
_cell_length_a   8.26123816
_cell_length_b   8.57921875
_cell_length_c   8.25556047
_cell_angle_alpha   84.28288128
_cell_angle_beta   64.92759068
_cell_angle_gamma   63.82607657
_symmetry_Int_Tables_number   1
_chemical_formula_structural   CuNi3C13
_chemical_formula_sum   'Cu2 Ni6 C26'
_cell_volume   472.88363072
_cell_formula_units_Z   2
loop_
 _symmetry_equiv_pos_site_id
 _symmetry_equiv_pos_as_xyz
  1  'x, y, z'
loop_
 _atom_site_type_symbol
 _atom_site_label
 _atom_site_symmetry_multiplicity
 _atom_site_fract_x
 _atom_site_fract_y
 _atom_site_fract_z
 _atom_site_occupancy
  C  C0  1  0.62758900  0.22748000  0.79145000  1
  C  C1  1  0.37241100  0.77252000  0.20855000  1
  C  C2  1  0.35404100  0.11958400  0.66237900  1
  C  C3  1  0.64595900  0.88041600  0.33762100  1
  C  C4  1  0.41701300  0.41544300  0.81597600  1
  C  C5  1  0.58298700  0.58455700  0.18402400  1
  C  C6  1  0.61554500  0.32355300  0.59707500  1
  C  C7  1  0.38445500  0.67644700  0.40292500  1
  Ni  Ni8  1  0.55783400  0.17506100  0.23643600  1
  Ni  Ni9  1  0.44216600  0.82493900  0.76356400  1
  Ni  Ni10  1  0.00669400  0.74064900  0.71116700  1
  Ni  Ni11  1  0.99330600  0.25935100  0.28883300  1
  Ni  Ni12  1  0.07757200  0.70444300  0.20621500  1
  Ni  Ni13  1  0.92242800  0.29555700  0.79378500  1
  Cu  Cu14  1  0.57037200  0.34603900  0.73911400  1
  Cu  Cu15  1  0.42962800  0.65396100  0.26088600  1
  C  C16  1  0.40249000  0.20061400  0.47320500  1
  C  C17  1  0.59751000  0.79938600  0.52679500  1
  C  C18  1  0.39881300  0.18553400  0.13411900  1
  C  C19  1  0.60118700  0.81446600  0.86588100  1
  C  C20  1  0.96028300  0.82939700  0.51638000  1
  C  C21  1  0.03971700  0.17060300  0.48362000  1
  C  C22  1  0.05105000  0.51484400  0.68197300  1
  C  C23  1  0.94895000  0.48515600  0.31802700  1
  C  C24  1  0.34575500  0.54870100  0.23860100  1
  C  C25  1  0.65424500  0.45129900  0.76139900  1
  C  C26  1  0.71282500  0.91406700  0.21311700  1
  C  C27  1  0.28717500  0.08593300  0.78688300  1
  C  C28  1  0.17978200  0.59789600  0.98257100  1
  C  C29  1  0.82021800  0.40210400  0.01742900  1
  C  C30  1  0.26695800  0.70979200  0.62312500  1
  C  C31  1  0.73304200  0.29020800  0.37687500  1
  C  C32  1  0.15483900  0.88030600  0.13932400  1
  C  C33  1  0.84516100  0.11969400  0.86067600  1
