# generated using pymatgen
data_Cu2NiC6
_symmetry_space_group_name_H-M   'P 1'
_cell_length_a   5.97889581
_cell_length_b   5.97889581
_cell_length_c   13.33402491
_cell_angle_alpha   89.87212558
_cell_angle_beta   89.87212558
_cell_angle_gamma   120.01945014
_symmetry_Int_Tables_number   1
_chemical_formula_structural   Cu2NiC6
_chemical_formula_sum   'Cu8 Ni4 C24'
_cell_volume   412.70942257
_cell_formula_units_Z   4
loop_
 _symmetry_equiv_pos_site_id
 _symmetry_equiv_pos_as_xyz
  1  'x, y, z'
loop_
 _atom_site_type_symbol
 _atom_site_label
 _atom_site_symmetry_multiplicity
 _atom_site_fract_x
 _atom_site_fract_y
 _atom_site_fract_z
 _atom_site_occupancy
  C  C0  1  0.66621700  0.33378300  0.75000000  1
  C  C1  1  0.33378300  0.66621700  0.25000000  1
  Ni  Ni2  1  0.00000000  0.50000000  0.00000000  1
  Ni  Ni3  1  0.50000000  0.00000000  0.50000000  1
  Ni  Ni4  1  0.66712100  0.33287900  0.25000000  1
  Ni  Ni5  1  0.33287900  0.66712100  0.75000000  1
  Cu  Cu6  1  0.00336900  0.00173200  0.85916300  1
  Cu  Cu7  1  0.99663100  0.99826800  0.14083700  1
  Cu  Cu8  1  0.00173200  0.00336900  0.35916300  1
  Cu  Cu9  1  0.99826800  0.99663100  0.64083700  1
  Cu  Cu10  1  0.50000000  0.00000000  0.00000000  1
  Cu  Cu11  1  0.50000000  0.50000000  0.00000000  1
  Cu  Cu12  1  0.00000000  0.50000000  0.50000000  1
  Cu  Cu13  1  0.50000000  0.50000000  0.50000000  1
  C  C14  1  0.66187000  0.32381000  0.41173600  1
  C  C15  1  0.33813000  0.67619000  0.58826400  1
  C  C16  1  0.32381000  0.66187000  0.91173600  1
  C  C17  1  0.67619000  0.33813000  0.08826400  1
  C  C18  1  0.34834300  0.17440900  0.91996000  1
  C  C19  1  0.83411800  0.65132800  0.92009200  1
  C  C20  1  0.83442200  0.18302000  0.92005200  1
  C  C21  1  0.65165700  0.82559100  0.08004000  1
  C  C22  1  0.16588200  0.34867200  0.07990800  1
  C  C23  1  0.16557800  0.81698000  0.07994800  1
  C  C24  1  0.65132800  0.83411800  0.42009200  1
  C  C25  1  0.17440900  0.34834300  0.41996000  1
  C  C26  1  0.18302000  0.83442200  0.42005200  1
  C  C27  1  0.34867200  0.16588200  0.57990800  1
  C  C28  1  0.82559100  0.65165700  0.58004000  1
  C  C29  1  0.81698000  0.16557800  0.57994800  1
  C  C30  1  0.68938500  0.84501700  0.75163300  1
  C  C31  1  0.15498300  0.31061500  0.74836700  1
  C  C32  1  0.15453300  0.84546700  0.75000000  1
  C  C33  1  0.31061500  0.15498300  0.24836700  1
  C  C34  1  0.84501700  0.68938500  0.25163300  1
  C  C35  1  0.84546700  0.15453300  0.25000000  1
