# generated using pymatgen
data_CuNiC3
_symmetry_space_group_name_H-M   'P 1'
_cell_length_a   7.02937650
_cell_length_b   10.55335500
_cell_length_c   8.51019473
_cell_angle_alpha   90.00000000
_cell_angle_beta   109.55882991
_cell_angle_gamma   90.00000000
_symmetry_Int_Tables_number   1
_chemical_formula_structural   CuNiC3
_chemical_formula_sum   'Cu4 Ni4 C12'
_cell_volume   594.88803595
_cell_formula_units_Z   4
loop_
 _symmetry_equiv_pos_site_id
 _symmetry_equiv_pos_as_xyz
  1  'x, y, z'
loop_
 _atom_site_type_symbol
 _atom_site_label
 _atom_site_symmetry_multiplicity
 _atom_site_fract_x
 _atom_site_fract_y
 _atom_site_fract_z
 _atom_site_occupancy
  Ni  Ni0  1  0.00000000  0.32679800  0.00000000  1
  Ni  Ni1  1  0.00000000  0.67320200  0.00000000  1
  Ni  Ni2  1  0.50000000  0.82679800  0.00000000  1
  Ni  Ni3  1  0.50000000  0.17320200  0.00000000  1
  Cu  Cu4  1  0.05079500  0.00000000  0.22425900  1
  Cu  Cu5  1  0.94920500  0.00000000  0.77574100  1
  Cu  Cu6  1  0.55079500  0.50000000  0.22425900  1
  Cu  Cu7  1  0.44920500  0.50000000  0.77574100  1
  C  C8  1  0.28470000  0.18603100  0.22175600  1
  C  C9  1  0.71530000  0.81396900  0.77824400  1
  C  C10  1  0.71530000  0.18603100  0.77824400  1
  C  C11  1  0.28470000  0.81396900  0.22175600  1
  C  C12  1  0.78470000  0.68603100  0.22175600  1
  C  C13  1  0.21530000  0.31396900  0.77824400  1
  C  C14  1  0.21530000  0.68603100  0.77824400  1
  C  C15  1  0.78470000  0.31396900  0.22175600  1
  C  C16  1  0.30550900  0.00000000  0.75687600  1
  C  C17  1  0.69449100  0.00000000  0.24312400  1
  C  C18  1  0.80550900  0.50000000  0.75687600  1
  C  C19  1  0.19449100  0.50000000  0.24312400  1
