# generated using pymatgen
data_Cu2NiC7
_symmetry_space_group_name_H-M   'P 1'
_cell_length_a   5.28266400
_cell_length_b   9.03880600
_cell_length_c   18.42246400
_cell_angle_alpha   90.00000000
_cell_angle_beta   90.00000000
_cell_angle_gamma   90.00000000
_symmetry_Int_Tables_number   1
_chemical_formula_structural   Cu2NiC7
_chemical_formula_sum   'Cu16 Ni8 C56'
_cell_volume   879.65377406
_cell_formula_units_Z   8
loop_
 _symmetry_equiv_pos_site_id
 _symmetry_equiv_pos_as_xyz
  1  'x, y, z'
loop_
 _atom_site_type_symbol
 _atom_site_label
 _atom_site_symmetry_multiplicity
 _atom_site_fract_x
 _atom_site_fract_y
 _atom_site_fract_z
 _atom_site_occupancy
  C  C0  1  0.61377100  0.15208400  0.37578600  1
  C  C1  1  0.38622900  0.84791600  0.62421400  1
  C  C2  1  0.61377100  0.65208400  0.12421400  1
  C  C3  1  0.11377100  0.84791600  0.12421400  1
  C  C4  1  0.88622900  0.15208400  0.87578600  1
  C  C5  1  0.38622900  0.34791600  0.87578600  1
  C  C6  1  0.11377100  0.34791600  0.37578600  1
  C  C7  1  0.88622900  0.65208400  0.62421400  1
  Ni  Ni8  1  0.38036100  0.99252200  0.87551500  1
  Ni  Ni9  1  0.61963900  0.00747800  0.12448500  1
  Ni  Ni10  1  0.88036100  0.00747800  0.62448500  1
  Ni  Ni11  1  0.11963900  0.99252200  0.37551500  1
  Ni  Ni12  1  0.38036100  0.49252200  0.62448500  1
  Ni  Ni13  1  0.61963900  0.50747800  0.37551500  1
  Ni  Ni14  1  0.88036100  0.50747800  0.87551500  1
  Ni  Ni15  1  0.11963900  0.49252200  0.12448500  1
  Cu  Cu16  1  0.57449500  0.66185800  0.77425800  1
  Cu  Cu17  1  0.72700400  0.83620700  0.47390800  1
  Cu  Cu18  1  0.77299600  0.83620700  0.97390800  1
  Cu  Cu19  1  0.92550500  0.16185800  0.22574200  1
  Cu  Cu20  1  0.07449500  0.33814200  0.72574200  1
  Cu  Cu21  1  0.42550500  0.83814200  0.27425800  1
  Cu  Cu22  1  0.22700400  0.66379300  0.47390800  1
  Cu  Cu23  1  0.72700400  0.33620700  0.02609200  1
  Cu  Cu24  1  0.77299600  0.33620700  0.52609200  1
  Cu  Cu25  1  0.92550500  0.66185800  0.27425800  1
  Cu  Cu26  1  0.42550500  0.33814200  0.22574200  1
  Cu  Cu27  1  0.57449500  0.16185800  0.72574200  1
  Cu  Cu28  1  0.27299600  0.16379300  0.52609200  1
  Cu  Cu29  1  0.07449500  0.83814200  0.77425800  1
  Cu  Cu30  1  0.27299600  0.66379300  0.97390800  1
  Cu  Cu31  1  0.22700400  0.16379300  0.02609200  1
  C  C32  1  0.91910600  0.50047200  0.31370000  1
  C  C33  1  0.30956600  0.01352000  0.06856000  1
  C  C34  1  0.08089400  0.49952800  0.68630000  1
  C  C35  1  0.71697000  0.33946600  0.93678200  1
  C  C36  1  0.21697000  0.16053400  0.93678200  1
  C  C37  1  0.93329400  0.20721000  0.05065600  1
  C  C38  1  0.93297100  0.66626600  0.18627000  1
  C  C39  1  0.06702900  0.83373400  0.68627000  1
  C  C40  1  0.71697000  0.83946600  0.56321800  1
  C  C41  1  0.93297100  0.16626600  0.31373000  1
  C  C42  1  0.41910600  0.49952800  0.18630000  1
  C  C43  1  0.78303000  0.33946600  0.43678200  1
  C  C44  1  0.69043400  0.98648000  0.93144000  1
  C  C45  1  0.43297100  0.83373400  0.18627000  1
  C  C46  1  0.58089400  0.00047200  0.68630000  1
  C  C47  1  0.30956600  0.51352000  0.43144000  1
  C  C48  1  0.41910600  0.99952800  0.31370000  1
  C  C49  1  0.15885300  0.76498800  0.30563800  1
  C  C50  1  0.34114700  0.76498800  0.80563800  1
  C  C51  1  0.56670600  0.70721000  0.94934400  1
  C  C52  1  0.78303000  0.83946600  0.06321800  1
  C  C53  1  0.56702900  0.66626600  0.68627000  1
  C  C54  1  0.80956600  0.48648000  0.06856000  1
  C  C55  1  0.15885300  0.26498800  0.19436200  1
  C  C56  1  0.28303000  0.16053400  0.43678200  1
  C  C57  1  0.56702900  0.16626600  0.81373000  1
  C  C58  1  0.69043400  0.48648000  0.56856000  1
  C  C59  1  0.21697000  0.66053400  0.56321800  1
  C  C60  1  0.19043400  0.51352000  0.93144000  1
  C  C61  1  0.65885300  0.73501200  0.30563800  1
  C  C62  1  0.08089400  0.99952800  0.81370000  1
  C  C63  1  0.84114700  0.73501200  0.80563800  1
  C  C64  1  0.84114700  0.23501200  0.69436200  1
  C  C65  1  0.80956600  0.98648000  0.43144000  1
  C  C66  1  0.28303000  0.66053400  0.06321800  1
  C  C67  1  0.19043400  0.01352000  0.56856000  1
  C  C68  1  0.34114700  0.26498800  0.69436200  1
  C  C69  1  0.06670600  0.79279000  0.94934400  1
  C  C70  1  0.43329400  0.79279000  0.44934400  1
  C  C71  1  0.65885300  0.23501200  0.19436200  1
  C  C72  1  0.43329400  0.29279000  0.05065600  1
  C  C73  1  0.56670600  0.20721000  0.55065600  1
  C  C74  1  0.06670600  0.29279000  0.55065600  1
  C  C75  1  0.43297100  0.33373400  0.31373000  1
  C  C76  1  0.58089400  0.50047200  0.81370000  1
  C  C77  1  0.93329400  0.70721000  0.44934400  1
  C  C78  1  0.06702900  0.33373400  0.81373000  1
  C  C79  1  0.91910600  0.00047200  0.18630000  1
