# generated using pymatgen
data_CuNi3C8
_symmetry_space_group_name_H-M   'P 1'
_cell_length_a   7.91728226
_cell_length_b   7.91728226
_cell_length_c   21.14358850
_cell_angle_alpha   84.63045581
_cell_angle_beta   84.63045581
_cell_angle_gamma   90.13652665
_symmetry_Int_Tables_number   1
_chemical_formula_structural   CuNi3C8
_chemical_formula_sum   'Cu4 Ni12 C32'
_cell_volume   1313.66200513
_cell_formula_units_Z   4
loop_
 _symmetry_equiv_pos_site_id
 _symmetry_equiv_pos_as_xyz
  1  'x, y, z'
loop_
 _atom_site_type_symbol
 _atom_site_label
 _atom_site_symmetry_multiplicity
 _atom_site_fract_x
 _atom_site_fract_y
 _atom_site_fract_z
 _atom_site_occupancy
  C  C0  1  0.77732900  0.39310500  0.41980700  1
  C  C1  1  0.23615700  0.10393800  0.58044500  1
  C  C2  1  0.10393800  0.23615700  0.08044500  1
  C  C3  1  0.76384300  0.89606200  0.41955500  1
  C  C4  1  0.39310500  0.77732900  0.91980700  1
  C  C5  1  0.22267100  0.60689500  0.58019300  1
  C  C6  1  0.89606200  0.76384300  0.91955500  1
  C  C7  1  0.60689500  0.22267100  0.08019300  1
  Ni  Ni8  1  0.15456800  0.28098300  0.87929100  1
  Ni  Ni9  1  0.84543200  0.71901700  0.12070900  1
  Ni  Ni10  1  0.71901700  0.84543200  0.62070900  1
  Ni  Ni11  1  0.34610400  0.71988600  0.11969000  1
  Ni  Ni12  1  0.28011400  0.65389600  0.38031000  1
  Ni  Ni13  1  0.65389600  0.28011400  0.88031000  1
  Ni  Ni14  1  0.71988600  0.34610400  0.61969000  1
  Ni  Ni15  1  0.55795500  0.44204500  0.25000000  1
  Ni  Ni16  1  0.44204500  0.55795500  0.75000000  1
  Ni  Ni17  1  0.06831700  0.93168300  0.25000000  1
  Ni  Ni18  1  0.28098300  0.15456800  0.37929100  1
  Ni  Ni19  1  0.93168300  0.06831700  0.75000000  1
  Cu  Cu20  1  0.06450800  0.43783000  0.24978100  1
  Cu  Cu21  1  0.56217000  0.93549200  0.25021900  1
  Cu  Cu22  1  0.93549200  0.56217000  0.75021900  1
  Cu  Cu23  1  0.43783000  0.06450800  0.74978100  1
  C  C24  1  0.33235500  0.96618600  0.18065000  1
  C  C25  1  0.70972600  0.11239900  0.55073500  1
  C  C26  1  0.11239900  0.70972600  0.05073500  1
  C  C27  1  0.29027400  0.88760100  0.44926500  1
  C  C28  1  0.44233900  0.32937400  0.68032800  1
  C  C29  1  0.67062600  0.55766100  0.81967200  1
  C  C30  1  0.55766100  0.67062600  0.31967200  1
  C  C31  1  0.32937400  0.44233900  0.18032800  1
  C  C32  1  0.38583100  0.23598300  0.94954900  1
  C  C33  1  0.76401700  0.61416900  0.55045100  1
  C  C34  1  0.61416900  0.76401700  0.05045100  1
  C  C35  1  0.23598300  0.38583100  0.44954900  1
  C  C36  1  0.16796700  0.03546500  0.81760400  1
  C  C37  1  0.96453500  0.83203300  0.68239600  1
  C  C38  1  0.83203300  0.96453500  0.18239600  1
  C  C39  1  0.03546500  0.16796700  0.31760400  1
  C  C40  1  0.03381400  0.66764500  0.31935000  1
  C  C41  1  0.66764500  0.03381400  0.81935000  1
  C  C42  1  0.96618600  0.33235500  0.68065000  1
  C  C43  1  0.55732900  0.17210800  0.31763100  1
  C  C44  1  0.82789200  0.44267100  0.18236900  1
  C  C45  1  0.44267100  0.82789200  0.68236900  1
  C  C46  1  0.17210800  0.55732900  0.81763100  1
  C  C47  1  0.88760100  0.29027400  0.94926500  1
