# generated using pymatgen
data_Cu45(Ni4C3)4
_symmetry_space_group_name_H-M   'P 1'
_cell_length_a   9.93296300
_cell_length_b   11.28329261
_cell_length_c   11.68679980
_cell_angle_alpha   112.28917187
_cell_angle_beta   86.77309511
_cell_angle_gamma   101.36862772
_symmetry_Int_Tables_number   1
_chemical_formula_structural   Cu45(Ni4C3)4
_chemical_formula_sum   'Cu45 Ni16 C12'
_cell_volume   1187.92260385
_cell_formula_units_Z   1
loop_
 _symmetry_equiv_pos_site_id
 _symmetry_equiv_pos_as_xyz
  1  'x, y, z'
loop_
 _atom_site_type_symbol
 _atom_site_label
 _atom_site_symmetry_multiplicity
 _atom_site_fract_x
 _atom_site_fract_y
 _atom_site_fract_z
 _atom_site_occupancy
  C  C0  1  0.73211100  0.46427600  0.22549100  1
  C  C1  1  0.26992500  0.55297500  0.78211000  1
  C  C2  1  0.00119900  0.00598900  0.00823400  1
  C  C3  1  0.08416700  0.37496300  0.05533600  1
  C  C4  1  0.92028400  0.63279600  0.95145800  1
  C  C5  1  0.32301700  0.20693200  0.24704200  1
  C  C6  1  0.68798100  0.79203600  0.74743900  1
  C  C7  1  0.97605500  0.09674900  0.61551600  1
  C  C8  1  0.33582400  0.80810700  0.53594900  1
  C  C9  1  0.66518600  0.19136500  0.46393400  1
  C  C10  1  0.45662900  0.89698300  0.27985200  1
  C  C11  1  0.54411600  0.10152700  0.72043100  1
  Ni  Ni12  1  0.25113500  0.70872000  0.10156000  1
  Ni  Ni13  1  0.75038200  0.29194600  0.89955800  1
  Ni  Ni14  1  0.14098400  0.76615900  0.72085000  1
  Ni  Ni15  1  0.85398600  0.23652100  0.27771600  1
  Ni  Ni16  1  0.67431800  0.83355000  0.08800500  1
  Ni  Ni17  1  0.32751100  0.16680100  0.91261400  1
  Ni  Ni18  1  0.21405900  0.84496400  0.13268300  1
  Ni  Ni19  1  0.78837900  0.15582000  0.86832200  1
  Ni  Ni20  1  0.26637500  0.53608200  0.35130500  1
  Ni  Ni21  1  0.73491000  0.46289800  0.65258200  1
  Ni  Ni22  1  0.41930500  0.56250000  0.39659200  1
  Ni  Ni23  1  0.58090500  0.43595700  0.60632700  1
  Ni  Ni24  1  0.08460400  0.85615600  0.66955500  1
  Ni  Ni25  1  0.91636700  0.14991500  0.32921000  1
  Ni  Ni26  1  0.69235600  0.77362100  0.18734600  1
  Ni  Ni27  1  0.30503400  0.22028600  0.80987600  1
  Cu  Cu28  1  0.11015300  0.85756400  0.08959900  1
  Cu  Cu29  1  0.89606000  0.14445800  0.90690200  1
  Cu  Cu30  1  0.61488200  0.81099400  0.28235100  1
  Cu  Cu31  1  0.38891900  0.19063500  0.71893900  1
  Cu  Cu32  1  0.08770300  0.74338700  0.81053400  1
  Cu  Cu33  1  0.90567300  0.26131700  0.18839700  1
  Cu  Cu34  1  0.35641300  0.71294900  0.16270800  1
  Cu  Cu35  1  0.64445700  0.28686600  0.83898100  1
  Cu  Cu36  1  0.77094600  0.69641500  0.16901300  1
  Cu  Cu37  1  0.21466900  0.28519100  0.82041700  1
  Cu  Cu38  1  0.20971500  0.63612700  0.40342700  1
  Cu  Cu39  1  0.79234600  0.36374100  0.59830000  1
  Cu  Cu40  1  0.49190700  0.48001800  0.34779500  1
  Cu  Cu41  1  0.50872000  0.51874800  0.65509300  1
  Cu  Cu42  1  0.22523100  0.18299300  0.50077400  1
  Cu  Cu43  1  0.75944600  0.88992300  0.52145500  1
  Cu  Cu44  1  0.56657500  0.88468500  0.10685700  1
  Cu  Cu45  1  0.43574400  0.11632900  0.89406900  1
  Cu  Cu46  1  0.97678000  0.89681600  0.70847000  1
  Cu  Cu47  1  0.02420800  0.11186200  0.28975500  1
  Cu  Cu48  1  0.75824700  0.82572100  0.00341100  1
  Cu  Cu49  1  0.24547500  0.17745600  0.99889800  1
  Cu  Cu50  1  0.45679700  0.67528400  0.48482400  1
  Cu  Cu51  1  0.54267400  0.32311500  0.51879000  1
  Cu  Cu52  1  0.45470600  0.93011400  0.65519500  1
  Cu  Cu53  1  0.54441000  0.07062200  0.34778900  1
  Cu  Cu54  1  0.30416500  0.94013400  0.20730100  1
  Cu  Cu55  1  0.69962500  0.05974900  0.79322700  1
  Cu  Cu56  1  0.01070400  0.58207000  0.28892000  1
  Cu  Cu57  1  0.01623800  0.36774800  0.68032500  1
  Cu  Cu58  1  0.37414200  0.87347100  0.41300600  1
  Cu  Cu59  1  0.63213500  0.12450800  0.58841500  1
  Cu  Cu60  1  0.18219900  0.60929900  0.02268800  1
  Cu  Cu61  1  0.82248100  0.39164100  0.97504200  1
  Cu  Cu62  1  0.54432600  0.17018900  0.08206700  1
  Cu  Cu63  1  0.46305600  0.82785200  0.91564000  1
  Cu  Cu64  1  0.16215100  0.88431700  0.58663500  1
  Cu  Cu65  1  0.84267800  0.12518100  0.41678900  1
  Cu  Cu66  1  0.21524400  0.42821500  0.27338400  1
  Cu  Cu67  1  0.78317800  0.56975900  0.73298800  1
  Cu  Cu68  1  0.24603600  0.72306200  0.66113100  1
  Cu  Cu69  1  0.74800800  0.27695000  0.33789500  1
  Cu  Cu70  1  0.21527400  0.29876400  0.53793800  1
  Cu  Cu71  1  0.48756900  0.47379400  0.03764200  1
  Cu  Cu72  1  0.50953300  0.52457200  0.96023200  1
