# generated using pymatgen
data_Cu7Ni2C
_symmetry_space_group_name_H-M   'P 1'
_cell_length_a   9.73662200
_cell_length_b   12.96903900
_cell_length_c   14.72686300
_cell_angle_alpha   90.00000000
_cell_angle_beta   90.00000000
_cell_angle_gamma   90.00000000
_symmetry_Int_Tables_number   1
_chemical_formula_structural   Cu7Ni2C
_chemical_formula_sum   'Cu84 Ni24 C12'
_cell_volume   1859.62918296
_cell_formula_units_Z   12
loop_
 _symmetry_equiv_pos_site_id
 _symmetry_equiv_pos_as_xyz
  1  'x, y, z'
loop_
 _atom_site_type_symbol
 _atom_site_label
 _atom_site_symmetry_multiplicity
 _atom_site_fract_x
 _atom_site_fract_y
 _atom_site_fract_z
 _atom_site_occupancy
  C  C0  1  0.55828900  0.30129200  0.95991300  1
  C  C1  1  0.94171100  0.69870800  0.45991300  1
  C  C2  1  0.05828900  0.19870800  0.04008700  1
  C  C3  1  0.44171100  0.80129200  0.54008700  1
  C  C4  1  0.11238700  0.81523300  0.11445000  1
  C  C5  1  0.38761300  0.18476700  0.61445000  1
  C  C6  1  0.61238700  0.68476700  0.88555000  1
  C  C7  1  0.88761300  0.31523300  0.38555000  1
  C  C8  1  0.56388800  0.96843800  0.22484100  1
  C  C9  1  0.93611200  0.03156200  0.72484100  1
  C  C10  1  0.06388800  0.53156200  0.77515900  1
  C  C11  1  0.43611200  0.46843800  0.27515900  1
  Ni  Ni12  1  0.84191600  0.88249200  0.27421900  1
  Ni  Ni13  1  0.65808400  0.11750800  0.77421900  1
  Ni  Ni14  1  0.34191600  0.61750800  0.72578100  1
  Ni  Ni15  1  0.15808400  0.38249200  0.22578100  1
  Ni  Ni16  1  0.82729500  0.09688100  0.22527100  1
  Ni  Ni17  1  0.67270500  0.90311900  0.72527100  1
  Ni  Ni18  1  0.32729500  0.40311900  0.77472900  1
  Ni  Ni19  1  0.17270500  0.59688100  0.27472900  1
  Ni  Ni20  1  0.29964800  0.89623100  0.31910900  1
  Ni  Ni21  1  0.20035200  0.10376900  0.81910900  1
  Ni  Ni22  1  0.79964800  0.60376900  0.68089100  1
  Ni  Ni23  1  0.70035200  0.39623100  0.18089100  1
  Ni  Ni24  1  0.47958500  0.03196600  0.41286700  1
  Ni  Ni25  1  0.02041500  0.96803400  0.91286700  1
  Ni  Ni26  1  0.97958500  0.46803400  0.58713300  1
  Ni  Ni27  1  0.52041500  0.53196600  0.08713300  1
  Ni  Ni28  1  0.47534200  0.88719400  0.04155700  1
  Ni  Ni29  1  0.02465800  0.11280600  0.54155700  1
  Ni  Ni30  1  0.97534200  0.61280600  0.95844300  1
  Ni  Ni31  1  0.52465800  0.38719400  0.45844300  1
  Ni  Ni32  1  0.38727700  0.09175200  0.08600000  1
  Ni  Ni33  1  0.11272300  0.90824800  0.58600000  1
  Ni  Ni34  1  0.88727700  0.40824800  0.91400000  1
  Ni  Ni35  1  0.61272300  0.59175200  0.41400000  1
  Cu  Cu36  1  0.43603100  0.88295700  0.26901300  1
  Cu  Cu37  1  0.06396900  0.11704300  0.76901300  1
  Cu  Cu38  1  0.93603100  0.61704300  0.73098700  1
  Cu  Cu39  1  0.56396900  0.38295700  0.23098700  1
  Cu  Cu40  1  0.57289100  0.89432400  0.12256400  1
  Cu  Cu41  1  0.92710900  0.10567600  0.62256400  1
  Cu  Cu42  1  0.07289100  0.60567600  0.87743600  1
  Cu  Cu43  1  0.42710900  0.39432400  0.37743600  1
  Cu  Cu44  1  0.87667600  0.00415400  0.29621100  1
  Cu  Cu45  1  0.62332400  0.99584600  0.79621100  1
  Cu  Cu46  1  0.37667600  0.49584600  0.70378900  1
  Cu  Cu47  1  0.12332400  0.50415400  0.20378900  1
  Cu  Cu48  1  0.79912500  0.18158600  0.28466200  1
  Cu  Cu49  1  0.70087500  0.81841400  0.78466200  1
  Cu  Cu50  1  0.29912500  0.31841400  0.71533800  1
  Cu  Cu51  1  0.20087500  0.68158600  0.21533800  1
  Cu  Cu52  1  0.43584000  0.05213200  0.17758500  1
  Cu  Cu53  1  0.06416000  0.94786800  0.67758500  1
  Cu  Cu54  1  0.93584000  0.44786800  0.82241500  1
  Cu  Cu55  1  0.56416000  0.55213200  0.32241500  1
  Cu  Cu56  1  0.69824000  0.05053400  0.18228800  1
  Cu  Cu57  1  0.80176000  0.94946600  0.68228800  1
  Cu  Cu58  1  0.19824000  0.44946600  0.81771200  1
  Cu  Cu59  1  0.30176000  0.55053400  0.31771200  1
  Cu  Cu60  1  0.55816000  0.04836500  0.32437600  1
  Cu  Cu61  1  0.94184000  0.95163500  0.82437600  1
  Cu  Cu62  1  0.05816000  0.45163500  0.67562400  1
  Cu  Cu63  1  0.44184000  0.54836500  0.17562400  1
  Cu  Cu64  1  0.68512400  0.88187400  0.27405600  1
  Cu  Cu65  1  0.81487600  0.11812600  0.77405600  1
  Cu  Cu66  1  0.18512400  0.61812600  0.72594400  1
  Cu  Cu67  1  0.31487600  0.38187400  0.22594400  1
  Cu  Cu68  1  0.52998900  0.94376100  0.46117300  1
  Cu  Cu69  1  0.97001100  0.05623900  0.96117300  1
  Cu  Cu70  1  0.02998900  0.55623900  0.53882700  1
  Cu  Cu71  1  0.47001100  0.44376100  0.03882700  1
  Cu  Cu72  1  0.45808700  0.01071300  0.01349200  1
  Cu  Cu73  1  0.04191300  0.98928700  0.51349200  1
  Cu  Cu74  1  0.95808700  0.48928700  0.98650800  1
  Cu  Cu75  1  0.54191300  0.51071300  0.48650800  1
  Cu  Cu76  1  0.54601400  0.84515400  0.96528600  1
  Cu  Cu77  1  0.95398600  0.15484600  0.46528600  1
  Cu  Cu78  1  0.04601400  0.65484600  0.03471400  1
  Cu  Cu79  1  0.45398600  0.34515400  0.53471400  1
  Cu  Cu80  1  0.89722900  0.85620800  0.18687200  1
  Cu  Cu81  1  0.60277100  0.14379200  0.68687200  1
  Cu  Cu82  1  0.39722900  0.64379200  0.81312800  1
  Cu  Cu83  1  0.10277100  0.35620800  0.31312800  1
  Cu  Cu84  1  0.46312500  0.12797600  0.45927200  1
  Cu  Cu85  1  0.03687500  0.87202400  0.95927200  1
  Cu  Cu86  1  0.96312500  0.37202400  0.54072800  1
  Cu  Cu87  1  0.53687500  0.62797600  0.04072800  1
  Cu  Cu88  1  0.24079300  0.08142300  0.08058800  1
  Cu  Cu89  1  0.25920700  0.91857700  0.58058800  1
  Cu  Cu90  1  0.74079300  0.41857700  0.91941200  1
  Cu  Cu91  1  0.75920700  0.58142300  0.41941200  1
  Cu  Cu92  1  0.32352200  0.00672200  0.37460200  1
  Cu  Cu93  1  0.17647800  0.99327800  0.87460200  1
  Cu  Cu94  1  0.82352200  0.49327800  0.62539800  1
  Cu  Cu95  1  0.67647800  0.50672200  0.12539800  1
  Cu  Cu96  1  0.34249400  0.84875400  0.06628400  1
  Cu  Cu97  1  0.15750600  0.15124600  0.56628400  1
  Cu  Cu98  1  0.84249400  0.65124600  0.93371600  1
  Cu  Cu99  1  0.65750600  0.34875400  0.43371600  1
  Cu  Cu100  1  0.93113500  0.10771400  0.15735700  1
  Cu  Cu101  1  0.56886500  0.89228600  0.65735700  1
  Cu  Cu102  1  0.43113500  0.39228600  0.84264300  1
  Cu  Cu103  1  0.06886500  0.60771400  0.34264300  1
  Cu  Cu104  1  0.89004600  0.83008700  0.35341400  1
  Cu  Cu105  1  0.60995400  0.16991300  0.85341400  1
  Cu  Cu106  1  0.39004600  0.66991300  0.64658600  1
  Cu  Cu107  1  0.10995400  0.33008700  0.14658600  1
  Cu  Cu108  1  0.44778700  0.18873700  0.06264700  1
  Cu  Cu109  1  0.05221300  0.81126300  0.56264700  1
  Cu  Cu110  1  0.94778700  0.31126300  0.93735300  1
  Cu  Cu111  1  0.55221300  0.68873700  0.43735300  1
  Cu  Cu112  1  0.28496500  0.81685600  0.38609600  1
  Cu  Cu113  1  0.21503500  0.18314400  0.88609600  1
  Cu  Cu114  1  0.78496500  0.68314400  0.61390400  1
  Cu  Cu115  1  0.71503500  0.31685600  0.11390400  1
  Cu  Cu116  1  0.18826000  0.91861800  0.25886000  1
  Cu  Cu117  1  0.31174000  0.08138200  0.75886000  1
  Cu  Cu118  1  0.68826000  0.58138200  0.74114000  1
  Cu  Cu119  1  0.81174000  0.41861800  0.24114000  1
