# generated using pymatgen
data_Cu9(NiC2)2
_symmetry_space_group_name_H-M   'P 1'
_cell_length_a   4.13578100
_cell_length_b   11.32786200
_cell_length_c   17.07950900
_cell_angle_alpha   90.00000000
_cell_angle_beta   90.00000000
_cell_angle_gamma   90.00000000
_symmetry_Int_Tables_number   1
_chemical_formula_structural   Cu9(NiC2)2
_chemical_formula_sum   'Cu18 Ni4 C8'
_cell_volume   800.16742070
_cell_formula_units_Z   2
loop_
 _symmetry_equiv_pos_site_id
 _symmetry_equiv_pos_as_xyz
  1  'x, y, z'
loop_
 _atom_site_type_symbol
 _atom_site_label
 _atom_site_symmetry_multiplicity
 _atom_site_fract_x
 _atom_site_fract_y
 _atom_site_fract_z
 _atom_site_occupancy
  C  C0  1  0.50000000  0.71832100  0.05745000  1
  C  C1  1  0.50000000  0.28167900  0.94255000  1
  C  C2  1  0.50000000  0.21832100  0.44255000  1
  C  C3  1  0.50000000  0.78167900  0.55745000  1
  C  C4  1  0.50000000  0.88353600  0.29470400  1
  C  C5  1  0.50000000  0.11646400  0.70529600  1
  C  C6  1  0.50000000  0.38353600  0.20529600  1
  C  C7  1  0.50000000  0.61646400  0.79470400  1
  Ni  Ni8  1  0.00000000  0.55249000  0.38377500  1
  Ni  Ni9  1  0.00000000  0.44751000  0.61622500  1
  Ni  Ni10  1  0.00000000  0.05249000  0.11622500  1
  Ni  Ni11  1  0.00000000  0.94751000  0.88377500  1
  Cu  Cu12  1  0.00000000  0.85047700  0.17248300  1
  Cu  Cu13  1  0.00000000  0.14952300  0.82751700  1
  Cu  Cu14  1  0.00000000  0.35047700  0.32751700  1
  Cu  Cu15  1  0.00000000  0.64952300  0.67248300  1
  Cu  Cu16  1  0.00000000  0.82883700  0.41186000  1
  Cu  Cu17  1  0.00000000  0.17116300  0.58814000  1
  Cu  Cu18  1  0.00000000  0.32883700  0.08814000  1
  Cu  Cu19  1  0.00000000  0.67116300  0.91186000  1
  Cu  Cu20  1  0.50000000  0.50000000  0.50000000  1
  Cu  Cu21  1  0.50000000  0.00000000  0.00000000  1
  Cu  Cu22  1  0.00000000  0.50847700  0.12082300  1
  Cu  Cu23  1  0.00000000  0.49152300  0.87917700  1
  Cu  Cu24  1  0.00000000  0.00847700  0.37917700  1
  Cu  Cu25  1  0.00000000  0.99152300  0.62082300  1
  Cu  Cu26  1  0.50000000  0.61407500  0.28819900  1
  Cu  Cu27  1  0.50000000  0.38592500  0.71180100  1
  Cu  Cu28  1  0.50000000  0.11407500  0.21180100  1
  Cu  Cu29  1  0.50000000  0.88592500  0.78819900  1
