# generated using pymatgen
data_Cu2NiC7
_symmetry_space_group_name_H-M   'P 1'
_cell_length_a   5.27030100
_cell_length_b   9.03492000
_cell_length_c   18.83906900
_cell_angle_alpha   90.00000000
_cell_angle_beta   90.00000000
_cell_angle_gamma   90.00000000
_symmetry_Int_Tables_number   1
_chemical_formula_structural   Cu2NiC7
_chemical_formula_sum   'Cu16 Ni8 C56'
_cell_volume   897.05519945
_cell_formula_units_Z   8
loop_
 _symmetry_equiv_pos_site_id
 _symmetry_equiv_pos_as_xyz
  1  'x, y, z'
loop_
 _atom_site_type_symbol
 _atom_site_label
 _atom_site_symmetry_multiplicity
 _atom_site_fract_x
 _atom_site_fract_y
 _atom_site_fract_z
 _atom_site_occupancy
  C  C0  1  0.35026200  0.97759100  0.87761900  1
  C  C1  1  0.64973800  0.02240900  0.12238100  1
  C  C2  1  0.85026200  0.02240900  0.62238100  1
  C  C3  1  0.14973800  0.97759100  0.37761900  1
  C  C4  1  0.35026200  0.47759100  0.62238100  1
  C  C5  1  0.64973800  0.52240900  0.37761900  1
  C  C6  1  0.85026200  0.52240900  0.87761900  1
  C  C7  1  0.14973800  0.47759100  0.12238100  1
  Ni  Ni8  1  0.63344000  0.14843600  0.37676400  1
  Ni  Ni9  1  0.36656000  0.85156400  0.62323600  1
  Ni  Ni10  1  0.63344000  0.64843600  0.12323600  1
  Ni  Ni11  1  0.13344000  0.85156400  0.12323600  1
  Ni  Ni12  1  0.86656000  0.14843600  0.87676400  1
  Ni  Ni13  1  0.36656000  0.35156400  0.87676400  1
  Ni  Ni14  1  0.13344000  0.35156400  0.37676400  1
  Ni  Ni15  1  0.86656000  0.64843600  0.62323600  1
  Cu  Cu16  1  0.54841100  0.65876300  0.76770700  1
  Cu  Cu17  1  0.69927900  0.83673900  0.47510500  1
  Cu  Cu18  1  0.80072100  0.83673900  0.97510500  1
  Cu  Cu19  1  0.95158900  0.15876300  0.23229300  1
  Cu  Cu20  1  0.04841100  0.34123700  0.73229300  1
  Cu  Cu21  1  0.45158900  0.84123700  0.26770700  1
  Cu  Cu22  1  0.19927900  0.66326100  0.47510500  1
  Cu  Cu23  1  0.69927900  0.33673900  0.02489500  1
  Cu  Cu24  1  0.80072100  0.33673900  0.52489500  1
  Cu  Cu25  1  0.95158900  0.65876300  0.26770700  1
  Cu  Cu26  1  0.45158900  0.34123700  0.23229300  1
  Cu  Cu27  1  0.54841100  0.15876300  0.73229300  1
  Cu  Cu28  1  0.30072100  0.16326100  0.52489500  1
  Cu  Cu29  1  0.04841100  0.84123700  0.76770700  1
  Cu  Cu30  1  0.30072100  0.66326100  0.97510500  1
  Cu  Cu31  1  0.19927900  0.16326100  0.02489500  1
  C  C32  1  0.96348700  0.50194000  0.30813000  1
  C  C33  1  0.30020100  0.01766500  0.06458400  1
  C  C34  1  0.03651300  0.49806000  0.69187000  1
  C  C35  1  0.70163000  0.33907100  0.93807400  1
  C  C36  1  0.20163000  0.16092900  0.93807400  1
  C  C37  1  0.89755500  0.19900600  0.05152400  1
  C  C38  1  0.96672900  0.65670800  0.18119500  1
  C  C39  1  0.03327100  0.84329200  0.68119500  1
  C  C40  1  0.70163000  0.83907100  0.56192600  1
  C  C41  1  0.96672900  0.15670800  0.31880500  1
  C  C42  1  0.46348700  0.49806000  0.19187000  1
  C  C43  1  0.79837000  0.33907100  0.43807400  1
  C  C44  1  0.69979900  0.98233500  0.93541600  1
  C  C45  1  0.46672900  0.84329200  0.18119500  1
  C  C46  1  0.53651300  0.00194000  0.69187000  1
  C  C47  1  0.30020100  0.51766500  0.43541600  1
  C  C48  1  0.46348700  0.99806000  0.30813000  1
  C  C49  1  0.17111000  0.77651800  0.29744600  1
  C  C50  1  0.32889000  0.77651800  0.79744600  1
  C  C51  1  0.60244500  0.69900600  0.94847600  1
  C  C52  1  0.79837000  0.83907100  0.06192600  1
  C  C53  1  0.53327100  0.65670800  0.68119500  1
  C  C54  1  0.80020100  0.48233500  0.06458400  1
  C  C55  1  0.17111000  0.27651800  0.20255400  1
  C  C56  1  0.29837000  0.16092900  0.43807400  1
  C  C57  1  0.53327100  0.15670800  0.81880500  1
  C  C58  1  0.69979900  0.48233500  0.56458400  1
  C  C59  1  0.20163000  0.66092900  0.56192600  1
  C  C60  1  0.19979900  0.51766500  0.93541600  1
  C  C61  1  0.67111000  0.72348200  0.29744600  1
  C  C62  1  0.03651300  0.99806000  0.80813000  1
  C  C63  1  0.82889000  0.72348200  0.79744600  1
  C  C64  1  0.82889000  0.22348200  0.70255400  1
  C  C65  1  0.80020100  0.98233500  0.43541600  1
  C  C66  1  0.29837000  0.66092900  0.06192600  1
  C  C67  1  0.19979900  0.01766500  0.56458400  1
  C  C68  1  0.32889000  0.27651800  0.70255400  1
  C  C69  1  0.10244500  0.80099400  0.94847600  1
  C  C70  1  0.39755500  0.80099400  0.44847600  1
  C  C71  1  0.67111000  0.22348200  0.20255400  1
  C  C72  1  0.39755500  0.30099400  0.05152400  1
  C  C73  1  0.60244500  0.19900600  0.55152400  1
  C  C74  1  0.10244500  0.30099400  0.55152400  1
  C  C75  1  0.46672900  0.34329200  0.31880500  1
  C  C76  1  0.53651300  0.50194000  0.80813000  1
  C  C77  1  0.89755500  0.69900600  0.44847600  1
  C  C78  1  0.03327100  0.34329200  0.81880500  1
  C  C79  1  0.96348700  0.00194000  0.19187000  1
