# generated using pymatgen
data_Cu3Ni2C15
_symmetry_space_group_name_H-M   'P 1'
_cell_length_a   10.61046530
_cell_length_b   10.61046530
_cell_length_c   10.61046530
_cell_angle_alpha   109.47122063
_cell_angle_beta   109.47122063
_cell_angle_gamma   109.47122063
_symmetry_Int_Tables_number   1
_chemical_formula_structural   Cu3Ni2C15
_chemical_formula_sum   'Cu12 Ni8 C60'
_cell_volume   919.56280860
_cell_formula_units_Z   4
loop_
 _symmetry_equiv_pos_site_id
 _symmetry_equiv_pos_as_xyz
  1  'x, y, z'
loop_
 _atom_site_type_symbol
 _atom_site_label
 _atom_site_symmetry_multiplicity
 _atom_site_fract_x
 _atom_site_fract_y
 _atom_site_fract_z
 _atom_site_occupancy
  Ni  Ni0  1  0.00000000  0.00000000  0.00000000  1
  Ni  Ni1  1  0.50000000  0.00000000  0.50000000  1
  Ni  Ni2  1  0.00000000  0.50000000  0.50000000  1
  Ni  Ni3  1  0.50000000  0.00000000  0.00000000  1
  Ni  Ni4  1  0.50000000  0.50000000  0.00000000  1
  Ni  Ni5  1  0.50000000  0.50000000  0.50000000  1
  Ni  Ni6  1  0.00000000  0.00000000  0.50000000  1
  Ni  Ni7  1  0.00000000  0.50000000  0.00000000  1
  Cu  Cu8  1  0.25000000  0.37500000  0.12500000  1
  Cu  Cu9  1  0.75000000  0.62500000  0.87500000  1
  Cu  Cu10  1  0.75000000  0.12500000  0.37500000  1
  Cu  Cu11  1  0.12500000  0.25000000  0.37500000  1
  Cu  Cu12  1  0.37500000  0.75000000  0.12500000  1
  Cu  Cu13  1  0.25000000  0.87500000  0.62500000  1
  Cu  Cu14  1  0.87500000  0.75000000  0.62500000  1
  Cu  Cu15  1  0.62500000  0.25000000  0.87500000  1
  Cu  Cu16  1  0.37500000  0.12500000  0.25000000  1
  Cu  Cu17  1  0.62500000  0.87500000  0.75000000  1
  Cu  Cu18  1  0.12500000  0.37500000  0.75000000  1
  Cu  Cu19  1  0.87500000  0.62500000  0.25000000  1
  C  C20  1  0.25000000  0.62500000  0.37500000  1
  C  C21  1  0.75000000  0.37500000  0.62500000  1
  C  C22  1  0.75000000  0.87500000  0.12500000  1
  C  C23  1  0.37500000  0.25000000  0.62500000  1
  C  C24  1  0.62500000  0.75000000  0.37500000  1
  C  C25  1  0.25000000  0.12500000  0.87500000  1
  C  C26  1  0.12500000  0.75000000  0.87500000  1
  C  C27  1  0.87500000  0.25000000  0.12500000  1
  C  C28  1  0.62500000  0.37500000  0.25000000  1
  C  C29  1  0.37500000  0.62500000  0.75000000  1
  C  C30  1  0.87500000  0.12500000  0.75000000  1
  C  C31  1  0.12500000  0.87500000  0.25000000  1
  C  C32  1  0.48588000  0.38423700  0.30590200  1
  C  C33  1  0.51412000  0.61576300  0.69409800  1
  C  C34  1  0.57833600  0.17997800  0.19409800  1
  C  C35  1  0.92166400  0.11576300  0.60164200  1
  C  C36  1  0.30590200  0.48588000  0.38423700  1
  C  C37  1  0.32002200  0.92166400  0.30590200  1
  C  C38  1  0.42166400  0.82002200  0.80590200  1
  C  C39  1  0.07833600  0.88423700  0.39835800  1
  C  C40  1  0.69409800  0.51412000  0.61576300  1
  C  C41  1  0.67997800  0.07833600  0.69409800  1
  C  C42  1  0.01412000  0.32002200  0.89835800  1
  C  C43  1  0.19409800  0.57833600  0.17997800  1
  C  C44  1  0.11576300  0.01412000  0.19409800  1
  C  C45  1  0.98588000  0.67997800  0.10164200  1
  C  C46  1  0.80590200  0.42166400  0.82002200  1
  C  C47  1  0.88423700  0.98588000  0.80590200  1
  C  C48  1  0.60164200  0.92166400  0.11576300  1
  C  C49  1  0.17997800  0.48588000  0.60164200  1
  C  C50  1  0.39835800  0.07833600  0.88423700  1
  C  C51  1  0.82002200  0.51412000  0.39835800  1
  C  C52  1  0.89835800  0.01412000  0.32002200  1
  C  C53  1  0.38423700  0.57833600  0.89835800  1
  C  C54  1  0.10164200  0.98588000  0.67997800  1
  C  C55  1  0.61576300  0.42166400  0.10164200  1
  C  C56  1  0.38423700  0.30590200  0.48588000  1
  C  C57  1  0.57833600  0.89835800  0.38423700  1
  C  C58  1  0.61576300  0.69409800  0.51412000  1
  C  C59  1  0.42166400  0.10164200  0.61576300  1
  C  C60  1  0.11576300  0.60164200  0.92166400  1
  C  C61  1  0.01412000  0.19409800  0.11576300  1
  C  C62  1  0.88423700  0.39835800  0.07833600  1
  C  C63  1  0.98588000  0.80590200  0.88423700  1
  C  C64  1  0.32002200  0.89835800  0.01412000  1
  C  C65  1  0.92166400  0.30590200  0.32002200  1
  C  C66  1  0.67997800  0.10164200  0.98588000  1
  C  C67  1  0.07833600  0.69409800  0.67997800  1
  C  C68  1  0.17997800  0.19409800  0.57833600  1
  C  C69  1  0.48588000  0.60164200  0.17997800  1
  C  C70  1  0.82002200  0.80590200  0.42166400  1
  C  C71  1  0.51412000  0.39835800  0.82002200  1
  C  C72  1  0.30590200  0.32002200  0.92166400  1
  C  C73  1  0.69409800  0.67997800  0.07833600  1
  C  C74  1  0.19409800  0.11576300  0.01412000  1
  C  C75  1  0.80590200  0.88423700  0.98588000  1
  C  C76  1  0.89835800  0.38423700  0.57833600  1
  C  C77  1  0.10164200  0.61576300  0.42166400  1
  C  C78  1  0.60164200  0.17997800  0.48588000  1
  C  C79  1  0.39835800  0.82002200  0.51412000  1
