# generated using pymatgen
data_Cu8(NiC7)5
_symmetry_space_group_name_H-M   'P 1'
_cell_length_a   5.87617797
_cell_length_b   15.59621811
_cell_length_c   7.93769642
_cell_angle_alpha   89.95309158
_cell_angle_beta   90.38174053
_cell_angle_gamma   89.62195242
_symmetry_Int_Tables_number   1
_chemical_formula_structural   Cu8(NiC7)5
_chemical_formula_sum   'Cu8 Ni5 C35'
_cell_volume   727.42709102
_cell_formula_units_Z   1
loop_
 _symmetry_equiv_pos_site_id
 _symmetry_equiv_pos_as_xyz
  1  'x, y, z'
loop_
 _atom_site_type_symbol
 _atom_site_label
 _atom_site_symmetry_multiplicity
 _atom_site_fract_x
 _atom_site_fract_y
 _atom_site_fract_z
 _atom_site_occupancy
  C  C0  1  0.99916400  0.25080500  0.50066200  1
  C  C1  1  0.00083600  0.74919500  0.49933800  1
  C  C2  1  0.00000000  0.00000000  0.00000000  1
  Ni  Ni3  1  0.00000000  0.00000000  0.50000000  1
  Ni  Ni4  1  0.00000000  0.50000000  0.50000000  1
  Ni  Ni5  1  0.99628000  0.25370500  0.00135300  1
  Ni  Ni6  1  0.00372000  0.74629500  0.99864700  1
  Ni  Ni7  1  0.00000000  0.50000000  0.00000000  1
  Cu  Cu8  1  0.49041500  0.16627400  0.18750900  1
  Cu  Cu9  1  0.48497300  0.65689100  0.18455900  1
  Cu  Cu10  1  0.50855800  0.41866300  0.29270800  1
  Cu  Cu11  1  0.50852900  0.91526500  0.31287800  1
  Cu  Cu12  1  0.51502700  0.34310900  0.81544100  1
  Cu  Cu13  1  0.50958500  0.83372600  0.81249100  1
  Cu  Cu14  1  0.49147100  0.08473500  0.68712200  1
  Cu  Cu15  1  0.49144200  0.58133700  0.70729200  1
  C  C16  1  0.87317700  0.13559800  0.00426300  1
  C  C17  1  0.87800200  0.62443100  0.00155800  1
  C  C18  1  0.12955300  0.38390400  0.49595400  1
  C  C19  1  0.13246800  0.88372100  0.49587100  1
  C  C20  1  0.12199800  0.37556900  0.99844200  1
  C  C21  1  0.12682300  0.86440200  0.99573700  1
  C  C22  1  0.86753200  0.11627900  0.50412900  1
  C  C23  1  0.87044700  0.61609600  0.50404600  1
  C  C24  1  0.89339300  0.48710900  0.25048500  1
  C  C25  1  0.88937600  0.98594100  0.26580000  1
  C  C26  1  0.11023100  0.23869600  0.23362600  1
  C  C27  1  0.11323300  0.73300000  0.23217500  1
  C  C28  1  0.11062400  0.01405900  0.73420000  1
  C  C29  1  0.10660700  0.51289100  0.74951500  1
  C  C30  1  0.88676700  0.26700000  0.76782500  1
  C  C31  1  0.88976900  0.76130400  0.76637400  1
  C  C32  1  0.70528200  0.28348100  0.43275500  1
  C  C33  1  0.70533000  0.78391000  0.43438700  1
  C  C34  1  0.29504500  0.03415500  0.06502500  1
  C  C35  1  0.29667500  0.53015900  0.06441100  1
  C  C36  1  0.29467000  0.21609000  0.56561300  1
  C  C37  1  0.29471800  0.71651900  0.56724500  1
  C  C38  1  0.70332500  0.46984100  0.93558900  1
  C  C39  1  0.70495500  0.96584500  0.93497500  1
  C  C40  1  0.29521700  0.21652000  0.93463300  1
  C  C41  1  0.30116200  0.70683500  0.92990000  1
  C  C42  1  0.70356900  0.45885100  0.55630800  1
  C  C43  1  0.70385000  0.95850900  0.56775200  1
  C  C44  1  0.69883800  0.29316500  0.07010000  1
  C  C45  1  0.70478300  0.78348000  0.06536700  1
  C  C46  1  0.29615000  0.04149100  0.43224800  1
  C  C47  1  0.29643100  0.54114900  0.44369200  1
