# generated using pymatgen
data_CuNi7C32
_symmetry_space_group_name_H-M   'P 1'
_cell_length_a   10.81485483
_cell_length_b   15.13859100
_cell_length_c   10.67035184
_cell_angle_alpha   89.99990609
_cell_angle_beta   90.01549510
_cell_angle_gamma   90.00019382
_symmetry_Int_Tables_number   1
_chemical_formula_structural   CuNi7C32
_chemical_formula_sum   'Cu4 Ni28 C128'
_cell_volume   1746.96769419
_cell_formula_units_Z   4
loop_
 _symmetry_equiv_pos_site_id
 _symmetry_equiv_pos_as_xyz
  1  'x, y, z'
loop_
 _atom_site_type_symbol
 _atom_site_label
 _atom_site_symmetry_multiplicity
 _atom_site_fract_x
 _atom_site_fract_y
 _atom_site_fract_z
 _atom_site_occupancy
  C  C0  1  0.02185893  0.12499852  0.49603767  1
  C  C1  1  0.02126496  0.12499728  0.99552105  1
  C  C2  1  0.02229810  0.62500003  0.49548147  1
  C  C3  1  0.02236646  0.62500040  0.99590405  1
  C  C4  1  0.52252211  0.12500282  0.49585929  1
  C  C5  1  0.52289830  0.12499929  0.99520003  1
  C  C6  1  0.52232571  0.62499977  0.49569393  1
  C  C7  1  0.52223956  0.62499825  0.99559367  1
  C  C8  1  0.47820602  0.37515081  0.00415280  1
  C  C9  1  0.47783168  0.37484559  0.50457335  1
  C  C10  1  0.47820489  0.87484961  0.00415678  1
  C  C11  1  0.47782692  0.87515463  0.50458080  1
  C  C12  1  0.97752596  0.37526200  0.00413210  1
  C  C13  1  0.97769677  0.37518178  0.50457335  1
  C  C14  1  0.97752653  0.87473951  0.00412974  1
  C  C15  1  0.97769740  0.87481662  0.50456777  1
  C  C16  1  0.22820093  0.37542085  0.24596405  1
  C  C17  1  0.22799763  0.37523066  0.74531255  1
  C  C18  1  0.22819884  0.87458436  0.24596662  1
  C  C19  1  0.22799572  0.87476736  0.74531386  1
  C  C20  1  0.72731093  0.37502376  0.24567341  1
  C  C21  1  0.72755043  0.37481921  0.74550394  1
  C  C22  1  0.72731919  0.87497730  0.24567098  1
  C  C23  1  0.72754745  0.87517687  0.74549869  1
  C  C24  1  0.27259034  0.12499832  0.25489566  1
  C  C25  1  0.27241754  0.12499957  0.75377490  1
  C  C26  1  0.27212097  0.62500086  0.25420048  1
  C  C27  1  0.27237162  0.62499794  0.75446927  1
  C  C28  1  0.77142687  0.12499947  0.25462027  1
  C  C29  1  0.77202467  0.12499755  0.75427770  1
  C  C30  1  0.77248669  0.62500093  0.25433704  1
  C  C31  1  0.77225389  0.62499851  0.75436643  1
  Ni  Ni32  1  0.00008320  0.00006864  0.74969913  1
  Ni  Ni33  1  0.00007954  0.50015073  0.25012743  1
  Ni  Ni34  1  0.00000081  0.50001867  0.74998213  1
  Ni  Ni35  1  0.49982014  0.99995928  0.25027733  1
  Ni  Ni36  1  0.50008997  0.00019384  0.75021081  1
  Ni  Ni37  1  0.50006960  0.50001591  0.25006733  1
  Ni  Ni38  1  0.50000672  0.49991787  0.75001500  1
  Ni  Ni39  1  0.25005901  0.00020375  0.49965444  1
  Ni  Ni40  1  0.25014605  0.50011781  0.99982332  1
  Ni  Ni41  1  0.25006059  0.49998094  0.49993391  1
  Ni  Ni42  1  0.74974633  0.99987643  0.00009022  1
  Ni  Ni43  1  0.75012611  0.00011105  0.50022662  1
  Ni  Ni44  1  0.74997352  0.50003468  0.99997993  1
  Ni  Ni45  1  0.74995580  0.49994846  0.50007251  1
  Ni  Ni46  1  0.25005901  0.24979541  0.49965353  1
  Ni  Ni47  1  0.25014780  0.74988238  0.99982255  1
  Ni  Ni48  1  0.25006077  0.75002039  0.49993373  1
  Ni  Ni49  1  0.74974721  0.25012387  0.00009176  1
  Ni  Ni50  1  0.75012710  0.24989015  0.50022741  1
  Ni  Ni51  1  0.74997139  0.74996507  0.99998213  1
  Ni  Ni52  1  0.74995421  0.75005315  0.50007446  1
  Ni  Ni53  1  0.00008144  0.24993162  0.74970167  1
  Ni  Ni54  1  0.00008117  0.74984803  0.25012880  1
  Ni  Ni55  1  0.00000125  0.74998307  0.74998056  1
  Ni  Ni56  1  0.49982020  0.25004097  0.25027512  1
  Ni  Ni57  1  0.50008942  0.24980598  0.75021279  1
  Ni  Ni58  1  0.50007257  0.74998385  0.25006774  1
  Ni  Ni59  1  0.50000842  0.75008019  0.75001535  1
  Cu  Cu60  1  0.99931035  0.99954898  0.24938333  1
  Cu  Cu61  1  0.24973015  0.99967473  0.99992429  1
  Cu  Cu62  1  0.24973619  0.25033365  0.99989463  1
  Cu  Cu63  1  0.99930146  0.25043621  0.24937311  1
  C  C64  1  0.10413859  0.26958187  0.10401715  1
  C  C65  1  0.10388039  0.27020738  0.60285226  1
  C  C66  1  0.10394486  0.77053899  0.10299110  1
  C  C67  1  0.10390152  0.77022048  0.60304225  1
  C  C68  1  0.60355860  0.27029012  0.10301861  1
  C  C69  1  0.60387686  0.27024524  0.60291663  1
  C  C70  1  0.60388836  0.77021870  0.10299706  1
  C  C71  1  0.60393376  0.77016331  0.60301380  1
  C  C72  1  0.39618046  0.22971415  0.39696579  1
  C  C73  1  0.39654209  0.23014187  0.89699604  1
  C  C74  1  0.39608522  0.72980431  0.39695357  1
  C  C75  1  0.39620324  0.72973959  0.89695610  1
  C  C76  1  0.89541894  0.22954263  0.39625705  1
  C  C77  1  0.89642447  0.22976195  0.89725701  1
  C  C78  1  0.89606502  0.72985314  0.39703150  1
  C  C79  1  0.89612006  0.72983185  0.89698669  1
  C  C80  1  0.14651389  0.23025750  0.35291692  1
  C  C81  1  0.14532454  0.22955182  0.85392330  1
  C  C82  1  0.14627012  0.72976695  0.35309675  1
  C  C83  1  0.14603457  0.72987635  0.85294209  1
  C  C84  1  0.64629819  0.22973948  0.35280704  1
  C  C85  1  0.64640800  0.22979281  0.85310447  1
  C  C86  1  0.64604951  0.72978622  0.35294249  1
  C  C87  1  0.64614258  0.72978010  0.85307101  1
  C  C88  1  0.35422965  0.27024894  0.14641132  1
  C  C89  1  0.35371918  0.27016859  0.64721902  1
  C  C90  1  0.35384727  0.77039425  0.14689439  1
  C  C91  1  0.35387662  0.77019440  0.64696139  1
  C  C92  1  0.85340373  0.26968056  0.14678739  1
  C  C93  1  0.85408442  0.27029122  0.64712020  1
  C  C94  1  0.85396846  0.77040814  0.14710048  1
  C  C95  1  0.85395256  0.77019719  0.64699671  1
  C  C96  1  0.35384785  0.47960615  0.14689330  1
  C  C97  1  0.35387512  0.47980535  0.64696330  1
  C  C98  1  0.35422891  0.97974935  0.14640985  1
  C  C99  1  0.35372054  0.97983262  0.64721882  1
  C  C100  1  0.85396831  0.47959119  0.14709924  1
  C  C101  1  0.85395224  0.47980250  0.64699711  1
  C  C102  1  0.85340378  0.98031860  0.14678937  1
  C  C103  1  0.85408202  0.97970682  0.64712202  1
  C  C104  1  0.14651539  0.01974253  0.35291636  1
  C  C105  1  0.14531932  0.02044718  0.85392584  1
  C  C106  1  0.14626993  0.52023116  0.35309768  1
  C  C107  1  0.14603552  0.52012756  0.85294256  1
  C  C108  1  0.64629609  0.02025739  0.35280831  1
  C  C109  1  0.64640586  0.02020612  0.85310552  1
  C  C110  1  0.64605386  0.52021396  0.35293894  1
  C  C111  1  0.64614279  0.52021761  0.85306966  1
  C  C112  1  0.39618142  0.02028373  0.39696479  1
  C  C113  1  0.39654262  0.01986075  0.89699576  1
  C  C114  1  0.39608534  0.52019426  0.39695466  1
  C  C115  1  0.39620259  0.52026029  0.89695842  1
  C  C116  1  0.89541626  0.02045672  0.39625375  1
  C  C117  1  0.89641948  0.02023705  0.89725311  1
  C  C118  1  0.89606535  0.52014740  0.39703212  1
  C  C119  1  0.89612169  0.52016639  0.89698673  1
  C  C120  1  0.10394687  0.47946162  0.10299145  1
  C  C121  1  0.10390030  0.47978210  0.60304140  1
  C  C122  1  0.10414179  0.98041963  0.10401755  1
  C  C123  1  0.10387781  0.97979042  0.60285169  1
  C  C124  1  0.60388829  0.47978175  0.10299757  1
  C  C125  1  0.60393370  0.47983540  0.60301267  1
  C  C126  1  0.60356213  0.97970994  0.10302141  1
  C  C127  1  0.60387980  0.97975530  0.60291890  1
  C  C128  1  0.00969084  0.37492730  0.28867252  1
  C  C129  1  0.00971358  0.37490863  0.78918261  1
  C  C130  1  0.00969335  0.87507182  0.28867225  1
  C  C131  1  0.00971377  0.87509245  0.78918297  1
  C  C132  1  0.50959744  0.37506886  0.28914196  1
  C  C133  1  0.50948207  0.37500855  0.78928396  1
  C  C134  1  0.50959617  0.87493058  0.28914438  1
  C  C135  1  0.50948158  0.87499116  0.78927992  1
  C  C136  1  0.49024085  0.12500030  0.21075999  1
  C  C137  1  0.49020427  0.12500005  0.71082625  1
  C  C138  1  0.49041411  0.62500001  0.21090024  1
  C  C139  1  0.49044184  0.62499925  0.71092144  1
  C  C140  1  0.99095113  0.12499916  0.21209153  1
  C  C141  1  0.99031285  0.12499971  0.71083632  1
  C  C142  1  0.99052099  0.62500002  0.21093267  1
  C  C143  1  0.99043812  0.62499930  0.71085217  1
  C  C144  1  0.24033747  0.12499991  0.03753926  1
  C  C145  1  0.24027978  0.12499955  0.53906702  1
  C  C146  1  0.24054145  0.62499962  0.03908104  1
  C  C147  1  0.24042963  0.62499965  0.53914271  1
  C  C148  1  0.74077764  0.12500023  0.03945886  1
  C  C149  1  0.74022432  0.12500073  0.53929409  1
  C  C150  1  0.74041594  0.62499969  0.03909294  1
  C  C151  1  0.74045304  0.62500024  0.53908919  1
  C  C152  1  0.25942636  0.37493816  0.46074236  1
  C  C153  1  0.25958604  0.37487780  0.96127084  1
  C  C154  1  0.25942906  0.87505997  0.46074516  1
  C  C155  1  0.25959217  0.87512149  0.96126890  1
  C  C156  1  0.75973577  0.37499677  0.46080357  1
  C  C157  1  0.75966193  0.37505126  0.96096672  1
  C  C158  1  0.75973729  0.87500246  0.46080769  1
  C  C159  1  0.75966097  0.87494818  0.96096716  1
