# generated using pymatgen
data_Cu(Ni3C14)2
_symmetry_space_group_name_H-M   'P 1'
_cell_length_a   11.87468459
_cell_length_b   11.87468459
_cell_length_c   11.87468459
_cell_angle_alpha   60.00000000
_cell_angle_beta   60.00000000
_cell_angle_gamma   60.00000000
_symmetry_Int_Tables_number   1
_chemical_formula_structural   Cu(Ni3C14)2
_chemical_formula_sum   'Cu1 Ni6 C28'
_cell_volume   1183.99877001
_cell_formula_units_Z   1
loop_
 _symmetry_equiv_pos_site_id
 _symmetry_equiv_pos_as_xyz
  1  'x, y, z'
loop_
 _atom_site_type_symbol
 _atom_site_label
 _atom_site_symmetry_multiplicity
 _atom_site_fract_x
 _atom_site_fract_y
 _atom_site_fract_z
 _atom_site_occupancy
  C  C0  1  0.36028200  0.36028200  0.36028200  1
  C  C1  1  0.63971800  0.63971800  0.63971800  1
  C  C2  1  0.36028200  0.36028200  0.91915300  1
  C  C3  1  0.36028200  0.91915300  0.36028200  1
  C  C4  1  0.63971800  0.63971800  0.08084700  1
  C  C5  1  0.63971800  0.08084700  0.63971800  1
  C  C6  1  0.91915300  0.36028200  0.36028200  1
  C  C7  1  0.08084700  0.63971800  0.63971800  1
  Ni  Ni8  1  0.85523700  0.14476300  0.14476300  1
  Ni  Ni9  1  0.14476300  0.85523700  0.85523700  1
  Ni  Ni10  1  0.14476300  0.85523700  0.14476300  1
  Ni  Ni11  1  0.85523700  0.14476300  0.85523700  1
  Ni  Ni12  1  0.14476300  0.14476300  0.85523700  1
  Ni  Ni13  1  0.85523700  0.85523700  0.14476300  1
  Cu  Cu14  1  0.00000000  0.00000000  0.00000000  1
  C  C15  1  0.32880100  0.00000000  0.00000000  1
  C  C16  1  0.67119900  0.00000000  0.00000000  1
  C  C17  1  0.00000000  0.32880100  0.67119900  1
  C  C18  1  0.00000000  0.67119900  0.32880100  1
  C  C19  1  0.00000000  0.32880100  0.00000000  1
  C  C20  1  0.67119900  0.00000000  0.32880100  1
  C  C21  1  0.00000000  0.67119900  0.00000000  1
  C  C22  1  0.32880100  0.00000000  0.67119900  1
  C  C23  1  0.00000000  0.00000000  0.32880100  1
  C  C24  1  0.00000000  0.00000000  0.67119900  1
  C  C25  1  0.67119900  0.32880100  0.00000000  1
  C  C26  1  0.32880100  0.67119900  0.00000000  1
  C  C27  1  0.68251700  0.31748300  0.31748300  1
  C  C28  1  0.31748300  0.68251700  0.68251700  1
  C  C29  1  0.31748300  0.68251700  0.31748300  1
  C  C30  1  0.68251700  0.31748300  0.68251700  1
  C  C31  1  0.31748300  0.31748300  0.68251700  1
  C  C32  1  0.68251700  0.68251700  0.31748300  1
  C  C33  1  0.25000000  0.25000000  0.25000000  1
  C  C34  1  0.75000000  0.75000000  0.75000000  1
