# generated using pymatgen
data_CuNi3C10
_symmetry_space_group_name_H-M   'P 1'
_cell_length_a   14.18895101
_cell_length_b   14.18895101
_cell_length_c   14.06430581
_cell_angle_alpha   88.71721160
_cell_angle_beta   88.71721160
_cell_angle_gamma   21.82305389
_symmetry_Int_Tables_number   1
_chemical_formula_structural   CuNi3C10
_chemical_formula_sum   'Cu6 Ni18 C60'
_cell_volume   1052.31776681
_cell_formula_units_Z   6
loop_
 _symmetry_equiv_pos_site_id
 _symmetry_equiv_pos_as_xyz
  1  'x, y, z'
loop_
 _atom_site_type_symbol
 _atom_site_label
 _atom_site_symmetry_multiplicity
 _atom_site_fract_x
 _atom_site_fract_y
 _atom_site_fract_z
 _atom_site_occupancy
  Ni  Ni0  1  0.39067700  0.37231400  0.13683700  1
  Ni  Ni1  1  0.62768600  0.60932300  0.36316300  1
  Ni  Ni2  1  0.60932300  0.62768600  0.86316300  1
  Ni  Ni3  1  0.37231400  0.39067700  0.63683700  1
  Ni  Ni4  1  0.98394800  0.90707300  0.41994400  1
  Ni  Ni5  1  0.09292700  0.01605200  0.08005600  1
  Ni  Ni6  1  0.01605200  0.09292700  0.58005600  1
  Ni  Ni7  1  0.90707300  0.98394800  0.91994400  1
  Ni  Ni8  1  0.50000000  0.50000000  0.00000000  1
  Ni  Ni9  1  0.50000000  0.50000000  0.50000000  1
  Ni  Ni10  1  0.27450600  0.28304600  0.32295100  1
  Ni  Ni11  1  0.71695400  0.72549400  0.17704900  1
  Ni  Ni12  1  0.72549400  0.71695400  0.67704900  1
  Ni  Ni13  1  0.28304600  0.27450600  0.82295100  1
  Ni  Ni14  1  0.84618700  0.85081400  0.26613100  1
  Ni  Ni15  1  0.14918600  0.15381300  0.23386900  1
  Ni  Ni16  1  0.15381300  0.14918600  0.73386900  1
  Ni  Ni17  1  0.85081400  0.84618700  0.76613100  1
  Cu  Cu18  1  0.59607200  0.40392800  0.25000000  1
  Cu  Cu19  1  0.40392800  0.59607200  0.75000000  1
  Cu  Cu20  1  0.80943300  0.83473700  0.01483700  1
  Cu  Cu21  1  0.16526300  0.19056700  0.48516300  1
  Cu  Cu22  1  0.19056700  0.16526300  0.98516300  1
  Cu  Cu23  1  0.83473700  0.80943300  0.51483700  1
  C  C24  1  0.97772300  0.90631700  0.15213900  1
  C  C25  1  0.09368300  0.02227700  0.34786100  1
  C  C26  1  0.02227700  0.09368300  0.84786100  1
  C  C27  1  0.90631700  0.97772300  0.65213900  1
  C  C28  1  0.40125800  0.37540900  0.38996100  1
  C  C29  1  0.62459100  0.59874200  0.11003900  1
  C  C30  1  0.59874200  0.62459100  0.61003900  1
  C  C31  1  0.37540900  0.40125800  0.88996100  1
  C  C32  1  0.73268800  0.72536300  0.89619400  1
  C  C33  1  0.27463700  0.26731200  0.60380600  1
  C  C34  1  0.26731200  0.27463700  0.10380600  1
  C  C35  1  0.72536300  0.73268800  0.39619400  1
  C  C36  1  0.43628500  0.45158500  0.37552300  1
  C  C37  1  0.54841600  0.56371500  0.12447700  1
  C  C38  1  0.56371500  0.54841600  0.62447700  1
  C  C39  1  0.45158500  0.43628500  0.87552300  1
  C  C40  1  0.77994000  0.78556700  0.86358700  1
  C  C41  1  0.21443300  0.22006000  0.63641300  1
  C  C42  1  0.22006000  0.21443300  0.13641300  1
  C  C43  1  0.78556700  0.77994000  0.36358700  1
  C  C44  1  0.92124700  0.85687100  0.11973800  1
  C  C45  1  0.14312900  0.07875300  0.38026200  1
  C  C46  1  0.07875300  0.14312900  0.88026200  1
  C  C47  1  0.85687100  0.92124700  0.61973800  1
  C  C48  1  0.47774500  0.92663400  0.85471400  1
  C  C49  1  0.07336600  0.52225500  0.64528600  1
  C  C50  1  0.52225500  0.07336600  0.14528600  1
  C  C51  1  0.92663400  0.47774500  0.35471400  1
  C  C52  1  0.27160400  0.64794900  0.14960300  1
  C  C53  1  0.35205100  0.72839600  0.35039700  1
  C  C54  1  0.72839600  0.35205100  0.85039700  1
  C  C55  1  0.64794900  0.27160400  0.64960300  1
  C  C56  1  0.84090500  0.10877300  0.08931800  1
  C  C57  1  0.89122700  0.15909500  0.41068200  1
  C  C58  1  0.15909500  0.89122700  0.91068200  1
  C  C59  1  0.10877300  0.84090500  0.58931800  1
  C  C60  1  0.94877000  0.46091200  0.85981600  1
  C  C61  1  0.53908800  0.05123000  0.64018400  1
  C  C62  1  0.05123000  0.53908800  0.14018400  1
  C  C63  1  0.46091200  0.94877000  0.35981600  1
  C  C64  1  0.31225400  0.41132500  0.29846100  1
  C  C65  1  0.58867500  0.68774600  0.20153900  1
  C  C66  1  0.68774600  0.58867500  0.70153900  1
  C  C67  1  0.41132500  0.31225400  0.79846100  1
  C  C68  1  0.65700900  0.09308200  0.42320000  1
  C  C69  1  0.90691800  0.34299100  0.07680000  1
  C  C70  1  0.34299100  0.90691800  0.57680000  1
  C  C71  1  0.09308200  0.65700900  0.92320000  1
  C  C72  1  0.86926300  0.01708500  0.25464500  1
  C  C73  1  0.98291500  0.13073700  0.24535500  1
  C  C74  1  0.13073700  0.98291500  0.74535500  1
  C  C75  1  0.01708500  0.86926300  0.75464500  1
  C  C76  1  0.20080700  0.54821300  0.47145200  1
  C  C77  1  0.45178700  0.79919300  0.02854800  1
  C  C78  1  0.79919300  0.45178700  0.52854800  1
  C  C79  1  0.54821300  0.20080700  0.97145200  1
  C  C80  1  0.72213300  0.73324600  0.00648100  1
  C  C81  1  0.26675400  0.27786700  0.49351900  1
  C  C82  1  0.27786700  0.26675400  0.99351900  1
  C  C83  1  0.73324600  0.72213300  0.50648100  1
