# generated using pymatgen
data_CuNiC6
_symmetry_space_group_name_H-M   'P 1'
_cell_length_a   5.30402373
_cell_length_b   5.30402373
_cell_length_c   6.92346715
_cell_angle_alpha   75.02268918
_cell_angle_beta   75.02268918
_cell_angle_gamma   104.22013002
_symmetry_Int_Tables_number   1
_chemical_formula_structural   CuNiC6
_chemical_formula_sum   'Cu2 Ni2 C12'
_cell_volume   171.27685546
_cell_formula_units_Z   2
loop_
 _symmetry_equiv_pos_site_id
 _symmetry_equiv_pos_as_xyz
  1  'x, y, z'
loop_
 _atom_site_type_symbol
 _atom_site_label
 _atom_site_symmetry_multiplicity
 _atom_site_fract_x
 _atom_site_fract_y
 _atom_site_fract_z
 _atom_site_occupancy
  Ni  Ni0  1  0.82855100  0.17144900  0.75000000  1
  Ni  Ni1  1  0.17144900  0.82855100  0.25000000  1
  C  C2  1  0.50000000  0.50000000  0.50000000  1
  C  C3  1  0.50000000  0.50000000  0.00000000  1
  Cu  Cu4  1  0.17666100  0.82333900  0.75000000  1
  Cu  Cu5  1  0.82333900  0.17666100  0.25000000  1
  C  C6  1  0.39383500  0.82523500  0.87816800  1
  C  C7  1  0.17476500  0.60616500  0.62183200  1
  C  C8  1  0.60616500  0.17476500  0.12183200  1
  C  C9  1  0.82523500  0.39383500  0.37816800  1
  C  C10  1  0.77679300  0.86068400  0.40546000  1
  C  C11  1  0.13931600  0.22320700  0.09454000  1
  C  C12  1  0.22320700  0.13931600  0.59454000  1
  C  C13  1  0.86068400  0.77679300  0.90546000  1
  C  C14  1  0.41927300  0.58072700  0.25000000  1
  C  C15  1  0.58072700  0.41927300  0.75000000  1
