# generated using pymatgen
data_CuNi4C13
_symmetry_space_group_name_H-M   'P 1'
_cell_length_a   9.09352701
_cell_length_b   9.09352701
_cell_length_c   8.11011281
_cell_angle_alpha   80.44977962
_cell_angle_beta   80.44977962
_cell_angle_gamma   92.68772646
_symmetry_Int_Tables_number   1
_chemical_formula_structural   CuNi4C13
_chemical_formula_sum   'Cu2 Ni8 C26'
_cell_volume   650.27021618
_cell_formula_units_Z   2
loop_
 _symmetry_equiv_pos_site_id
 _symmetry_equiv_pos_as_xyz
  1  'x, y, z'
loop_
 _atom_site_type_symbol
 _atom_site_label
 _atom_site_symmetry_multiplicity
 _atom_site_fract_x
 _atom_site_fract_y
 _atom_site_fract_z
 _atom_site_occupancy
  Ni  Ni0  1  0.45161500  0.10027400  0.30315500  1
  Ni  Ni1  1  0.54838500  0.89972600  0.69684500  1
  Ni  Ni2  1  0.89972600  0.54838500  0.69684500  1
  Ni  Ni3  1  0.10027400  0.45161500  0.30315500  1
  Ni  Ni4  1  0.69023300  0.91176300  0.32219800  1
  Ni  Ni5  1  0.30976700  0.08823700  0.67780200  1
  Ni  Ni6  1  0.08823700  0.30976700  0.67780200  1
  Ni  Ni7  1  0.91176300  0.69023300  0.32219800  1
  Cu  Cu8  1  0.82180500  0.82180500  0.86088500  1
  Cu  Cu9  1  0.17819500  0.17819500  0.13911500  1
  C  C10  1  0.81673800  0.03988400  0.21005200  1
  C  C11  1  0.18326200  0.96011600  0.78994800  1
  C  C12  1  0.96011600  0.18326200  0.78994800  1
  C  C13  1  0.03988400  0.81673800  0.21005200  1
  C  C14  1  0.52625600  0.25264900  0.20922600  1
  C  C15  1  0.47374400  0.74735100  0.79077400  1
  C  C16  1  0.74735100  0.47374400  0.79077400  1
  C  C17  1  0.25264900  0.52625600  0.20922600  1
  C  C18  1  0.67439600  0.92577600  0.52592800  1
  C  C19  1  0.32560400  0.07422400  0.47407200  1
  C  C20  1  0.07422400  0.32560400  0.47407200  1
  C  C21  1  0.92577600  0.67439600  0.52592800  1
  C  C22  1  0.26828900  0.08962400  0.13991800  1
  C  C23  1  0.73171100  0.91037600  0.86008200  1
  C  C24  1  0.91037600  0.73171100  0.86008200  1
  C  C25  1  0.08962400  0.26828900  0.13991800  1
  C  C26  1  0.52163900  0.94050800  0.27621600  1
  C  C27  1  0.47836100  0.05949200  0.72378400  1
  C  C28  1  0.05949200  0.47836100  0.72378400  1
  C  C29  1  0.94050800  0.52163900  0.27621600  1
  C  C30  1  0.25246000  0.84192000  0.96170300  1
  C  C31  1  0.74754000  0.15808000  0.03829700  1
  C  C32  1  0.15808000  0.74754000  0.03829700  1
  C  C33  1  0.84192000  0.25246000  0.96170300  1
  C  C34  1  0.74432400  0.74432400  0.30047100  1
  C  C35  1  0.25567600  0.25567600  0.69952900  1
