# generated using pymatgen
data_Cu5Ni2C31
_symmetry_space_group_name_H-M   'P 1'
_cell_length_a   9.49671686
_cell_length_b   9.49671686
_cell_length_c   18.36832253
_cell_angle_alpha   68.51770195
_cell_angle_beta   68.51770195
_cell_angle_gamma   42.80662895
_symmetry_Int_Tables_number   1
_chemical_formula_structural   Cu5Ni2C31
_chemical_formula_sum   'Cu10 Ni4 C62'
_cell_volume   1034.96053162
_cell_formula_units_Z   2
loop_
 _symmetry_equiv_pos_site_id
 _symmetry_equiv_pos_as_xyz
  1  'x, y, z'
loop_
 _atom_site_type_symbol
 _atom_site_label
 _atom_site_symmetry_multiplicity
 _atom_site_fract_x
 _atom_site_fract_y
 _atom_site_fract_z
 _atom_site_occupancy
  Ni  Ni0  1  0.82410100  0.04275000  0.08948700  1
  Ni  Ni1  1  0.95725000  0.17589900  0.41051300  1
  Ni  Ni2  1  0.17589900  0.95725000  0.91051300  1
  Ni  Ni3  1  0.04275000  0.82410100  0.58948700  1
  Cu  Cu4  1  0.42876400  0.27173800  0.48281200  1
  Cu  Cu5  1  0.72826200  0.57123600  0.01718800  1
  Cu  Cu6  1  0.57123600  0.72826200  0.51718800  1
  Cu  Cu7  1  0.27173800  0.42876400  0.98281200  1
  Cu  Cu8  1  0.34028700  0.09441300  0.20634800  1
  Cu  Cu9  1  0.90558700  0.65971300  0.29365200  1
  Cu  Cu10  1  0.65971300  0.90558700  0.79365200  1
  Cu  Cu11  1  0.09441300  0.34028700  0.70634800  1
  Cu  Cu12  1  0.39534000  0.60466000  0.25000000  1
  Cu  Cu13  1  0.60466000  0.39534000  0.75000000  1
  C  C14  1  0.21773900  0.04725500  0.08836600  1
  C  C15  1  0.95274500  0.78226100  0.41163400  1
  C  C16  1  0.78226100  0.95274500  0.91163400  1
  C  C17  1  0.04725500  0.21773900  0.58836600  1
  C  C18  1  0.47687700  0.67574500  0.38242800  1
  C  C19  1  0.32425500  0.52312300  0.11757200  1
  C  C20  1  0.52312300  0.32425500  0.61757200  1
  C  C21  1  0.67574500  0.47687700  0.88242800  1
  C  C22  1  0.39777900  0.17236600  0.34459400  1
  C  C23  1  0.82763400  0.60222100  0.15540600  1
  C  C24  1  0.60222100  0.82763400  0.65540600  1
  C  C25  1  0.17236600  0.39777900  0.84459400  1
  C  C26  1  0.79551500  0.00359600  0.42421900  1
  C  C27  1  0.99640400  0.20448500  0.07578100  1
  C  C28  1  0.20448500  0.99640400  0.57578100  1
  C  C29  1  0.00359600  0.79551500  0.92421900  1
  C  C30  1  0.39955100  0.33116200  0.33943300  1
  C  C31  1  0.66883800  0.60044900  0.16056700  1
  C  C32  1  0.60044900  0.66883800  0.66056700  1
  C  C33  1  0.33116200  0.39955100  0.83943300  1
  C  C34  1  0.23145200  0.94780100  0.17377800  1
  C  C35  1  0.05219900  0.76854800  0.32622200  1
  C  C36  1  0.76854800  0.05219900  0.82622200  1
  C  C37  1  0.94780100  0.23145200  0.67377800  1
  C  C38  1  0.35137600  0.88900500  0.03511600  1
  C  C39  1  0.11099500  0.64862400  0.46488400  1
  C  C40  1  0.64862400  0.11099500  0.96488400  1
  C  C41  1  0.88900500  0.35137600  0.53511600  1
  C  C42  1  0.29565200  0.14832900  0.07467100  1
  C  C43  1  0.85167100  0.70434800  0.42532900  1
  C  C44  1  0.70434800  0.85167100  0.92532900  1
  C  C45  1  0.14832900  0.29565200  0.57467100  1
  C  C46  1  0.56939300  0.02481300  0.28673100  1
  C  C47  1  0.97518700  0.43060700  0.21326900  1
  C  C48  1  0.43060700  0.97518700  0.71326900  1
  C  C49  1  0.02481300  0.56939300  0.78673100  1
  C  C50  1  0.41296700  0.06503500  0.42758800  1
  C  C51  1  0.93496500  0.58703300  0.07241200  1
  C  C52  1  0.58703300  0.93496500  0.57241200  1
  C  C53  1  0.06503500  0.41296700  0.92758800  1
  C  C54  1  0.36781000  0.83713900  0.31332700  1
  C  C55  1  0.16286100  0.63219000  0.18667300  1
  C  C56  1  0.63219000  0.16286100  0.68667300  1
  C  C57  1  0.83713900  0.36781000  0.81332700  1
  C  C58  1  0.38905000  0.32158200  0.12196500  1
  C  C59  1  0.67841800  0.61095000  0.37803500  1
  C  C60  1  0.61095000  0.67841800  0.87803500  1
  C  C61  1  0.32158200  0.38905000  0.62196500  1
  C  C62  1  0.72036300  0.80362200  0.17734200  1
  C  C63  1  0.19637800  0.27963700  0.32265800  1
  C  C64  1  0.27963700  0.19637800  0.82265800  1
  C  C65  1  0.80362200  0.72036300  0.67734200  1
  C  C66  1  0.34396800  0.76305500  0.45725800  1
  C  C67  1  0.23694500  0.65603200  0.04274200  1
  C  C68  1  0.65603200  0.23694500  0.54274200  1
  C  C69  1  0.76305500  0.34396800  0.95725800  1
  C  C70  1  0.50995800  0.47666900  0.12101600  1
  C  C71  1  0.52333100  0.49004200  0.37898400  1
  C  C72  1  0.49004200  0.52333100  0.87898400  1
  C  C73  1  0.47666900  0.50995800  0.62101600  1
  C  C74  1  0.75937900  0.24062100  0.25000000  1
  C  C75  1  0.24062100  0.75937900  0.75000000  1
