# generated using pymatgen
data_Cu6Ni2C3
_symmetry_space_group_name_H-M   'P 1'
_cell_length_a   11.86116859
_cell_length_b   11.86116859
_cell_length_c   12.49161185
_cell_angle_alpha   61.47091210
_cell_angle_beta   61.47091210
_cell_angle_gamma   28.25635659
_symmetry_Int_Tables_number   1
_chemical_formula_structural   Cu6Ni2C3
_chemical_formula_sum   'Cu12 Ni4 C6'
_cell_volume   724.08953904
_cell_formula_units_Z   2
loop_
 _symmetry_equiv_pos_site_id
 _symmetry_equiv_pos_as_xyz
  1  'x, y, z'
loop_
 _atom_site_type_symbol
 _atom_site_label
 _atom_site_symmetry_multiplicity
 _atom_site_fract_x
 _atom_site_fract_y
 _atom_site_fract_z
 _atom_site_occupancy
  C  C0  1  0.58131800  0.57267700  0.55342700  1
  C  C1  1  0.42732300  0.41868200  0.94657300  1
  C  C2  1  0.41868200  0.42732300  0.44657300  1
  C  C3  1  0.57267700  0.58131800  0.05342700  1
  Ni  Ni4  1  0.14815700  0.21113200  0.21470300  1
  Ni  Ni5  1  0.78886800  0.85184400  0.28529700  1
  Ni  Ni6  1  0.85184400  0.78886800  0.78529700  1
  Ni  Ni7  1  0.21113200  0.14815600  0.71470300  1
  Cu  Cu8  1  0.73735800  0.63802400  0.18735300  1
  Cu  Cu9  1  0.36197600  0.26264200  0.31264700  1
  Cu  Cu10  1  0.26264200  0.36197600  0.81264700  1
  Cu  Cu11  1  0.63802400  0.73735800  0.68735300  1
  Cu  Cu12  1  0.19250400  0.19545300  0.39735400  1
  Cu  Cu13  1  0.80454700  0.80749600  0.10264600  1
  Cu  Cu14  1  0.80749600  0.80454700  0.60264600  1
  Cu  Cu15  1  0.19545300  0.19250400  0.89735400  1
  Cu  Cu16  1  0.01917900  0.09776200  0.31938200  1
  Cu  Cu17  1  0.90223800  0.98082100  0.18061800  1
  Cu  Cu18  1  0.98082100  0.90223800  0.68061800  1
  Cu  Cu19  1  0.09776200  0.01917900  0.81938200  1
  C  C20  1  0.91918400  0.08081600  0.75000000  1
  C  C21  1  0.08081600  0.91918400  0.25000000  1
