# generated using pymatgen
data_Cu(NiC5)2
_symmetry_space_group_name_H-M   'P 1'
_cell_length_a   12.30860117
_cell_length_b   12.30860117
_cell_length_c   12.30860117
_cell_angle_alpha   154.06182322
_cell_angle_beta   153.52961266
_cell_angle_gamma   37.39841825
_symmetry_Int_Tables_number   1
_chemical_formula_structural   Cu(NiC5)2
_chemical_formula_sum   'Cu2 Ni4 C20'
_cell_volume   363.03196469
_cell_formula_units_Z   2
loop_
 _symmetry_equiv_pos_site_id
 _symmetry_equiv_pos_as_xyz
  1  'x, y, z'
loop_
 _atom_site_type_symbol
 _atom_site_label
 _atom_site_symmetry_multiplicity
 _atom_site_fract_x
 _atom_site_fract_y
 _atom_site_fract_z
 _atom_site_occupancy
  Ni  Ni0  1  0.36911100  0.83861700  0.51716200  1
  Ni  Ni1  1  0.63088900  0.14805100  0.46950700  1
  Ni  Ni2  1  0.82145600  0.33861700  0.46950700  1
  Ni  Ni3  1  0.17854400  0.64805100  0.51716200  1
  Cu  Cu4  1  0.00000000  0.50126800  0.50126800  1
  Cu  Cu5  1  0.50000000  0.00126800  0.50126800  1
  C  C6  1  0.56095800  0.56099900  0.00102500  1
  C  C7  1  0.94002700  0.94006800  0.00102500  1
  C  C8  1  0.05997300  0.06099900  0.00004100  1
  C  C9  1  0.43904200  0.44006800  0.00004100  1
  C  C10  1  0.82003400  0.71224900  0.03228300  1
  C  C11  1  0.17996600  0.21224900  0.89221500  1
  C  C12  1  0.68548100  0.68182900  0.50070000  1
  C  C13  1  0.87432200  0.36558200  0.73990400  1
  C  C14  1  0.68113000  0.18182900  0.99634800  1
  C  C15  1  0.22466100  0.20130500  0.07187600  1
  C  C16  1  0.81562500  0.82116400  0.50110300  1
  C  C17  1  0.82006000  0.32116400  0.00553900  1
  C  C18  1  0.12567800  0.86558200  0.49126000  1
  C  C19  1  0.31887000  0.31521900  0.50070000  1
  C  C20  1  0.31451900  0.81521900  0.99634800  1
  C  C21  1  0.62942900  0.70130500  0.97664400  1
  C  C22  1  0.77533900  0.84721500  0.97664400  1
  C  C23  1  0.37057100  0.34721500  0.07187600  1
  C  C24  1  0.18437500  0.68547800  0.00553900  1
  C  C25  1  0.17994000  0.18547800  0.50110300  1
