# generated using pymatgen
data_Cu4NiC9
_symmetry_space_group_name_H-M   'P 1'
_cell_length_a   8.56553756
_cell_length_b   8.56553756
_cell_length_c   8.47804700
_cell_angle_alpha   90.00000000
_cell_angle_beta   90.00000000
_cell_angle_gamma   119.99999662
_symmetry_Int_Tables_number   1
_chemical_formula_structural   Cu4NiC9
_chemical_formula_sum   'Cu8 Ni2 C18'
_cell_volume   538.68603160
_cell_formula_units_Z   2
loop_
 _symmetry_equiv_pos_site_id
 _symmetry_equiv_pos_as_xyz
  1  'x, y, z'
loop_
 _atom_site_type_symbol
 _atom_site_label
 _atom_site_symmetry_multiplicity
 _atom_site_fract_x
 _atom_site_fract_y
 _atom_site_fract_z
 _atom_site_occupancy
  C  C0  1  0.19965500  0.80034500  0.44217100  1
  C  C1  1  0.19965500  0.39931100  0.44217100  1
  C  C2  1  0.60068900  0.80034500  0.44217100  1
  C  C3  1  0.80034500  0.19965500  0.55782900  1
  C  C4  1  0.80034500  0.60068900  0.55782900  1
  C  C5  1  0.39931100  0.19965500  0.55782900  1
  C  C6  1  0.80034500  0.19965500  0.94217100  1
  C  C7  1  0.80034500  0.60068900  0.94217100  1
  C  C8  1  0.39931100  0.19965500  0.94217100  1
  C  C9  1  0.19965500  0.80034500  0.05782900  1
  C  C10  1  0.19965500  0.39931100  0.05782900  1
  C  C11  1  0.60068900  0.80034500  0.05782900  1
  C  C12  1  0.54098300  0.45901700  0.25000000  1
  C  C13  1  0.54098300  0.08196600  0.25000000  1
  C  C14  1  0.91803400  0.45901700  0.25000000  1
  C  C15  1  0.45901700  0.54098300  0.75000000  1
  C  C16  1  0.45901700  0.91803400  0.75000000  1
  C  C17  1  0.08196600  0.54098300  0.75000000  1
  Ni  Ni18  1  0.33333300  0.66666700  0.25000000  1
  Ni  Ni19  1  0.66666700  0.33333300  0.75000000  1
  Cu  Cu20  1  0.88923800  0.11076200  0.25000000  1
  Cu  Cu21  1  0.88923800  0.77847700  0.25000000  1
  Cu  Cu22  1  0.22152300  0.11076200  0.25000000  1
  Cu  Cu23  1  0.11076200  0.88923800  0.75000000  1
  Cu  Cu24  1  0.11076200  0.22152300  0.75000000  1
  Cu  Cu25  1  0.77847700  0.88923800  0.75000000  1
  Cu  Cu26  1  0.00000000  0.00000000  0.50000000  1
  Cu  Cu27  1  0.00000000  0.00000000  0.00000000  1
