# generated using pymatgen
data_Cu3NiC100
_symmetry_space_group_name_H-M   'P 1'
_cell_length_a   7.05387100
_cell_length_b   12.07637100
_cell_length_c   12.21795515
_cell_angle_alpha   70.29133654
_cell_angle_beta   90.00000000
_cell_angle_gamma   90.00000000
_symmetry_Int_Tables_number   1
_chemical_formula_structural   Cu3NiC100
_chemical_formula_sum   'Cu3 Ni1 C100'
_cell_volume   979.81865803
_cell_formula_units_Z   1
loop_
 _symmetry_equiv_pos_site_id
 _symmetry_equiv_pos_as_xyz
  1  'x, y, z'
loop_
 _atom_site_type_symbol
 _atom_site_label
 _atom_site_symmetry_multiplicity
 _atom_site_fract_x
 _atom_site_fract_y
 _atom_site_fract_z
 _atom_site_occupancy
  Ni  Ni0  1  0.50000000  0.00000000  0.50000000  1
  Cu  Cu1  1  0.00000000  0.00000000  0.00000000  1
  Cu  Cu2  1  0.50000000  0.50000000  0.00000000  1
  Cu  Cu3  1  0.00000000  0.50000000  0.50000000  1
  C  C4  1  0.75034500  0.74871000  0.50021300  1
  C  C5  1  0.24965500  0.25129000  0.49978700  1
  C  C6  1  0.75005000  0.25009100  0.99985700  1
  C  C7  1  0.24995000  0.74990900  0.00014300  1
  C  C8  1  0.00000000  0.74982700  0.24985200  1
  C  C9  1  0.50000000  0.25122800  0.24917100  1
  C  C10  1  0.00000000  0.25017300  0.75014800  1
  C  C11  1  0.50000000  0.74877200  0.75082900  1
  C  C12  1  0.75034500  0.25129000  0.49978700  1
  C  C13  1  0.24965500  0.74871000  0.50021300  1
  C  C14  1  0.75005000  0.74990900  0.00014300  1
  C  C15  1  0.24995000  0.25009100  0.99985700  1
  C  C16  1  0.70533700  0.16656400  0.84626500  1
  C  C17  1  0.20530200  0.16739600  0.34596500  1
  C  C18  1  0.70523100  0.66657300  0.34612700  1
  C  C19  1  0.20512400  0.66654800  0.84629200  1
  C  C20  1  0.29466300  0.16656400  0.84626500  1
  C  C21  1  0.79469800  0.16739600  0.34596500  1
  C  C22  1  0.29476900  0.66657300  0.34612700  1
  C  C23  1  0.79487600  0.66654800  0.84629200  1
  C  C24  1  0.50000000  0.16739600  0.64065000  1
  C  C25  1  0.00000000  0.16657300  0.14092800  1
  C  C26  1  0.50000000  0.66655900  0.14098000  1
  C  C27  1  0.00000000  0.66657200  0.64106200  1
  C  C28  1  0.29476900  0.33342700  0.65387300  1
  C  C29  1  0.79487600  0.33345200  0.15370800  1
  C  C30  1  0.29466300  0.83343600  0.15373500  1
  C  C31  1  0.79469800  0.83260400  0.65403500  1
  C  C32  1  0.70523100  0.33342700  0.65387300  1
  C  C33  1  0.20512400  0.33345200  0.15370800  1
  C  C34  1  0.70533700  0.83343600  0.15373500  1
  C  C35  1  0.20530200  0.83260400  0.65403500  1
  C  C36  1  0.50000000  0.33344100  0.85902000  1
  C  C37  1  0.00000000  0.33342800  0.35893800  1
  C  C38  1  0.50000000  0.83260400  0.35935000  1
  C  C39  1  0.00000000  0.83342700  0.85907200  1
  C  C40  1  0.50000000  0.54111900  0.65298700  1
  C  C41  1  0.00000000  0.54153800  0.15279600  1
  C  C42  1  0.50000000  0.04188000  0.15217600  1
  C  C43  1  0.00000000  0.04218000  0.65315500  1
  C  C44  1  0.50000000  0.95812000  0.84782400  1
  C  C45  1  0.00000000  0.95782000  0.34684500  1
  C  C46  1  0.50000000  0.45888100  0.34701300  1
  C  C47  1  0.00000000  0.45846200  0.84720400  1
  C  C48  1  0.81167900  0.20760600  0.86803000  1
  C  C49  1  0.31019100  0.21029800  0.36662500  1
  C  C50  1  0.81206800  0.70719500  0.36799200  1
  C  C51  1  0.31163900  0.70719500  0.86845400  1
  C  C52  1  0.18832100  0.20760600  0.86803000  1
  C  C53  1  0.68980900  0.21029800  0.36662500  1
  C  C54  1  0.18793200  0.70719500  0.36799200  1
  C  C55  1  0.68836100  0.70719500  0.86845400  1
  C  C56  1  0.50000000  0.21039600  0.55642400  1
  C  C57  1  0.00000000  0.20753000  0.05635500  1
  C  C58  1  0.50000000  0.70754600  0.05637300  1
  C  C59  1  0.00000000  0.70688700  0.55634400  1
  C  C60  1  0.18793200  0.29280500  0.63200800  1
  C  C61  1  0.68836100  0.29280500  0.13154600  1
  C  C62  1  0.18832100  0.79239400  0.13197000  1
  C  C63  1  0.68980900  0.78970200  0.63337500  1
  C  C64  1  0.81206800  0.29280500  0.63200800  1
  C  C65  1  0.31163900  0.29280500  0.13154600  1
  C  C66  1  0.81167900  0.79239400  0.13197000  1
  C  C67  1  0.31019100  0.78970200  0.63337500  1
  C  C68  1  0.50000000  0.29245400  0.94362700  1
  C  C69  1  0.00000000  0.29311300  0.44365600  1
  C  C70  1  0.50000000  0.78960400  0.44357600  1
  C  C71  1  0.00000000  0.79247000  0.94364500  1
  C  C72  1  0.67319000  0.91410600  0.92017700  1
  C  C73  1  0.17266000  0.91294400  0.41937900  1
  C  C74  1  0.67309700  0.41468200  0.41946200  1
  C  C75  1  0.17307100  0.41408900  0.91963400  1
  C  C76  1  0.32681000  0.91410600  0.92017700  1
  C  C77  1  0.82734000  0.91294400  0.41937900  1
  C  C78  1  0.32690300  0.41468200  0.41946200  1
  C  C79  1  0.82692900  0.41408900  0.91963400  1
  C  C80  1  0.50000000  0.91289000  0.74785400  1
  C  C81  1  0.00000000  0.91413200  0.24592700  1
  C  C82  1  0.50000000  0.41462100  0.24638400  1
  C  C83  1  0.00000000  0.41411400  0.74662800  1
  C  C84  1  0.32690300  0.58531800  0.58053800  1
  C  C85  1  0.82692900  0.58591100  0.08036600  1
  C  C86  1  0.32681000  0.08589400  0.07982300  1
  C  C87  1  0.82734000  0.08705600  0.58062100  1
  C  C88  1  0.67309700  0.58531800  0.58053800  1
  C  C89  1  0.17307100  0.58591100  0.08036600  1
  C  C90  1  0.67319000  0.08589400  0.07982300  1
  C  C91  1  0.17266000  0.08705600  0.58062100  1
  C  C92  1  0.50000000  0.58537900  0.75361600  1
  C  C93  1  0.00000000  0.58588600  0.25337200  1
  C  C94  1  0.50000000  0.08711000  0.25214600  1
  C  C95  1  0.00000000  0.08586800  0.75407300  1
  C  C96  1  0.50000000  0.41223000  0.69596800  1
  C  C97  1  0.00000000  0.41258600  0.19575900  1
  C  C98  1  0.50000000  0.91289700  0.19582500  1
  C  C99  1  0.00000000  0.91318700  0.69548100  1
  C  C100  1  0.50000000  0.08710300  0.80417500  1
  C  C101  1  0.00000000  0.08681300  0.30451900  1
  C  C102  1  0.50000000  0.58777000  0.30403200  1
  C  C103  1  0.00000000  0.58741400  0.80424100  1
