# generated using pymatgen
data_Cu(NiC21)2
_symmetry_space_group_name_H-M   'P 1'
_cell_length_a   14.54606284
_cell_length_b   14.54606284
_cell_length_c   5.54686637
_cell_angle_alpha   84.35993122
_cell_angle_beta   84.35993122
_cell_angle_gamma   144.85143116
_symmetry_Int_Tables_number   1
_chemical_formula_structural   Cu(NiC21)2
_chemical_formula_sum   'Cu1 Ni2 C42'
_cell_volume   638.87564625
_cell_formula_units_Z   1
loop_
 _symmetry_equiv_pos_site_id
 _symmetry_equiv_pos_as_xyz
  1  'x, y, z'
loop_
 _atom_site_type_symbol
 _atom_site_label
 _atom_site_symmetry_multiplicity
 _atom_site_fract_x
 _atom_site_fract_y
 _atom_site_fract_z
 _atom_site_occupancy
  C  C0  1  0.13520800  0.86479200  0.50000000  1
  C  C1  1  0.47038800  0.19731900  0.83343000  1
  C  C2  1  0.80268100  0.52961200  0.16657000  1
  C  C3  1  0.19731900  0.47038800  0.83343000  1
  C  C4  1  0.52961200  0.80268100  0.16657000  1
  C  C5  1  0.86479200  0.13520800  0.50000000  1
  Ni  Ni6  1  0.66753400  0.66753400  0.16629000  1
  Ni  Ni7  1  0.33246600  0.33246600  0.83371000  1
  Cu  Cu8  1  0.00000000  0.00000000  0.50000000  1
  C  C9  1  0.26916800  0.39518600  0.33410100  1
  C  C10  1  0.60481400  0.73083200  0.66589900  1
  C  C11  1  0.93748400  0.06251600  0.00000000  1
  C  C12  1  0.73083200  0.60481400  0.66589900  1
  C  C13  1  0.06251600  0.93748400  0.00000000  1
  C  C14  1  0.39518600  0.26916800  0.33410100  1
  C  C15  1  0.12010300  0.54572200  0.33334600  1
  C  C16  1  0.45427800  0.87989700  0.66665400  1
  C  C17  1  0.78736100  0.21263900  0.00000000  1
  C  C18  1  0.87989700  0.45427800  0.66665400  1
  C  C19  1  0.21263900  0.78736100  0.00000000  1
  C  C20  1  0.54572200  0.12010300  0.33334600  1
  C  C21  1  0.44332800  0.55667200  0.50000000  1
  C  C22  1  0.78223400  0.89099600  0.82583900  1
  C  C23  1  0.10900400  0.21776600  0.17416100  1
  C  C24  1  0.89099600  0.78223400  0.82583900  1
  C  C25  1  0.21776600  0.10900400  0.17416100  1
  C  C26  1  0.55667200  0.44332800  0.50000000  1
  C  C27  1  0.89035800  0.78502600  0.33669800  1
  C  C28  1  0.21497400  0.10964200  0.66330200  1
  C  C29  1  0.55520900  0.44479100  0.00000000  1
  C  C30  1  0.10964200  0.21497400  0.66330200  1
  C  C31  1  0.44479100  0.55520900  0.00000000  1
  C  C32  1  0.78502600  0.89035800  0.33669800  1
  C  C33  1  0.18679800  0.47943100  0.33373800  1
  C  C34  1  0.52056900  0.81320200  0.66626200  1
  C  C35  1  0.85390300  0.14609700  0.00000000  1
  C  C36  1  0.81320200  0.52056900  0.66626200  1
  C  C37  1  0.14609700  0.85390300  0.00000000  1
  C  C38  1  0.47943100  0.18679800  0.33373800  1
  C  C39  1  0.05204500  0.61368500  0.33295900  1
  C  C40  1  0.38631500  0.94795500  0.66704100  1
  C  C41  1  0.71920100  0.28079900  0.00000000  1
  C  C42  1  0.94795500  0.38631500  0.66704100  1
  C  C43  1  0.28079900  0.71920100  0.00000000  1
  C  C44  1  0.61368500  0.05204500  0.33295900  1
