# generated using pymatgen
data_Cu6NiC
_symmetry_space_group_name_H-M   'P 1'
_cell_length_a   5.10097300
_cell_length_b   5.85820200
_cell_length_c   11.12112100
_cell_angle_alpha   90.00000000
_cell_angle_beta   90.00000000
_cell_angle_gamma   90.00000000
_symmetry_Int_Tables_number   1
_chemical_formula_structural   Cu6NiC
_chemical_formula_sum   'Cu12 Ni2 C2'
_cell_volume   332.32723448
_cell_formula_units_Z   2
loop_
 _symmetry_equiv_pos_site_id
 _symmetry_equiv_pos_as_xyz
  1  'x, y, z'
loop_
 _atom_site_type_symbol
 _atom_site_label
 _atom_site_symmetry_multiplicity
 _atom_site_fract_x
 _atom_site_fract_y
 _atom_site_fract_z
 _atom_site_occupancy
  Ni  Ni0  1  0.50000000  0.50000000  0.17484000  1
  Ni  Ni1  1  0.50000000  0.00000000  0.67484000  1
  Cu  Cu2  1  0.50000000  0.25043200  0.42201800  1
  Cu  Cu3  1  0.50000000  0.74956800  0.42201800  1
  Cu  Cu4  1  0.00000000  0.74861200  0.07999600  1
  Cu  Cu5  1  0.00000000  0.25138800  0.07999600  1
  Cu  Cu6  1  0.00000000  0.00000000  0.32274100  1
  Cu  Cu7  1  0.00000000  0.50000000  0.33113400  1
  Cu  Cu8  1  0.50000000  0.75043200  0.92201800  1
  Cu  Cu9  1  0.50000000  0.24956800  0.92201800  1
  Cu  Cu10  1  0.00000000  0.24861200  0.57999600  1
  Cu  Cu11  1  0.00000000  0.75138800  0.57999600  1
  Cu  Cu12  1  0.00000000  0.50000000  0.82274100  1
  Cu  Cu13  1  0.00000000  0.00000000  0.83113400  1
  C  C14  1  0.50000000  0.00000000  0.16725400  1
  C  C15  1  0.50000000  0.50000000  0.66725400  1
