# generated using pymatgen
data_CuNi3C2
_symmetry_space_group_name_H-M   'P 1'
_cell_length_a   6.12591700
_cell_length_b   8.09577600
_cell_length_c   9.31953392
_cell_angle_alpha   79.44090806
_cell_angle_beta   90.00000000
_cell_angle_gamma   90.00000000
_symmetry_Int_Tables_number   1
_chemical_formula_structural   CuNi3C2
_chemical_formula_sum   'Cu4 Ni12 C8'
_cell_volume   454.36686609
_cell_formula_units_Z   4
loop_
 _symmetry_equiv_pos_site_id
 _symmetry_equiv_pos_as_xyz
  1  'x, y, z'
loop_
 _atom_site_type_symbol
 _atom_site_label
 _atom_site_symmetry_multiplicity
 _atom_site_fract_x
 _atom_site_fract_y
 _atom_site_fract_z
 _atom_site_occupancy
  Ni  Ni0  1  0.19338900  0.96938200  0.93219200  1
  Ni  Ni1  1  0.80661100  0.03061800  0.06780800  1
  Ni  Ni2  1  0.69338900  0.03061800  0.56780800  1
  Ni  Ni3  1  0.30661100  0.96938200  0.43219200  1
  Ni  Ni4  1  0.42882700  0.83632000  0.50805200  1
  Ni  Ni5  1  0.57117300  0.16368000  0.49194800  1
  Ni  Ni6  1  0.92882700  0.16368000  0.99194800  1
  Ni  Ni7  1  0.07117300  0.83632000  0.00805200  1
  Ni  Ni8  1  0.87579800  0.86455900  0.07714800  1
  Ni  Ni9  1  0.12420200  0.13544100  0.92285200  1
  Ni  Ni10  1  0.37579800  0.13544100  0.42285200  1
  Ni  Ni11  1  0.62420200  0.86455900  0.57714800  1
  Cu  Cu12  1  0.30626400  0.33477900  0.80945800  1
  Cu  Cu13  1  0.69373600  0.66522100  0.19054200  1
  Cu  Cu14  1  0.80626400  0.66522100  0.69054200  1
  Cu  Cu15  1  0.19373600  0.33477900  0.30945800  1
  C  C16  1  0.35462300  0.67771900  0.51340000  1
  C  C17  1  0.64537700  0.32228100  0.48660000  1
  C  C18  1  0.85462300  0.32228100  0.98660000  1
  C  C19  1  0.14537700  0.67771900  0.01340000  1
  C  C20  1  0.38084800  0.93451800  0.86644700  1
  C  C21  1  0.61915200  0.06548200  0.13355300  1
  C  C22  1  0.88084800  0.06548200  0.63355300  1
  C  C23  1  0.11915200  0.93451800  0.36644700  1
