# generated using pymatgen
data_CuNiC
_symmetry_space_group_name_H-M   'P 1'
_cell_length_a   5.86550800
_cell_length_b   5.87137700
_cell_length_c   13.03807500
_cell_angle_alpha   90.00000000
_cell_angle_beta   90.00000000
_cell_angle_gamma   90.00000000
_symmetry_Int_Tables_number   1
_chemical_formula_structural   CuNiC
_chemical_formula_sum   'Cu8 Ni8 C8'
_cell_volume   449.01316397
_cell_formula_units_Z   8
loop_
 _symmetry_equiv_pos_site_id
 _symmetry_equiv_pos_as_xyz
  1  'x, y, z'
loop_
 _atom_site_type_symbol
 _atom_site_label
 _atom_site_symmetry_multiplicity
 _atom_site_fract_x
 _atom_site_fract_y
 _atom_site_fract_z
 _atom_site_occupancy
  C  C0  1  0.99843100  0.25006700  0.08829700  1
  C  C1  1  0.00156900  0.74993300  0.91170300  1
  C  C2  1  0.00156900  0.74993300  0.58829700  1
  C  C3  1  0.49843100  0.74993300  0.41170300  1
  C  C4  1  0.99843100  0.25006700  0.41170300  1
  C  C5  1  0.50156900  0.25006700  0.58829700  1
  C  C6  1  0.50156900  0.25006700  0.91170300  1
  C  C7  1  0.49843100  0.74993300  0.08829700  1
  Ni  Ni8  1  0.36436700  0.12096500  0.25000000  1
  Ni  Ni9  1  0.63563300  0.87903500  0.75000000  1
  Ni  Ni10  1  0.86436700  0.87903500  0.25000000  1
  Ni  Ni11  1  0.13563300  0.12096500  0.75000000  1
  Ni  Ni12  1  0.11890400  0.62468000  0.25000000  1
  Ni  Ni13  1  0.88109600  0.37532000  0.75000000  1
  Ni  Ni14  1  0.61890400  0.37532000  0.25000000  1
  Ni  Ni15  1  0.38109600  0.62468000  0.75000000  1
  Cu  Cu16  1  0.25000000  0.99439400  0.00000000  1
  Cu  Cu17  1  0.75000000  0.00560600  0.00000000  1
  Cu  Cu18  1  0.75000000  0.00560600  0.50000000  1
  Cu  Cu19  1  0.25000000  0.99439400  0.50000000  1
  Cu  Cu20  1  0.25000000  0.49377800  0.00000000  1
  Cu  Cu21  1  0.75000000  0.50622200  0.00000000  1
  Cu  Cu22  1  0.75000000  0.50622200  0.50000000  1
  Cu  Cu23  1  0.25000000  0.49377800  0.50000000  1
