# generated using pymatgen
data_Cu5Ni2C25
_symmetry_space_group_name_H-M   'P 1'
_cell_length_a   2.98114344
_cell_length_b   2.98114344
_cell_length_c   38.82034589
_cell_angle_alpha   89.94668660
_cell_angle_beta   89.94668660
_cell_angle_gamma   57.61084335
_symmetry_Int_Tables_number   1
_chemical_formula_structural   Cu5Ni2C25
_chemical_formula_sum   'Cu5 Ni2 C25'
_cell_volume   291.33200958
_cell_formula_units_Z   1
loop_
 _symmetry_equiv_pos_site_id
 _symmetry_equiv_pos_as_xyz
  1  'x, y, z'
loop_
 _atom_site_type_symbol
 _atom_site_label
 _atom_site_symmetry_multiplicity
 _atom_site_fract_x
 _atom_site_fract_y
 _atom_site_fract_z
 _atom_site_occupancy
  C  C0  1  0.93976400  0.93976400  0.81404700  1
  C  C1  1  0.31853500  0.31853500  0.94041800  1
  C  C2  1  0.68146500  0.68146500  0.05958200  1
  C  C3  1  0.06023600  0.06023600  0.18595300  1
  C  C4  1  0.44038500  0.44038500  0.31349800  1
  C  C5  1  0.81254700  0.81254700  0.43810900  1
  C  C6  1  0.18745300  0.18745300  0.56189100  1
  C  C7  1  0.55961500  0.55961500  0.68650200  1
  C  C8  1  0.00000000  0.00000000  0.00000000  1
  Ni  Ni9  1  0.24972600  0.24972600  0.75011500  1
  Ni  Ni10  1  0.75027400  0.75027400  0.24988500  1
  Cu  Cu11  1  0.62728200  0.62728200  0.87510500  1
  Cu  Cu12  1  0.37271800  0.37271800  0.12489500  1
  Cu  Cu13  1  0.12529400  0.12529400  0.37543000  1
  Cu  Cu14  1  0.50000000  0.50000000  0.50000000  1
  Cu  Cu15  1  0.87470600  0.87470600  0.62457000  1
  C  C16  1  0.61638800  0.61638800  0.77967200  1
  C  C17  1  0.97900300  0.97900300  0.90127000  1
  C  C18  1  0.34578000  0.34578000  0.03207000  1
  C  C19  1  0.73078500  0.73078500  0.15291200  1
  C  C20  1  0.11718800  0.11718800  0.27922600  1
  C  C21  1  0.46681800  0.46681800  0.40404100  1
  C  C22  1  0.86103900  0.86103900  0.52785200  1
  C  C23  1  0.21676500  0.21676500  0.65328700  1
  C  C24  1  0.26921500  0.26921500  0.84708800  1
  C  C25  1  0.65422000  0.65422000  0.96793000  1
  C  C26  1  0.02099700  0.02099700  0.09873000  1
  C  C27  1  0.38361200  0.38361200  0.22032800  1
  C  C28  1  0.78323500  0.78323500  0.34671300  1
  C  C29  1  0.13896100  0.13896100  0.47214800  1
  C  C30  1  0.53318200  0.53318200  0.59595900  1
  C  C31  1  0.88281200  0.88281200  0.72077400  1
