# generated using pymatgen
data_CuNiC7
_symmetry_space_group_name_H-M   'P 1'
_cell_length_a   9.10013467
_cell_length_b   9.10013467
_cell_length_c   4.69448400
_cell_angle_alpha   90.00000000
_cell_angle_beta   90.00000000
_cell_angle_gamma   120.00000490
_symmetry_Int_Tables_number   1
_chemical_formula_structural   CuNiC7
_chemical_formula_sum   'Cu3 Ni3 C21'
_cell_volume   336.67751464
_cell_formula_units_Z   3
loop_
 _symmetry_equiv_pos_site_id
 _symmetry_equiv_pos_as_xyz
  1  'x, y, z'
loop_
 _atom_site_type_symbol
 _atom_site_label
 _atom_site_symmetry_multiplicity
 _atom_site_fract_x
 _atom_site_fract_y
 _atom_site_fract_z
 _atom_site_occupancy
  C  C0  1  0.69423800  0.00000000  0.50000000  1
  C  C1  1  0.00000000  0.69423800  0.50000000  1
  C  C2  1  0.30576200  0.30576200  0.50000000  1
  Ni  Ni3  1  0.35476200  0.00000000  0.00000000  1
  Ni  Ni4  1  0.00000000  0.35476200  0.00000000  1
  Ni  Ni5  1  0.64523800  0.64523800  0.00000000  1
  Cu  Cu6  1  0.00000000  0.00000000  0.00000000  1
  Cu  Cu7  1  0.33333300  0.66666700  0.49457000  1
  Cu  Cu8  1  0.66666700  0.33333300  0.50543000  1
  C  C9  1  0.10707900  0.56571900  0.25398400  1
  C  C10  1  0.43428100  0.54136000  0.25398400  1
  C  C11  1  0.56571900  0.10707900  0.74601600  1
  C  C12  1  0.45864000  0.89292100  0.25398400  1
  C  C13  1  0.54136000  0.43428100  0.74601600  1
  C  C14  1  0.89292100  0.45864000  0.74601600  1
  C  C15  1  0.10486900  0.22882900  0.23309700  1
  C  C16  1  0.77117100  0.87604100  0.23309700  1
  C  C17  1  0.22882900  0.10486900  0.76690300  1
  C  C18  1  0.12395900  0.89513100  0.23309700  1
  C  C19  1  0.87604100  0.77117100  0.76690300  1
  C  C20  1  0.89513100  0.12395900  0.76690300  1
  C  C21  1  0.44087500  0.21303500  0.26444400  1
  C  C22  1  0.78696500  0.22784000  0.26444400  1
  C  C23  1  0.21303500  0.44087500  0.73555600  1
  C  C24  1  0.77216000  0.55912500  0.26444400  1
  C  C25  1  0.22784000  0.78696500  0.73555600  1
  C  C26  1  0.55912500  0.77216000  0.73555600  1
