# generated using pymatgen
data_Cu(Ni5C4)2
_symmetry_space_group_name_H-M   'P 1'
_cell_length_a   9.97263503
_cell_length_b   9.97263503
_cell_length_c   12.32710000
_cell_angle_alpha   90.00000000
_cell_angle_beta   90.00000000
_cell_angle_gamma   119.99999357
_symmetry_Int_Tables_number   1
_chemical_formula_structural   Cu(Ni5C4)2
_chemical_formula_sum   'Cu2 Ni20 C16'
_cell_volume   1061.72349934
_cell_formula_units_Z   2
loop_
 _symmetry_equiv_pos_site_id
 _symmetry_equiv_pos_as_xyz
  1  'x, y, z'
loop_
 _atom_site_type_symbol
 _atom_site_label
 _atom_site_symmetry_multiplicity
 _atom_site_fract_x
 _atom_site_fract_y
 _atom_site_fract_z
 _atom_site_occupancy
  C  C0  1  0.26249500  0.91023000  0.63543300  1
  C  C1  1  0.08977000  0.35226500  0.63543300  1
  C  C2  1  0.64773500  0.73750500  0.63543300  1
  C  C3  1  0.73750500  0.08977000  0.13543300  1
  C  C4  1  0.91023000  0.64773500  0.13543300  1
  C  C5  1  0.35226500  0.26249500  0.13543300  1
  C  C6  1  0.33333300  0.66666700  0.94523800  1
  C  C7  1  0.66666700  0.33333300  0.44523800  1
  C  C8  1  0.00000000  0.00000000  0.88834400  1
  C  C9  1  0.00000000  0.00000000  0.38834400  1
  C  C10  1  0.67068700  0.11821200  0.79749300  1
  C  C11  1  0.88178800  0.55247400  0.79749300  1
  C  C12  1  0.44752600  0.32931300  0.79749300  1
  C  C13  1  0.32931300  0.88178800  0.29749300  1
  C  C14  1  0.11821200  0.44752600  0.29749300  1
  C  C15  1  0.55247400  0.67068700  0.29749300  1
  Ni  Ni16  1  0.45358600  0.11553900  0.86180200  1
  Ni  Ni17  1  0.88446100  0.33804700  0.86180200  1
  Ni  Ni18  1  0.66195300  0.54641400  0.86180200  1
  Ni  Ni19  1  0.54641400  0.88446100  0.36180200  1
  Ni  Ni20  1  0.11553900  0.66195300  0.36180200  1
  Ni  Ni21  1  0.33804700  0.45358600  0.36180200  1
  Ni  Ni22  1  0.66714500  0.08940300  0.62234000  1
  Ni  Ni23  1  0.91059700  0.57774100  0.62234000  1
  Ni  Ni24  1  0.42225900  0.33285500  0.62234000  1
  Ni  Ni25  1  0.33285500  0.91059700  0.12234000  1
  Ni  Ni26  1  0.08940300  0.42225900  0.12234000  1
  Ni  Ni27  1  0.57774100  0.66714500  0.12234000  1
  Ni  Ni28  1  0.68939900  0.93932200  0.89002000  1
  Ni  Ni29  1  0.06067800  0.75007700  0.89002000  1
  Ni  Ni30  1  0.24992300  0.31060100  0.89002000  1
  Ni  Ni31  1  0.31060100  0.06067800  0.39002000  1
  Ni  Ni32  1  0.93932200  0.24992300  0.39002000  1
  Ni  Ni33  1  0.75007700  0.68939900  0.39002000  1
  Ni  Ni34  1  0.33333300  0.66666700  0.69907500  1
  Ni  Ni35  1  0.66666700  0.33333300  0.19907500  1
  Cu  Cu36  1  0.00000000  0.00000000  0.64114900  1
  Cu  Cu37  1  0.00000000  0.00000000  0.14114900  1
