# generated using pymatgen
data_CuNiC4
_symmetry_space_group_name_H-M   'P 1'
_cell_length_a   7.45255700
_cell_length_b   6.82137600
_cell_length_c   14.23735303
_cell_angle_alpha   62.39953776
_cell_angle_beta   90.00000000
_cell_angle_gamma   90.00000000
_symmetry_Int_Tables_number   1
_chemical_formula_structural   CuNiC4
_chemical_formula_sum   'Cu8 Ni8 C32'
_cell_volume   641.41367850
_cell_formula_units_Z   8
loop_
 _symmetry_equiv_pos_site_id
 _symmetry_equiv_pos_as_xyz
  1  'x, y, z'
loop_
 _atom_site_type_symbol
 _atom_site_label
 _atom_site_symmetry_multiplicity
 _atom_site_fract_x
 _atom_site_fract_y
 _atom_site_fract_z
 _atom_site_occupancy
  Ni  Ni0  1  0.80535900  0.01193400  0.34243800  1
  Ni  Ni1  1  0.69464100  0.01193400  0.84243800  1
  Ni  Ni2  1  0.19464100  0.98806600  0.65756200  1
  Ni  Ni3  1  0.30535900  0.98806600  0.15756200  1
  Ni  Ni4  1  0.55603400  0.50889200  0.36471600  1
  Ni  Ni5  1  0.94396600  0.50889200  0.86471600  1
  Ni  Ni6  1  0.44396600  0.49110800  0.63528400  1
  Ni  Ni7  1  0.05603400  0.49110800  0.13528400  1
  Cu  Cu8  1  0.33136000  0.98641200  0.41547300  1
  Cu  Cu9  1  0.16864000  0.98641200  0.91547300  1
  Cu  Cu10  1  0.66864000  0.01358800  0.58452700  1
  Cu  Cu11  1  0.83136000  0.01358800  0.08452700  1
  Cu  Cu12  1  0.04475300  0.43582100  0.40807400  1
  Cu  Cu13  1  0.45524700  0.43582100  0.90807400  1
  Cu  Cu14  1  0.95524700  0.56417900  0.59192600  1
  Cu  Cu15  1  0.54475300  0.56417900  0.09192600  1
  C  C16  1  0.46510700  0.75639200  0.41633400  1
  C  C17  1  0.03489300  0.75639200  0.91633400  1
  C  C18  1  0.53489300  0.24360800  0.58366600  1
  C  C19  1  0.96510700  0.24360800  0.08366600  1
  C  C20  1  0.93327400  0.35987400  0.31105200  1
  C  C21  1  0.56672600  0.35987400  0.81105200  1
  C  C22  1  0.06672600  0.64012600  0.68894800  1
  C  C23  1  0.43327400  0.64012600  0.18894800  1
  C  C24  1  0.85677600  0.58602500  0.44890500  1
  C  C25  1  0.64322400  0.58602500  0.94890500  1
  C  C26  1  0.14322400  0.41397500  0.55109500  1
  C  C27  1  0.35677600  0.41397500  0.05109500  1
  C  C28  1  0.28133600  0.12971500  0.27261700  1
  C  C29  1  0.21866400  0.12971500  0.77261700  1
  C  C30  1  0.71866400  0.87028500  0.72738300  1
  C  C31  1  0.78133600  0.87028500  0.22738300  1
  C  C32  1  0.25066000  0.24756300  0.43092200  1
  C  C33  1  0.24934000  0.24756300  0.93092200  1
  C  C34  1  0.74934000  0.75243700  0.56907800  1
  C  C35  1  0.75066000  0.75243700  0.06907800  1
  C  C36  1  0.14748200  0.68416400  0.31677400  1
  C  C37  1  0.35251800  0.68416400  0.81677400  1
  C  C38  1  0.85251800  0.31583600  0.68322600  1
  C  C39  1  0.64748200  0.31583600  0.18322600  1
  C  C40  1  0.11333100  0.85142900  0.47271400  1
  C  C41  1  0.38666900  0.85142900  0.97271400  1
  C  C42  1  0.88666900  0.14857100  0.52728600  1
  C  C43  1  0.61333100  0.14857100  0.02728600  1
  C  C44  1  0.58191900  0.14021300  0.41624500  1
  C  C45  1  0.91808100  0.14021300  0.91624500  1
  C  C46  1  0.41808100  0.85978700  0.58375500  1
  C  C47  1  0.08191900  0.85978700  0.08375500  1
