# generated using pymatgen
data_CuNiC11
_symmetry_space_group_name_H-M   'P 1'
_cell_length_a   6.36302229
_cell_length_b   6.36302229
_cell_length_c   10.23533963
_cell_angle_alpha   89.74877675
_cell_angle_beta   89.74877675
_cell_angle_gamma   119.58124852
_symmetry_Int_Tables_number   1
_chemical_formula_structural   CuNiC11
_chemical_formula_sum   'Cu2 Ni2 C22'
_cell_volume   360.37978654
_cell_formula_units_Z   2
loop_
 _symmetry_equiv_pos_site_id
 _symmetry_equiv_pos_as_xyz
  1  'x, y, z'
loop_
 _atom_site_type_symbol
 _atom_site_label
 _atom_site_symmetry_multiplicity
 _atom_site_fract_x
 _atom_site_fract_y
 _atom_site_fract_z
 _atom_site_occupancy
  Ni  Ni0  1  0.33193800  0.66451100  0.99830300  1
  Ni  Ni1  1  0.66451100  0.33193800  0.49830300  1
  Cu  Cu2  1  0.33212100  0.66687900  0.37216800  1
  Cu  Cu3  1  0.66687900  0.33212100  0.87216800  1
  C  C4  1  0.33583600  0.15467400  0.19197000  1
  C  C5  1  0.81798300  0.66342100  0.18979000  1
  C  C6  1  0.84461100  0.18464300  0.19002900  1
  C  C7  1  0.15467400  0.33583600  0.69197000  1
  C  C8  1  0.66342100  0.81798300  0.68979000  1
  C  C9  1  0.18464300  0.84461100  0.69002900  1
  C  C10  1  0.99833600  0.99611100  0.94904200  1
  C  C11  1  0.99611100  0.99833600  0.44904200  1
  C  C12  1  0.99792700  0.99545800  0.75916500  1
  C  C13  1  0.99545800  0.99792700  0.25916500  1
  C  C14  1  0.32355600  0.12200900  0.99879900  1
  C  C15  1  0.78626200  0.67499400  0.99577800  1
  C  C16  1  0.89153600  0.21621600  0.99825300  1
  C  C17  1  0.12200900  0.32355600  0.49879900  1
  C  C18  1  0.67499400  0.78626200  0.49577800  1
  C  C19  1  0.21621600  0.89153600  0.49825300  1
  C  C20  1  0.00297300  0.51747300  0.25373700  1
  C  C21  1  0.51369300  0.99679700  0.25219400  1
  C  C22  1  0.48392200  0.48632100  0.25177200  1
  C  C23  1  0.51747300  0.00297300  0.75373700  1
  C  C24  1  0.99679700  0.51369300  0.75219400  1
  C  C25  1  0.48632100  0.48392200  0.75177200  1
