# generated using pymatgen
data_Cu5(NiC2)2
_symmetry_space_group_name_H-M   'P 1'
_cell_length_a   7.90889103
_cell_length_b   7.90889103
_cell_length_c   14.96503307
_cell_angle_alpha   90.00000000
_cell_angle_beta   90.00000000
_cell_angle_gamma   90.00000000
_symmetry_Int_Tables_number   1
_chemical_formula_structural   Cu5(NiC2)2
_chemical_formula_sum   'Cu20 Ni8 C16'
_cell_volume   936.07115891
_cell_formula_units_Z   4
loop_
 _symmetry_equiv_pos_site_id
 _symmetry_equiv_pos_as_xyz
  1  'x, y, z'
loop_
 _atom_site_type_symbol
 _atom_site_label
 _atom_site_symmetry_multiplicity
 _atom_site_fract_x
 _atom_site_fract_y
 _atom_site_fract_z
 _atom_site_occupancy
  Ni  Ni0  1  0.09389271  0.90610729  0.25000000  1
  Ni  Ni1  1  0.40610729  0.90610729  0.75000000  1
  Ni  Ni2  1  0.09389271  0.59389271  0.75000000  1
  Ni  Ni3  1  0.40610729  0.59389271  0.25000000  1
  Ni  Ni4  1  0.90610729  0.09389271  0.75000000  1
  Ni  Ni5  1  0.59389271  0.09389271  0.25000000  1
  Ni  Ni6  1  0.90610729  0.40610729  0.25000000  1
  Ni  Ni7  1  0.59389271  0.40610729  0.75000000  1
  Cu  Cu8  1  0.75000000  0.75000000  0.39258752  1
  Cu  Cu9  1  0.75000000  0.75000000  0.89258752  1
  Cu  Cu10  1  0.25000000  0.25000000  0.60741248  1
  Cu  Cu11  1  0.25000000  0.25000000  0.10741248  1
  Cu  Cu12  1  0.13379794  0.57732138  0.42607280  1
  Cu  Cu13  1  0.36620206  0.57732138  0.92607280  1
  Cu  Cu14  1  0.13379794  0.92267862  0.92607280  1
  Cu  Cu15  1  0.36620206  0.92267862  0.42607280  1
  Cu  Cu16  1  0.57732138  0.13379794  0.92607280  1
  Cu  Cu17  1  0.92267862  0.13379794  0.42607280  1
  Cu  Cu18  1  0.57732138  0.36620206  0.42607280  1
  Cu  Cu19  1  0.92267862  0.36620206  0.92607280  1
  Cu  Cu20  1  0.86620206  0.42267862  0.57392720  1
  Cu  Cu21  1  0.63379794  0.42267862  0.07392720  1
  Cu  Cu22  1  0.86620206  0.07732138  0.07392720  1
  Cu  Cu23  1  0.63379794  0.07732138  0.57392720  1
  Cu  Cu24  1  0.42267862  0.86620206  0.07392720  1
  Cu  Cu25  1  0.07732138  0.86620206  0.57392720  1
  Cu  Cu26  1  0.42267862  0.63379794  0.57392720  1
  Cu  Cu27  1  0.07732138  0.63379794  0.07392720  1
  C  C28  1  0.63485003  0.05320809  0.40788068  1
  C  C29  1  0.86514997  0.05320809  0.90788068  1
  C  C30  1  0.63485003  0.44679191  0.90788068  1
  C  C31  1  0.86514997  0.44679191  0.40788068  1
  C  C32  1  0.05320809  0.63485003  0.90788068  1
  C  C33  1  0.44679191  0.63485003  0.40788068  1
  C  C34  1  0.05320809  0.86514997  0.40788068  1
  C  C35  1  0.44679191  0.86514997  0.90788068  1
  C  C36  1  0.36514997  0.94679191  0.59211932  1
  C  C37  1  0.13485003  0.94679191  0.09211932  1
  C  C38  1  0.36514997  0.55320809  0.09211932  1
  C  C39  1  0.13485003  0.55320809  0.59211932  1
  C  C40  1  0.94679191  0.36514997  0.09211932  1
  C  C41  1  0.55320809  0.36514997  0.59211932  1
  C  C42  1  0.94679191  0.13485003  0.59211932  1
  C  C43  1  0.55320809  0.13485003  0.09211932  1
