# generated using pymatgen
data_Cu2Ni3C4
_symmetry_space_group_name_H-M   'P 1'
_cell_length_a   15.23975614
_cell_length_b   15.23975614
_cell_length_c   6.46332300
_cell_angle_alpha   90.00000000
_cell_angle_beta   90.00000000
_cell_angle_gamma   120.00000059
_symmetry_Int_Tables_number   1
_chemical_formula_structural   Cu2Ni3C4
_chemical_formula_sum   'Cu12 Ni18 C24'
_cell_volume   1299.99752125
_cell_formula_units_Z   6
loop_
 _symmetry_equiv_pos_site_id
 _symmetry_equiv_pos_as_xyz
  1  'x, y, z'
loop_
 _atom_site_type_symbol
 _atom_site_label
 _atom_site_symmetry_multiplicity
 _atom_site_fract_x
 _atom_site_fract_y
 _atom_site_fract_z
 _atom_site_occupancy
  C  C0  1  0.79991700  0.79991700  0.50177200  1
  C  C1  1  0.00000000  0.20008300  0.50177200  1
  C  C2  1  0.20008300  0.00000000  0.50177200  1
  C  C3  1  0.20008300  0.20008300  0.00177200  1
  C  C4  1  0.00000000  0.79991700  0.00177200  1
  C  C5  1  0.79991700  0.00000000  0.00177200  1
  C  C6  1  0.15903700  0.68996400  0.43678400  1
  C  C7  1  0.53092700  0.84096300  0.43678400  1
  C  C8  1  0.31003600  0.46907300  0.43678400  1
  C  C9  1  0.68996400  0.15903700  0.43678400  1
  C  C10  1  0.84096300  0.53092700  0.43678400  1
  C  C11  1  0.46907300  0.31003600  0.43678400  1
  C  C12  1  0.84096300  0.31003600  0.93678400  1
  C  C13  1  0.46907300  0.15903700  0.93678400  1
  C  C14  1  0.68996400  0.53092700  0.93678400  1
  C  C15  1  0.31003600  0.84096300  0.93678400  1
  C  C16  1  0.15903700  0.46907300  0.93678400  1
  C  C17  1  0.53092700  0.68996400  0.93678400  1
  C  C18  1  0.57660500  0.57660500  0.47124700  1
  C  C19  1  0.00000000  0.42339500  0.47124700  1
  C  C20  1  0.42339500  0.00000000  0.47124700  1
  C  C21  1  0.42339500  0.42339500  0.97124700  1
  C  C22  1  0.00000000  0.57660500  0.97124700  1
  C  C23  1  0.57660500  0.00000000  0.97124700  1
  Ni  Ni24  1  0.51219300  0.51219300  0.19732000  1
  Ni  Ni25  1  0.00000000  0.48780700  0.19732000  1
  Ni  Ni26  1  0.48780700  0.00000000  0.19732000  1
  Ni  Ni27  1  0.48780700  0.48780700  0.69732000  1
  Ni  Ni28  1  0.00000000  0.51219300  0.69732000  1
  Ni  Ni29  1  0.51219300  0.00000000  0.69732000  1
  Ni  Ni30  1  0.11435000  0.71027000  0.01112700  1
  Ni  Ni31  1  0.59592000  0.88565000  0.01112700  1
  Ni  Ni32  1  0.28973000  0.40408000  0.01112700  1
  Ni  Ni33  1  0.71027000  0.11435000  0.01112700  1
  Ni  Ni34  1  0.88565000  0.59592000  0.01112700  1
  Ni  Ni35  1  0.40408000  0.28973000  0.01112700  1
  Ni  Ni36  1  0.88565000  0.28973000  0.51112700  1
  Ni  Ni37  1  0.40408000  0.11435000  0.51112700  1
  Ni  Ni38  1  0.71027000  0.59592000  0.51112700  1
  Ni  Ni39  1  0.28973000  0.88565000  0.51112700  1
  Ni  Ni40  1  0.11435000  0.40408000  0.51112700  1
  Ni  Ni41  1  0.59592000  0.71027000  0.51112700  1
  Cu  Cu42  1  0.00000000  0.00000000  0.24989300  1
  Cu  Cu43  1  0.00000000  0.00000000  0.74989300  1
  Cu  Cu44  1  0.33333300  0.66666700  0.20047300  1
  Cu  Cu45  1  0.66666700  0.33333300  0.20047300  1
  Cu  Cu46  1  0.66666700  0.33333300  0.70047300  1
  Cu  Cu47  1  0.33333300  0.66666700  0.70047300  1
  Cu  Cu48  1  0.77106700  0.77106700  0.99746500  1
  Cu  Cu49  1  0.00000000  0.22893300  0.99746500  1
  Cu  Cu50  1  0.22893300  0.00000000  0.99746500  1
  Cu  Cu51  1  0.22893300  0.22893300  0.49746500  1
  Cu  Cu52  1  0.00000000  0.77106700  0.49746500  1
  Cu  Cu53  1  0.77106700  0.00000000  0.49746500  1
