# generated using pymatgen
data_Cu3Ni5C2
_symmetry_space_group_name_H-M   'P 1'
_cell_length_a   7.94654719
_cell_length_b   7.94654719
_cell_length_c   7.94654719
_cell_angle_alpha   137.91314594
_cell_angle_beta   105.52847989
_cell_angle_gamma   89.43580066
_symmetry_Int_Tables_number   1
_chemical_formula_structural   Cu3Ni5C2
_chemical_formula_sum   'Cu6 Ni10 C4'
_cell_volume   309.89764127
_cell_formula_units_Z   2
loop_
 _symmetry_equiv_pos_site_id
 _symmetry_equiv_pos_as_xyz
  1  'x, y, z'
loop_
 _atom_site_type_symbol
 _atom_site_label
 _atom_site_symmetry_multiplicity
 _atom_site_fract_x
 _atom_site_fract_y
 _atom_site_fract_z
 _atom_site_occupancy
  C  C0  1  0.86830100  0.63112300  0.23717800  1
  C  C1  1  0.13169900  0.36887700  0.76282200  1
  C  C2  1  0.39394500  0.13112300  0.26282200  1
  C  C3  1  0.60605500  0.86887700  0.73717800  1
  Ni  Ni4  1  0.50000000  0.75000000  0.25000000  1
  Ni  Ni5  1  0.50000000  0.25000000  0.75000000  1
  Ni  Ni6  1  0.23527900  0.98527900  0.75000000  1
  Ni  Ni7  1  0.76472100  0.51472100  0.75000000  1
  Ni  Ni8  1  0.76472100  0.01472100  0.25000000  1
  Ni  Ni9  1  0.23527900  0.48527900  0.25000000  1
  Ni  Ni10  1  0.04233600  0.89244200  0.14989300  1
  Ni  Ni11  1  0.95766400  0.10755800  0.85010700  1
  Ni  Ni12  1  0.74254900  0.39244200  0.35010700  1
  Ni  Ni13  1  0.25745100  0.60755800  0.64989300  1
  Cu  Cu14  1  0.00000000  0.75000000  0.75000000  1
  Cu  Cu15  1  0.00000000  0.25000000  0.25000000  1
  Cu  Cu16  1  0.25582900  0.86703700  0.38879200  1
  Cu  Cu17  1  0.74417100  0.13296300  0.61120800  1
  Cu  Cu18  1  0.47824600  0.36703700  0.11120800  1
  Cu  Cu19  1  0.52175400  0.63296300  0.88879200  1
