# generated using pymatgen
data_CuNiC7
_symmetry_space_group_name_H-M   'P 1'
_cell_length_a   5.32998799
_cell_length_b   5.32998799
_cell_length_c   10.49919600
_cell_angle_alpha   90.00000000
_cell_angle_beta   90.00000000
_cell_angle_gamma   119.99999989
_symmetry_Int_Tables_number   1
_chemical_formula_structural   CuNiC7
_chemical_formula_sum   'Cu2 Ni2 C14'
_cell_volume   258.30876114
_cell_formula_units_Z   2
loop_
 _symmetry_equiv_pos_site_id
 _symmetry_equiv_pos_as_xyz
  1  'x, y, z'
loop_
 _atom_site_type_symbol
 _atom_site_label
 _atom_site_symmetry_multiplicity
 _atom_site_fract_x
 _atom_site_fract_y
 _atom_site_fract_z
 _atom_site_occupancy
  Ni  Ni0  1  0.00000000  0.00000000  0.50000000  1
  Ni  Ni1  1  0.00000000  0.00000000  0.00000000  1
  Cu  Cu2  1  0.33333300  0.66666700  0.75000000  1
  Cu  Cu3  1  0.66666700  0.33333300  0.25000000  1
  C  C4  1  0.66666700  0.33333300  0.75000000  1
  C  C5  1  0.33333300  0.66666700  0.25000000  1
  C  C6  1  0.64479600  0.01459800  0.64464200  1
  C  C7  1  0.35520400  0.98540200  0.35535800  1
  C  C8  1  0.98540200  0.63019800  0.64464200  1
  C  C9  1  0.64479600  0.63019800  0.85535800  1
  C  C10  1  0.01459800  0.36980200  0.35535800  1
  C  C11  1  0.35520400  0.36980200  0.14464200  1
  C  C12  1  0.36980200  0.35520400  0.64464200  1
  C  C13  1  0.98540200  0.35520400  0.85535800  1
  C  C14  1  0.63019800  0.64479600  0.35535800  1
  C  C15  1  0.01459800  0.64479600  0.14464200  1
  C  C16  1  0.36980200  0.01459800  0.85535800  1
  C  C17  1  0.63019800  0.98540200  0.14464200  1
