# generated using pymatgen
data_Cu9NiC5
_symmetry_space_group_name_H-M   'P 1'
_cell_length_a   10.18153380
_cell_length_b   10.18153380
_cell_length_c   13.85613800
_cell_angle_alpha   90.00000000
_cell_angle_beta   90.00000000
_cell_angle_gamma   90.87231004
_symmetry_Int_Tables_number   1
_chemical_formula_structural   Cu9NiC5
_chemical_formula_sum   'Cu36 Ni4 C20'
_cell_volume   1436.21110423
_cell_formula_units_Z   4
loop_
 _symmetry_equiv_pos_site_id
 _symmetry_equiv_pos_as_xyz
  1  'x, y, z'
loop_
 _atom_site_type_symbol
 _atom_site_label
 _atom_site_symmetry_multiplicity
 _atom_site_fract_x
 _atom_site_fract_y
 _atom_site_fract_z
 _atom_site_occupancy
  C  C0  1  0.09094300  0.12688600  0.18502200  1
  C  C1  1  0.87311400  0.90905700  0.81497800  1
  C  C2  1  0.59094300  0.62688600  0.31497800  1
  C  C3  1  0.37311400  0.40905700  0.68502200  1
  C  C4  1  0.32258400  0.33370500  0.39883600  1
  C  C5  1  0.66629500  0.67741600  0.60116400  1
  C  C6  1  0.82258400  0.83370500  0.10116400  1
  C  C7  1  0.16629500  0.17741600  0.89883600  1
  C  C8  1  0.04409300  0.62444800  0.32029300  1
  C  C9  1  0.37555200  0.95590700  0.67970700  1
  C  C10  1  0.54409300  0.12444800  0.17970700  1
  C  C11  1  0.87555200  0.45590700  0.82029300  1
  C  C12  1  0.32493000  0.45064000  0.10404600  1
  C  C13  1  0.54936000  0.67507000  0.89595400  1
  C  C14  1  0.82493000  0.95064000  0.39595400  1
  C  C15  1  0.04936000  0.17507000  0.60404600  1
  C  C16  1  0.82510500  0.38329800  0.09293700  1
  C  C17  1  0.61670200  0.17489500  0.90706300  1
  C  C18  1  0.32510500  0.88329800  0.40706300  1
  C  C19  1  0.11670200  0.67489500  0.59293700  1
  Ni  Ni20  1  0.83094200  0.32426500  0.38708000  1
  Ni  Ni21  1  0.67573500  0.16905800  0.61292000  1
  Ni  Ni22  1  0.33094200  0.82426500  0.11292000  1
  Ni  Ni23  1  0.17573500  0.66905800  0.88708000  1
  Cu  Cu24  1  0.01284700  0.16536200  0.39981100  1
  Cu  Cu25  1  0.83463800  0.98715300  0.60018900  1
  Cu  Cu26  1  0.51284700  0.66536200  0.10018900  1
  Cu  Cu27  1  0.33463800  0.48715300  0.89981100  1
  Cu  Cu28  1  0.14733800  0.66775100  0.07929800  1
  Cu  Cu29  1  0.33224900  0.85266200  0.92070200  1
  Cu  Cu30  1  0.64733800  0.16775100  0.42070200  1
  Cu  Cu31  1  0.83224900  0.35266200  0.57929800  1
  Cu  Cu32  1  0.81832400  0.20762300  0.20021300  1
  Cu  Cu33  1  0.79237700  0.18167600  0.79978700  1
  Cu  Cu34  1  0.31832400  0.70762300  0.29978700  1
  Cu  Cu35  1  0.29237700  0.68167600  0.70021300  1
  Cu  Cu36  1  0.82163800  0.57008600  0.18993200  1
  Cu  Cu37  1  0.42991400  0.17836200  0.81006800  1
  Cu  Cu38  1  0.32163800  0.07008600  0.31006800  1
  Cu  Cu39  1  0.92991400  0.67836200  0.68993200  1
  Cu  Cu40  1  0.13262500  0.86737500  0.50000000  1
  Cu  Cu41  1  0.63262500  0.36737500  0.00000000  1
  Cu  Cu42  1  0.12170500  0.49053900  0.49667000  1
  Cu  Cu43  1  0.50946100  0.87829500  0.50333000  1
  Cu  Cu44  1  0.62170500  0.99053900  0.00333000  1
  Cu  Cu45  1  0.00946100  0.37829500  0.99667000  1
  Cu  Cu46  1  0.81542500  0.68000400  0.43170600  1
  Cu  Cu47  1  0.31999600  0.18457500  0.56829400  1
  Cu  Cu48  1  0.31542500  0.18000400  0.06829400  1
  Cu  Cu49  1  0.81999600  0.68457500  0.93170600  1
  Cu  Cu50  1  0.00374300  0.88078400  0.25015600  1
  Cu  Cu51  1  0.11921600  0.99625700  0.74984400  1
  Cu  Cu52  1  0.50374300  0.38078400  0.24984400  1
  Cu  Cu53  1  0.61921600  0.49625700  0.75015600  1
  Cu  Cu54  1  0.49960200  0.50039800  0.50000000  1
  Cu  Cu55  1  0.99960200  0.00039800  0.00000000  1
  Cu  Cu56  1  0.14162900  0.38926200  0.24765700  1
  Cu  Cu57  1  0.61073800  0.85837100  0.75234300  1
  Cu  Cu58  1  0.64162900  0.88926200  0.25234300  1
  Cu  Cu59  1  0.11073800  0.35837100  0.74765700  1
