# generated using pymatgen
data_Cu5NiC11
_symmetry_space_group_name_H-M   'P 1'
_cell_length_a   7.98028700
_cell_length_b   8.70857800
_cell_length_c   12.75591531
_cell_angle_alpha   49.02930143
_cell_angle_beta   90.00000000
_cell_angle_gamma   90.00000000
_symmetry_Int_Tables_number   1
_chemical_formula_structural   Cu5NiC11
_chemical_formula_sum   'Cu20 Ni4 C44'
_cell_volume   669.34529692
_cell_formula_units_Z   4
loop_
 _symmetry_equiv_pos_site_id
 _symmetry_equiv_pos_as_xyz
  1  'x, y, z'
loop_
 _atom_site_type_symbol
 _atom_site_label
 _atom_site_symmetry_multiplicity
 _atom_site_fract_x
 _atom_site_fract_y
 _atom_site_fract_z
 _atom_site_occupancy
  C  C0  1  0.18309100  0.95203600  0.24030900  1
  C  C1  1  0.68309100  0.04796400  0.25969100  1
  C  C2  1  0.81690900  0.04796400  0.75969100  1
  C  C3  1  0.31690900  0.95203600  0.74030900  1
  Ni  Ni4  1  0.40504500  0.47308800  0.12874200  1
  Ni  Ni5  1  0.90504500  0.52691200  0.37125800  1
  Ni  Ni6  1  0.59495500  0.52691200  0.87125800  1
  Ni  Ni7  1  0.09495500  0.47308800  0.62874200  1
  Cu  Cu8  1  0.57379700  0.66834100  0.24781500  1
  Cu  Cu9  1  0.17461700  0.52918600  0.90554900  1
  Cu  Cu10  1  0.67461800  0.47081400  0.59445100  1
  Cu  Cu11  1  0.82538300  0.47081400  0.09445100  1
  Cu  Cu12  1  0.32538300  0.52918600  0.40554900  1
  Cu  Cu13  1  0.89446700  0.85472400  0.48895000  1
  Cu  Cu14  1  0.39446700  0.14527600  0.01105000  1
  Cu  Cu15  1  0.10553300  0.14527600  0.51105000  1
  Cu  Cu16  1  0.60553300  0.85472400  0.98895000  1
  Cu  Cu17  1  0.07379700  0.33165900  0.25218500  1
  Cu  Cu18  1  0.42620300  0.33165900  0.75218500  1
  Cu  Cu19  1  0.92620300  0.66834100  0.74781500  1
  Cu  Cu20  1  0.32381500  0.07762100  0.40519100  1
  Cu  Cu21  1  0.82381500  0.92237900  0.09480900  1
  Cu  Cu22  1  0.67618500  0.92237900  0.59480900  1
  Cu  Cu23  1  0.17618500  0.07762100  0.90519100  1
  Cu  Cu24  1  0.53034900  0.27905900  0.44178800  1
  Cu  Cu25  1  0.03034900  0.72094100  0.05821200  1
  Cu  Cu26  1  0.46965100  0.72094100  0.55821200  1
  Cu  Cu27  1  0.96965100  0.27905900  0.94178800  1
  C  C28  1  0.20536500  0.18492900  0.28231000  1
  C  C29  1  0.67087600  0.41350700  0.08056400  1
  C  C30  1  0.17087600  0.58649300  0.41943600  1
  C  C31  1  0.32912400  0.58649300  0.91943600  1
  C  C32  1  0.82912400  0.41350700  0.58056400  1
  C  C33  1  0.44007900  0.12286000  0.12334200  1
  C  C34  1  0.94007900  0.87714000  0.37665800  1
  C  C35  1  0.55992100  0.87714000  0.87665800  1
  C  C36  1  0.70536500  0.81507100  0.21769000  1
  C  C37  1  0.05992100  0.12286000  0.62334200  1
  C  C38  1  0.29463500  0.18492900  0.78231000  1
  C  C39  1  0.79463500  0.81507100  0.71769000  1
  C  C40  1  0.53211600  0.71258400  0.11654100  1
  C  C41  1  0.03211600  0.28741600  0.38345900  1
  C  C42  1  0.46788400  0.28741600  0.88345900  1
  C  C43  1  0.96788400  0.71258400  0.61654100  1
  C  C44  1  0.41862500  0.69308200  0.29760900  1
  C  C45  1  0.91862500  0.30691800  0.20239100  1
  C  C46  1  0.58137500  0.30691800  0.70239100  1
  C  C47  1  0.08137500  0.69308200  0.79760900  1
  C  C48  1  0.63773300  0.45892200  0.35049900  1
  C  C49  1  0.13773300  0.54107800  0.14950100  1
  C  C50  1  0.36226700  0.54107800  0.64950100  1
  C  C51  1  0.86226700  0.45892200  0.85049900  1
  C  C52  1  0.46612200  0.21840300  0.36278200  1
  C  C53  1  0.96612200  0.78159700  0.13721800  1
  C  C54  1  0.53387800  0.78159700  0.63721800  1
  C  C55  1  0.03387800  0.21840300  0.86278200  1
  C  C56  1  0.38391900  0.89700700  0.42698000  1
  C  C57  1  0.88391900  0.10299300  0.07302000  1
  C  C58  1  0.61608100  0.10299300  0.57302000  1
  C  C59  1  0.11708100  0.33236200  0.98786800  1
  C  C60  1  0.23420900  0.02272200  0.52707600  1
  C  C61  1  0.73420900  0.97727800  0.97292400  1
  C  C62  1  0.76579100  0.97727800  0.47292400  1
  C  C63  1  0.26579100  0.02272200  0.02707600  1
  C  C64  1  0.38291900  0.33236200  0.48786800  1
  C  C65  1  0.88291900  0.66763800  0.01213200  1
  C  C66  1  0.61708100  0.66763800  0.51213200  1
  C  C67  1  0.11608100  0.89700700  0.92698000  1
