# generated using pymatgen
data_Cu5Ni2C21
_symmetry_space_group_name_H-M   'P 1'
_cell_length_a   7.26799524
_cell_length_b   7.26799524
_cell_length_c   21.61578600
_cell_angle_alpha   90.00000000
_cell_angle_beta   90.00000000
_cell_angle_gamma   144.16151624
_symmetry_Int_Tables_number   1
_chemical_formula_structural   Cu5Ni2C21
_chemical_formula_sum   'Cu10 Ni4 C42'
_cell_volume   668.54233305
_cell_formula_units_Z   2
loop_
 _symmetry_equiv_pos_site_id
 _symmetry_equiv_pos_as_xyz
  1  'x, y, z'
loop_
 _atom_site_type_symbol
 _atom_site_label
 _atom_site_symmetry_multiplicity
 _atom_site_fract_x
 _atom_site_fract_y
 _atom_site_fract_z
 _atom_site_occupancy
  Ni  Ni0  1  0.83028100  0.26530500  0.84711100  1
  Ni  Ni1  1  0.26530500  0.83028100  0.15288900  1
  Ni  Ni2  1  0.83028100  0.26530500  0.65288900  1
  Ni  Ni3  1  0.26530500  0.83028100  0.34711100  1
  Cu  Cu4  1  0.18662100  0.91702900  0.75000000  1
  Cu  Cu5  1  0.91702900  0.18662100  0.25000000  1
  Cu  Cu6  1  0.58647200  0.56491100  0.93811500  1
  Cu  Cu7  1  0.56491100  0.58647200  0.06188500  1
  Cu  Cu8  1  0.58647200  0.56491100  0.56188500  1
  Cu  Cu9  1  0.56491100  0.58647200  0.43811500  1
  Cu  Cu10  1  0.99173000  0.16138900  0.99331100  1
  Cu  Cu11  1  0.16138900  0.99173000  0.00668900  1
  Cu  Cu12  1  0.99173000  0.16138900  0.50668900  1
  Cu  Cu13  1  0.16138900  0.99173000  0.49331100  1
  C  C14  1  0.09574100  0.00312600  0.87168300  1
  C  C15  1  0.00312600  0.09574100  0.12831700  1
  C  C16  1  0.09574100  0.00312600  0.62831700  1
  C  C17  1  0.00312600  0.09574100  0.37168300  1
  C  C18  1  0.58424500  0.51613500  0.80841500  1
  C  C19  1  0.51613500  0.58424500  0.19158500  1
  C  C20  1  0.58424500  0.51613500  0.69158500  1
  C  C21  1  0.51613500  0.58424500  0.30841500  1
  C  C22  1  0.35444100  0.75387800  0.99562500  1
  C  C23  1  0.75387800  0.35444100  0.00437500  1
  C  C24  1  0.35444100  0.75387800  0.50437500  1
  C  C25  1  0.75387800  0.35444100  0.49562500  1
  C  C26  1  0.42511900  0.67473400  0.75000000  1
  C  C27  1  0.67473400  0.42511900  0.25000000  1
  C  C28  1  0.32964900  0.77508600  0.75000000  1
  C  C29  1  0.77508600  0.32964900  0.25000000  1
  C  C30  1  0.47609300  0.62276000  0.80591500  1
  C  C31  1  0.62276000  0.47609300  0.19408500  1
  C  C32  1  0.47609300  0.62276000  0.69408500  1
  C  C33  1  0.62276000  0.47609300  0.30591500  1
  C  C34  1  0.45820900  0.02146000  0.00343900  1
  C  C35  1  0.02146000  0.45820900  0.99656100  1
  C  C36  1  0.45820900  0.02146000  0.49656100  1
  C  C37  1  0.02146000  0.45820900  0.50343900  1
  C  C38  1  0.72645000  0.57081000  0.75000000  1
  C  C39  1  0.57081000  0.72645000  0.25000000  1
  C  C40  1  0.53646100  0.75582600  0.98835100  1
  C  C41  1  0.75582600  0.53646100  0.01164900  1
  C  C42  1  0.53646100  0.75582600  0.51164900  1
  C  C43  1  0.75582600  0.53646100  0.48835100  1
  C  C44  1  0.15532400  0.12726700  0.92805300  1
  C  C45  1  0.12726700  0.15532400  0.07194700  1
  C  C46  1  0.15532400  0.12726700  0.57194700  1
  C  C47  1  0.12726700  0.15532400  0.42805300  1
  C  C48  1  0.30665900  0.16906800  0.82234200  1
  C  C49  1  0.16906800  0.30665900  0.17765800  1
  C  C50  1  0.30665900  0.16906800  0.67765800  1
  C  C51  1  0.16906800  0.30665900  0.32234200  1
  C  C52  1  0.80538000  0.67935500  0.86219300  1
  C  C53  1  0.67935500  0.80538000  0.13780700  1
  C  C54  1  0.80538000  0.67935500  0.63780700  1
  C  C55  1  0.67935500  0.80538000  0.36219300  1
