# generated using pymatgen
data_Cu4Ni5C12
_symmetry_space_group_name_H-M   'P 1'
_cell_length_a   6.07349900
_cell_length_b   6.08871312
_cell_length_c   13.68787424
_cell_angle_alpha   102.51156749
_cell_angle_beta   102.60257671
_cell_angle_gamma   90.61268853
_symmetry_Int_Tables_number   1
_chemical_formula_structural   Cu4Ni5C12
_chemical_formula_sum   'Cu8 Ni10 C24'
_cell_volume   481.35534295
_cell_formula_units_Z   2
loop_
 _symmetry_equiv_pos_site_id
 _symmetry_equiv_pos_as_xyz
  1  'x, y, z'
loop_
 _atom_site_type_symbol
 _atom_site_label
 _atom_site_symmetry_multiplicity
 _atom_site_fract_x
 _atom_site_fract_y
 _atom_site_fract_z
 _atom_site_occupancy
  Ni  Ni0  1  0.78988000  0.54450400  0.08379100  1
  Ni  Ni1  1  0.46174400  0.20880100  0.41686600  1
  Ni  Ni2  1  0.12232100  0.87501000  0.74896300  1
  Ni  Ni3  1  0.53825600  0.79119900  0.58313400  1
  Ni  Ni4  1  0.21012000  0.45549600  0.91620900  1
  Ni  Ni5  1  0.87767900  0.12499000  0.25103700  1
  Ni  Ni6  1  0.66549600  0.66746900  0.83111400  1
  Ni  Ni7  1  0.33450400  0.33253100  0.16888600  1
  Ni  Ni8  1  0.00000000  0.00000000  0.50000000  1
  Ni  Ni9  1  0.00000000  0.00000000  0.00000000  1
  Cu  Cu10  1  0.66496400  0.66441600  0.33455100  1
  Cu  Cu11  1  0.33503600  0.33558400  0.66544900  1
  Cu  Cu12  1  0.50000000  0.00000000  0.00000000  1
  Cu  Cu13  1  0.16422100  0.66900900  0.33330700  1
  Cu  Cu14  1  0.83577900  0.33099100  0.66669300  1
  Cu  Cu15  1  0.66463600  0.16640900  0.83203300  1
  Cu  Cu16  1  0.33536400  0.83359100  0.16796700  1
  Cu  Cu17  1  0.00000000  0.50000000  0.50000000  1
  C  C18  1  0.58523500  0.11523900  0.67570500  1
  C  C19  1  0.25735000  0.77627400  0.01126300  1
  C  C20  1  0.92014500  0.44827200  0.34331900  1
  C  C21  1  0.89460400  0.39861800  0.82121300  1
  C  C22  1  0.56240400  0.06656800  0.15497000  1
  C  C23  1  0.21176300  0.75408800  0.49132400  1
  C  C24  1  0.44573000  0.42000700  0.82470600  1
  C  C25  1  0.12168500  0.08786200  0.16594000  1
  C  C26  1  0.75910900  0.72750600  0.48843600  1
  C  C27  1  0.59163200  0.55705000  0.67310300  1
  C  C28  1  0.24732500  0.21814800  0.00630100  1
  C  C29  1  0.91813200  0.89242300  0.34201700  1
  C  C30  1  0.74265000  0.22372600  0.98873700  1
  C  C31  1  0.41476500  0.88476100  0.32429500  1
  C  C32  1  0.07985500  0.55172800  0.65668100  1
  C  C33  1  0.43759600  0.93343200  0.84503000  1
  C  C34  1  0.10539600  0.60138200  0.17878700  1
  C  C35  1  0.78823700  0.24591200  0.50867600  1
  C  C36  1  0.87831500  0.91213800  0.83406000  1
  C  C37  1  0.55427000  0.57999300  0.17529400  1
  C  C38  1  0.24089100  0.27249400  0.51156400  1
  C  C39  1  0.75267500  0.78185200  0.99369900  1
  C  C40  1  0.40836800  0.44295000  0.32689700  1
  C  C41  1  0.08186800  0.10757700  0.65798300  1
