# generated using pymatgen
data_Cu2(NiC6)3
_symmetry_space_group_name_H-M   'P 1'
_cell_length_a   8.41219425
_cell_length_b   8.41219425
_cell_length_c   5.12950300
_cell_angle_alpha   90.00000000
_cell_angle_beta   90.00000000
_cell_angle_gamma   120.00000201
_symmetry_Int_Tables_number   1
_chemical_formula_structural   Cu2(NiC6)3
_chemical_formula_sum   'Cu2 Ni3 C18'
_cell_volume   314.35798537
_cell_formula_units_Z   1
loop_
 _symmetry_equiv_pos_site_id
 _symmetry_equiv_pos_as_xyz
  1  'x, y, z'
loop_
 _atom_site_type_symbol
 _atom_site_label
 _atom_site_symmetry_multiplicity
 _atom_site_fract_x
 _atom_site_fract_y
 _atom_site_fract_z
 _atom_site_occupancy
  C  C0  1  0.57375100  0.57375100  0.00000000  1
  C  C1  1  0.42624900  0.00000000  0.00000000  1
  C  C2  1  0.00000000  0.42624900  0.00000000  1
  C  C3  1  0.00000000  0.00000000  0.00000000  1
  Ni  Ni4  1  0.25586100  0.25586100  0.50000000  1
  Ni  Ni5  1  0.00000000  0.74413900  0.50000000  1
  Ni  Ni6  1  0.74413900  0.00000000  0.50000000  1
  Cu  Cu7  1  0.33333300  0.66666700  0.53526700  1
  Cu  Cu8  1  0.66666700  0.33333300  0.46473300  1
  C  C9  1  0.09636600  0.22165500  0.23012200  1
  C  C10  1  0.77834500  0.87471200  0.23012200  1
  C  C11  1  0.12528800  0.90363400  0.23012200  1
  C  C12  1  0.87471200  0.77834500  0.76987800  1
  C  C13  1  0.90363400  0.12528800  0.76987800  1
  C  C14  1  0.22165500  0.09636600  0.76987800  1
  C  C15  1  0.31032700  0.47609300  0.66991000  1
  C  C16  1  0.52390700  0.83423300  0.66991000  1
  C  C17  1  0.16576700  0.68967300  0.66991000  1
  C  C18  1  0.33333300  0.66666700  0.22117300  1
  C  C19  1  0.66666700  0.33333300  0.77882700  1
  C  C20  1  0.47609300  0.31032700  0.33009000  1
  C  C21  1  0.68967300  0.16576700  0.33009000  1
  C  C22  1  0.83423300  0.52390700  0.33009000  1
