# generated using pymatgen
data_Cu2Ni3C14
_symmetry_space_group_name_H-M   'P 1'
_cell_length_a   10.11122000
_cell_length_b   10.11122000
_cell_length_c   10.11122000
_cell_angle_alpha   90.00000000
_cell_angle_beta   90.00000000
_cell_angle_gamma   90.00000000
_symmetry_Int_Tables_number   1
_chemical_formula_structural   Cu2Ni3C14
_chemical_formula_sum   'Cu8 Ni12 C56'
_cell_volume   1033.73847243
_cell_formula_units_Z   4
loop_
 _symmetry_equiv_pos_site_id
 _symmetry_equiv_pos_as_xyz
  1  'x, y, z'
loop_
 _atom_site_type_symbol
 _atom_site_label
 _atom_site_symmetry_multiplicity
 _atom_site_fract_x
 _atom_site_fract_y
 _atom_site_fract_z
 _atom_site_occupancy
  Ni  Ni0  1  0.02045600  0.21327400  0.37572100  1
  Ni  Ni1  1  0.47954400  0.78672600  0.87572100  1
  Ni  Ni2  1  0.97954400  0.71327400  0.12427900  1
  Ni  Ni3  1  0.37572100  0.02045600  0.21327400  1
  Ni  Ni4  1  0.52045600  0.28672600  0.62427900  1
  Ni  Ni5  1  0.87572100  0.47954400  0.78672600  1
  Ni  Ni6  1  0.12427900  0.97954400  0.71327400  1
  Ni  Ni7  1  0.62427900  0.52045600  0.28672600  1
  Ni  Ni8  1  0.21327400  0.37572100  0.02045600  1
  Ni  Ni9  1  0.71327400  0.12427900  0.97954400  1
  Ni  Ni10  1  0.28672600  0.62427900  0.52045600  1
  Ni  Ni11  1  0.78672600  0.87572100  0.47954400  1
  Cu  Cu12  1  0.04877800  0.04877800  0.04877800  1
  Cu  Cu13  1  0.45122200  0.95122200  0.54877800  1
  Cu  Cu14  1  0.95122200  0.54877800  0.45122200  1
  Cu  Cu15  1  0.54877800  0.45122200  0.95122200  1
  Cu  Cu16  1  0.81668900  0.81668900  0.81668900  1
  Cu  Cu17  1  0.68331100  0.18331100  0.31668900  1
  Cu  Cu18  1  0.18331100  0.31668900  0.68331100  1
  Cu  Cu19  1  0.31668900  0.68331100  0.18331100  1
  C  C20  1  0.33578100  0.33578100  0.33578100  1
  C  C21  1  0.16421900  0.66421900  0.83578100  1
  C  C22  1  0.66421900  0.83578100  0.16421900  1
  C  C23  1  0.83578100  0.16421900  0.66421900  1
  C  C24  1  0.60025600  0.60025600  0.60025600  1
  C  C25  1  0.89974400  0.39974400  0.10025600  1
  C  C26  1  0.39974400  0.10025600  0.89974400  1
  C  C27  1  0.10025600  0.89974400  0.39974400  1
  C  C28  1  0.01258500  0.06607600  0.32894500  1
  C  C29  1  0.48741500  0.93392400  0.82894500  1
  C  C30  1  0.98741500  0.56607600  0.17105500  1
  C  C31  1  0.32894500  0.01258500  0.06607600  1
  C  C32  1  0.51258500  0.43392400  0.67105500  1
  C  C33  1  0.82894500  0.48741500  0.93392400  1
  C  C34  1  0.17105500  0.98741500  0.56607600  1
  C  C35  1  0.67105500  0.51258500  0.43392400  1
  C  C36  1  0.06607600  0.32894500  0.01258500  1
  C  C37  1  0.56607600  0.17105500  0.98741500  1
  C  C38  1  0.43392400  0.67105500  0.51258500  1
  C  C39  1  0.93392400  0.82894500  0.48741500  1
  C  C40  1  0.26695500  0.49591600  0.43590900  1
  C  C41  1  0.23304500  0.50408400  0.93590900  1
  C  C42  1  0.73304500  0.99591600  0.06409100  1
  C  C43  1  0.43590900  0.26695500  0.49591600  1
  C  C44  1  0.76695500  0.00408400  0.56409100  1
  C  C45  1  0.93590900  0.23304500  0.50408400  1
  C  C46  1  0.06409100  0.73304500  0.99591600  1
  C  C47  1  0.56409100  0.76695500  0.00408400  1
  C  C48  1  0.49591600  0.43590900  0.26695500  1
  C  C49  1  0.99591600  0.06409100  0.73304500  1
  C  C50  1  0.00408400  0.56409100  0.76695500  1
  C  C51  1  0.50408400  0.93590900  0.23304500  1
  C  C52  1  0.04595300  0.80572200  0.23064400  1
  C  C53  1  0.45404700  0.19427800  0.73064400  1
  C  C54  1  0.95404700  0.30572200  0.26935600  1
  C  C55  1  0.23064400  0.04595300  0.80572200  1
  C  C56  1  0.54595300  0.69427800  0.76935600  1
  C  C57  1  0.73064400  0.45404700  0.19427800  1
  C  C58  1  0.26935600  0.95404700  0.30572200  1
  C  C59  1  0.76935600  0.54595300  0.69427800  1
  C  C60  1  0.80572200  0.23064400  0.04595300  1
  C  C61  1  0.30572200  0.26935600  0.95404700  1
  C  C62  1  0.69427800  0.76935600  0.54595300  1
  C  C63  1  0.19427800  0.73064400  0.45404700  1
  C  C64  1  0.16575000  0.25441600  0.40247400  1
  C  C65  1  0.33425000  0.74558400  0.90247400  1
  C  C66  1  0.83425000  0.75441600  0.09752600  1
  C  C67  1  0.40247400  0.16575000  0.25441600  1
  C  C68  1  0.66575000  0.24558400  0.59752600  1
  C  C69  1  0.90247400  0.33425000  0.74558400  1
  C  C70  1  0.09752600  0.83425000  0.75441600  1
  C  C71  1  0.59752600  0.66575000  0.24558400  1
  C  C72  1  0.25441600  0.40247400  0.16575000  1
  C  C73  1  0.75441600  0.09752600  0.83425000  1
  C  C74  1  0.24558400  0.59752600  0.66575000  1
  C  C75  1  0.74558400  0.90247400  0.33425000  1
