# generated using pymatgen
data_Cu22Ni4C3
_symmetry_space_group_name_H-M   'P 1'
_cell_length_a   4.88438393
_cell_length_b   10.47621025
_cell_length_c   16.75090800
_cell_angle_alpha   90.00000000
_cell_angle_beta   90.00000000
_cell_angle_gamma   95.41985325
_symmetry_Int_Tables_number   1
_chemical_formula_structural   Cu22Ni4C3
_chemical_formula_sum   'Cu44 Ni8 C6'
_cell_volume   853.30914066
_cell_formula_units_Z   2
loop_
 _symmetry_equiv_pos_site_id
 _symmetry_equiv_pos_as_xyz
  1  'x, y, z'
loop_
 _atom_site_type_symbol
 _atom_site_label
 _atom_site_symmetry_multiplicity
 _atom_site_fract_x
 _atom_site_fract_y
 _atom_site_fract_z
 _atom_site_occupancy
  C  C0  1  0.25019500  0.47591500  0.12355300  1
  C  C1  1  0.74980500  0.02408500  0.62355300  1
  C  C2  1  0.74980500  0.52408500  0.87644700  1
  C  C3  1  0.25019500  0.97591500  0.37644700  1
  C  C4  1  0.00000000  0.50000000  0.50000000  1
  C  C5  1  0.00000000  0.00000000  0.00000000  1
  Ni  Ni6  1  0.19809700  0.36232900  0.78397000  1
  Ni  Ni7  1  0.80190300  0.13767100  0.28397000  1
  Ni  Ni8  1  0.80190300  0.63767100  0.21603000  1
  Ni  Ni9  1  0.19809700  0.86232900  0.71603000  1
  Ni  Ni10  1  0.73488800  0.32377500  0.03069400  1
  Ni  Ni11  1  0.26511200  0.17622500  0.53069400  1
  Ni  Ni12  1  0.26511200  0.67622500  0.96930600  1
  Ni  Ni13  1  0.73488800  0.82377500  0.46930600  1
  Cu  Cu14  1  0.95127200  0.93677700  0.71183100  1
  Cu  Cu15  1  0.04872800  0.56322300  0.21183100  1
  Cu  Cu16  1  0.04872800  0.06322300  0.28816900  1
  Cu  Cu17  1  0.95127200  0.43677700  0.78816900  1
  Cu  Cu18  1  0.40015300  0.91505400  0.65431000  1
  Cu  Cu19  1  0.59984700  0.58494600  0.15431000  1
  Cu  Cu20  1  0.59984700  0.08494600  0.34569000  1
  Cu  Cu21  1  0.40015300  0.41505400  0.84569000  1
  Cu  Cu22  1  0.31949300  0.86741700  0.79639100  1
  Cu  Cu23  1  0.68050700  0.63258300  0.29639100  1
  Cu  Cu24  1  0.68050700  0.13258300  0.20360900  1
  Cu  Cu25  1  0.31949300  0.36741700  0.70360900  1
  Cu  Cu26  1  0.11289500  0.72486300  0.69866200  1
  Cu  Cu27  1  0.88710500  0.77513700  0.19866200  1
  Cu  Cu28  1  0.88710500  0.27513700  0.30133800  1
  Cu  Cu29  1  0.11289500  0.22486300  0.80133800  1
  Cu  Cu30  1  0.84931800  0.39652500  0.95924200  1
  Cu  Cu31  1  0.15068200  0.10347500  0.45924200  1
  Cu  Cu32  1  0.15068200  0.60347500  0.04075800  1
  Cu  Cu33  1  0.84931800  0.89652500  0.54075800  1
  Cu  Cu34  1  0.92043000  0.35538900  0.10089200  1
  Cu  Cu35  1  0.07957000  0.14461100  0.60089200  1
  Cu  Cu36  1  0.07957000  0.64461100  0.89910800  1
  Cu  Cu37  1  0.92043000  0.85538900  0.39910800  1
  Cu  Cu38  1  0.45999600  0.36991200  0.04981000  1
  Cu  Cu39  1  0.54000400  0.13008800  0.54981000  1
  Cu  Cu40  1  0.54000400  0.63008800  0.95019000  1
  Cu  Cu41  1  0.45999600  0.86991200  0.45019000  1
  Cu  Cu42  1  0.70609500  0.18653200  0.01577700  1
  Cu  Cu43  1  0.29390500  0.31346800  0.51577700  1
  Cu  Cu44  1  0.29390500  0.81346800  0.98422300  1
  Cu  Cu45  1  0.70609500  0.68653200  0.48422300  1
  Cu  Cu46  1  0.23856000  0.57782900  0.56891600  1
  Cu  Cu47  1  0.76144000  0.92217100  0.06891600  1
  Cu  Cu48  1  0.76144000  0.42217100  0.43108400  1
  Cu  Cu49  1  0.23856000  0.07782900  0.93108400  1
  Cu  Cu50  1  0.65374900  0.64214500  0.78238400  1
  Cu  Cu51  1  0.34625100  0.85785500  0.28238400  1
  Cu  Cu52  1  0.34625100  0.35785500  0.21761600  1
  Cu  Cu53  1  0.65374900  0.14214500  0.71761600  1
  Cu  Cu54  1  0.85264900  0.47100000  0.59619200  1
  Cu  Cu55  1  0.14735100  0.02900000  0.09619200  1
  Cu  Cu56  1  0.14735100  0.52900000  0.40380800  1
  Cu  Cu57  1  0.85264900  0.97100000  0.90380800  1
