# generated using pymatgen
data_CuNiC8
_symmetry_space_group_name_H-M   'P 1'
_cell_length_a   8.10462900
_cell_length_b   5.62206900
_cell_length_c   5.82373797
_cell_angle_alpha   89.96701212
_cell_angle_beta   90.00000000
_cell_angle_gamma   90.00000000
_symmetry_Int_Tables_number   1
_chemical_formula_structural   CuNiC8
_chemical_formula_sum   'Cu2 Ni2 C16'
_cell_volume   265.35731532
_cell_formula_units_Z   2
loop_
 _symmetry_equiv_pos_site_id
 _symmetry_equiv_pos_as_xyz
  1  'x, y, z'
loop_
 _atom_site_type_symbol
 _atom_site_label
 _atom_site_symmetry_multiplicity
 _atom_site_fract_x
 _atom_site_fract_y
 _atom_site_fract_z
 _atom_site_occupancy
  C  C0  1  0.25000000  0.48573200  0.44361000  1
  C  C1  1  0.75000000  0.51426800  0.55639000  1
  C  C2  1  0.25000000  0.01232600  0.94902600  1
  C  C3  1  0.75000000  0.98767400  0.05097400  1
  Ni  Ni4  1  0.50000000  0.50000000  0.00000000  1
  Ni  Ni5  1  0.00000000  0.50000000  0.00000000  1
  Cu  Cu6  1  0.50000000  0.00000000  0.50000000  1
  Cu  Cu7  1  0.00000000  0.00000000  0.50000000  1
  C  C8  1  0.55665400  0.69178100  0.30062700  1
  C  C9  1  0.94347600  0.80326700  0.80350900  1
  C  C10  1  0.05665400  0.30821900  0.69937300  1
  C  C11  1  0.44347600  0.19673300  0.19649100  1
  C  C12  1  0.55652400  0.80326700  0.80350900  1
  C  C13  1  0.05652400  0.19673300  0.19649100  1
  C  C14  1  0.75000000  0.10023100  0.46180200  1
  C  C15  1  0.94334600  0.69178100  0.30062700  1
  C  C16  1  0.25000000  0.60944200  0.04530800  1
  C  C17  1  0.44334600  0.30821900  0.69937300  1
  C  C18  1  0.25000000  0.89976900  0.53819800  1
  C  C19  1  0.75000000  0.39055800  0.95469200  1
