# generated using pymatgen
data_CuNiC6
_symmetry_space_group_name_H-M   'P 1'
_cell_length_a   9.60477788
_cell_length_b   9.60477788
_cell_length_c   9.60477812
_cell_angle_alpha   17.20505872
_cell_angle_beta   17.20505872
_cell_angle_gamma   17.20505873
_symmetry_Int_Tables_number   1
_chemical_formula_structural   CuNiC6
_chemical_formula_sum   'Cu1 Ni1 C6'
_cell_volume   67.64213850
_cell_formula_units_Z   1
loop_
 _symmetry_equiv_pos_site_id
 _symmetry_equiv_pos_as_xyz
  1  'x, y, z'
loop_
 _atom_site_type_symbol
 _atom_site_label
 _atom_site_symmetry_multiplicity
 _atom_site_fract_x
 _atom_site_fract_y
 _atom_site_fract_z
 _atom_site_occupancy
  C  C0  1  0.24920100  0.24920100  0.24920100  1
  C  C1  1  0.75079900  0.75079900  0.75079900  1
  Ni  Ni2  1  0.00000000  0.00000000  0.00000000  1
  Cu  Cu3  1  0.50000000  0.50000000  0.50000000  1
  C  C4  1  0.62891400  0.62891400  0.62891400  1
  C  C5  1  0.13069800  0.13069800  0.13069800  1
  C  C6  1  0.37108600  0.37108600  0.37108600  1
  C  C7  1  0.86930200  0.86930200  0.86930200  1
