# generated using pymatgen
data_Cu6NiC2
_symmetry_space_group_name_H-M   'P 1'
_cell_length_a   7.95398700
_cell_length_b   7.42898200
_cell_length_c   10.27080300
_cell_angle_alpha   90.00000000
_cell_angle_beta   90.00000000
_cell_angle_gamma   90.00000000
_symmetry_Int_Tables_number   1
_chemical_formula_structural   Cu6NiC2
_chemical_formula_sum   'Cu24 Ni4 C8'
_cell_volume   606.90201889
_cell_formula_units_Z   4
loop_
 _symmetry_equiv_pos_site_id
 _symmetry_equiv_pos_as_xyz
  1  'x, y, z'
loop_
 _atom_site_type_symbol
 _atom_site_label
 _atom_site_symmetry_multiplicity
 _atom_site_fract_x
 _atom_site_fract_y
 _atom_site_fract_z
 _atom_site_occupancy
  C  C0  1  0.58858200  0.65517300  0.03556900  1
  C  C1  1  0.08858200  0.84482700  0.96443100  1
  C  C2  1  0.41141800  0.15517300  0.46443100  1
  C  C3  1  0.91141800  0.34482700  0.53556900  1
  C  C4  1  0.11341400  0.86991500  0.64786500  1
  C  C5  1  0.61341400  0.63008500  0.35213500  1
  C  C6  1  0.88658600  0.36991500  0.85213500  1
  C  C7  1  0.38658600  0.13008500  0.14786500  1
  Ni  Ni8  1  0.10769400  0.83218500  0.28854700  1
  Ni  Ni9  1  0.60769400  0.66781500  0.71145300  1
  Ni  Ni10  1  0.89230600  0.33218500  0.21145300  1
  Ni  Ni11  1  0.39230600  0.16781500  0.78854700  1
  Cu  Cu12  1  0.27974700  0.83509000  0.73509500  1
  Cu  Cu13  1  0.77974700  0.66491000  0.26490500  1
  Cu  Cu14  1  0.72025300  0.33509000  0.76490500  1
  Cu  Cu15  1  0.22025300  0.16491000  0.23509500  1
  Cu  Cu16  1  0.95167500  0.88903100  0.74292100  1
  Cu  Cu17  1  0.45167500  0.61096900  0.25707900  1
  Cu  Cu18  1  0.04832500  0.38903100  0.75707900  1
  Cu  Cu19  1  0.54832500  0.11096900  0.24292100  1
  Cu  Cu20  1  0.07389600  0.66471000  0.54882000  1
  Cu  Cu21  1  0.57389600  0.83529000  0.45118000  1
  Cu  Cu22  1  0.92610400  0.16471000  0.95118000  1
  Cu  Cu23  1  0.42610400  0.33529000  0.04882000  1
  Cu  Cu24  1  0.36197700  0.95327100  0.05314700  1
  Cu  Cu25  1  0.86197700  0.54672900  0.94685300  1
  Cu  Cu26  1  0.63802300  0.45327100  0.44685300  1
  Cu  Cu27  1  0.13802300  0.04672900  0.55314700  1
  Cu  Cu28  1  0.79030900  0.91941100  0.03618100  1
  Cu  Cu29  1  0.29030900  0.58058900  0.96381900  1
  Cu  Cu30  1  0.20969100  0.41941100  0.46381900  1
  Cu  Cu31  1  0.70969100  0.08058900  0.53618100  1
  Cu  Cu32  1  0.76009900  0.07328600  0.98830700  1
  Cu  Cu33  1  0.26009900  0.42671400  0.01169300  1
  Cu  Cu34  1  0.23990100  0.57328600  0.51169300  1
  Cu  Cu35  1  0.73990100  0.92671400  0.48830700  1
