# generated using pymatgen
data_CuNi7C6
_symmetry_space_group_name_H-M   'P 1'
_cell_length_a   5.52416500
_cell_length_b   8.32852840
_cell_length_c   8.32852840
_cell_angle_alpha   77.71162740
_cell_angle_beta   70.63158115
_cell_angle_gamma   70.63158115
_symmetry_Int_Tables_number   1
_chemical_formula_structural   CuNi7C6
_chemical_formula_sum   'Cu2 Ni14 C12'
_cell_volume   338.75128826
_cell_formula_units_Z   2
loop_
 _symmetry_equiv_pos_site_id
 _symmetry_equiv_pos_as_xyz
  1  'x, y, z'
loop_
 _atom_site_type_symbol
 _atom_site_label
 _atom_site_symmetry_multiplicity
 _atom_site_fract_x
 _atom_site_fract_y
 _atom_site_fract_z
 _atom_site_occupancy
  Ni  Ni0  1  0.28191400  0.95918600  0.04081400  1
  Ni  Ni1  1  0.71808600  0.04081400  0.95918600  1
  Ni  Ni2  1  0.21808600  0.45918600  0.54081400  1
  Ni  Ni3  1  0.78191400  0.54081400  0.45918600  1
  Ni  Ni4  1  0.70540700  0.15154300  0.61501400  1
  Ni  Ni5  1  0.52803600  0.61501400  0.15154300  1
  Ni  Ni6  1  0.79459300  0.88498600  0.34845700  1
  Ni  Ni7  1  0.97196400  0.34845700  0.88498600  1
  Ni  Ni8  1  0.29459300  0.84845700  0.38498600  1
  Ni  Ni9  1  0.47196400  0.38498600  0.84845700  1
  Ni  Ni10  1  0.20540700  0.11501400  0.65154300  1
  Ni  Ni11  1  0.02803600  0.65154300  0.11501400  1
  Ni  Ni12  1  0.25000000  0.25000000  0.25000000  1
  Ni  Ni13  1  0.75000000  0.75000000  0.75000000  1
  Cu  Cu14  1  0.75000000  0.25000000  0.25000000  1
  Cu  Cu15  1  0.25000000  0.75000000  0.75000000  1
  C  C16  1  0.03812900  0.05939900  0.27663700  1
  C  C17  1  0.62583500  0.27663700  0.05939900  1
  C  C18  1  0.46187100  0.22336300  0.44060100  1
  C  C19  1  0.87416500  0.44060100  0.22336300  1
  C  C20  1  0.96187100  0.94060100  0.72336300  1
  C  C21  1  0.37416500  0.72336300  0.94060100  1
  C  C22  1  0.53812900  0.77663700  0.55939900  1
  C  C23  1  0.12583500  0.55939900  0.77663700  1
  C  C24  1  0.85725600  0.34479700  0.65520300  1
  C  C25  1  0.14274400  0.65520300  0.34479700  1
  C  C26  1  0.64274400  0.84479700  0.15520300  1
  C  C27  1  0.35725600  0.15520300  0.84479700  1
