# generated using pymatgen
data_Cu12NiC24
_symmetry_space_group_name_H-M   'P 1'
_cell_length_a   3.17353661
_cell_length_b   9.75374902
_cell_length_c   12.97791769
_cell_angle_alpha   88.95225983
_cell_angle_beta   90.00000399
_cell_angle_gamma   89.99999889
_symmetry_Int_Tables_number   1
_chemical_formula_structural   Cu12NiC24
_chemical_formula_sum   'Cu12 Ni1 C24'
_cell_volume   401.64973714
_cell_formula_units_Z   1
loop_
 _symmetry_equiv_pos_site_id
 _symmetry_equiv_pos_as_xyz
  1  'x, y, z'
loop_
 _atom_site_type_symbol
 _atom_site_label
 _atom_site_symmetry_multiplicity
 _atom_site_fract_x
 _atom_site_fract_y
 _atom_site_fract_z
 _atom_site_occupancy
  Ni  Ni0  1  0.49999949  0.24021974  0.76745783  1
  Cu  Cu1  1  0.50000004  0.01374545  0.21816160  1
  Cu  Cu2  1  0.49999981  0.96250131  0.77270234  1
  Cu  Cu3  1  0.50000012  0.51298406  0.72543233  1
  Cu  Cu4  1  0.50000009  0.51296341  0.28021992  1
  Cu  Cu5  1  0.49999993  0.99438551  0.48860391  1
  Cu  Cu6  1  0.50000019  0.51385719  0.00616649  1
  Cu  Cu7  1  0.00000008  0.24987666  0.38270495  1
  Cu  Cu8  1  0.99999992  0.75120010  0.60266968  1
  Cu  Cu9  1  0.99999980  0.25836607  0.92928362  1
  Cu  Cu10  1  0.00000012  0.75099562  0.11737263  1
  Cu  Cu11  1  0.99999976  0.98904527  0.99629350  1
  Cu  Cu12  1  0.00000028  0.49830567  0.49699611  1
  C  C13  1  0.00000013  0.28958210  0.14713749  1
  C  C14  1  0.00000001  0.72008765  0.86212916  1
  C  C15  1  0.00000003  0.20972199  0.62223079  1
  C  C16  1  0.00000005  0.77882056  0.35568510  1
  C  C17  1  0.00000041  0.37366820  0.05775329  1
  C  C18  1  0.99999999  0.65589966  0.95747465  1
  C  C19  1  0.99999978  0.14988438  0.53036936  1
  C  C20  1  0.99999998  0.84733534  0.44901919  1
  C  C21  1  0.99999987  0.14694719  0.13778512  1
  C  C22  1  0.99999998  0.86396210  0.85736545  1
  C  C23  1  0.00000117  0.35052921  0.64551040  1
  C  C24  1  0.00000003  0.63506298  0.35603035  1
  C  C25  1  0.50000014  0.12145412  0.35488712  1
  C  C26  1  0.49999988  0.87970506  0.63090600  1
  C  C27  1  0.49999975  0.38642323  0.86715839  1
  C  C28  1  0.50000023  0.62713591  0.14068161  1
  C  C29  1  0.00000014  0.35720315  0.23976623  1
  C  C30  1  0.00000005  0.64928267  0.76896129  1
  C  C31  1  0.99999930  0.12790610  0.71639557  1
  C  C32  1  0.00000012  0.85422367  0.26258754  1
  C  C33  1  0.50000015  0.39419620  0.42109613  1
  C  C34  1  0.50000019  0.59873632  0.57768503  1
  C  C35  1  0.49999984  0.10724036  0.90824700  1
  C  C36  1  0.50000014  0.89738079  0.07823983  1
