# generated using pymatgen
data_Cu2NiC9
_symmetry_space_group_name_H-M   'P 1'
_cell_length_a   7.98389900
_cell_length_b   7.98389900
_cell_length_c   11.49375000
_cell_angle_alpha   90.00000000
_cell_angle_beta   90.00000000
_cell_angle_gamma   90.00000000
_symmetry_Int_Tables_number   1
_chemical_formula_structural   Cu2NiC9
_chemical_formula_sum   'Cu8 Ni4 C36'
_cell_volume   732.64200577
_cell_formula_units_Z   4
loop_
 _symmetry_equiv_pos_site_id
 _symmetry_equiv_pos_as_xyz
  1  'x, y, z'
loop_
 _atom_site_type_symbol
 _atom_site_label
 _atom_site_symmetry_multiplicity
 _atom_site_fract_x
 _atom_site_fract_y
 _atom_site_fract_z
 _atom_site_occupancy
  C  C0  1  0.31551500  0.31551500  0.00000000  1
  C  C1  1  0.68448500  0.68448500  0.00000000  1
  C  C2  1  0.81551500  0.18448500  0.50000000  1
  C  C3  1  0.18448500  0.81551500  0.50000000  1
  C  C4  1  0.15139800  0.84860200  0.00000000  1
  C  C5  1  0.65139800  0.65139800  0.50000000  1
  C  C6  1  0.34860200  0.34860200  0.50000000  1
  C  C7  1  0.84860200  0.15139800  0.00000000  1
  Ni  Ni8  1  0.50000000  0.00000000  0.25000000  1
  Ni  Ni9  1  0.00000000  0.50000000  0.25000000  1
  Ni  Ni10  1  0.00000000  0.50000000  0.75000000  1
  Ni  Ni11  1  0.50000000  0.00000000  0.75000000  1
  Cu  Cu12  1  0.86365800  0.86365800  0.71894700  1
  Cu  Cu13  1  0.13634200  0.13634200  0.71894700  1
  Cu  Cu14  1  0.86365800  0.86365800  0.28105300  1
  Cu  Cu15  1  0.36365800  0.63634200  0.21894700  1
  Cu  Cu16  1  0.63634200  0.36365800  0.21894700  1
  Cu  Cu17  1  0.63634200  0.36365800  0.78105300  1
  Cu  Cu18  1  0.36365800  0.63634200  0.78105300  1
  Cu  Cu19  1  0.13634200  0.13634200  0.28105300  1
  C  C20  1  0.07864700  0.30161500  0.33966500  1
  C  C21  1  0.92135300  0.69838500  0.33966500  1
  C  C22  1  0.30161500  0.07864700  0.66033500  1
  C  C23  1  0.80161500  0.42135300  0.83966500  1
  C  C24  1  0.19838500  0.57864700  0.83966500  1
  C  C25  1  0.42135300  0.80161500  0.16033500  1
  C  C26  1  0.57864700  0.19838500  0.16033500  1
  C  C27  1  0.69838500  0.92135300  0.66033500  1
  C  C28  1  0.92135300  0.69838500  0.66033500  1
  C  C29  1  0.07864700  0.30161500  0.66033500  1
  C  C30  1  0.69838500  0.92135300  0.33966500  1
  C  C31  1  0.19838500  0.57864700  0.16033500  1
  C  C32  1  0.80161500  0.42135300  0.16033500  1
  C  C33  1  0.57864700  0.19838500  0.83966500  1
  C  C34  1  0.42135300  0.80161500  0.83966500  1
  C  C35  1  0.30161500  0.07864700  0.33966500  1
  C  C36  1  0.86421300  0.86421300  0.85001800  1
  C  C37  1  0.13578700  0.13578700  0.85001800  1
  C  C38  1  0.86421300  0.86421300  0.14998200  1
  C  C39  1  0.36421300  0.63578700  0.35001800  1
  C  C40  1  0.00000000  0.00000000  0.33181500  1
  C  C41  1  0.50000000  0.50000000  0.83181500  1
  C  C42  1  0.50000000  0.50000000  0.16818500  1
  C  C43  1  0.00000000  0.00000000  0.66818500  1
  C  C44  1  0.13578700  0.13578700  0.14998200  1
  C  C45  1  0.36421300  0.63578700  0.64998200  1
  C  C46  1  0.63578700  0.36421300  0.64998200  1
  C  C47  1  0.63578700  0.36421300  0.35001800  1
