# generated using pymatgen
data_Cu3Ni7C
_symmetry_space_group_name_H-M   'P 1'
_cell_length_a   8.38057632
_cell_length_b   8.38057632
_cell_length_c   8.38057617
_cell_angle_alpha   56.85947453
_cell_angle_beta   56.85947453
_cell_angle_gamma   56.85948085
_symmetry_Int_Tables_number   1
_chemical_formula_structural   Cu3Ni7C
_chemical_formula_sum   'Cu6 Ni14 C2'
_cell_volume   386.04483430
_cell_formula_units_Z   2
loop_
 _symmetry_equiv_pos_site_id
 _symmetry_equiv_pos_as_xyz
  1  'x, y, z'
loop_
 _atom_site_type_symbol
 _atom_site_label
 _atom_site_symmetry_multiplicity
 _atom_site_fract_x
 _atom_site_fract_y
 _atom_site_fract_z
 _atom_site_occupancy
  C  C0  1  0.50000000  0.50000000  0.50000000  1
  C  C1  1  0.00000000  0.00000000  0.00000000  1
  Ni  Ni2  1  0.34991200  0.16810500  0.57390200  1
  Ni  Ni3  1  0.57390200  0.34991200  0.16810500  1
  Ni  Ni4  1  0.16810500  0.57390200  0.34991200  1
  Ni  Ni5  1  0.07390200  0.66810500  0.84991200  1
  Ni  Ni6  1  0.84991200  0.07390200  0.66810500  1
  Ni  Ni7  1  0.66810500  0.84991200  0.07390200  1
  Ni  Ni8  1  0.65008800  0.83189500  0.42609800  1
  Ni  Ni9  1  0.42609800  0.65008800  0.83189500  1
  Ni  Ni10  1  0.83189500  0.42609800  0.65008800  1
  Ni  Ni11  1  0.92609800  0.33189500  0.15008800  1
  Ni  Ni12  1  0.15008800  0.92609800  0.33189500  1
  Ni  Ni13  1  0.33189500  0.15008800  0.92609800  1
  Ni  Ni14  1  0.25000000  0.25000000  0.25000000  1
  Ni  Ni15  1  0.75000000  0.75000000  0.75000000  1
  Cu  Cu16  1  0.93296400  0.56703600  0.25000000  1
  Cu  Cu17  1  0.25000000  0.93296400  0.56703600  1
  Cu  Cu18  1  0.56703600  0.25000000  0.93296400  1
  Cu  Cu19  1  0.75000000  0.06703600  0.43296400  1
  Cu  Cu20  1  0.43296400  0.75000000  0.06703600  1
  Cu  Cu21  1  0.06703600  0.43296400  0.75000000  1
