# generated using pymatgen
data_CuNiC4
_symmetry_space_group_name_H-M   'P 1'
_cell_length_a   13.12593500
_cell_length_b   4.71636200
_cell_length_c   4.73417891
_cell_angle_alpha   60.28332063
_cell_angle_beta   90.00000000
_cell_angle_gamma   90.00000000
_symmetry_Int_Tables_number   1
_chemical_formula_structural   CuNiC4
_chemical_formula_sum   'Cu3 Ni3 C12'
_cell_volume   254.53381799
_cell_formula_units_Z   3
loop_
 _symmetry_equiv_pos_site_id
 _symmetry_equiv_pos_as_xyz
  1  'x, y, z'
loop_
 _atom_site_type_symbol
 _atom_site_label
 _atom_site_symmetry_multiplicity
 _atom_site_fract_x
 _atom_site_fract_y
 _atom_site_fract_z
 _atom_site_occupancy
  Ni  Ni0  1  0.24954600  0.00000000  0.50000000  1
  Ni  Ni1  1  0.58350400  0.50000000  0.50000000  1
  Ni  Ni2  1  0.08355300  0.50000000  0.50000000  1
  C  C3  1  0.91588100  0.84244000  0.32403900  1
  C  C4  1  0.41660400  0.83833100  0.32015600  1
  C  C5  1  0.75092900  0.32359100  0.84083000  1
  C  C6  1  0.25103200  0.32023600  0.84184200  1
  C  C7  1  0.58337000  0.83966100  0.83572500  1
  C  C8  1  0.08217900  0.83622100  0.84353000  1
  C  C9  1  0.91588100  0.15756000  0.67596100  1
  C  C10  1  0.41660400  0.16166900  0.67984400  1
  C  C11  1  0.75092900  0.67640900  0.15917000  1
  C  C12  1  0.25103200  0.67976400  0.15815800  1
  C  C13  1  0.58337000  0.16033900  0.16427500  1
  C  C14  1  0.08217900  0.16377900  0.15647000  1
  Cu  Cu15  1  0.91637400  0.50000000  0.00000000  1
  Cu  Cu16  1  0.41653800  0.50000000  0.00000000  1
  Cu  Cu17  1  0.75049300  0.00000000  0.50000000  1
