# generated using pymatgen
data_Cu3NiC16
_symmetry_space_group_name_H-M   'P 1'
_cell_length_a   10.87892290
_cell_length_b   15.24915407
_cell_length_c   10.74516478
_cell_angle_alpha   90.01053546
_cell_angle_beta   90.01119043
_cell_angle_gamma   89.99295744
_symmetry_Int_Tables_number   1
_chemical_formula_structural   Cu3NiC16
_chemical_formula_sum   'Cu24 Ni8 C128'
_cell_volume   1782.56227958
_cell_formula_units_Z   8
loop_
 _symmetry_equiv_pos_site_id
 _symmetry_equiv_pos_as_xyz
  1  'x, y, z'
loop_
 _atom_site_type_symbol
 _atom_site_label
 _atom_site_symmetry_multiplicity
 _atom_site_fract_x
 _atom_site_fract_y
 _atom_site_fract_z
 _atom_site_occupancy
  C  C0  1  0.01140464  0.12463723  0.49826787  1
  C  C1  1  0.48594828  0.37656058  0.00235774  1
  C  C2  1  0.23518281  0.37754899  0.24714024  1
  C  C3  1  0.26810880  0.12437044  0.25330693  1
  C  C4  1  0.01725117  0.12463634  0.99558885  1
  C  C5  1  0.02313585  0.62519258  0.49648973  1
  C  C6  1  0.02296715  0.62524915  0.99680499  1
  C  C7  1  0.52361204  0.12470937  0.49549880  1
  C  C8  1  0.52445151  0.12493654  0.99530172  1
  C  C9  1  0.52325761  0.62527765  0.49520544  1
  C  C10  1  0.52301004  0.62517746  0.99566338  1
  C  C11  1  0.48033479  0.37656093  0.50550418  1
  C  C12  1  0.47918673  0.87348704  0.00507652  1
  C  C13  1  0.47954452  0.87328278  0.50477246  1
  C  C14  1  0.97690215  0.37706482  0.00426361  1
  C  C15  1  0.97599890  0.37696918  0.50427003  1
  C  C16  1  0.97622030  0.87282279  0.00443509  1
  C  C17  1  0.97665745  0.87301923  0.50384746  1
  C  C18  1  0.22857298  0.37794580  0.74440529  1
  C  C19  1  0.22897709  0.87210824  0.24601618  1
  C  C20  1  0.22874271  0.87197692  0.74556688  1
  C  C21  1  0.72865481  0.37485650  0.24675335  1
  C  C22  1  0.72709175  0.37488170  0.74514969  1
  C  C23  1  0.72720992  0.87506956  0.24568220  1
  C  C24  1  0.72675812  0.87510615  0.74529551  1
  C  C25  1  0.27519107  0.12446962  0.75525897  1
  C  C26  1  0.27337551  0.62537537  0.25284086  1
  C  C27  1  0.27353125  0.62551918  0.75333096  1
  C  C28  1  0.76618409  0.12477806  0.25358773  1
  C  C29  1  0.76823534  0.12503476  0.75551616  1
  C  C30  1  0.77262803  0.62518798  0.25439997  1
  C  C31  1  0.77290895  0.62493702  0.75479160  1
  Ni  Ni32  1  0.99663104  0.99703157  0.24953390  1
  Ni  Ni33  1  0.99844365  0.99796013  0.75229768  1
  Ni  Ni34  1  0.25121286  0.99756290  0.99913282  1
  Ni  Ni35  1  0.25215426  0.99729845  0.50316801  1
  Ni  Ni36  1  0.24979468  0.25036797  0.99793935  1
  Ni  Ni37  1  0.25151754  0.25178842  0.50457296  1
  Ni  Ni38  1  0.99546732  0.25227235  0.24996257  1
  Ni  Ni39  1  0.99808627  0.25183061  0.75180426  1
  Cu  Cu40  1  0.99931264  0.50223299  0.25075866  1
  Cu  Cu41  1  0.00017106  0.50163929  0.75072746  1
  Cu  Cu42  1  0.50267924  0.99894918  0.25187048  1
  Cu  Cu43  1  0.50215959  0.99954030  0.75197717  1
  Cu  Cu44  1  0.50266494  0.50248613  0.25074773  1
  Cu  Cu45  1  0.50054978  0.50137934  0.74786670  1
  Cu  Cu46  1  0.24975885  0.50277389  0.99706103  1
  Cu  Cu47  1  0.25066382  0.50245089  0.50091129  1
  Cu  Cu48  1  0.74791412  0.99875041  0.00131072  1
  Cu  Cu49  1  0.74632128  0.99827562  0.50132926  1
  Cu  Cu50  1  0.75196506  0.50153002  0.00092254  1
  Cu  Cu51  1  0.75008473  0.50088399  0.50095471  1
  Cu  Cu52  1  0.25054308  0.74877486  0.99856666  1
  Cu  Cu53  1  0.25100008  0.74865768  0.49896005  1
  Cu  Cu54  1  0.74950125  0.24978918  0.00195808  1
  Cu  Cu55  1  0.74626658  0.25119547  0.50156458  1
  Cu  Cu56  1  0.75007839  0.74999044  0.00012257  1
  Cu  Cu57  1  0.74987079  0.74952117  0.50067675  1
  Cu  Cu58  1  0.00021194  0.74845713  0.25066983  1
  Cu  Cu59  1  0.00029310  0.74861813  0.75092330  1
  Cu  Cu60  1  0.50399127  0.24864914  0.25211035  1
  Cu  Cu61  1  0.50168861  0.24915071  0.75004397  1
  Cu  Cu62  1  0.50088033  0.75009066  0.25030860  1
  Cu  Cu63  1  0.50054876  0.74988683  0.75007446  1
  C  C64  1  0.10489818  0.26633373  0.10410975  1
  C  C65  1  0.10619636  0.26958041  0.60816914  1
  C  C66  1  0.10498495  0.77049347  0.10337905  1
  C  C67  1  0.10482208  0.77038972  0.60358787  1
  C  C68  1  0.60914203  0.26652140  0.10742707  1
  C  C69  1  0.60283320  0.26967355  0.60128322  1
  C  C70  1  0.60448569  0.77023915  0.10320218  1
  C  C71  1  0.60436318  0.77017459  0.60342771  1
  C  C72  1  0.39796270  0.23434277  0.39373466  1
  C  C73  1  0.39665338  0.23048787  0.88992141  1
  C  C74  1  0.39636711  0.72869720  0.39649299  1
  C  C75  1  0.39646032  0.72888966  0.89635267  1
  C  C76  1  0.88536955  0.23608548  0.39130856  1
  C  C77  1  0.89161237  0.23279613  0.89758971  1
  C  C78  1  0.89615239  0.72892885  0.39757640  1
  C  C79  1  0.89627129  0.72888895  0.89738733  1
  C  C80  1  0.13867840  0.23765425  0.36040868  1
  C  C81  1  0.14387987  0.23275843  0.85327252  1
  C  C82  1  0.14665427  0.72837816  0.35285984  1
  C  C83  1  0.14652719  0.72837895  0.85251498  1
  C  C84  1  0.64643431  0.22956932  0.35433521  1
  C  C85  1  0.64616729  0.23039961  0.85324452  1
  C  C86  1  0.64621101  0.72933067  0.35324309  1
  C  C87  1  0.64601369  0.72932592  0.85300315  1
  C  C88  1  0.36255408  0.26285108  0.14065371  1
  C  C89  1  0.35779945  0.26765747  0.64822780  1
  C  C90  1  0.35515328  0.77028267  0.14610799  1
  C  C91  1  0.35526295  0.77020906  0.64641571  1
  C  C92  1  0.85326178  0.26919344  0.14136907  1
  C  C93  1  0.85341160  0.26832552  0.64196748  1
  C  C94  1  0.85395738  0.77074121  0.14673872  1
  C  C95  1  0.85413033  0.77074531  0.64697020  1
  C  C96  1  0.35841086  0.48747084  0.14216032  1
  C  C97  1  0.35492107  0.48139980  0.64664703  1
  C  C98  1  0.35888977  0.98035906  0.14515035  1
  C  C99  1  0.35784870  0.98040938  0.64809926  1
  C  C100  1  0.85451066  0.47982526  0.14646990  1
  C  C101  1  0.85412654  0.47934031  0.64697392  1
  C  C102  1  0.85234836  0.98013566  0.14180157  1
  C  C103  1  0.85344449  0.98154148  0.64185485  1
  C  C104  1  0.13981880  0.01139949  0.35893804  1
  C  C105  1  0.14391818  0.01615449  0.85385108  1
  C  C106  1  0.14481397  0.52288545  0.35493595  1
  C  C107  1  0.14611976  0.52249489  0.85169264  1
  C  C108  1  0.64646175  0.01977494  0.35304710  1
  C  C109  1  0.64694453  0.02029635  0.85232255  1
  C  C110  1  0.64623870  0.52129070  0.35444556  1
  C  C111  1  0.64503716  0.51993537  0.85397988  1
  C  C112  1  0.39874667  0.01622261  0.39464145  1
  C  C113  1  0.39792542  0.01824618  0.89297042  1
  C  C114  1  0.39570567  0.52066458  0.39608713  1
  C  C115  1  0.39455502  0.52282044  0.89299064  1
  C  C116  1  0.88584914  0.01306173  0.39116160  1
  C  C117  1  0.89146155  0.01691972  0.89766310  1
  C  C118  1  0.89544448  0.52177582  0.39779549  1
  C  C119  1  0.89618570  0.52129863  0.89738128  1
  C  C120  1  0.10240430  0.48260282  0.10178575  1
  C  C121  1  0.10415100  0.48010793  0.60435300  1
  C  C122  1  0.10625521  0.98127733  0.10489025  1
  C  C123  1  0.10705611  0.97967021  0.60753530  1
  C  C124  1  0.61047236  0.48478453  0.10889072  1
  C  C125  1  0.60468393  0.48100017  0.60222308  1
  C  C126  1  0.60324088  0.97854238  0.10194620  1
  C  C127  1  0.60256463  0.97908177  0.60237008  1
  C  C128  1  0.00145457  0.37900319  0.28455591  1
  C  C129  1  0.00749196  0.37817160  0.78672518  1
  C  C130  1  0.00785424  0.87096306  0.28476594  1
  C  C131  1  0.00771129  0.87170690  0.78688834  1
  C  C132  1  0.50991385  0.37580933  0.28757759  1
  C  C133  1  0.51144639  0.37544249  0.77951028  1
  C  C134  1  0.51177575  0.87431414  0.29047353  1
  C  C135  1  0.51142914  0.87459399  0.79065848  1
  C  C136  1  0.49906439  0.12360872  0.21184622  1
  C  C137  1  0.49134510  0.12446011  0.71018375  1
  C  C138  1  0.49049587  0.62656968  0.21130037  1
  C  C139  1  0.49012779  0.62547908  0.70933136  1
  C  C140  1  0.99136284  0.12455043  0.21757304  1
  C  C141  1  0.98972876  0.12484488  0.72480753  1
  C  C142  1  0.98846911  0.62542503  0.20996392  1
  C  C143  1  0.98883449  0.62504539  0.70977802  1
  C  C144  1  0.24036732  0.12416150  0.02460575  1
  C  C145  1  0.24723688  0.12465537  0.53329497  1
  C  C146  1  0.23873257  0.62610131  0.03919973  1
  C  C147  1  0.23994324  0.62536589  0.54057363  1
  C  C148  1  0.73972484  0.12412828  0.03992090  1
  C  C149  1  0.74046740  0.12476999  0.54025833  1
  C  C150  1  0.74025973  0.62586272  0.03909236  1
  C  C151  1  0.73927138  0.62522983  0.54006220  1
  C  C152  1  0.25974352  0.37843113  0.47465003  1
  C  C153  1  0.25270710  0.37817121  0.96466763  1
  C  C154  1  0.26005287  0.87143335  0.46417839  1
  C  C155  1  0.25869770  0.87209391  0.96275264  1
  C  C156  1  0.75865087  0.37628550  0.46170185  1
  C  C157  1  0.75793007  0.37573358  0.96144233  1
  C  C158  1  0.75895931  0.87365599  0.46109675  1
  C  C159  1  0.75983139  0.87425033  0.96002928  1
