# generated using pymatgen
data_CuNiC8
_symmetry_space_group_name_H-M   'P 1'
_cell_length_a   5.63825400
_cell_length_b   5.34176800
_cell_length_c   9.36185386
_cell_angle_alpha   55.58334291
_cell_angle_beta   90.00000000
_cell_angle_gamma   90.00000000
_symmetry_Int_Tables_number   1
_chemical_formula_structural   CuNiC8
_chemical_formula_sum   'Cu2 Ni2 C16'
_cell_volume   232.60483092
_cell_formula_units_Z   2
loop_
 _symmetry_equiv_pos_site_id
 _symmetry_equiv_pos_as_xyz
  1  'x, y, z'
loop_
 _atom_site_type_symbol
 _atom_site_label
 _atom_site_symmetry_multiplicity
 _atom_site_fract_x
 _atom_site_fract_y
 _atom_site_fract_z
 _atom_site_occupancy
  C  C0  1  0.06588300  0.72838700  0.75299400  1
  C  C1  1  0.93411700  0.27161300  0.24700600  1
  C  C2  1  0.56588300  0.27161300  0.74700600  1
  C  C3  1  0.43411700  0.72838700  0.25299400  1
  Ni  Ni4  1  0.50000000  0.50000000  0.00000000  1
  Ni  Ni5  1  0.00000000  0.50000000  0.50000000  1
  Cu  Cu6  1  0.50000000  0.00000000  0.50000000  1
  Cu  Cu7  1  0.00000000  0.00000000  0.00000000  1
  C  C8  1  0.45687100  0.87119000  0.74274700  1
  C  C9  1  0.54312900  0.12881000  0.25725300  1
  C  C10  1  0.95687100  0.12881000  0.75725300  1
  C  C11  1  0.04312900  0.87119000  0.24274700  1
  C  C12  1  0.79428500  0.74944300  0.56361600  1
  C  C13  1  0.20571500  0.25055700  0.43638400  1
  C  C14  1  0.29428500  0.25055700  0.93638400  1
  C  C15  1  0.70571500  0.74944300  0.06361600  1
  C  C16  1  0.31054800  0.64690600  0.55470300  1
  C  C17  1  0.68945200  0.35309400  0.44529700  1
  C  C18  1  0.81054800  0.35309400  0.94529700  1
  C  C19  1  0.18945200  0.64690600  0.05470300  1
