# generated using pymatgen
data_Cu6Ni12C25
_symmetry_space_group_name_H-M   'P 1'
_cell_length_a   6.05676429
_cell_length_b   6.04662724
_cell_length_c   18.39728884
_cell_angle_alpha   61.25547724
_cell_angle_beta   61.19106513
_cell_angle_gamma   60.10425781
_symmetry_Int_Tables_number   1
_chemical_formula_structural   Cu6Ni12C25
_chemical_formula_sum   'Cu6 Ni12 C25'
_cell_volume   485.43691126
_cell_formula_units_Z   1
loop_
 _symmetry_equiv_pos_site_id
 _symmetry_equiv_pos_as_xyz
  1  'x, y, z'
loop_
 _atom_site_type_symbol
 _atom_site_label
 _atom_site_symmetry_multiplicity
 _atom_site_fract_x
 _atom_site_fract_y
 _atom_site_fract_z
 _atom_site_occupancy
  C  C0  1  0.00238700  0.00012530  0.49975126  1
  Ni  Ni1  1  0.00322713  0.50752490  0.16169056  1
  Ni  Ni2  1  0.50764748  0.50703553  0.16193234  1
  Ni  Ni3  1  0.00079752  0.50062810  0.49989097  1
  Ni  Ni4  1  0.50772972  0.00273925  0.16169811  1
  Ni  Ni5  1  0.50570559  0.50501012  0.33302911  1
  Ni  Ni6  1  0.50260640  0.50165155  0.49779531  1
  Ni  Ni7  1  0.99978577  0.48817285  0.83829802  1
  Ni  Ni8  1  0.50160331  -0.00006063  0.49986685  1
  Ni  Ni9  1  0.48960121  0.00069330  0.83835942  1
  Ni  Ni10  1  0.49818790  0.49891377  0.66693330  1
  Ni  Ni11  1  0.49052546  0.49178589  0.83684364  1
  Ni  Ni12  1  0.87497364  0.87478438  0.95743647  1
  Cu  Cu13  1  0.12026200  0.12005864  0.04514813  1
  Cu  Cu14  1  0.15349168  0.15437285  0.34626836  1
  Cu  Cu15  1  0.49752603  0.49592075  0.00199857  1
  Cu  Cu16  1  0.12236701  0.12100380  0.70968304  1
  Cu  Cu17  1  0.88176714  0.88111137  0.28873368  1
  Cu  Cu18  1  0.84902935  0.85183457  0.65358660  1
  C  C19  1  0.25433315  0.25407248  0.08927123  1
  C  C20  1  0.27480384  0.27507097  0.22732050  1
  C  C21  1  0.25423382  0.72223482  0.08962108  1
  C  C22  1  0.72273801  0.25296836  0.08967714  1
  C  C23  1  0.28983327  0.74496414  0.24334253  1
  C  C24  1  0.24689345  0.24567744  0.42141612  1
  C  C25  1  0.74551008  0.28927343  0.24323701  1
  C  C26  1  0.74755228  0.74610468  0.08592843  1
  C  C27  1  0.23951791  0.74260132  0.42147154  1
  C  C28  1  0.25744123  0.25733288  0.57163018  1
  C  C29  1  0.74674012  0.74674798  0.24240283  1
  C  C30  1  0.74363398  0.23827562  0.42148778  1
  C  C31  1  0.26047270  0.76420770  0.57538250  1
  C  C32  1  0.24659812  0.26052004  0.75739367  1
  C  C33  1  0.76402112  0.25971937  0.57543655  1
  C  C34  1  0.74644983  0.74469144  0.42729815  1
  C  C35  1  0.25216947  0.25569978  0.91055283  1
  C  C36  1  0.25493707  0.71553021  0.75884084  1
  C  C37  1  0.75955729  0.75888498  0.57719242  1
  C  C38  1  0.71411824  0.24318980  0.75919565  1
  C  C39  1  0.26791745  0.75016415  0.91202376  1
  C  C40  1  0.72576893  0.72437430  0.77378924  1
  C  C41  1  0.73853758  0.26657288  0.91292090  1
  C  C42  1  0.74740875  0.73781694  0.91422040  1
