# generated using pymatgen
data_Cu5NiC3
_symmetry_space_group_name_H-M   'P 1'
_cell_length_a   6.31060452
_cell_length_b   6.31060452
_cell_length_c   7.65700000
_cell_angle_alpha   90.00000000
_cell_angle_beta   90.00000000
_cell_angle_gamma   100.96265038
_symmetry_Int_Tables_number   1
_chemical_formula_structural   Cu5NiC3
_chemical_formula_sum   'Cu10 Ni2 C6'
_cell_volume   299.36573211
_cell_formula_units_Z   2
loop_
 _symmetry_equiv_pos_site_id
 _symmetry_equiv_pos_as_xyz
  1  'x, y, z'
loop_
 _atom_site_type_symbol
 _atom_site_label
 _atom_site_symmetry_multiplicity
 _atom_site_fract_x
 _atom_site_fract_y
 _atom_site_fract_z
 _atom_site_occupancy
  C  C0  1  0.00000000  0.00000000  0.50000000  1
  C  C1  1  0.00000000  0.00000000  0.00000000  1
  C  C2  1  0.50631500  0.09457600  0.25000000  1
  C  C3  1  0.90542400  0.49368500  0.75000000  1
  C  C4  1  0.49368500  0.90542400  0.75000000  1
  C  C5  1  0.09457600  0.50631500  0.25000000  1
  Ni  Ni6  1  0.54816400  0.54816400  0.25000000  1
  Ni  Ni7  1  0.45183600  0.45183600  0.75000000  1
  Cu  Cu8  1  0.18685300  0.81314700  0.50000000  1
  Cu  Cu9  1  0.18685300  0.81314700  0.00000000  1
  Cu  Cu10  1  0.81314700  0.18685300  0.50000000  1
  Cu  Cu11  1  0.81314700  0.18685300  0.00000000  1
  Cu  Cu12  1  0.22412600  0.22412600  0.49166300  1
  Cu  Cu13  1  0.77587400  0.77587400  0.50833700  1
  Cu  Cu14  1  0.22412600  0.22412600  0.00833700  1
  Cu  Cu15  1  0.77587400  0.77587400  0.99166300  1
  Cu  Cu16  1  0.99306400  0.99306400  0.25000000  1
  Cu  Cu17  1  0.00693600  0.00693600  0.75000000  1
