# generated using pymatgen
data_Cu9Ni27C8
_symmetry_space_group_name_H-M   'P 1'
_cell_length_a   9.95583319
_cell_length_b   13.11144480
_cell_length_c   16.53734895
_cell_angle_alpha   90.00000000
_cell_angle_beta   90.00000000
_cell_angle_gamma   104.18073866
_symmetry_Int_Tables_number   1
_chemical_formula_structural   Cu9Ni27C8
_chemical_formula_sum   'Cu36 Ni108 C32'
_cell_volume   2092.92806581
_cell_formula_units_Z   4
loop_
 _symmetry_equiv_pos_site_id
 _symmetry_equiv_pos_as_xyz
  1  'x, y, z'
loop_
 _atom_site_type_symbol
 _atom_site_label
 _atom_site_symmetry_multiplicity
 _atom_site_fract_x
 _atom_site_fract_y
 _atom_site_fract_z
 _atom_site_occupancy
  C  C0  1  0.29356047  0.57615282  0.74907855  1
  C  C1  1  0.70643953  0.92384718  0.24907855  1
  C  C2  1  0.70643953  0.42384718  0.25092145  1
  C  C3  1  0.29356047  0.07615282  0.75092145  1
  C  C4  1  0.23574111  0.38930074  0.62837281  1
  C  C5  1  0.76425889  0.11069926  0.12837281  1
  C  C6  1  0.76425889  0.61069926  0.37162719  1
  C  C7  1  0.23574111  0.88930074  0.87162719  1
  C  C8  1  0.49594432  0.43516711  0.78324752  1
  C  C9  1  0.50405568  0.06483289  0.28324752  1
  C  C10  1  0.50405568  0.56483289  0.21675248  1
  C  C11  1  0.49594432  0.93516711  0.71675248  1
  C  C12  1  0.13932132  0.37010131  0.83538035  1
  C  C13  1  0.86067868  0.12989869  0.33538035  1
  C  C14  1  0.86067868  0.62989869  0.16461965  1
  C  C15  1  0.13932132  0.87010131  0.66461965  1
  C  C16  1  0.29068231  0.31140388  0.74799123  1
  C  C17  1  0.70931769  0.18859612  0.24799123  1
  C  C18  1  0.70931769  0.68859612  0.25200877  1
  C  C19  1  0.29068231  0.81140388  0.75200877  1
  Ni  Ni20  1  0.43789329  0.36874711  0.54401594  1
  Ni  Ni21  1  0.56210671  0.13125289  0.04401594  1
  Ni  Ni22  1  0.56210671  0.63125289  0.45598406  1
  Ni  Ni23  1  0.43789329  0.86874711  0.95598406  1
  Ni  Ni24  1  0.28897449  0.26353422  0.52911528  1
  Ni  Ni25  1  0.71102551  0.23646578  0.02911528  1
  Ni  Ni26  1  0.71102551  0.73646578  0.47088472  1
  Ni  Ni27  1  0.28897449  0.76353422  0.97088472  1
  Ni  Ni28  1  0.29910809  0.38576949  0.48099435  1
  Ni  Ni29  1  0.70089191  0.11423051  0.98099435  1
  Ni  Ni30  1  0.70089191  0.61423051  0.51900565  1
  Ni  Ni31  1  0.29910809  0.88576949  0.01900565  1
  Ni  Ni32  1  0.03113639  0.38754876  0.54030973  1
  Ni  Ni33  1  0.96886361  0.11245124  0.04030973  1
  Ni  Ni34  1  0.96886361  0.61245124  0.45969027  1
  Ni  Ni35  1  0.03113639  0.88754876  0.95969027  1
  Ni  Ni36  1  0.99955963  0.27341187  0.60203727  1
  Ni  Ni37  1  0.00044037  0.22658813  0.10203727  1
  Ni  Ni38  1  0.00044037  0.72658813  0.39796273  1
  Ni  Ni39  1  0.99955963  0.77341187  0.89796273  1
  Ni  Ni40  1  0.98837504  0.39597208  0.64468478  1
  Ni  Ni41  1  0.01162496  0.10402792  0.14468478  1
  Ni  Ni42  1  0.01162496  0.60402792  0.35531522  1
  Ni  Ni43  1  0.98837504  0.89597208  0.85531522  1
  Ni  Ni44  1  0.72480819  0.52550088  0.72334640  1
  Ni  Ni45  1  0.27519181  0.97449912  0.22334640  1
  Ni  Ni46  1  0.27519181  0.47449912  0.27665360  1
  Ni  Ni47  1  0.72480819  0.02550088  0.77665360  1
  Ni  Ni48  1  0.67496225  0.39198398  0.69241560  1
  Ni  Ni49  1  0.32503775  0.10801602  0.19241560  1
  Ni  Ni50  1  0.32503775  0.60801602  0.30758440  1
  Ni  Ni51  1  0.67496225  0.89198398  0.80758440  1
  Ni  Ni52  1  0.59691840  0.48646869  0.64633102  1
  Ni  Ni53  1  0.40308160  0.01353131  0.14633102  1
  Ni  Ni54  1  0.40308160  0.51353131  0.35366898  1
  Ni  Ni55  1  0.59691840  0.98646869  0.85366898  1
  Ni  Ni56  1  0.50766234  0.37914434  0.92825218  1
  Ni  Ni57  1  0.49233766  0.12085566  0.42825218  1
  Ni  Ni58  1  0.49233766  0.62085566  0.07174782  1
  Ni  Ni59  1  0.50766234  0.87914434  0.57174782  1
  Ni  Ni60  1  0.60839884  0.31972334  0.86302372  1
  Ni  Ni61  1  0.39160116  0.18027666  0.36302372  1
  Ni  Ni62  1  0.39160116  0.68027666  0.13697628  1
  Ni  Ni63  1  0.60839884  0.81972334  0.63697628  1
  Ni  Ni64  1  0.67366706  0.45211012  0.89415502  1
  Ni  Ni65  1  0.32633294  0.04788988  0.39415502  1
  Ni  Ni66  1  0.32633294  0.54788988  0.10584498  1
  Ni  Ni67  1  0.67366706  0.95211012  0.60584498  1
  Ni  Ni68  1  0.11015571  0.40395807  0.98225701  1
  Ni  Ni69  1  0.88984429  0.09604193  0.48225701  1
  Ni  Ni70  1  0.88984429  0.59604193  0.01774299  1
  Ni  Ni71  1  0.11015571  0.90395807  0.51774299  1
  Ni  Ni72  1  0.20878221  0.30933520  0.96892677  1
  Ni  Ni73  1  0.79121779  0.19066480  0.46892677  1
  Ni  Ni74  1  0.79121779  0.69066480  0.03107323  1
  Ni  Ni75  1  0.20878221  0.80933520  0.53107323  1
  Ni  Ni76  1  0.28813174  0.44546262  0.95309411  1
  Ni  Ni77  1  0.71186826  0.05453738  0.45309411  1
  Ni  Ni78  1  0.71186826  0.55453738  0.04690589  1
  Ni  Ni79  1  0.28813174  0.94546262  0.54690589  1
  Ni  Ni80  1  0.90961311  0.27709032  0.77512121  1
  Ni  Ni81  1  0.09038689  0.22290968  0.27512121  1
  Ni  Ni82  1  0.09038689  0.72290968  0.22487879  1
  Ni  Ni83  1  0.90961311  0.77709032  0.72487879  1
  Ni  Ni84  1  0.96483371  0.20074588  0.85142909  1
  Ni  Ni85  1  0.03516629  0.29925412  0.35142909  1
  Ni  Ni86  1  0.03516629  0.79925412  0.14857091  1
  Ni  Ni87  1  0.96483371  0.70074588  0.64857091  1
  Ni  Ni88  1  0.89046599  0.30497323  0.87974803  1
  Ni  Ni89  1  0.10953401  0.19502677  0.37974803  1
  Ni  Ni90  1  0.10953401  0.69502677  0.12025197  1
  Ni  Ni91  1  0.89046599  0.80497323  0.62025197  1
  Ni  Ni92  1  0.28218104  0.55346130  0.50992083  1
  Ni  Ni93  1  0.71781896  0.94653870  0.00992083  1
  Ni  Ni94  1  0.71781896  0.44653870  0.49007917  1
  Ni  Ni95  1  0.28218104  0.05346130  0.99007917  1
  Ni  Ni96  1  0.16882546  0.60868559  0.56998512  1
  Ni  Ni97  1  0.83117454  0.89131441  0.06998512  1
  Ni  Ni98  1  0.83117454  0.39131441  0.43001488  1
  Ni  Ni99  1  0.16882546  0.10868559  0.93001488  1
  Ni  Ni100  1  0.35215820  0.66461501  0.57273121  1
  Ni  Ni101  1  0.64784180  0.83538499  0.07273121  1
  Ni  Ni102  1  0.64784180  0.33538499  0.42726879  1
  Ni  Ni103  1  0.35215820  0.16461501  0.92726879  1
  Ni  Ni104  1  0.65481266  0.66750762  0.79837447  1
  Ni  Ni105  1  0.34518734  0.83249238  0.29837447  1
  Ni  Ni106  1  0.34518734  0.33249238  0.20162553  1
  Ni  Ni107  1  0.65481266  0.16750762  0.70162553  1
  Ni  Ni108  1  0.51816056  0.70558608  0.85143890  1
  Ni  Ni109  1  0.48183944  0.79441392  0.35143890  1
  Ni  Ni110  1  0.48183944  0.29441392  0.14856110  1
  Ni  Ni111  1  0.51816056  0.20558608  0.64856110  1
  Ni  Ni112  1  0.60500607  0.61556943  0.89693453  1
  Ni  Ni113  1  0.39499393  0.88443057  0.39693453  1
  Ni  Ni114  1  0.39499393  0.38443057  0.10306547  1
  Ni  Ni115  1  0.60500607  0.11556943  0.60306547  1
  Ni  Ni116  1  0.07322798  0.58407173  0.90093541  1
  Ni  Ni117  1  0.92677202  0.91592827  0.40093541  1
  Ni  Ni118  1  0.92677202  0.41592827  0.09906459  1
  Ni  Ni119  1  0.07322798  0.08407173  0.59906459  1
  Ni  Ni120  1  0.00473889  0.60143899  0.80324893  1
  Ni  Ni121  1  0.99526111  0.89856101  0.30324893  1
  Ni  Ni122  1  0.99526111  0.39856101  0.19675107  1
  Ni  Ni123  1  0.00473889  0.10143899  0.69675107  1
  Ni  Ni124  1  0.93140142  0.48588490  0.86088086  1
  Ni  Ni125  1  0.06859858  0.01411510  0.36088086  1
  Ni  Ni126  1  0.06859858  0.51411510  0.13911914  1
  Ni  Ni127  1  0.93140142  0.98588490  0.63911914  1
  Cu  Cu128  1  0.27123843  0.59046399  0.56829442  1
  Cu  Cu129  1  0.72876157  0.90953601  0.06829442  1
  Cu  Cu130  1  0.72876157  0.40953601  0.43170558  1
  Cu  Cu131  1  0.27123843  0.09046399  0.93170558  1
  Cu  Cu132  1  0.56605478  0.63990659  0.83956820  1
  Cu  Cu133  1  0.43394522  0.86009341  0.33956820  1
  Cu  Cu134  1  0.43394522  0.36009341  0.16043180  1
  Cu  Cu135  1  0.56605478  0.13990659  0.66043180  1
  Cu  Cu136  1  0.02849053  0.54316498  0.84525980  1
  Cu  Cu137  1  0.97150947  0.95683502  0.34525980  1
  Cu  Cu138  1  0.97150947  0.45683502  0.15474020  1
  Cu  Cu139  1  0.02849053  0.04316498  0.65474020  1
  Cu  Cu140  1  0.32462734  0.34929717  0.53708578  1
  Cu  Cu141  1  0.67537266  0.15070283  0.03708578  1
  Cu  Cu142  1  0.67537266  0.65070283  0.46291422  1
  Cu  Cu143  1  0.32462734  0.84929717  0.96291422  1
  Cu  Cu144  1  0.04556828  0.35867194  0.60153062  1
  Cu  Cu145  1  0.95443172  0.14132806  0.10153062  1
  Cu  Cu146  1  0.95443172  0.64132806  0.39846938  1
  Cu  Cu147  1  0.04556828  0.85867194  0.89846938  1
  Cu  Cu148  1  0.63601975  0.46233344  0.70352520  1
  Cu  Cu149  1  0.36398025  0.03766656  0.20352520  1
  Cu  Cu150  1  0.36398025  0.53766656  0.29647480  1
  Cu  Cu151  1  0.63601975  0.96233344  0.79647480  1
  Cu  Cu152  1  0.57873898  0.39351670  0.87634836  1
  Cu  Cu153  1  0.42126102  0.10648330  0.37634836  1
  Cu  Cu154  1  0.42126102  0.60648330  0.12365164  1
  Cu  Cu155  1  0.57873898  0.89351670  0.62365164  1
  Cu  Cu156  1  0.19209477  0.38364094  0.94531798  1
  Cu  Cu157  1  0.80790523  0.11635906  0.44531798  1
  Cu  Cu158  1  0.80790523  0.61635906  0.05468202  1
  Cu  Cu159  1  0.19209477  0.88364094  0.55468202  1
  Cu  Cu160  1  0.95857146  0.28082644  0.83500243  1
  Cu  Cu161  1  0.04142854  0.21917356  0.33500243  1
  Cu  Cu162  1  0.04142854  0.71917356  0.16499757  1
  Cu  Cu163  1  0.95857146  0.78082644  0.66499757  1
  C  C164  1  0.28754237  0.52472432  0.63516547  1
  C  C165  1  0.71245763  0.97527568  0.13516547  1
  C  C166  1  0.71245763  0.47527568  0.36483453  1
  C  C167  1  0.28754237  0.02472432  0.86483453  1
  C  C168  1  0.46266659  0.55571468  0.80437503  1
  C  C169  1  0.53733341  0.94428532  0.30437503  1
  C  C170  1  0.53733341  0.44428532  0.19562497  1
  C  C171  1  0.46266659  0.05571468  0.69562497  1
  C  C172  1  0.12458675  0.49346624  0.80637516  1
  C  C173  1  0.87541325  0.00653376  0.30637516  1
  C  C174  1  0.87541325  0.50653376  0.19362484  1
  C  C175  1  0.12458675  0.99346624  0.69362484  1
