# generated using pymatgen
data_Cu2NiC4
_symmetry_space_group_name_H-M   'P 1'
_cell_length_a   6.89065228
_cell_length_b   6.89065228
_cell_length_c   16.36261800
_cell_angle_alpha   90.00000000
_cell_angle_beta   90.00000000
_cell_angle_gamma   120.00000266
_symmetry_Int_Tables_number   1
_chemical_formula_structural   Cu2NiC4
_chemical_formula_sum   'Cu12 Ni6 C24'
_cell_volume   672.82803774
_cell_formula_units_Z   6
loop_
 _symmetry_equiv_pos_site_id
 _symmetry_equiv_pos_as_xyz
  1  'x, y, z'
loop_
 _atom_site_type_symbol
 _atom_site_label
 _atom_site_symmetry_multiplicity
 _atom_site_fract_x
 _atom_site_fract_y
 _atom_site_fract_z
 _atom_site_occupancy
  Ni  Ni0  1  0.00000000  0.00000000  0.95823400  1
  Ni  Ni1  1  0.66666700  0.33333300  0.62239300  1
  Ni  Ni2  1  0.33333300  0.66666700  0.66801500  1
  Ni  Ni3  1  0.33333300  0.66666700  0.29247000  1
  Ni  Ni4  1  0.66666700  0.33333300  0.99785100  1
  Ni  Ni5  1  0.66666700  0.33333300  0.37453700  1
  Cu  Cu6  1  0.99488300  0.49744200  0.83448100  1
  Cu  Cu7  1  0.50255800  0.49744200  0.83448100  1
  Cu  Cu8  1  0.65897000  0.82948500  0.50368500  1
  Cu  Cu9  1  0.50255800  0.00511700  0.83448100  1
  Cu  Cu10  1  0.17051500  0.82948500  0.50368500  1
  Cu  Cu11  1  0.00000000  0.00000000  0.33510500  1
  Cu  Cu12  1  0.00000000  0.00000000  0.71771300  1
  Cu  Cu13  1  0.33614900  0.16807500  0.16602200  1
  Cu  Cu14  1  0.17051500  0.34103000  0.50368500  1
  Cu  Cu15  1  0.83192500  0.16807500  0.16602200  1
  Cu  Cu16  1  0.83192500  0.66385100  0.16602200  1
  Cu  Cu17  1  0.33333300  0.66666700  0.04964400  1
  C  C18  1  0.34304900  0.17152400  0.91896000  1
  C  C19  1  0.66666700  0.33333300  0.74830000  1
  C  C20  1  0.82847600  0.17152400  0.91896000  1
  C  C21  1  0.82847600  0.65695100  0.91896000  1
  C  C22  1  0.01851400  0.50925700  0.58766000  1
  C  C23  1  0.18849800  0.37699600  0.74485200  1
  C  C24  1  0.33333300  0.66666700  0.42035900  1
  C  C25  1  0.18849800  0.81150200  0.74485200  1
  C  C26  1  0.33333300  0.66666700  0.91702500  1
  C  C27  1  0.49074300  0.50925700  0.58766000  1
  C  C28  1  0.49074300  0.98148600  0.58766000  1
  C  C29  1  0.62300400  0.81150200  0.74485200  1
  C  C30  1  0.65487700  0.82743900  0.24734000  1
  C  C31  1  0.83273300  0.66546700  0.41500700  1
  C  C32  1  0.83273300  0.16726700  0.41500700  1
  C  C33  1  0.00000000  0.00000000  0.08198600  1
  C  C34  1  0.00000000  0.00000000  0.58591000  1
  C  C35  1  0.17256100  0.82743900  0.24734000  1
  C  C36  1  0.17256100  0.34512300  0.24734000  1
  C  C37  1  0.33453300  0.16726700  0.41500700  1
  C  C38  1  0.52303400  0.04606900  0.07588900  1
  C  C39  1  0.52303400  0.47696600  0.07588900  1
  C  C40  1  0.66666700  0.33333300  0.24896200  1
  C  C41  1  0.95393100  0.47696600  0.07588900  1
