# generated using pymatgen
data_Cu2NiC8
_symmetry_space_group_name_H-M   'P 1'
_cell_length_a   6.72827800
_cell_length_b   7.42080700
_cell_length_c   13.24634423
_cell_angle_alpha   62.70281283
_cell_angle_beta   90.00000000
_cell_angle_gamma   90.00000000
_symmetry_Int_Tables_number   1
_chemical_formula_structural   Cu2NiC8
_chemical_formula_sum   'Cu8 Ni4 C32'
_cell_volume   587.72861482
_cell_formula_units_Z   4
loop_
 _symmetry_equiv_pos_site_id
 _symmetry_equiv_pos_as_xyz
  1  'x, y, z'
loop_
 _atom_site_type_symbol
 _atom_site_label
 _atom_site_symmetry_multiplicity
 _atom_site_fract_x
 _atom_site_fract_y
 _atom_site_fract_z
 _atom_site_occupancy
  C  C0  1  0.64671900  0.75842600  0.47595600  1
  C  C1  1  0.14671900  0.24157400  0.02404400  1
  C  C2  1  0.35328100  0.24157400  0.52404400  1
  C  C3  1  0.85328100  0.75842600  0.97595600  1
  Ni  Ni4  1  0.89731100  0.78701400  0.23189700  1
  Ni  Ni5  1  0.60268900  0.78701400  0.73189700  1
  Ni  Ni6  1  0.10268900  0.21298600  0.76810300  1
  Ni  Ni7  1  0.39731100  0.21298600  0.26810300  1
  Cu  Cu8  1  0.65743500  0.21451600  0.04125500  1
  Cu  Cu9  1  0.90902700  0.29773400  0.28080200  1
  Cu  Cu10  1  0.84256500  0.21451600  0.54125500  1
  Cu  Cu11  1  0.34256500  0.78548400  0.95874500  1
  Cu  Cu12  1  0.09097300  0.70226600  0.71919800  1
  Cu  Cu13  1  0.59097300  0.29773400  0.78080200  1
  Cu  Cu14  1  0.40902700  0.70226600  0.21919800  1
  Cu  Cu15  1  0.15743500  0.78548400  0.45874500  1
  C  C16  1  0.68616200  0.15608500  0.31317900  1
  C  C17  1  0.18616200  0.84391500  0.18682100  1
  C  C18  1  0.31383800  0.84391500  0.68682100  1
  C  C19  1  0.81383800  0.15608500  0.81317900  1
  C  C20  1  0.95325200  0.79374000  0.37347700  1
  C  C21  1  0.45325200  0.20626000  0.12652300  1
  C  C22  1  0.04674800  0.20626000  0.62652300  1
  C  C23  1  0.54674800  0.79374000  0.87347700  1
  C  C24  1  0.49513000  0.74754300  0.07851500  1
  C  C25  1  0.99513000  0.25245700  0.42148500  1
  C  C26  1  0.50487000  0.25245700  0.92148500  1
  C  C27  1  0.00487000  0.74754300  0.57851500  1
  C  C28  1  0.83271400  0.01015900  0.07894500  1
  C  C29  1  0.33271400  0.98984100  0.42105500  1
  C  C30  1  0.16728600  0.98984100  0.92105500  1
  C  C31  1  0.66728600  0.01015900  0.57894500  1
  C  C32  1  0.17721500  0.59091700  0.98305000  1
  C  C33  1  0.67721500  0.40908300  0.51695000  1
  C  C34  1  0.82278500  0.40908300  0.01695000  1
  C  C35  1  0.32278500  0.59091700  0.48305000  1
  C  C36  1  0.89334200  0.77896500  0.77886400  1
  C  C37  1  0.39334200  0.22103500  0.72113600  1
  C  C38  1  0.10665800  0.22103500  0.22113600  1
  C  C39  1  0.60665800  0.77896500  0.27886400  1
  C  C40  1  0.62630600  0.56315000  0.69681000  1
  C  C41  1  0.12630600  0.43685000  0.80319000  1
  C  C42  1  0.37369400  0.43685000  0.30319000  1
  C  C43  1  0.87369400  0.56315000  0.19681000  1
