# generated using pymatgen
data_Cu6NiC4
_symmetry_space_group_name_H-M   'P 1'
_cell_length_a   9.82820010
_cell_length_b   9.82820010
_cell_length_c   10.98136570
_cell_angle_alpha   69.18075124
_cell_angle_beta   69.18075124
_cell_angle_gamma   24.23553371
_symmetry_Int_Tables_number   1
_chemical_formula_structural   Cu6NiC4
_chemical_formula_sum   'Cu12 Ni2 C8'
_cell_volume   405.62848278
_cell_formula_units_Z   2
loop_
 _symmetry_equiv_pos_site_id
 _symmetry_equiv_pos_as_xyz
  1  'x, y, z'
loop_
 _atom_site_type_symbol
 _atom_site_label
 _atom_site_symmetry_multiplicity
 _atom_site_fract_x
 _atom_site_fract_y
 _atom_site_fract_z
 _atom_site_occupancy
  C  C0  1  0.92279800  0.92279800  0.47178200  1
  C  C1  1  0.07720200  0.07720200  0.52821800  1
  C  C2  1  0.73354500  0.73354500  0.67931100  1
  C  C3  1  0.26645500  0.26645500  0.32068900  1
  C  C4  1  0.69245700  0.69245700  0.15322300  1
  C  C5  1  0.30754300  0.30754300  0.84677700  1
  C  C6  1  0.50145100  0.50145100  0.21160800  1
  C  C7  1  0.49854900  0.49854900  0.78839200  1
  Ni  Ni8  1  0.88652100  0.88652100  0.99747100  1
  Ni  Ni9  1  0.11347900  0.11347900  0.00252900  1
  Cu  Cu10  1  0.58581300  0.58581300  0.27484200  1
  Cu  Cu11  1  0.41418700  0.41418700  0.72515800  1
  Cu  Cu12  1  0.73507800  0.73507800  0.29954400  1
  Cu  Cu13  1  0.26492200  0.26492200  0.70045600  1
  Cu  Cu14  1  0.43353900  0.43353900  0.41566500  1
  Cu  Cu15  1  0.56646100  0.56646100  0.58433500  1
  Cu  Cu16  1  0.96795100  0.96795100  0.27718600  1
  Cu  Cu17  1  0.03204900  0.03204900  0.72281400  1
  Cu  Cu18  1  0.81547300  0.81547300  0.50146100  1
  Cu  Cu19  1  0.18452700  0.18452700  0.49853900  1
  Cu  Cu20  1  0.20277300  0.20277300  0.20707400  1
  Cu  Cu21  1  0.79722700  0.79722700  0.79292600  1
