# generated using pymatgen
data_Cu4NiC24
_symmetry_space_group_name_H-M   'P 1'
_cell_length_a   6.32763938
_cell_length_b   8.03571296
_cell_length_c   11.70331904
_cell_angle_alpha   90.35140466
_cell_angle_beta   117.03006482
_cell_angle_gamma   92.35456946
_symmetry_Int_Tables_number   1
_chemical_formula_structural   Cu4NiC24
_chemical_formula_sum   'Cu4 Ni1 C24'
_cell_volume   529.42486386
_cell_formula_units_Z   1
loop_
 _symmetry_equiv_pos_site_id
 _symmetry_equiv_pos_as_xyz
  1  'x, y, z'
loop_
 _atom_site_type_symbol
 _atom_site_label
 _atom_site_symmetry_multiplicity
 _atom_site_fract_x
 _atom_site_fract_y
 _atom_site_fract_z
 _atom_site_occupancy
  C  C0  1  0.25312300  0.63690400  0.94915700  1
  C  C1  1  0.47826100  0.51736400  0.71576600  1
  C  C2  1  0.19507900  0.80460400  0.41675500  1
  C  C3  1  0.39052300  0.03666100  0.76326200  1
  C  C4  1  0.48431000  0.00423000  0.21627300  1
  C  C5  1  0.78432100  0.22368600  0.57559000  1
  C  C6  1  0.53230200  0.50884600  0.29299600  1
  C  C7  1  0.82459400  0.28795700  0.08999400  1
  Ni  Ni8  1  0.89477600  0.93757300  0.83437400  1
  Cu  Cu9  1  0.15583300  0.22196200  0.93226800  1
  Cu  Cu10  1  0.14184400  0.27144600  0.41850000  1
  Cu  Cu11  1  0.85095200  0.74687200  0.57880500  1
  Cu  Cu12  1  0.87140300  0.76326600  0.07465400  1
  C  C13  1  0.23262000  0.01186300  0.93831800  1
  C  C14  1  0.25875200  0.32950900  0.84322500  1
  C  C15  1  0.22820700  0.24122200  0.57402500  1
  C  C16  1  0.15281900  0.75341400  0.66161000  1
  C  C17  1  0.21386700  0.46494400  0.39774900  1
  C  C18  1  0.27998200  0.13821400  0.36946200  1
  C  C19  1  0.84424700  0.18158800  0.85213000  1
  C  C20  1  0.79202300  0.75477300  0.91041300  1
  C  C21  1  0.25024000  0.30893000  0.07956000  1
  C  C22  1  0.16422500  0.73184200  0.15608500  1
  C  C23  1  0.74566100  0.89385900  0.65012000  1
  C  C24  1  0.73915400  0.55585200  0.58527100  1
  C  C25  1  0.84575200  0.24388400  0.33864300  1
  C  C26  1  0.76246100  0.80061300  0.42490100  1
  C  C27  1  0.71541800  0.61162800  0.10495000  1
  C  C28  1  0.81308500  0.94982700  0.11070100  1
