# generated using pymatgen
data_Cu2Ni4C7
_symmetry_space_group_name_H-M   'P 1'
_cell_length_a   5.46451946
_cell_length_b   5.46451946
_cell_length_c   9.04125900
_cell_angle_alpha   90.00000000
_cell_angle_beta   90.00000000
_cell_angle_gamma   120.19721706
_symmetry_Int_Tables_number   1
_chemical_formula_structural   Cu2Ni4C7
_chemical_formula_sum   'Cu2 Ni4 C7'
_cell_volume   233.34419014
_cell_formula_units_Z   1
loop_
 _symmetry_equiv_pos_site_id
 _symmetry_equiv_pos_as_xyz
  1  'x, y, z'
loop_
 _atom_site_type_symbol
 _atom_site_label
 _atom_site_symmetry_multiplicity
 _atom_site_fract_x
 _atom_site_fract_y
 _atom_site_fract_z
 _atom_site_occupancy
  C  C0  1  0.50000000  0.50000000  0.99981600  1
  Ni  Ni1  1  0.00000000  0.00000000  0.75285700  1
  Ni  Ni2  1  0.00000000  0.50000000  0.24664400  1
  Ni  Ni3  1  0.50000000  0.00000000  0.24664400  1
  Ni  Ni4  1  0.00000000  0.00000000  0.24723100  1
  Cu  Cu5  1  0.00000000  0.50000000  0.75274000  1
  Cu  Cu6  1  0.50000000  0.00000000  0.75274000  1
  C  C7  1  0.16746700  0.83253300  0.99979600  1
  C  C8  1  0.83253300  0.16746700  0.99979600  1
  C  C9  1  0.16664600  0.83335400  0.50126500  1
  C  C10  1  0.83335400  0.16664600  0.50126500  1
  C  C11  1  0.50000000  0.50000000  0.66545200  1
  C  C12  1  0.50000000  0.50000000  0.33378300  1
