# generated using pymatgen
data_Cu3Ni3C28
_symmetry_space_group_name_H-M   'P 1'
_cell_length_a   5.26816800
_cell_length_b   15.10095300
_cell_length_c   26.03856100
_cell_angle_alpha   90.00000000
_cell_angle_beta   90.00000000
_cell_angle_gamma   90.00000000
_symmetry_Int_Tables_number   1
_chemical_formula_structural   Cu3Ni3C28
_chemical_formula_sum   'Cu12 Ni12 C112'
_cell_volume   2071.48098704
_cell_formula_units_Z   4
loop_
 _symmetry_equiv_pos_site_id
 _symmetry_equiv_pos_as_xyz
  1  'x, y, z'
loop_
 _atom_site_type_symbol
 _atom_site_label
 _atom_site_symmetry_multiplicity
 _atom_site_fract_x
 _atom_site_fract_y
 _atom_site_fract_z
 _atom_site_occupancy
  C  C0  1  0.18685200  0.35446300  0.07174000  1
  C  C1  1  0.68685200  0.14553700  0.42826000  1
  C  C2  1  0.81314800  0.85446300  0.92826000  1
  C  C3  1  0.31314800  0.64553700  0.57174000  1
  C  C4  1  0.81314800  0.64553700  0.92826000  1
  C  C5  1  0.31314800  0.85446300  0.57174000  1
  C  C6  1  0.18685200  0.14553700  0.07174000  1
  C  C7  1  0.68685200  0.35446300  0.42826000  1
  C  C8  1  0.19265800  0.93109300  0.28612900  1
  C  C9  1  0.69265800  0.56890700  0.21387100  1
  C  C10  1  0.80734200  0.43109300  0.71387100  1
  C  C11  1  0.30734200  0.06890700  0.78612900  1
  C  C12  1  0.80734200  0.06890700  0.71387100  1
  C  C13  1  0.30734200  0.43109300  0.78612900  1
  C  C14  1  0.19265800  0.56890700  0.28612900  1
  C  C15  1  0.69265800  0.93109300  0.21387100  1
  C  C16  1  0.31447900  0.96481800  0.89171400  1
  C  C17  1  0.81447900  0.53518200  0.60828600  1
  C  C18  1  0.68552100  0.46481800  0.10828600  1
  C  C19  1  0.18552100  0.03518200  0.39171400  1
  C  C20  1  0.68552100  0.03518200  0.10828600  1
  C  C21  1  0.18552100  0.46481800  0.39171400  1
  C  C22  1  0.31447900  0.53518200  0.89171400  1
  C  C23  1  0.81447900  0.96481800  0.60828600  1
  C  C24  1  0.59432700  0.75000000  0.75025800  1
  C  C25  1  0.09432700  0.75000000  0.74974200  1
  C  C26  1  0.40567300  0.25000000  0.24974200  1
  C  C27  1  0.90567300  0.25000000  0.25025800  1
  Ni  Ni28  1  0.74984100  0.44087500  0.97976600  1
  Ni  Ni29  1  0.24984100  0.05912500  0.52023400  1
  Ni  Ni30  1  0.25015900  0.94087500  0.02023400  1
  Ni  Ni31  1  0.75015900  0.55912500  0.47976600  1
  Ni  Ni32  1  0.25015900  0.55912500  0.02023400  1
  Ni  Ni33  1  0.75015900  0.94087500  0.47976600  1
  Ni  Ni34  1  0.74984100  0.05912500  0.97976600  1
  Ni  Ni35  1  0.24984100  0.44087500  0.52023400  1
  Ni  Ni36  1  0.72623600  0.75000000  0.29068100  1
  Ni  Ni37  1  0.22623600  0.75000000  0.20931900  1
  Ni  Ni38  1  0.27376400  0.25000000  0.70931900  1
  Ni  Ni39  1  0.77376400  0.25000000  0.79068100  1
  Cu  Cu40  1  0.81639900  0.75000000  0.62647700  1
  Cu  Cu41  1  0.31639900  0.75000000  0.87352300  1
  Cu  Cu42  1  0.18360100  0.25000000  0.37352300  1
  Cu  Cu43  1  0.68360100  0.25000000  0.12647700  1
  Cu  Cu44  1  0.68020700  0.06461400  0.31168100  1
  Cu  Cu45  1  0.18020700  0.43538600  0.18831900  1
  Cu  Cu46  1  0.31979300  0.56461400  0.68831900  1
  Cu  Cu47  1  0.81979300  0.93538600  0.81168100  1
  Cu  Cu48  1  0.31979300  0.93538600  0.68831900  1
  Cu  Cu49  1  0.81979300  0.56461400  0.81168100  1
  Cu  Cu50  1  0.68020700  0.43538600  0.31168100  1
  Cu  Cu51  1  0.18020700  0.06461400  0.18831900  1
  C  C52  1  0.37747800  0.12465200  0.87528400  1
  C  C53  1  0.87747800  0.37534800  0.62471600  1
  C  C54  1  0.62252200  0.62465200  0.12471600  1
  C  C55  1  0.12252200  0.87534800  0.37528400  1
  C  C56  1  0.62252200  0.87534800  0.12471600  1
  C  C57  1  0.12252200  0.62465200  0.37528400  1
  C  C58  1  0.37747800  0.37534800  0.87528400  1
  C  C59  1  0.87747800  0.12465200  0.62471600  1
  C  C60  1  0.38997900  0.75000000  0.49989200  1
  C  C61  1  0.88997900  0.75000000  0.00010800  1
  C  C62  1  0.61002100  0.25000000  0.50010800  1
  C  C63  1  0.11002100  0.25000000  0.99989200  1
  C  C64  1  0.05328300  0.52777200  0.95401200  1
  C  C65  1  0.55328400  0.97222800  0.54598800  1
  C  C66  1  0.94671600  0.02777200  0.04598800  1
  C  C67  1  0.44671700  0.47222800  0.45401200  1
  C  C68  1  0.94671600  0.47222800  0.04598800  1
  C  C69  1  0.44671700  0.02777200  0.45401200  1
  C  C70  1  0.05328300  0.97222800  0.95401200  1
  C  C71  1  0.55328400  0.52777200  0.54598800  1
  C  C72  1  0.47163800  0.83452600  0.25315200  1
  C  C73  1  0.97163800  0.66547400  0.24684800  1
  C  C74  1  0.52836200  0.33452600  0.74684800  1
  C  C75  1  0.02836200  0.16547400  0.75315200  1
  C  C76  1  0.52836200  0.16547400  0.74684800  1
  C  C77  1  0.02836200  0.33452600  0.75315200  1
  C  C78  1  0.47163800  0.66547400  0.25315200  1
  C  C79  1  0.97163800  0.83452600  0.24684800  1
  C  C80  1  0.55301200  0.55614800  0.96371400  1
  C  C81  1  0.05301200  0.94385200  0.53628600  1
  C  C82  1  0.44698800  0.05614800  0.03628600  1
  C  C83  1  0.94698800  0.44385200  0.46371400  1
  C  C84  1  0.44698800  0.44385200  0.03628600  1
  C  C85  1  0.94698800  0.05614800  0.46371400  1
  C  C86  1  0.55301200  0.94385200  0.96371400  1
  C  C87  1  0.05301200  0.55614800  0.53628600  1
  C  C88  1  0.84129000  0.75000000  0.68655400  1
  C  C89  1  0.34129000  0.75000000  0.81344600  1
  C  C90  1  0.15871000  0.25000000  0.31344600  1
  C  C91  1  0.65871000  0.25000000  0.18655400  1
  C  C92  1  0.66613100  0.83233300  0.60823900  1
  C  C93  1  0.16613100  0.66766700  0.89176100  1
  C  C94  1  0.33386900  0.33233300  0.39176100  1
  C  C95  1  0.83386900  0.16766700  0.10823900  1
  C  C96  1  0.33386900  0.16766700  0.39176100  1
  C  C97  1  0.83386900  0.33233300  0.10823900  1
  C  C98  1  0.66613100  0.66766700  0.60823900  1
  C  C99  1  0.16613100  0.83233300  0.89176100  1
  C  C100  1  0.08301000  0.75000000  0.60115500  1
  C  C101  1  0.58301000  0.75000000  0.89884500  1
  C  C102  1  0.91699000  0.25000000  0.39884500  1
  C  C103  1  0.41699000  0.25000000  0.10115500  1
  C  C104  1  0.41253400  0.02630000  0.32418200  1
  C  C105  1  0.91253400  0.47370000  0.17581800  1
  C  C106  1  0.58746600  0.52630000  0.67581800  1
  C  C107  1  0.08746600  0.97370000  0.82418200  1
  C  C108  1  0.58746600  0.97370000  0.67581800  1
  C  C109  1  0.08746600  0.52630000  0.82418200  1
  C  C110  1  0.41253400  0.47370000  0.32418200  1
  C  C111  1  0.91253400  0.02630000  0.17581800  1
  C  C112  1  0.82915100  0.99587900  0.27981900  1
  C  C113  1  0.32915100  0.50412100  0.22018100  1
  C  C114  1  0.17084900  0.49587900  0.72018100  1
  C  C115  1  0.67084900  0.00412100  0.77981900  1
  C  C116  1  0.17084900  0.00412100  0.72018100  1
  C  C117  1  0.67084900  0.49587900  0.77981900  1
  C  C118  1  0.82915100  0.50412100  0.27981900  1
  C  C119  1  0.32915100  0.99587900  0.22018100  1
  C  C120  1  0.83028700  0.07806700  0.36222100  1
  C  C121  1  0.33028700  0.42193300  0.13777900  1
  C  C122  1  0.16971300  0.57806700  0.63777900  1
  C  C123  1  0.66971300  0.92193300  0.86222100  1
  C  C124  1  0.16971300  0.92193300  0.63777900  1
  C  C125  1  0.66971300  0.57806700  0.86222100  1
  C  C126  1  0.83028700  0.42193300  0.36222100  1
  C  C127  1  0.33028700  0.07806700  0.13777900  1
  C  C128  1  0.65533500  0.15447300  0.28192300  1
  C  C129  1  0.15533500  0.34552700  0.21807700  1
  C  C130  1  0.34466500  0.65447300  0.71807700  1
  C  C131  1  0.84466500  0.84552700  0.78192300  1
  C  C132  1  0.34466500  0.84552700  0.71807700  1
  C  C133  1  0.84466500  0.65447300  0.78192300  1
  C  C134  1  0.65533500  0.34552700  0.28192300  1
  C  C135  1  0.15533500  0.15447300  0.21807700  1
