# generated using pymatgen
data_Cu14Ni2C13
_symmetry_space_group_name_H-M   'P 1'
_cell_length_a   11.15575500
_cell_length_b   8.08503400
_cell_length_c   27.26213300
_cell_angle_alpha   90.00000000
_cell_angle_beta   90.00000000
_cell_angle_gamma   90.00000000
_symmetry_Int_Tables_number   1
_chemical_formula_structural   Cu14Ni2C13
_chemical_formula_sum   'Cu112 Ni16 C104'
_cell_volume   2458.89877512
_cell_formula_units_Z   8
loop_
 _symmetry_equiv_pos_site_id
 _symmetry_equiv_pos_as_xyz
  1  'x, y, z'
loop_
 _atom_site_type_symbol
 _atom_site_label
 _atom_site_symmetry_multiplicity
 _atom_site_fract_x
 _atom_site_fract_y
 _atom_site_fract_z
 _atom_site_occupancy
  C  C0  1  0.37800600  0.97092000  0.79228800  1
  C  C1  1  0.62199400  0.02908000  0.29228800  1
  C  C2  1  0.12199400  0.97092000  0.29228800  1
  C  C3  1  0.87800600  0.02908000  0.79228800  1
  C  C4  1  0.37809200  0.52259600  0.57497200  1
  C  C5  1  0.62190800  0.47740400  0.07497200  1
  C  C6  1  0.12190800  0.52259600  0.07497200  1
  C  C7  1  0.87809200  0.47740400  0.57497200  1
  C  C8  1  0.22190400  0.68150800  0.76872000  1
  C  C9  1  0.77809600  0.31849200  0.26872000  1
  C  C10  1  0.27809600  0.68150800  0.26872000  1
  C  C11  1  0.72190400  0.31849200  0.76872000  1
  C  C12  1  0.14070200  0.78243500  0.80644900  1
  C  C13  1  0.85929800  0.21756500  0.30644900  1
  C  C14  1  0.35929800  0.78243500  0.30644900  1
  C  C15  1  0.64070200  0.21756500  0.80644900  1
  C  C16  1  0.16680500  0.20393900  0.80086600  1
  C  C17  1  0.83319500  0.79606100  0.30086600  1
  C  C18  1  0.33319500  0.20393900  0.30086600  1
  C  C19  1  0.66680500  0.79606100  0.80086600  1
  C  C20  1  0.26048400  0.29350900  0.76565900  1
  C  C21  1  0.73951600  0.70649100  0.26565900  1
  C  C22  1  0.23951600  0.29350900  0.26565900  1
  C  C23  1  0.76048400  0.70649100  0.76565900  1
  C  C24  1  0.48537800  0.42432400  0.47308400  1
  C  C25  1  0.51462200  0.57567600  0.97308400  1
  C  C26  1  0.01462200  0.42432400  0.97308400  1
  C  C27  1  0.98537800  0.57567600  0.47308400  1
  C  C28  1  0.47700900  0.61717200  0.47164200  1
  C  C29  1  0.52299100  0.38282800  0.97164200  1
  C  C30  1  0.02299100  0.61717200  0.97164200  1
  C  C31  1  0.97700900  0.38282800  0.47164200  1
  C  C32  1  0.60620300  0.73293600  0.56046000  1
  C  C33  1  0.39379700  0.26706400  0.06046000  1
  C  C34  1  0.89379700  0.73293600  0.06046000  1
  C  C35  1  0.10620300  0.26706400  0.56046000  1
  C  C36  1  0.52041600  0.82567600  0.59834100  1
  C  C37  1  0.47958400  0.17432400  0.09834100  1
  C  C38  1  0.97958400  0.82567600  0.09834100  1
  C  C39  1  0.02041600  0.17432400  0.59834100  1
  C  C40  1  0.26356500  0.43569500  0.66945200  1
  C  C41  1  0.73643500  0.56430500  0.16945200  1
  C  C42  1  0.23643500  0.43569500  0.16945200  1
  C  C43  1  0.76356500  0.56430500  0.66945200  1
  C  C44  1  0.17488300  0.36113300  0.62986500  1
  C  C45  1  0.82511700  0.63886700  0.12986500  1
  C  C46  1  0.32511700  0.36113300  0.12986500  1
  C  C47  1  0.67488300  0.63886700  0.62986500  1
  C  C48  1  0.48584900  0.06111700  0.69678000  1
  C  C49  1  0.51415100  0.93888300  0.19678000  1
  C  C50  1  0.01415100  0.06111700  0.19678000  1
  C  C51  1  0.98584900  0.93888300  0.69678000  1
  C  C52  1  0.58107300  0.12258800  0.73559900  1
  C  C53  1  0.41892700  0.87741200  0.23559900  1
  C  C54  1  0.91892700  0.12258800  0.23559900  1
  C  C55  1  0.08107300  0.87741200  0.73559900  1
  C  C56  1  0.51750600  0.17228000  0.87338600  1
  C  C57  1  0.48249400  0.82772000  0.37338600  1
  C  C58  1  0.98249400  0.17228000  0.37338600  1
  C  C59  1  0.01750600  0.82772000  0.87338600  1
  C  C60  1  0.46205400  0.29600400  0.83587900  1
  C  C61  1  0.53794600  0.70399600  0.33587900  1
  C  C62  1  0.03794600  0.29600400  0.33587900  1
  C  C63  1  0.96205400  0.70399600  0.83587900  1
  C  C64  1  0.28539700  0.08052100  0.89504700  1
  C  C65  1  0.71460300  0.91947900  0.39504700  1
  C  C66  1  0.21460300  0.08052100  0.39504700  1
  C  C67  1  0.78539700  0.91947900  0.89504700  1
  C  C68  1  0.28713700  0.88711800  0.89806500  1
  C  C69  1  0.71286300  0.11288200  0.39806500  1
  C  C70  1  0.21286300  0.88711800  0.39806500  1
  C  C71  1  0.78713700  0.11288200  0.89806500  1
  C  C72  1  0.53568700  0.81866900  0.87261100  1
  C  C73  1  0.46431300  0.18133100  0.37261100  1
  C  C74  1  0.96431300  0.81866900  0.37261100  1
  C  C75  1  0.03568700  0.18133100  0.87261100  1
  C  C76  1  0.50701100  0.67840200  0.83504100  1
  C  C77  1  0.49298900  0.32159800  0.33504100  1
  C  C78  1  0.99298900  0.67840200  0.33504100  1
  C  C79  1  0.00701100  0.32159800  0.83504100  1
  C  C80  1  0.21836900  0.66890800  0.49516100  1
  C  C81  1  0.78163100  0.33109200  0.99516100  1
  C  C82  1  0.28163100  0.66890800  0.99516100  1
  C  C83  1  0.71836900  0.33109200  0.49516100  1
  C  C84  1  0.25958300  0.81365900  0.52871200  1
  C  C85  1  0.74041700  0.18634100  0.02871200  1
  C  C86  1  0.24041700  0.81365900  0.02871200  1
  C  C87  1  0.75958300  0.18634100  0.52871200  1
  C  C88  1  0.23615700  0.33074000  0.49353600  1
  C  C89  1  0.76384300  0.66926000  0.99353600  1
  C  C90  1  0.26384300  0.33074000  0.99353600  1
  C  C91  1  0.73615700  0.66926000  0.49353600  1
  C  C92  1  0.29470500  0.20386800  0.52893200  1
  C  C93  1  0.70529500  0.79613200  0.02893200  1
  C  C94  1  0.20529500  0.20386800  0.02893200  1
  C  C95  1  0.79470500  0.79613200  0.52893200  1
  C  C96  1  0.58586300  0.28019400  0.56809300  1
  C  C97  1  0.41413700  0.71980600  0.06809300  1
  C  C98  1  0.91413700  0.28019400  0.06809300  1
  C  C99  1  0.08586300  0.71980600  0.56809300  1
  C  C100  1  0.48411300  0.19041100  0.59906700  1
  C  C101  1  0.51588700  0.80958900  0.09906700  1
  C  C102  1  0.01588700  0.19041100  0.09906700  1
  C  C103  1  0.98411300  0.80958900  0.59906700  1
  Ni  Ni104  1  0.27873700  0.49798600  0.89738500  1
  Ni  Ni105  1  0.72126300  0.50201400  0.39738500  1
  Ni  Ni106  1  0.22126300  0.49798600  0.39738500  1
  Ni  Ni107  1  0.77873700  0.50201400  0.89738500  1
  Ni  Ni108  1  0.30058400  0.93256000  0.63813500  1
  Ni  Ni109  1  0.69941600  0.06744000  0.13813500  1
  Ni  Ni110  1  0.19941600  0.93256000  0.13813500  1
  Ni  Ni111  1  0.80058400  0.06744000  0.63813500  1
  Ni  Ni112  1  0.44908600  0.56410600  0.72979200  1
  Ni  Ni113  1  0.55091400  0.43589400  0.22979200  1
  Ni  Ni114  1  0.05091400  0.56410600  0.22979200  1
  Ni  Ni115  1  0.94908600  0.43589400  0.72979200  1
  Ni  Ni116  1  0.52817400  0.00046100  0.97062000  1
  Ni  Ni117  1  0.47182600  0.99953900  0.47062000  1
  Ni  Ni118  1  0.97182600  0.00046100  0.47062000  1
  Ni  Ni119  1  0.02817400  0.99953900  0.97062000  1
  Cu  Cu120  1  0.20891000  0.79107700  0.78314900  1
  Cu  Cu121  1  0.79109000  0.20892300  0.28314900  1
  Cu  Cu122  1  0.29109000  0.79107700  0.28314900  1
  Cu  Cu123  1  0.70891000  0.20892300  0.78314900  1
  Cu  Cu124  1  0.24350300  0.19085900  0.78328100  1
  Cu  Cu125  1  0.75649700  0.80914100  0.28328100  1
  Cu  Cu126  1  0.25649700  0.19085900  0.28328100  1
  Cu  Cu127  1  0.74350300  0.80914100  0.78328100  1
  Cu  Cu128  1  0.47514700  0.52176000  0.49377800  1
  Cu  Cu129  1  0.52485300  0.47824000  0.99377800  1
  Cu  Cu130  1  0.02485300  0.52176000  0.99377800  1
  Cu  Cu131  1  0.97514700  0.47824000  0.49377800  1
  Cu  Cu132  1  0.54022500  0.71716400  0.58427000  1
  Cu  Cu133  1  0.45977500  0.28283600  0.08427000  1
  Cu  Cu134  1  0.95977500  0.71716400  0.08427000  1
  Cu  Cu135  1  0.04022500  0.28283600  0.58427000  1
  Cu  Cu136  1  0.25806100  0.39558500  0.63557500  1
  Cu  Cu137  1  0.74193900  0.60441500  0.13557500  1
  Cu  Cu138  1  0.24193900  0.39558500  0.13557500  1
  Cu  Cu139  1  0.75806100  0.60441500  0.63557500  1
  Cu  Cu140  1  0.49582300  0.09731900  0.73088600  1
  Cu  Cu141  1  0.50417700  0.90268100  0.23088600  1
  Cu  Cu142  1  0.00417700  0.09731900  0.23088600  1
  Cu  Cu143  1  0.99582300  0.90268100  0.73088600  1
  Cu  Cu144  1  0.50131700  0.18743600  0.83808900  1
  Cu  Cu145  1  0.49868300  0.81256400  0.33808900  1
  Cu  Cu146  1  0.99868300  0.18743600  0.33808900  1
  Cu  Cu147  1  0.00131700  0.81256400  0.83808900  1
  Cu  Cu148  1  0.28972800  0.98023700  0.87516200  1
  Cu  Cu149  1  0.71027200  0.01976300  0.37516200  1
  Cu  Cu150  1  0.21027200  0.98023700  0.37516200  1
  Cu  Cu151  1  0.78972800  0.01976300  0.87516200  1
  Cu  Cu152  1  0.42668500  0.99315500  0.63316000  1
  Cu  Cu153  1  0.57331500  0.00684500  0.13316000  1
  Cu  Cu154  1  0.07331500  0.99315500  0.13316000  1
  Cu  Cu155  1  0.92668500  0.00684500  0.63316000  1
  Cu  Cu156  1  0.22727000  0.00485300  0.59980600  1
  Cu  Cu157  1  0.77273000  0.99514700  0.09980600  1
  Cu  Cu158  1  0.27273000  0.00485300  0.09980600  1
  Cu  Cu159  1  0.72727000  0.99514700  0.59980600  1
  Cu  Cu160  1  0.32358100  0.50269400  0.73351400  1
  Cu  Cu161  1  0.67641900  0.49730600  0.23351400  1
  Cu  Cu162  1  0.17641900  0.50269400  0.23351400  1
  Cu  Cu163  1  0.82358100  0.49730600  0.73351400  1
  Cu  Cu164  1  0.52099500  0.49235200  0.76888400  1
  Cu  Cu165  1  0.47900500  0.50764800  0.26888400  1
  Cu  Cu166  1  0.97900500  0.49235200  0.26888400  1
  Cu  Cu167  1  0.02099500  0.50764800  0.76888400  1
  Cu  Cu168  1  0.35825200  0.49510300  0.85485300  1
  Cu  Cu169  1  0.64174800  0.50489700  0.35485300  1
  Cu  Cu170  1  0.14174800  0.49510300  0.35485300  1
  Cu  Cu171  1  0.85825200  0.50489700  0.85485300  1
  Cu  Cu172  1  0.52394700  0.79722400  0.83732700  1
  Cu  Cu173  1  0.47605300  0.20277600  0.33732700  1
  Cu  Cu174  1  0.97605300  0.79722400  0.33732700  1
  Cu  Cu175  1  0.02394700  0.20277600  0.83732700  1
  Cu  Cu176  1  0.25620600  0.97663500  0.68621800  1
  Cu  Cu177  1  0.74379400  0.02336500  0.18621800  1
  Cu  Cu178  1  0.24379400  0.97663500  0.18621800  1
  Cu  Cu179  1  0.75620600  0.02336500  0.68621800  1
  Cu  Cu180  1  0.61084800  0.99978700  0.01236200  1
  Cu  Cu181  1  0.38915200  0.00021300  0.51236200  1
  Cu  Cu182  1  0.88915200  0.99978700  0.51236200  1
  Cu  Cu183  1  0.11084800  0.00021300  0.01236200  1
  Cu  Cu184  1  0.29778100  0.34614600  0.92625300  1
  Cu  Cu185  1  0.70221900  0.65385400  0.42625300  1
  Cu  Cu186  1  0.20221900  0.34614600  0.42625300  1
  Cu  Cu187  1  0.79778100  0.65385400  0.92625300  1
  Cu  Cu188  1  0.31038500  0.64222500  0.92814800  1
  Cu  Cu189  1  0.68961500  0.35777500  0.42814800  1
  Cu  Cu190  1  0.18961500  0.64222500  0.42814800  1
  Cu  Cu191  1  0.81038500  0.35777500  0.92814800  1
  Cu  Cu192  1  0.55254100  0.14887500  0.94065900  1
  Cu  Cu193  1  0.44745900  0.85112500  0.44065900  1
  Cu  Cu194  1  0.94745900  0.14887500  0.44065900  1
  Cu  Cu195  1  0.05254100  0.85112500  0.94065900  1
  Cu  Cu196  1  0.55005000  0.85203800  0.94082100  1
  Cu  Cu197  1  0.44995000  0.14796200  0.44082100  1
  Cu  Cu198  1  0.94995000  0.85203800  0.44082100  1
  Cu  Cu199  1  0.05005000  0.14796200  0.94082100  1
  Cu  Cu200  1  0.49739100  0.52153900  0.68223900  1
  Cu  Cu201  1  0.50260900  0.47846100  0.18223900  1
  Cu  Cu202  1  0.00260900  0.52153900  0.18223900  1
  Cu  Cu203  1  0.99739100  0.47846100  0.68223900  1
  Cu  Cu204  1  0.30210000  0.75229700  0.63258500  1
  Cu  Cu205  1  0.69790000  0.24770300  0.13258500  1
  Cu  Cu206  1  0.19790000  0.75229700  0.13258500  1
  Cu  Cu207  1  0.80210000  0.24770300  0.63258500  1
  Cu  Cu208  1  0.44727500  0.74441800  0.73558200  1
  Cu  Cu209  1  0.55272500  0.25558200  0.23558200  1
  Cu  Cu210  1  0.05272500  0.74441800  0.23558200  1
  Cu  Cu211  1  0.94727500  0.25558200  0.73558200  1
  Cu  Cu212  1  0.23521200  0.69703700  0.52968700  1
  Cu  Cu213  1  0.76478800  0.30296300  0.02968700  1
  Cu  Cu214  1  0.26478800  0.69703700  0.02968700  1
  Cu  Cu215  1  0.73521200  0.30296300  0.52968700  1
  Cu  Cu216  1  0.40521700  0.00325100  0.98760500  1
  Cu  Cu217  1  0.59478300  0.99674900  0.48760500  1
  Cu  Cu218  1  0.09478300  0.00325100  0.48760500  1
  Cu  Cu219  1  0.90521700  0.99674900  0.98760500  1
  Cu  Cu220  1  0.15492400  0.50995300  0.88207000  1
  Cu  Cu221  1  0.84507600  0.49004700  0.38207000  1
  Cu  Cu222  1  0.34507600  0.50995300  0.38207000  1
  Cu  Cu223  1  0.65492400  0.49004700  0.88207000  1
  Cu  Cu224  1  0.25331900  0.31134400  0.52853900  1
  Cu  Cu225  1  0.74668100  0.68865600  0.02853900  1
  Cu  Cu226  1  0.24668100  0.31134400  0.02853900  1
  Cu  Cu227  1  0.75331900  0.68865600  0.52853900  1
  Cu  Cu228  1  0.50615000  0.29429200  0.58287000  1
  Cu  Cu229  1  0.49385000  0.70570800  0.08287000  1
  Cu  Cu230  1  0.99385000  0.29429200  0.08287000  1
  Cu  Cu231  1  0.00615000  0.70570800  0.58287000  1
