# generated using pymatgen
data_CuNiC61
_symmetry_space_group_name_H-M   'P 1'
_cell_length_a   8.52807600
_cell_length_b   8.54799200
_cell_length_c   8.56608800
_cell_angle_alpha   90.00000000
_cell_angle_beta   90.00000000
_cell_angle_gamma   90.00000000
_symmetry_Int_Tables_number   1
_chemical_formula_structural   CuNiC61
_chemical_formula_sum   'Cu1 Ni1 C61'
_cell_volume   624.45004419
_cell_formula_units_Z   1
loop_
 _symmetry_equiv_pos_site_id
 _symmetry_equiv_pos_as_xyz
  1  'x, y, z'
loop_
 _atom_site_type_symbol
 _atom_site_label
 _atom_site_symmetry_multiplicity
 _atom_site_fract_x
 _atom_site_fract_y
 _atom_site_fract_z
 _atom_site_occupancy
  Ni  Ni0  1  0.99755100  0.50000000  0.50000000  1
  Cu  Cu1  1  0.99735700  0.00000000  0.00000000  1
  C  C2  1  0.98006600  0.00000000  0.50000000  1
  C  C3  1  0.99862800  0.50000000  0.00000000  1
  C  C4  1  0.50154700  0.00000000  0.00000000  1
  C  C5  1  0.52057400  0.00000000  0.50000000  1
  C  C6  1  0.50142200  0.50000000  0.00000000  1
  C  C7  1  0.50105200  0.50000000  0.50000000  1
  C  C8  1  0.00066400  0.24863500  0.24781200  1
  C  C9  1  0.00066400  0.24863500  0.75218800  1
  C  C10  1  0.00066400  0.75136500  0.24781200  1
  C  C11  1  0.00066400  0.75136500  0.75218800  1
  C  C12  1  0.49953400  0.24957200  0.24989200  1
  C  C13  1  0.49953400  0.24957200  0.75010800  1
  C  C14  1  0.49953400  0.75042800  0.24989200  1
  C  C15  1  0.49953400  0.75042800  0.75010800  1
  C  C16  1  0.24416600  0.00000000  0.22652900  1
  C  C17  1  0.24416600  0.00000000  0.77347100  1
  C  C18  1  0.24777100  0.50000000  0.24741500  1
  C  C19  1  0.24777100  0.50000000  0.75258500  1
  C  C20  1  0.75538900  0.00000000  0.24413400  1
  C  C21  1  0.75538900  0.00000000  0.75586600  1
  C  C22  1  0.75249400  0.50000000  0.24948400  1
  C  C23  1  0.75249400  0.50000000  0.75051600  1
  C  C24  1  0.24649100  0.25061600  0.00000000  1
  C  C25  1  0.24637100  0.27203500  0.50000000  1
  C  C26  1  0.24649100  0.74938400  0.00000000  1
  C  C27  1  0.24637100  0.72796500  0.50000000  1
  C  C28  1  0.75426600  0.24849300  0.00000000  1
  C  C29  1  0.75313600  0.25388200  0.50000000  1
  C  C30  1  0.75426600  0.75150700  0.00000000  1
  C  C31  1  0.75313600  0.74611800  0.50000000  1
  C  C32  1  0.25840800  0.00000000  0.00000000  1
  C  C33  1  0.25393400  0.50000000  0.00000000  1
  C  C34  1  0.26373700  0.50000000  0.50000000  1
  C  C35  1  0.74249100  0.00000000  0.00000000  1
  C  C36  1  0.74867500  0.00000000  0.50000000  1
  C  C37  1  0.74655700  0.50000000  0.00000000  1
  C  C38  1  0.73617800  0.50000000  0.50000000  1
  C  C39  1  0.25046100  0.24482600  0.25510000  1
  C  C40  1  0.25046100  0.24482600  0.74490000  1
  C  C41  1  0.25046100  0.75517400  0.25510000  1
  C  C42  1  0.25046100  0.75517400  0.74490000  1
  C  C43  1  0.74975500  0.24829600  0.25200200  1
  C  C44  1  0.74975500  0.24829600  0.74799800  1
  C  C45  1  0.74975500  0.75170400  0.25200200  1
  C  C46  1  0.74975500  0.75170400  0.74799800  1
  C  C47  1  0.00586300  0.00000000  0.25961200  1
  C  C48  1  0.00586300  0.00000000  0.74038800  1
  C  C49  1  0.00164300  0.50000000  0.23858100  1
  C  C50  1  0.00164300  0.50000000  0.76141900  1
  C  C51  1  0.49281600  0.00000000  0.25700700  1
  C  C52  1  0.49281600  0.00000000  0.74299300  1
  C  C53  1  0.49851600  0.50000000  0.24958300  1
  C  C54  1  0.49851600  0.50000000  0.75041700  1
  C  C55  1  0.00152900  0.25229800  0.00000000  1
  C  C56  1  0.00820300  0.23346600  0.50000000  1
  C  C57  1  0.00152900  0.74770200  0.00000000  1
  C  C58  1  0.00820300  0.76653400  0.50000000  1
  C  C59  1  0.49864900  0.24896500  0.00000000  1
  C  C60  1  0.49278400  0.24152000  0.50000000  1
  C  C61  1  0.49864900  0.75103500  0.00000000  1
  C  C62  1  0.49278400  0.75848000  0.50000000  1
