# generated using pymatgen
data_Cu18Ni54C11
_symmetry_space_group_name_H-M   'P 1'
_cell_length_a   9.14127771
_cell_length_b   19.04981500
_cell_length_c   22.13121647
_cell_angle_alpha   90.00000000
_cell_angle_beta   97.98408754
_cell_angle_gamma   90.00000000
_symmetry_Int_Tables_number   1
_chemical_formula_structural   Cu18Ni54C11
_chemical_formula_sum   'Cu72 Ni216 C44'
_cell_volume   3816.56498235
_cell_formula_units_Z   4
loop_
 _symmetry_equiv_pos_site_id
 _symmetry_equiv_pos_as_xyz
  1  'x, y, z'
loop_
 _atom_site_type_symbol
 _atom_site_label
 _atom_site_symmetry_multiplicity
 _atom_site_fract_x
 _atom_site_fract_y
 _atom_site_fract_z
 _atom_site_occupancy
  C  C0  1  0.25534722  0.24071889  0.10024721  1
  C  C1  1  0.74465278  0.74071889  0.39975279  1
  C  C2  1  0.74465278  0.75928111  0.89975279  1
  C  C3  1  0.25534722  0.25928111  0.60024721  1
  C  C4  1  0.10649015  0.38134103  0.16876163  1
  C  C5  1  0.89350985  0.88134103  0.33123837  1
  C  C6  1  0.89350985  0.61865897  0.83123837  1
  C  C7  1  0.10649015  0.11865897  0.66876163  1
  C  C8  1  0.28245373  0.42220942  0.06670252  1
  C  C9  1  0.71754627  0.92220942  0.43329748  1
  C  C10  1  0.71754627  0.57779058  0.93329748  1
  C  C11  1  0.28245373  0.07779058  0.56670252  1
  C  C12  1  0.99236836  0.20153091  0.97442860  1
  C  C13  1  0.00763164  0.70153091  0.52557140  1
  C  C14  1  0.00763164  0.79846909  0.02557140  1
  C  C15  1  0.99236836  0.29846909  0.47442860  1
  C  C16  1  0.29894251  0.14079276  0.96999709  1
  C  C17  1  0.70105749  0.64079276  0.53000291  1
  C  C18  1  0.70105749  0.85920724  0.03000291  1
  C  C19  1  0.29894251  0.35920724  0.46999709  1
  C  C20  1  0.24749014  0.10093256  0.19819688  1
  C  C21  1  0.75250986  0.60093256  0.30180312  1
  C  C22  1  0.75250986  0.89906744  0.80180312  1
  C  C23  1  0.24749014  0.39906744  0.69819688  1
  C  C24  1  0.52590326  0.18967287  0.22489887  1
  C  C25  1  0.47409674  0.68967287  0.27510113  1
  C  C26  1  0.47409674  0.81032713  0.77510113  1
  C  C27  1  0.52590326  0.31032713  0.72489887  1
  Ni  Ni28  1  0.17106009  0.27150031  0.23222969  1
  Ni  Ni29  1  0.82893991  0.77150031  0.26777031  1
  Ni  Ni30  1  0.82893991  0.72849969  0.76777031  1
  Ni  Ni31  1  0.17106009  0.22849969  0.73222969  1
  Ni  Ni32  1  0.00409198  0.31083835  0.24683244  1
  Ni  Ni33  1  0.99590802  0.81083835  0.25316756  1
  Ni  Ni34  1  0.99590802  0.68916165  0.75316756  1
  Ni  Ni35  1  0.00409198  0.18916165  0.74683244  1
  Ni  Ni36  1  0.00330775  0.25909867  0.18133718  1
  Ni  Ni37  1  0.99669225  0.75909867  0.31866282  1
  Ni  Ni38  1  0.99669225  0.74090133  0.81866282  1
  Ni  Ni39  1  0.00330775  0.24090133  0.68133718  1
  Ni  Ni40  1  0.22735239  0.49483308  0.20816678  1
  Ni  Ni41  1  0.77264761  0.99483308  0.29183322  1
  Ni  Ni42  1  0.77264761  0.50516692  0.79183322  1
  Ni  Ni43  1  0.22735239  0.00516692  0.70816678  1
  Ni  Ni44  1  0.13476171  0.45280041  0.26318864  1
  Ni  Ni45  1  0.86523829  0.95280041  0.23681136  1
  Ni  Ni46  1  0.86523829  0.54719959  0.73681136  1
  Ni  Ni47  1  0.13476171  0.04719959  0.76318864  1
  Ni  Ni48  1  0.31099409  0.42218415  0.24968839  1
  Ni  Ni49  1  0.68900591  0.92218415  0.25031161  1
  Ni  Ni50  1  0.68900591  0.57781585  0.75031161  1
  Ni  Ni51  1  0.31099409  0.07781585  0.74968839  1
  Ni  Ni52  1  0.85222185  0.38711607  0.10800598  1
  Ni  Ni53  1  0.14777815  0.88711607  0.39199402  1
  Ni  Ni54  1  0.14777815  0.61288393  0.89199402  1
  Ni  Ni55  1  0.85222185  0.11288393  0.60800598  1
  Ni  Ni56  1  0.85842886  0.42541079  0.18118728  1
  Ni  Ni57  1  0.14157114  0.92541079  0.31881272  1
  Ni  Ni58  1  0.14157114  0.57458921  0.81881272  1
  Ni  Ni59  1  0.85842886  0.07458921  0.68118728  1
  Ni  Ni60  1  0.92448217  0.47300058  0.12188480  1
  Ni  Ni61  1  0.07551783  0.97300058  0.37811520  1
  Ni  Ni62  1  0.07551783  0.52699942  0.87811520  1
  Ni  Ni63  1  0.92448217  0.02699942  0.62188480  1
  Ni  Ni64  1  0.19628197  0.53669295  0.10947045  1
  Ni  Ni65  1  0.80371803  0.03669295  0.39052955  1
  Ni  Ni66  1  0.80371803  0.46330705  0.89052955  1
  Ni  Ni67  1  0.19628197  0.96330705  0.60947045  1
  Ni  Ni68  1  0.23864236  0.54429249  0.03427149  1
  Ni  Ni69  1  0.76135764  0.04429249  0.46572851  1
  Ni  Ni70  1  0.76135764  0.45570751  0.96572851  1
  Ni  Ni71  1  0.23864236  0.95570751  0.53427149  1
  Ni  Ni72  1  0.06709727  0.50772055  0.04705033  1
  Ni  Ni73  1  0.93290273  0.00772055  0.45294967  1
  Ni  Ni74  1  0.93290273  0.49227945  0.95294967  1
  Ni  Ni75  1  0.06709727  0.99227945  0.54705033  1
  Ni  Ni76  1  0.14736935  0.38484430  0.96552963  1
  Ni  Ni77  1  0.85263065  0.88484430  0.53447037  1
  Ni  Ni78  1  0.85263065  0.61515570  0.03447037  1
  Ni  Ni79  1  0.14736935  0.11515570  0.46552963  1
  Ni  Ni80  1  0.31422561  0.42904628  0.95715281  1
  Ni  Ni81  1  0.68577439  0.92904628  0.54284719  1
  Ni  Ni82  1  0.68577439  0.57095372  0.04284719  1
  Ni  Ni83  1  0.31422561  0.07095372  0.45715281  1
  Ni  Ni84  1  0.31944823  0.34013708  0.98075827  1
  Ni  Ni85  1  0.68055177  0.84013708  0.51924173  1
  Ni  Ni86  1  0.68055177  0.65986292  0.01924173  1
  Ni  Ni87  1  0.31944823  0.15986292  0.48075827  1
  Ni  Ni88  1  0.55249582  0.39417730  0.09021747  1
  Ni  Ni89  1  0.44750418  0.89417730  0.40978253  1
  Ni  Ni90  1  0.44750418  0.60582270  0.90978253  1
  Ni  Ni91  1  0.55249582  0.10582270  0.59021747  1
  Ni  Ni92  1  0.52255024  0.48272596  0.06619235  1
  Ni  Ni93  1  0.47744976  0.98272596  0.43380765  1
  Ni  Ni94  1  0.47744976  0.51727404  0.93380765  1
  Ni  Ni95  1  0.52255024  0.01727404  0.56619235  1
  Ni  Ni96  1  0.50124225  0.45823201  0.14178416  1
  Ni  Ni97  1  0.49875775  0.95823201  0.35821584  1
  Ni  Ni98  1  0.49875775  0.54176799  0.85821584  1
  Ni  Ni99  1  0.50124225  0.04176799  0.64178416  1
  Ni  Ni100  1  0.95274310  0.31681629  0.02718548  1
  Ni  Ni101  1  0.04725690  0.81681629  0.47281452  1
  Ni  Ni102  1  0.04725690  0.68318371  0.97281452  1
  Ni  Ni103  1  0.95274310  0.18318371  0.52718548  1
  Ni  Ni104  1  0.78535620  0.27140710  0.00375386  1
  Ni  Ni105  1  0.21464380  0.77140710  0.49624614  1
  Ni  Ni106  1  0.21464380  0.72859290  0.99624614  1
  Ni  Ni107  1  0.78535620  0.22859290  0.50375386  1
  Ni  Ni108  1  0.89802587  0.24474243  0.07044582  1
  Ni  Ni109  1  0.10197413  0.74474243  0.42955418  1
  Ni  Ni110  1  0.10197413  0.75525757  0.92955418  1
  Ni  Ni111  1  0.89802587  0.25525757  0.57044582  1
  Ni  Ni112  1  0.02249540  0.20754229  0.86259614  1
  Ni  Ni113  1  0.97750460  0.70754229  0.63740386  1
  Ni  Ni114  1  0.97750460  0.79245771  0.13740386  1
  Ni  Ni115  1  0.02249540  0.29245771  0.36259614  1
  Ni  Ni116  1  0.85531921  0.24625912  0.87810305  1
  Ni  Ni117  1  0.14468079  0.74625912  0.62189695  1
  Ni  Ni118  1  0.14468079  0.75374088  0.12189695  1
  Ni  Ni119  1  0.85531921  0.25374088  0.37810305  1
  Ni  Ni120  1  0.02461890  0.29298099  0.89456434  1
  Ni  Ni121  1  0.97538110  0.79298099  0.60543566  1
  Ni  Ni122  1  0.97538110  0.70701901  0.10543566  1
  Ni  Ni123  1  0.02461890  0.20701901  0.39456434  1
  Ni  Ni124  1  0.86983301  0.09543135  0.01326975  1
  Ni  Ni125  1  0.13016699  0.59543135  0.48673025  1
  Ni  Ni126  1  0.13016699  0.90456865  0.98673025  1
  Ni  Ni127  1  0.86983301  0.40456865  0.51326975  1
  Ni  Ni128  1  0.76132816  0.13439772  0.94931659  1
  Ni  Ni129  1  0.23867184  0.63439772  0.55068341  1
  Ni  Ni130  1  0.23867184  0.86560228  0.05068341  1
  Ni  Ni131  1  0.76132816  0.36560228  0.44931659  1
  Ni  Ni132  1  0.91215508  0.07943722  0.93848633  1
  Ni  Ni133  1  0.08784492  0.57943722  0.56151367  1
  Ni  Ni134  1  0.08784492  0.92056278  0.06151367  1
  Ni  Ni135  1  0.91215508  0.42056278  0.43848633  1
  Ni  Ni136  1  0.13039837  0.08554945  0.88153027  1
  Ni  Ni137  1  0.86960163  0.58554945  0.61846973  1
  Ni  Ni138  1  0.86960163  0.91445055  0.11846973  1
  Ni  Ni139  1  0.13039837  0.41445055  0.38153027  1
  Ni  Ni140  1  0.29856959  0.03951123  0.90120574  1
  Ni  Ni141  1  0.70143041  0.53951123  0.59879426  1
  Ni  Ni142  1  0.70143041  0.96048877  0.09879426  1
  Ni  Ni143  1  0.29856959  0.46048877  0.40120574  1
  Ni  Ni144  1  0.15362100  0.02880416  0.94598594  1
  Ni  Ni145  1  0.84637900  0.52880416  0.55401406  1
  Ni  Ni146  1  0.84637900  0.97119584  0.05401406  1
  Ni  Ni147  1  0.15362100  0.47119584  0.44598594  1
  Ni  Ni148  1  0.46883298  0.23724478  0.94521914  1
  Ni  Ni149  1  0.53116702  0.73724478  0.55478086  1
  Ni  Ni150  1  0.53116702  0.76275522  0.05478086  1
  Ni  Ni151  1  0.46883298  0.26275522  0.44521914  1
  Ni  Ni152  1  0.47301555  0.16394983  0.89577167  1
  Ni  Ni153  1  0.52698445  0.66394983  0.60422833  1
  Ni  Ni154  1  0.52698445  0.83605017  0.10422833  1
  Ni  Ni155  1  0.47301555  0.33605017  0.39577167  1
  Ni  Ni156  1  0.32407309  0.22441755  0.88374005  1
  Ni  Ni157  1  0.67592691  0.72441755  0.61625995  1
  Ni  Ni158  1  0.67592691  0.77558245  0.11625995  1
  Ni  Ni159  1  0.32407309  0.27558245  0.38374005  1
  Ni  Ni160  1  0.39004130  0.05766341  0.05447997  1
  Ni  Ni161  1  0.60995870  0.55766341  0.44552003  1
  Ni  Ni162  1  0.60995870  0.94233659  0.94552003  1
  Ni  Ni163  1  0.39004130  0.44233659  0.55447997  1
  Ni  Ni164  1  0.52302453  0.07070928  0.00429288  1
  Ni  Ni165  1  0.47697547  0.57070928  0.49570712  1
  Ni  Ni166  1  0.47697547  0.92929072  0.99570712  1
  Ni  Ni167  1  0.52302453  0.42929072  0.50429288  1
  Ni  Ni168  1  0.50144696  0.13468546  0.06020998  1
  Ni  Ni169  1  0.49855304  0.63468546  0.43979002  1
  Ni  Ni170  1  0.49855304  0.86531454  0.93979002  1
  Ni  Ni171  1  0.50144696  0.36531454  0.56020998  1
  Ni  Ni172  1  0.11328608  0.08599089  0.09086040  1
  Ni  Ni173  1  0.88671392  0.58599089  0.40913960  1
  Ni  Ni174  1  0.88671392  0.91400911  0.90913960  1
  Ni  Ni175  1  0.11328608  0.41400911  0.59086040  1
  Ni  Ni176  1  0.00966605  0.05398872  0.14696462  1
  Ni  Ni177  1  0.99033395  0.55398872  0.35303538  1
  Ni  Ni178  1  0.99033395  0.94601128  0.85303538  1
  Ni  Ni179  1  0.00966605  0.44601128  0.64696462  1
  Ni  Ni180  1  0.01247727  0.14421307  0.13300920  1
  Ni  Ni181  1  0.98752273  0.64421307  0.36699080  1
  Ni  Ni182  1  0.98752273  0.85578693  0.86699080  1
  Ni  Ni183  1  0.01247727  0.35578693  0.63300920  1
  Ni  Ni184  1  0.43616706  0.00729518  0.23485211  1
  Ni  Ni185  1  0.56383294  0.50729518  0.26514789  1
  Ni  Ni186  1  0.56383294  0.99270482  0.76514789  1
  Ni  Ni187  1  0.43616706  0.49270482  0.73485211  1
  Ni  Ni188  1  0.26551182  0.97138080  0.20141092  1
  Ni  Ni189  1  0.73448818  0.47138080  0.29858908  1
  Ni  Ni190  1  0.73448818  0.02861920  0.79858908  1
  Ni  Ni191  1  0.26551182  0.52861920  0.70141092  1
  Ni  Ni192  1  0.39145281  0.00494812  0.15429665  1
  Ni  Ni193  1  0.60854719  0.50494812  0.34570335  1
  Ni  Ni194  1  0.60854719  0.99505188  0.84570335  1
  Ni  Ni195  1  0.39145281  0.49505188  0.65429665  1
  Ni  Ni196  1  0.11829034  0.15767867  0.27934877  1
  Ni  Ni197  1  0.88170966  0.65767867  0.22065123  1
  Ni  Ni198  1  0.88170966  0.84232133  0.72065123  1
  Ni  Ni199  1  0.11829034  0.34232133  0.77934877  1
  Ni  Ni200  1  0.08482744  0.06612265  0.27318781  1
  Ni  Ni201  1  0.91517256  0.56612265  0.22681219  1
  Ni  Ni202  1  0.91517256  0.93387735  0.72681219  1
  Ni  Ni203  1  0.08482744  0.43387735  0.77318781  1
  Ni  Ni204  1  0.25391617  0.09726565  0.31284463  1
  Ni  Ni205  1  0.74608383  0.59726565  0.18715537  1
  Ni  Ni206  1  0.74608383  0.90273435  0.68715537  1
  Ni  Ni207  1  0.25391617  0.40273435  0.81284463  1
  Ni  Ni208  1  0.53456829  0.09371103  0.30535384  1
  Ni  Ni209  1  0.46543171  0.59371103  0.19464616  1
  Ni  Ni210  1  0.46543171  0.90628897  0.69464616  1
  Ni  Ni211  1  0.53456829  0.40628897  0.80535384  1
  Ni  Ni212  1  0.65949938  0.16316801  0.32639301  1
  Ni  Ni213  1  0.34050062  0.66316801  0.17360699  1
  Ni  Ni214  1  0.34050062  0.83683199  0.67360699  1
  Ni  Ni215  1  0.65949938  0.33683199  0.82639301  1
  Ni  Ni216  1  0.46982695  0.17374400  0.33322963  1
  Ni  Ni217  1  0.53017305  0.67374400  0.16677037  1
  Ni  Ni218  1  0.53017305  0.82625600  0.66677037  1
  Ni  Ni219  1  0.46982695  0.32625600  0.83322963  1
  Ni  Ni220  1  0.68907040  0.17756625  0.14311003  1
  Ni  Ni221  1  0.31092960  0.67756625  0.35688997  1
  Ni  Ni222  1  0.31092960  0.82243375  0.85688997  1
  Ni  Ni223  1  0.68907040  0.32243375  0.64311003  1
  Ni  Ni224  1  0.78834384  0.16387082  0.21722397  1
  Ni  Ni225  1  0.21165616  0.66387082  0.28277603  1
  Ni  Ni226  1  0.21165616  0.83612918  0.78277603  1
  Ni  Ni227  1  0.78834384  0.33612918  0.71722397  1
  Ni  Ni228  1  0.67543151  0.09598705  0.18104003  1
  Ni  Ni229  1  0.32456849  0.59598705  0.31895997  1
  Ni  Ni230  1  0.32456849  0.90401295  0.81895997  1
  Ni  Ni231  1  0.67543151  0.40401295  0.68104003  1
  Ni  Ni232  1  0.47306388  0.31129034  0.25967959  1
  Ni  Ni233  1  0.52693612  0.81129034  0.24032041  1
  Ni  Ni234  1  0.52693612  0.68870966  0.74032041  1
  Ni  Ni235  1  0.47306388  0.18870966  0.75967959  1
  Ni  Ni236  1  0.66502523  0.29718585  0.25990195  1
  Ni  Ni237  1  0.33497477  0.79718585  0.24009805  1
  Ni  Ni238  1  0.33497477  0.70281415  0.74009805  1
  Ni  Ni239  1  0.66502523  0.20281415  0.75990195  1
  Ni  Ni240  1  0.55044071  0.31464155  0.19015751  1
  Ni  Ni241  1  0.44955929  0.81464155  0.30984249  1
  Ni  Ni242  1  0.44955929  0.68535845  0.80984249  1
  Ni  Ni243  1  0.55044071  0.18535845  0.69015751  1
  Cu  Cu244  1  0.06994925  0.29770572  0.21040317  1
  Cu  Cu245  1  0.93005075  0.79770572  0.28959683  1
  Cu  Cu246  1  0.93005075  0.70229428  0.78959683  1
  Cu  Cu247  1  0.06994925  0.20229428  0.71040317  1
  Cu  Cu248  1  0.20508090  0.44334397  0.22744385  1
  Cu  Cu249  1  0.79491910  0.94334397  0.27255615  1
  Cu  Cu250  1  0.79491910  0.55665603  0.77255615  1
  Cu  Cu251  1  0.20508090  0.05665603  0.72744385  1
  Cu  Cu252  1  0.91915858  0.42036675  0.14179617  1
  Cu  Cu253  1  0.08084142  0.92036675  0.35820383  1
  Cu  Cu254  1  0.08084142  0.57963325  0.85820383  1
  Cu  Cu255  1  0.91915858  0.07963325  0.64179617  1
  Cu  Cu256  1  0.18529965  0.51015758  0.06494993  1
  Cu  Cu257  1  0.81470035  0.01015758  0.43505007  1
  Cu  Cu258  1  0.81470035  0.48984242  0.93505007  1
  Cu  Cu259  1  0.18529965  0.98984242  0.56494993  1
  Cu  Cu260  1  0.26395258  0.39073954  0.98524992  1
  Cu  Cu261  1  0.73604742  0.89073954  0.51475008  1
  Cu  Cu262  1  0.73604742  0.60926046  0.01475008  1
  Cu  Cu263  1  0.26395258  0.10926046  0.48524992  1
  Cu  Cu264  1  0.48322536  0.44070025  0.09399258  1
  Cu  Cu265  1  0.51677464  0.94070025  0.40600742  1
  Cu  Cu266  1  0.51677464  0.55929975  0.90600742  1
  Cu  Cu267  1  0.48322536  0.05929975  0.59399258  1
  Cu  Cu268  1  0.90148619  0.26443859  0.02383960  1
  Cu  Cu269  1  0.09851381  0.76443859  0.47616040  1
  Cu  Cu270  1  0.09851381  0.73556141  0.97616040  1
  Cu  Cu271  1  0.90148619  0.23556141  0.52383960  1
  Cu  Cu272  1  0.97381000  0.24070063  0.89525730  1
  Cu  Cu273  1  0.02619000  0.74070063  0.60474270  1
  Cu  Cu274  1  0.02619000  0.75929937  0.10474270  1
  Cu  Cu275  1  0.97381000  0.25929937  0.39525730  1
  Cu  Cu276  1  0.87479770  0.11963087  0.96851732  1
  Cu  Cu277  1  0.12520230  0.61963087  0.53148268  1
  Cu  Cu278  1  0.12520230  0.88036913  0.03148268  1
  Cu  Cu279  1  0.87479770  0.38036913  0.46851732  1
  Cu  Cu280  1  0.20985861  0.06735255  0.92031334  1
  Cu  Cu281  1  0.79014139  0.56735255  0.57968666  1
  Cu  Cu282  1  0.79014139  0.93264745  0.07968666  1
  Cu  Cu283  1  0.20985861  0.43264745  0.42031334  1
  Cu  Cu284  1  0.39988355  0.19725948  0.91912457  1
  Cu  Cu285  1  0.60011645  0.69725948  0.58087543  1
  Cu  Cu286  1  0.60011645  0.80274052  0.08087543  1
  Cu  Cu287  1  0.39988355  0.30274052  0.41912457  1
  Cu  Cu288  1  0.44084420  0.09742187  0.02800500  1
  Cu  Cu289  1  0.55915580  0.59742187  0.47199500  1
  Cu  Cu290  1  0.55915580  0.90257813  0.97199500  1
  Cu  Cu291  1  0.44084420  0.40257813  0.52800500  1
  Cu  Cu292  1  0.08263001  0.09680283  0.13628328  1
  Cu  Cu293  1  0.91736999  0.59680283  0.36371672  1
  Cu  Cu294  1  0.91736999  0.90319717  0.86371672  1
  Cu  Cu295  1  0.08263001  0.40319717  0.63628328  1
  Cu  Cu296  1  0.34551207  0.01369334  0.19700044  1
  Cu  Cu297  1  0.65448793  0.51369334  0.30299956  1
  Cu  Cu298  1  0.65448793  0.98630666  0.80299956  1
  Cu  Cu299  1  0.34551207  0.48630666  0.69700044  1
  Cu  Cu300  1  0.17040405  0.10673789  0.27289161  1
  Cu  Cu301  1  0.82959595  0.60673789  0.22710839  1
  Cu  Cu302  1  0.82959595  0.89326211  0.72710839  1
  Cu  Cu303  1  0.17040405  0.39326211  0.77289161  1
  Cu  Cu304  1  0.54656792  0.15112199  0.30444549  1
  Cu  Cu305  1  0.45343208  0.65112199  0.19555451  1
  Cu  Cu306  1  0.45343208  0.84887801  0.69555451  1
  Cu  Cu307  1  0.54656792  0.34887801  0.80444549  1
  Cu  Cu308  1  0.68342741  0.15312960  0.18775461  1
  Cu  Cu309  1  0.31657259  0.65312960  0.31224539  1
  Cu  Cu310  1  0.31657259  0.84687040  0.81224539  1
  Cu  Cu311  1  0.68342741  0.34687040  0.68775461  1
  Cu  Cu312  1  0.55503597  0.28725668  0.23411619  1
  Cu  Cu313  1  0.44496403  0.78725668  0.26588381  1
  Cu  Cu314  1  0.44496403  0.71274332  0.76588381  1
  Cu  Cu315  1  0.55503597  0.21274332  0.73411619  1
  C  C316  1  0.21028740  0.35760935  0.11125408  1
  C  C317  1  0.78971260  0.85760935  0.38874592  1
  C  C318  1  0.78971260  0.64239065  0.88874592  1
  C  C319  1  0.21028740  0.14239065  0.61125408  1
  C  C320  1  0.17566977  0.18890076  0.00827231  1
  C  C321  1  0.82433023  0.68890076  0.49172769  1
  C  C322  1  0.82433023  0.81109924  0.99172769  1
  C  C323  1  0.17566977  0.31109924  0.50827231  1
  C  C324  1  0.35264701  0.17351543  0.18140710  1
  C  C325  1  0.64735299  0.67351543  0.31859290  1
  C  C326  1  0.64735299  0.82648457  0.81859290  1
  C  C327  1  0.35264701  0.32648457  0.68140710  1
  C  C328  1  0.46138736  0.26464742  0.07589009  1
  C  C329  1  0.53861264  0.76464742  0.42410991  1
  C  C330  1  0.53861264  0.73535258  0.92410991  1
  C  C331  1  0.46138736  0.23535258  0.57589009  1
