# generated using pymatgen
data_Cu(NiC9)2
_symmetry_space_group_name_H-M   'P 1'
_cell_length_a   8.34128655
_cell_length_b   8.34128655
_cell_length_c   8.81443501
_cell_angle_alpha   74.94332140
_cell_angle_beta   74.94332140
_cell_angle_gamma   77.67585520
_symmetry_Int_Tables_number   1
_chemical_formula_structural   Cu(NiC9)2
_chemical_formula_sum   'Cu2 Ni4 C36'
_cell_volume   564.84757662
_cell_formula_units_Z   2
loop_
 _symmetry_equiv_pos_site_id
 _symmetry_equiv_pos_as_xyz
  1  'x, y, z'
loop_
 _atom_site_type_symbol
 _atom_site_label
 _atom_site_symmetry_multiplicity
 _atom_site_fract_x
 _atom_site_fract_y
 _atom_site_fract_z
 _atom_site_occupancy
  C  C0  1  0.12837400  0.87162600  0.25000000  1
  C  C1  1  0.87162600  0.12837400  0.75000000  1
  Ni  Ni2  1  0.40118500  0.24684600  0.07878300  1
  Ni  Ni3  1  0.59881500  0.75315400  0.92121700  1
  Ni  Ni4  1  0.75315400  0.59881500  0.42121700  1
  Ni  Ni5  1  0.24684600  0.40118500  0.57878300  1
  Cu  Cu6  1  0.76418500  0.23581500  0.25000000  1
  Cu  Cu7  1  0.23581500  0.76418500  0.75000000  1
  C  C8  1  0.66451500  0.92373100  0.16810900  1
  C  C9  1  0.33548500  0.07626900  0.83189100  1
  C  C10  1  0.07626900  0.33548500  0.33189100  1
  C  C11  1  0.92373100  0.66451500  0.66810900  1
  C  C12  1  0.49880100  0.50119900  0.25000000  1
  C  C13  1  0.50119900  0.49880100  0.75000000  1
  C  C14  1  0.47401900  0.65257600  0.10984000  1
  C  C15  1  0.52598100  0.34742400  0.89016000  1
  C  C16  1  0.34742400  0.52598100  0.39016000  1
  C  C17  1  0.65257600  0.47401900  0.60984000  1
  C  C18  1  0.52012800  0.33109200  0.19834300  1
  C  C19  1  0.47987200  0.66890800  0.80165700  1
  C  C20  1  0.66890800  0.47987200  0.30165700  1
  C  C21  1  0.33109200  0.52012800  0.69834300  1
  C  C22  1  0.80785400  0.01765400  0.16818900  1
  C  C23  1  0.19214600  0.98234600  0.83181100  1
  C  C24  1  0.98234600  0.19214600  0.33181100  1
  C  C25  1  0.01765400  0.80785400  0.66818900  1
  C  C26  1  0.49460200  0.04051900  0.16499400  1
  C  C27  1  0.50539800  0.95948100  0.83500600  1
  C  C28  1  0.95948100  0.50539800  0.33500600  1
  C  C29  1  0.04051900  0.49460200  0.66499400  1
  C  C30  1  0.72164300  0.84292600  0.02027700  1
  C  C31  1  0.27835700  0.15707400  0.97972300  1
  C  C32  1  0.15707400  0.27835700  0.47972300  1
  C  C33  1  0.84292600  0.72164300  0.52027700  1
  C  C34  1  0.71155600  0.13113000  0.47138800  1
  C  C35  1  0.28844400  0.86887000  0.52861200  1
  C  C36  1  0.86887000  0.28844400  0.02861200  1
  C  C37  1  0.13113000  0.71155600  0.97138800  1
  C  C38  1  0.63851800  0.78969900  0.32674300  1
  C  C39  1  0.36148200  0.21030100  0.67325700  1
  C  C40  1  0.21030100  0.36148200  0.17325700  1
  C  C41  1  0.78969900  0.63851800  0.82674300  1
