# generated using pymatgen
data_Cu3Ni2C3
_symmetry_space_group_name_H-M   'P 1'
_cell_length_a   6.79382300
_cell_length_b   7.99981046
_cell_length_c   8.33877679
_cell_angle_alpha   111.17266999
_cell_angle_beta   95.33130349
_cell_angle_gamma   113.98223551
_symmetry_Int_Tables_number   1
_chemical_formula_structural   Cu3Ni2C3
_chemical_formula_sum   'Cu12 Ni8 C12'
_cell_volume   370.53113637
_cell_formula_units_Z   4
loop_
 _symmetry_equiv_pos_site_id
 _symmetry_equiv_pos_as_xyz
  1  'x, y, z'
loop_
 _atom_site_type_symbol
 _atom_site_label
 _atom_site_symmetry_multiplicity
 _atom_site_fract_x
 _atom_site_fract_y
 _atom_site_fract_z
 _atom_site_occupancy
  C  C0  1  0.76331600  0.39503000  0.20255300  1
  C  C1  1  0.23510200  0.59761900  0.79476700  1
  C  C2  1  0.36153900  0.88803300  0.25345100  1
  C  C3  1  0.62488200  0.10241400  0.74529600  1
  C  C4  1  0.14289300  0.18899700  0.90103000  1
  C  C5  1  0.86575600  0.81336900  0.08008600  1
  C  C6  1  0.90886000  0.84081000  0.63320200  1
  C  C7  1  0.09400400  0.15320900  0.35364700  1
  C  C8  1  0.40456300  0.60771600  0.26853000  1
  C  C9  1  0.59576500  0.38369800  0.72133800  1
  C  C10  1  0.49360600  0.99244100  0.49808800  1
  C  C11  1  0.01503100  0.00331000  0.99018500  1
  Ni  Ni12  1  0.08271900  0.04161300  0.87362900  1
  Ni  Ni13  1  0.93567400  0.96084200  0.10902300  1
  Ni  Ni14  1  0.88232500  0.94422800  0.72429000  1
  Ni  Ni15  1  0.12373400  0.05012600  0.26597900  1
  Ni  Ni16  1  0.51712400  0.75154400  0.31142100  1
  Ni  Ni17  1  0.47844200  0.24157700  0.68038100  1
  Ni  Ni18  1  0.37713100  0.85043700  0.35419200  1
  Ni  Ni19  1  0.61228300  0.13604100  0.64151000  1
  Cu  Cu20  1  0.05843800  0.42034600  0.24189200  1
  Cu  Cu21  1  0.93913600  0.57094800  0.75686200  1
  Cu  Cu22  1  0.84960000  0.62445900  0.42874900  1
  Cu  Cu23  1  0.14759100  0.36708800  0.56981400  1
  Cu  Cu24  1  0.46422300  0.36292900  0.15403100  1
  Cu  Cu25  1  0.53436300  0.63091900  0.84321700  1
  Cu  Cu26  1  0.68112000  0.16979300  0.97231700  1
  Cu  Cu27  1  0.31541800  0.82315600  0.02384400  1
  Cu  Cu28  1  0.67459500  0.21456600  0.31219100  1
  Cu  Cu29  1  0.32193100  0.77736800  0.68426300  1
  Cu  Cu30  1  0.84541000  0.57969200  0.09310400  1
  Cu  Cu31  1  0.15542500  0.41368200  0.90611700  1
