# generated using pymatgen
data_Cu5NiC36
_symmetry_space_group_name_H-M   'P 1'
_cell_length_a   7.90381260
_cell_length_b   7.50171800
_cell_length_c   10.23071120
_cell_angle_alpha   107.71769929
_cell_angle_beta   86.92378155
_cell_angle_gamma   94.18301476
_symmetry_Int_Tables_number   1
_chemical_formula_structural   Cu5NiC36
_chemical_formula_sum   'Cu5 Ni1 C36'
_cell_volume   575.97307109
_cell_formula_units_Z   1
loop_
 _symmetry_equiv_pos_site_id
 _symmetry_equiv_pos_as_xyz
  1  'x, y, z'
loop_
 _atom_site_type_symbol
 _atom_site_label
 _atom_site_symmetry_multiplicity
 _atom_site_fract_x
 _atom_site_fract_y
 _atom_site_fract_z
 _atom_site_occupancy
  Ni  Ni0  1  0.58853776  0.85340381  0.58780225  1
  Cu  Cu1  1  0.23557385  0.88414698  0.59212071  1
  Cu  Cu2  1  0.24663359  0.84403587  0.05659395  1
  Cu  Cu3  1  0.50515101  0.50877383  0.99470734  1
  Cu  Cu4  1  0.76789312  0.17359094  0.94035362  1
  Cu  Cu5  1  0.73795907  0.11084873  0.38372710  1
  C  C6  1  0.15366612  0.23547533  0.02273675  1
  C  C7  1  0.13695531  0.18852393  0.30177516  1
  C  C8  1  0.33771145  0.58309357  0.73934497  1
  C  C9  1  0.44261632  0.74014407  0.30883379  1
  C  C10  1  0.55992535  0.25300418  0.68350084  1
  C  C11  1  0.65242417  0.40637769  0.24688991  1
  C  C12  1  0.86166882  0.81801328  0.70999502  1
  C  C13  1  0.85527936  0.77614348  0.98443735  1
  C  C14  1  0.02592320  0.74308390  0.03892528  1
  C  C15  1  0.96238956  0.09461114  0.33358843  1
  C  C16  1  0.16300970  0.49856054  0.72982705  1
  C  C17  1  0.10389293  0.28434247  0.18212429  1
  C  C18  1  0.29124867  0.37823684  0.00143043  1
  C  C19  1  0.20551405  0.33112999  0.42490929  1
  C  C20  1  0.38645834  0.73039254  0.66317187  1
  C  C21  1  0.28201353  0.78089166  0.39632322  1
  C  C22  1  0.39476970  0.66986214  0.89513886  1
  C  C23  1  0.43212018  0.08194710  0.64952748  1
  C  C24  1  0.21491506  0.03580782  0.96714112  1
  C  C25  1  0.41896317  0.72866053  0.15698941  1
  C  C26  1  0.25527229  0.02938773  0.23015801  1
  C  C27  1  0.48082073  0.43237402  0.66871672  1
  C  C28  1  0.48967561  0.53378303  0.30441747  1
  C  C29  1  0.72764214  0.97033803  0.77438855  1
  C  C30  1  0.61381142  0.30859522  0.83614522  1
  C  C31  1  0.80668209  0.98077970  0.03370527  1
  C  C32  1  0.59477001  0.87224405  0.38131806  1
  C  C33  1  0.61696917  0.32567210  0.08794410  1
  C  C34  1  0.71347180  0.20724453  0.58440017  1
  C  C35  1  0.60696161  0.24349477  0.30975629  1
  C  C36  1  0.77866911  0.69160877  0.58292094  1
  C  C37  1  0.71964504  0.64398982  0.02128075  1
  C  C38  1  0.87495274  0.70705605  0.82023759  1
  C  C39  1  0.81743793  0.51145337  0.27999541  1
  C  C40  1  0.03019007  0.91789361  0.69367997  1
  C  C41  1  0.99017086  0.26598283  0.95526996  1
