# generated using pymatgen
data_Cu5Ni8C7
_symmetry_space_group_name_H-M   'P 1'
_cell_length_a   7.34692800
_cell_length_b   7.76639300
_cell_length_c   16.56880600
_cell_angle_alpha   90.00000000
_cell_angle_beta   90.00000000
_cell_angle_gamma   90.00000000
_symmetry_Int_Tables_number   1
_chemical_formula_structural   Cu5Ni8C7
_chemical_formula_sum   'Cu10 Ni16 C14'
_cell_volume   945.40165866
_cell_formula_units_Z   2
loop_
 _symmetry_equiv_pos_site_id
 _symmetry_equiv_pos_as_xyz
  1  'x, y, z'
loop_
 _atom_site_type_symbol
 _atom_site_label
 _atom_site_symmetry_multiplicity
 _atom_site_fract_x
 _atom_site_fract_y
 _atom_site_fract_z
 _atom_site_occupancy
  C  C0  1  0.77023100  0.07537000  0.39460600  1
  C  C1  1  0.77023100  0.92463000  0.60539400  1
  C  C2  1  0.27023100  0.42463000  0.89460600  1
  C  C3  1  0.27023100  0.57537000  0.10539400  1
  C  C4  1  0.72776800  0.13609800  0.13670700  1
  C  C5  1  0.72776800  0.86390200  0.86329300  1
  C  C6  1  0.22776800  0.36390200  0.63670700  1
  C  C7  1  0.22776800  0.63609800  0.36329300  1
  Ni  Ni8  1  0.50221600  0.17061900  0.37415400  1
  Ni  Ni9  1  0.50221600  0.82938100  0.62584600  1
  Ni  Ni10  1  0.00221600  0.32938100  0.87415400  1
  Ni  Ni11  1  0.00221600  0.67061900  0.12584600  1
  Ni  Ni12  1  0.40369100  0.26897400  0.35147900  1
  Ni  Ni13  1  0.40369100  0.73102600  0.64852100  1
  Ni  Ni14  1  0.90369100  0.23102600  0.85147900  1
  Ni  Ni15  1  0.90369100  0.76897400  0.14852100  1
  Ni  Ni16  1  0.87537000  0.26136100  0.38301400  1
  Ni  Ni17  1  0.87537000  0.73863900  0.61698600  1
  Ni  Ni18  1  0.37537000  0.23863900  0.88301400  1
  Ni  Ni19  1  0.37537000  0.76136100  0.11698600  1
  Ni  Ni20  1  0.86413400  0.90702000  0.32853900  1
  Ni  Ni21  1  0.86413400  0.09298000  0.67146100  1
  Ni  Ni22  1  0.36413400  0.59298000  0.82853900  1
  Ni  Ni23  1  0.36413400  0.40702000  0.17146100  1
  C  C24  1  0.20286400  0.00000000  0.50000000  1
  C  C25  1  0.70286400  0.50000000  0.00000000  1
  C  C26  1  0.77785000  0.70823200  0.33553000  1
  C  C27  1  0.77785000  0.29176800  0.66447000  1
  C  C28  1  0.27785000  0.79176800  0.83553000  1
  C  C29  1  0.27785000  0.20823200  0.16447000  1
  Cu  Cu30  1  0.70610600  0.00000000  0.50000000  1
  Cu  Cu31  1  0.20610600  0.50000000  0.00000000  1
  Cu  Cu32  1  0.77694100  0.21233900  0.19420200  1
  Cu  Cu33  1  0.77694100  0.78766100  0.80579800  1
  Cu  Cu34  1  0.27694000  0.28766100  0.69420200  1
  Cu  Cu35  1  0.27694000  0.71233900  0.30579800  1
  Cu  Cu36  1  0.67911400  0.05663200  0.08059800  1
  Cu  Cu37  1  0.67911400  0.94336800  0.91940200  1
  Cu  Cu38  1  0.17911400  0.44336800  0.58059800  1
  Cu  Cu39  1  0.17911400  0.55663200  0.41940200  1
