# generated using pymatgen
data_Cu3NiC
_symmetry_space_group_name_H-M   'P 1'
_cell_length_a   4.61707200
_cell_length_b   17.35766700
_cell_length_c   18.35850200
_cell_angle_alpha   90.00000000
_cell_angle_beta   90.00000000
_cell_angle_gamma   90.00000000
_symmetry_Int_Tables_number   1
_chemical_formula_structural   Cu3NiC
_chemical_formula_sum   'Cu24 Ni8 C8'
_cell_volume   1471.27969251
_cell_formula_units_Z   8
loop_
 _symmetry_equiv_pos_site_id
 _symmetry_equiv_pos_as_xyz
  1  'x, y, z'
loop_
 _atom_site_type_symbol
 _atom_site_label
 _atom_site_symmetry_multiplicity
 _atom_site_fract_x
 _atom_site_fract_y
 _atom_site_fract_z
 _atom_site_occupancy
  C  C0  1  0.25835000  0.54015100  0.66629400  1
  C  C1  1  0.75835000  0.95984900  0.33370600  1
  C  C2  1  0.74165000  0.04015100  0.83370600  1
  C  C3  1  0.24165000  0.45984900  0.16629400  1
  C  C4  1  0.26257400  0.39602700  0.90450300  1
  C  C5  1  0.76257400  0.10397300  0.09549700  1
  C  C6  1  0.73742600  0.89602700  0.59549700  1
  C  C7  1  0.23742600  0.60397300  0.40450300  1
  Ni  Ni8  1  0.77540400  0.28117600  0.69955000  1
  Ni  Ni9  1  0.27540400  0.21882400  0.30045000  1
  Ni  Ni10  1  0.22459600  0.78117600  0.80045000  1
  Ni  Ni11  1  0.72459600  0.71882400  0.19955000  1
  Ni  Ni12  1  0.72912400  0.63230900  0.97091800  1
  Ni  Ni13  1  0.22912400  0.86769100  0.02908200  1
  Ni  Ni14  1  0.27087600  0.13230900  0.52908200  1
  Ni  Ni15  1  0.77087600  0.36769100  0.47091800  1
  Cu  Cu16  1  0.75214500  0.47510200  0.02538500  1
  Cu  Cu17  1  0.25214500  0.02489800  0.97461500  1
  Cu  Cu18  1  0.24785500  0.97510200  0.47461500  1
  Cu  Cu19  1  0.74785500  0.52489800  0.52538500  1
  Cu  Cu20  1  0.69154500  0.28832400  0.19185200  1
  Cu  Cu21  1  0.19154500  0.21167600  0.80814800  1
  Cu  Cu22  1  0.30845500  0.78832400  0.30814800  1
  Cu  Cu23  1  0.80845500  0.71167600  0.69185200  1
  Cu  Cu24  1  0.27951200  0.68116500  0.09196300  1
  Cu  Cu25  1  0.77951200  0.81883500  0.90803700  1
  Cu  Cu26  1  0.72048800  0.18116500  0.40803700  1
  Cu  Cu27  1  0.22048800  0.31883500  0.59196300  1
  Cu  Cu28  1  0.21284500  0.73680800  0.55867700  1
  Cu  Cu29  1  0.71284500  0.76319200  0.44132300  1
  Cu  Cu30  1  0.78715500  0.23680800  0.94132300  1
  Cu  Cu31  1  0.28715500  0.26319200  0.05867700  1
  Cu  Cu32  1  0.23819200  0.39730600  0.36839400  1
  Cu  Cu33  1  0.73819200  0.10269400  0.63160600  1
  Cu  Cu34  1  0.76180800  0.89730600  0.13160600  1
  Cu  Cu35  1  0.26180800  0.60269400  0.86839400  1
  Cu  Cu36  1  0.73908900  0.56704200  0.26702700  1
  Cu  Cu37  1  0.23908900  0.93295800  0.73297300  1
  Cu  Cu38  1  0.26091100  0.06704200  0.23297300  1
  Cu  Cu39  1  0.76091100  0.43295800  0.76702700  1
