# generated using pymatgen
data_CuNiC12
_symmetry_space_group_name_H-M   'P 1'
_cell_length_a   7.47337150
_cell_length_b   8.19668859
_cell_length_c   8.78743918
_cell_angle_alpha   62.86723388
_cell_angle_beta   76.42233297
_cell_angle_gamma   82.22718547
_symmetry_Int_Tables_number   1
_chemical_formula_structural   CuNiC12
_chemical_formula_sum   'Cu2 Ni2 C24'
_cell_volume   465.41801932
_cell_formula_units_Z   2
loop_
 _symmetry_equiv_pos_site_id
 _symmetry_equiv_pos_as_xyz
  1  'x, y, z'
loop_
 _atom_site_type_symbol
 _atom_site_label
 _atom_site_symmetry_multiplicity
 _atom_site_fract_x
 _atom_site_fract_y
 _atom_site_fract_z
 _atom_site_occupancy
  Ni  Ni0  1  0.31816200  0.17413400  0.16138700  1
  Ni  Ni1  1  0.68183800  0.82586600  0.83861300  1
  Cu  Cu2  1  0.00000000  0.00000000  0.50000000  1
  Cu  Cu3  1  0.00000000  0.00000000  0.00000000  1
  C  C4  1  0.27885700  0.20601000  0.60256900  1
  C  C5  1  0.72114300  0.79399000  0.39743100  1
  C  C6  1  0.25127400  0.64542400  0.76701300  1
  C  C7  1  0.74872600  0.35457600  0.23298700  1
  C  C8  1  0.69431000  0.28347700  0.78565100  1
  C  C9  1  0.30569000  0.71652300  0.21434900  1
  C  C10  1  0.13966300  0.22272800  0.44282700  1
  C  C11  1  0.86033700  0.77727200  0.55717300  1
  C  C12  1  0.07828600  0.22189700  0.77183700  1
  C  C13  1  0.92171400  0.77810300  0.22816300  1
  C  C14  1  0.31574400  0.44833000  0.50772400  1
  C  C15  1  0.68425600  0.55167000  0.49227600  1
  C  C16  1  0.09076800  0.85791400  0.72975900  1
  C  C17  1  0.90923200  0.14208600  0.27024100  1
  C  C18  1  0.21526500  0.55983200  0.00099500  1
  C  C19  1  0.78473500  0.44016800  0.99900500  1
  C  C20  1  0.46884000  0.76716900  0.68562300  1
  C  C21  1  0.53116000  0.23283100  0.31437700  1
  C  C22  1  0.72841100  0.06702300  0.98674000  1
  C  C23  1  0.27158900  0.93297700  0.01326000  1
  C  C24  1  0.66993900  0.16362600  0.65917100  1
  C  C25  1  0.33006100  0.83637400  0.34082900  1
  C  C26  1  0.44917400  0.32343700  0.86299500  1
  C  C27  1  0.55082600  0.67656300  0.13700500  1
