# generated using pymatgen
data_Cu3Ni3C
_symmetry_space_group_name_H-M   'P 1'
_cell_length_a   10.93543600
_cell_length_b   10.93543600
_cell_length_c   10.93543600
_cell_angle_alpha   90.00000000
_cell_angle_beta   90.00000000
_cell_angle_gamma   90.00000000
_symmetry_Int_Tables_number   1
_chemical_formula_structural   Cu3Ni3C
_chemical_formula_sum   'Cu24 Ni24 C8'
_cell_volume   1307.70055970
_cell_formula_units_Z   8
loop_
 _symmetry_equiv_pos_site_id
 _symmetry_equiv_pos_as_xyz
  1  'x, y, z'
loop_
 _atom_site_type_symbol
 _atom_site_label
 _atom_site_symmetry_multiplicity
 _atom_site_fract_x
 _atom_site_fract_y
 _atom_site_fract_z
 _atom_site_occupancy
  C  C0  1  0.50000000  0.50000000  0.00000000  1
  C  C1  1  0.50000000  0.00000000  0.50000000  1
  C  C2  1  0.00000000  0.50000000  0.50000000  1
  C  C3  1  0.00000000  0.00000000  0.00000000  1
  C  C4  1  0.00000000  0.00000000  0.50000000  1
  C  C5  1  0.00000000  0.50000000  0.00000000  1
  C  C6  1  0.50000000  0.00000000  0.00000000  1
  C  C7  1  0.50000000  0.50000000  0.50000000  1
  Ni  Ni8  1  0.43197800  0.58450400  0.63922900  1
  Ni  Ni9  1  0.56802200  0.08450400  0.86077100  1
  Ni  Ni10  1  0.06802200  0.41549600  0.13922900  1
  Ni  Ni11  1  0.93197800  0.91549600  0.36077100  1
  Ni  Ni12  1  0.63922900  0.43197800  0.58450400  1
  Ni  Ni13  1  0.86077100  0.56802200  0.08450400  1
  Ni  Ni14  1  0.13922900  0.06802200  0.41549600  1
  Ni  Ni15  1  0.36077100  0.93197800  0.91549600  1
  Ni  Ni16  1  0.58450400  0.63922900  0.43197800  1
  Ni  Ni17  1  0.08450400  0.86077100  0.56802200  1
  Ni  Ni18  1  0.41549600  0.13922900  0.06802200  1
  Ni  Ni19  1  0.91549600  0.36077100  0.93197800  1
  Ni  Ni20  1  0.56802200  0.41549600  0.36077100  1
  Ni  Ni21  1  0.43197800  0.91549600  0.13922900  1
  Ni  Ni22  1  0.93197800  0.58450400  0.86077100  1
  Ni  Ni23  1  0.06802200  0.08450400  0.63922900  1
  Ni  Ni24  1  0.36077100  0.56802200  0.41549600  1
  Ni  Ni25  1  0.13922900  0.43197800  0.91549600  1
  Ni  Ni26  1  0.86077100  0.93197800  0.58450400  1
  Ni  Ni27  1  0.63922900  0.06802200  0.08450400  1
  Ni  Ni28  1  0.41549600  0.36077100  0.56802200  1
  Ni  Ni29  1  0.91549600  0.13922900  0.43197800  1
  Ni  Ni30  1  0.58450400  0.86077100  0.93197800  1
  Ni  Ni31  1  0.08450400  0.63922900  0.06802200  1
  Cu  Cu32  1  0.57750600  0.68176600  0.28644500  1
  Cu  Cu33  1  0.42249400  0.18176600  0.21355500  1
  Cu  Cu34  1  0.92249400  0.31823400  0.78644500  1
  Cu  Cu35  1  0.07750600  0.81823400  0.71355500  1
  Cu  Cu36  1  0.28644500  0.57750600  0.68176600  1
  Cu  Cu37  1  0.21355500  0.42249400  0.18176600  1
  Cu  Cu38  1  0.78644500  0.92249400  0.31823400  1
  Cu  Cu39  1  0.71355500  0.07750600  0.81823400  1
  Cu  Cu40  1  0.68176600  0.28644500  0.57750600  1
  Cu  Cu41  1  0.18176600  0.21355500  0.42249400  1
  Cu  Cu42  1  0.31823400  0.78644500  0.92249400  1
  Cu  Cu43  1  0.81823400  0.71355500  0.07750600  1
  Cu  Cu44  1  0.42249400  0.31823400  0.71355500  1
  Cu  Cu45  1  0.57750600  0.81823400  0.78644500  1
  Cu  Cu46  1  0.07750600  0.68176600  0.21355500  1
  Cu  Cu47  1  0.92249400  0.18176600  0.28644500  1
  Cu  Cu48  1  0.71355500  0.42249400  0.31823400  1
  Cu  Cu49  1  0.78644500  0.57750600  0.81823400  1
  Cu  Cu50  1  0.21355500  0.07750600  0.68176600  1
  Cu  Cu51  1  0.28644500  0.92249400  0.18176600  1
  Cu  Cu52  1  0.31823400  0.71355500  0.42249400  1
  Cu  Cu53  1  0.81823400  0.78644500  0.57750600  1
  Cu  Cu54  1  0.68176600  0.21355500  0.07750600  1
  Cu  Cu55  1  0.18176600  0.28644500  0.92249400  1
