# generated using pymatgen
data_Cu2NiC8
_symmetry_space_group_name_H-M   'P 1'
_cell_length_a   6.66902700
_cell_length_b   7.36741900
_cell_length_c   13.03051945
_cell_angle_alpha   62.42848616
_cell_angle_beta   90.00000000
_cell_angle_gamma   90.00000000
_symmetry_Int_Tables_number   1
_chemical_formula_structural   Cu2NiC8
_chemical_formula_sum   'Cu8 Ni4 C32'
_cell_volume   567.52616200
_cell_formula_units_Z   4
loop_
 _symmetry_equiv_pos_site_id
 _symmetry_equiv_pos_as_xyz
  1  'x, y, z'
loop_
 _atom_site_type_symbol
 _atom_site_label
 _atom_site_symmetry_multiplicity
 _atom_site_fract_x
 _atom_site_fract_y
 _atom_site_fract_z
 _atom_site_occupancy
  C  C0  1  0.35416300  0.74238500  0.52587800  1
  C  C1  1  0.64583700  0.25761500  0.47412200  1
  C  C2  1  0.85416300  0.25761500  0.97412200  1
  C  C3  1  0.14583700  0.74238500  0.02587800  1
  Ni  Ni4  1  0.40016400  0.71306800  0.26915200  1
  Ni  Ni5  1  0.59983600  0.28693200  0.73084800  1
  Ni  Ni6  1  0.90016400  0.28693200  0.23084800  1
  Ni  Ni7  1  0.09983600  0.71306800  0.76915200  1
  Cu  Cu8  1  0.65806800  0.71136400  0.04701300  1
  Cu  Cu9  1  0.34193200  0.28863600  0.95298700  1
  Cu  Cu10  1  0.15806800  0.28863600  0.45298700  1
  Cu  Cu11  1  0.84193200  0.71136400  0.54701300  1
  Cu  Cu12  1  0.91076700  0.80110400  0.28227500  1
  Cu  Cu13  1  0.08923300  0.19889600  0.71772500  1
  Cu  Cu14  1  0.41076700  0.19889600  0.21772500  1
  Cu  Cu15  1  0.58923300  0.80110400  0.78227500  1
  C  C16  1  0.37309200  0.93213900  0.30453100  1
  C  C17  1  0.62690800  0.06786100  0.69546900  1
  C  C18  1  0.87309200  0.06786100  0.19546900  1
  C  C19  1  0.12690800  0.93213900  0.80453100  1
  C  C20  1  0.82429700  0.90893300  0.02242400  1
  C  C21  1  0.17570300  0.09106700  0.97757600  1
  C  C22  1  0.32429700  0.09106700  0.47757600  1
  C  C23  1  0.67570300  0.90893300  0.52242400  1
  C  C24  1  0.60873400  0.27592100  0.27928900  1
  C  C25  1  0.39126600  0.72407900  0.72071100  1
  C  C26  1  0.10873400  0.72407900  0.22071100  1
  C  C27  1  0.89126600  0.27592100  0.77928900  1
  C  C28  1  0.99693300  0.74869400  0.42600000  1
  C  C29  1  0.00306700  0.25130600  0.57400000  1
  C  C30  1  0.49693300  0.25130600  0.07400000  1
  C  C31  1  0.50306700  0.74869400  0.92600000  1
  C  C32  1  0.44746400  0.70310300  0.13043500  1
  C  C33  1  0.55253600  0.29689700  0.86956500  1
  C  C34  1  0.94746400  0.29689700  0.36956500  1
  C  C35  1  0.05253600  0.70310300  0.63043500  1
  C  C36  1  0.83838800  0.51053800  0.08146300  1
  C  C37  1  0.16161200  0.48946200  0.91853700  1
  C  C38  1  0.33838800  0.48946200  0.41853700  1
  C  C39  1  0.66161200  0.51053800  0.58146300  1
  C  C40  1  0.68750300  0.65688400  0.31390400  1
  C  C41  1  0.31249700  0.34311600  0.68609600  1
  C  C42  1  0.18750300  0.34311600  0.18609600  1
  C  C43  1  0.81249700  0.65688400  0.81390400  1
