# generated using pymatgen
data_Cu12Ni12C
_symmetry_space_group_name_H-M   'P 1'
_cell_length_a   7.41089086
_cell_length_b   7.41089086
_cell_length_c   11.97046200
_cell_angle_alpha   90.00000000
_cell_angle_beta   90.00000000
_cell_angle_gamma   120.00000770
_symmetry_Int_Tables_number   1
_chemical_formula_structural   Cu12Ni12C
_chemical_formula_sum   'Cu24 Ni24 C2'
_cell_volume   569.35395986
_cell_formula_units_Z   2
loop_
 _symmetry_equiv_pos_site_id
 _symmetry_equiv_pos_as_xyz
  1  'x, y, z'
loop_
 _atom_site_type_symbol
 _atom_site_label
 _atom_site_symmetry_multiplicity
 _atom_site_fract_x
 _atom_site_fract_y
 _atom_site_fract_z
 _atom_site_occupancy
  C  C0  1  0.66666700  0.33333300  0.26337300  1
  C  C1  1  0.33333300  0.66666700  0.76337300  1
  Ni  Ni2  1  0.91194300  0.38607100  0.61161700  1
  Ni  Ni3  1  0.47412800  0.08805700  0.61161700  1
  Ni  Ni4  1  0.61392900  0.52587200  0.61161700  1
  Ni  Ni5  1  0.52587200  0.61392900  0.11161700  1
  Ni  Ni6  1  0.38607100  0.91194300  0.11161700  1
  Ni  Ni7  1  0.08805700  0.47412800  0.11161700  1
  Ni  Ni8  1  0.51486400  0.30048500  0.52647200  1
  Ni  Ni9  1  0.78562100  0.48513600  0.52647200  1
  Ni  Ni10  1  0.69951500  0.21437900  0.52647200  1
  Ni  Ni11  1  0.21437900  0.69951500  0.02647200  1
  Ni  Ni12  1  0.30048500  0.51486400  0.02647200  1
  Ni  Ni13  1  0.48513600  0.78562100  0.02647200  1
  Ni  Ni14  1  0.81841000  0.36515100  0.75034500  1
  Ni  Ni15  1  0.54674100  0.18159000  0.75034500  1
  Ni  Ni16  1  0.63484900  0.45325900  0.75034500  1
  Ni  Ni17  1  0.45325900  0.63484900  0.25034500  1
  Ni  Ni18  1  0.36515100  0.81841000  0.25034500  1
  Ni  Ni19  1  0.18159000  0.54674100  0.25034500  1
  Ni  Ni20  1  0.42054900  0.28111800  0.66517900  1
  Ni  Ni21  1  0.86056900  0.57945100  0.66517900  1
  Ni  Ni22  1  0.71888200  0.13943100  0.66517900  1
  Ni  Ni23  1  0.13943100  0.71888200  0.16517900  1
  Ni  Ni24  1  0.28111800  0.42054900  0.16517900  1
  Ni  Ni25  1  0.57945100  0.86056900  0.16517900  1
  Cu  Cu26  1  0.08511700  0.42223200  0.58893800  1
  Cu  Cu27  1  0.33711500  0.91488300  0.58893800  1
  Cu  Cu28  1  0.57776800  0.66288500  0.58893800  1
  Cu  Cu29  1  0.66288500  0.57776800  0.08893800  1
  Cu  Cu30  1  0.42223200  0.08511700  0.08893800  1
  Cu  Cu31  1  0.91488300  0.33711500  0.08893800  1
  Cu  Cu32  1  0.40438000  0.27625500  0.44718600  1
  Cu  Cu33  1  0.87187600  0.59562000  0.44718600  1
  Cu  Cu34  1  0.72374500  0.12812400  0.44718600  1
  Cu  Cu35  1  0.12812400  0.72374500  0.94718600  1
  Cu  Cu36  1  0.27625500  0.40438000  0.94718600  1
  Cu  Cu37  1  0.59562000  0.87187600  0.94718600  1
  Cu  Cu38  1  0.92477800  0.38604300  0.83107600  1
  Cu  Cu39  1  0.46126500  0.07522200  0.83107600  1
  Cu  Cu40  1  0.61395700  0.53873500  0.83107600  1
  Cu  Cu41  1  0.53873500  0.61395700  0.33107600  1
  Cu  Cu42  1  0.38604300  0.92477800  0.33107600  1
  Cu  Cu43  1  0.07522200  0.46126500  0.33107600  1
  Cu  Cu44  1  0.24540200  0.24342700  0.68406300  1
  Cu  Cu45  1  0.99802500  0.75459800  0.68406300  1
  Cu  Cu46  1  0.75657300  0.00197500  0.68406300  1
  Cu  Cu47  1  0.00197500  0.75657300  0.18406300  1
  Cu  Cu48  1  0.24342700  0.24540200  0.18406300  1
  Cu  Cu49  1  0.75459800  0.99802500  0.18406300  1
