# generated using pymatgen
data_CuNiC3
_symmetry_space_group_name_H-M   'P 1'
_cell_length_a   5.83809600
_cell_length_b   8.18661500
_cell_length_c   11.82027700
_cell_angle_alpha   90.00000000
_cell_angle_beta   90.00000000
_cell_angle_gamma   90.00000000
_symmetry_Int_Tables_number   1
_chemical_formula_structural   CuNiC3
_chemical_formula_sum   'Cu8 Ni8 C24'
_cell_volume   564.94120645
_cell_formula_units_Z   8
loop_
 _symmetry_equiv_pos_site_id
 _symmetry_equiv_pos_as_xyz
  1  'x, y, z'
loop_
 _atom_site_type_symbol
 _atom_site_label
 _atom_site_symmetry_multiplicity
 _atom_site_fract_x
 _atom_site_fract_y
 _atom_site_fract_z
 _atom_site_occupancy
  Ni  Ni0  1  0.24912700  0.24994800  0.12511300  1
  Ni  Ni1  1  0.24912700  0.75005200  0.12511300  1
  Ni  Ni2  1  0.25087300  0.75005200  0.62511300  1
  Ni  Ni3  1  0.25087300  0.24994800  0.62511300  1
  Ni  Ni4  1  0.74912700  0.75005200  0.37488700  1
  Ni  Ni5  1  0.74912700  0.24994800  0.37488700  1
  Ni  Ni6  1  0.75087300  0.24994800  0.87488700  1
  Ni  Ni7  1  0.75087300  0.75005200  0.87488700  1
  Cu  Cu8  1  0.23134000  0.50000000  0.37200400  1
  Cu  Cu9  1  0.22662600  0.00000000  0.37897100  1
  Cu  Cu10  1  0.27337400  0.00000000  0.87897100  1
  Cu  Cu11  1  0.26866000  0.50000000  0.87200400  1
  Cu  Cu12  1  0.73134000  0.50000000  0.12799600  1
  Cu  Cu13  1  0.72662600  0.00000000  0.12102900  1
  Cu  Cu14  1  0.77337400  0.00000000  0.62102900  1
  Cu  Cu15  1  0.76866000  0.50000000  0.62799600  1
  C  C16  1  0.00000000  0.21556900  0.00000000  1
  C  C17  1  0.00000000  0.78443100  0.00000000  1
  C  C18  1  0.00000000  0.20237700  0.50000000  1
  C  C19  1  0.00000000  0.79762300  0.50000000  1
  C  C20  1  0.02988300  0.28790700  0.26100200  1
  C  C21  1  0.02988300  0.71209300  0.26100200  1
  C  C22  1  0.20624600  0.50000000  0.59040900  1
  C  C23  1  0.22618700  0.00000000  0.66123800  1
  C  C24  1  0.27381300  0.00000000  0.16123800  1
  C  C25  1  0.29375400  0.50000000  0.09040900  1
  C  C26  1  0.47011700  0.28790700  0.76100200  1
  C  C27  1  0.47011700  0.71209300  0.76100200  1
  C  C28  1  0.50000000  0.20237700  0.00000000  1
  C  C29  1  0.50000000  0.79762300  0.00000000  1
  C  C30  1  0.50000000  0.78443100  0.50000000  1
  C  C31  1  0.50000000  0.21556900  0.50000000  1
  C  C32  1  0.52988300  0.71209300  0.23899800  1
  C  C33  1  0.52988300  0.28790700  0.23899800  1
  C  C34  1  0.70624600  0.50000000  0.90959100  1
  C  C35  1  0.72618700  0.00000000  0.83876200  1
  C  C36  1  0.77381300  0.00000000  0.33876200  1
  C  C37  1  0.79375400  0.50000000  0.40959100  1
  C  C38  1  0.97011700  0.28790700  0.73899800  1
  C  C39  1  0.97011700  0.71209300  0.73899800  1
