# generated using pymatgen
data_CuNi3C10
_symmetry_space_group_name_H-M   'P 1'
_cell_length_a   5.95927740
_cell_length_b   10.18866983
_cell_length_c   6.09707992
_cell_angle_alpha   106.07311969
_cell_angle_beta   60.51775118
_cell_angle_gamma   89.37611233
_symmetry_Int_Tables_number   1
_chemical_formula_structural   CuNi3C10
_chemical_formula_sum   'Cu2 Ni6 C20'
_cell_volume   304.83318304
_cell_formula_units_Z   2
loop_
 _symmetry_equiv_pos_site_id
 _symmetry_equiv_pos_as_xyz
  1  'x, y, z'
loop_
 _atom_site_type_symbol
 _atom_site_label
 _atom_site_symmetry_multiplicity
 _atom_site_fract_x
 _atom_site_fract_y
 _atom_site_fract_z
 _atom_site_occupancy
  C  C0  1  0.31325200  0.56423600  0.36494300  1
  C  C1  1  0.82126900  0.06394600  0.36323000  1
  C  C2  1  0.18708300  0.93585600  0.63427400  1
  C  C3  1  0.67866300  0.43606100  0.63738500  1
  Ni  Ni4  1  0.25022900  0.75028100  0.99973100  1
  Ni  Ni5  1  0.75003900  0.74997800  0.99955000  1
  Ni  Ni6  1  0.99361700  0.49914400  0.00107300  1
  Ni  Ni7  1  0.74994800  0.24993400  0.00023500  1
  Ni  Ni8  1  0.24976400  0.25011300  0.00051300  1
  Ni  Ni9  1  0.50622300  0.00073600  0.99919700  1
  Cu  Cu10  1  0.74999800  0.74972200  0.49993300  1
  Cu  Cu11  1  0.24992500  0.25028900  0.50028500  1
  C  C12  1  0.08680900  0.63394300  0.79806600  1
  C  C13  1  0.60445100  0.13449300  0.80245100  1
  C  C14  1  0.41314500  0.86658800  0.20138200  1
  C  C15  1  0.89578000  0.36475400  0.19800800  1
  C  C16  1  0.87547300  0.85957100  0.22639000  1
  C  C17  1  0.40645300  0.36123500  0.23148500  1
  C  C18  1  0.11040700  0.62208900  0.22544600  1
  C  C19  1  0.62297100  0.12770800  0.21972400  1
  C  C20  1  0.65187700  0.63167000  0.22618900  1
  C  C21  1  0.16108400  0.12925300  0.22682700  1
  C  C22  1  0.84891800  0.86776600  0.77265700  1
  C  C23  1  0.33796300  0.37147500  0.77459200  1
  C  C24  1  0.38937400  0.87721800  0.77386800  1
  C  C25  1  0.87713200  0.37267700  0.78020400  1
  C  C26  1  0.62415700  0.64037500  0.77378200  1
  C  C27  1  0.09399600  0.13889200  0.76858100  1
