# generated using pymatgen
data_Cu3NiC16
_symmetry_space_group_name_H-M   'P 1'
_cell_length_a   6.44571100
_cell_length_b   7.88718800
_cell_length_c   10.77346965
_cell_angle_alpha   82.96066763
_cell_angle_beta   90.00000000
_cell_angle_gamma   90.00000000
_symmetry_Int_Tables_number   1
_chemical_formula_structural   Cu3NiC16
_chemical_formula_sum   'Cu6 Ni2 C32'
_cell_volume   543.57893004
_cell_formula_units_Z   2
loop_
 _symmetry_equiv_pos_site_id
 _symmetry_equiv_pos_as_xyz
  1  'x, y, z'
loop_
 _atom_site_type_symbol
 _atom_site_label
 _atom_site_symmetry_multiplicity
 _atom_site_fract_x
 _atom_site_fract_y
 _atom_site_fract_z
 _atom_site_occupancy
  Ni  Ni0  1  0.75000000  0.39550400  0.14412300  1
  Ni  Ni1  1  0.25000000  0.60449600  0.85587700  1
  Cu  Cu2  1  0.25000000  0.67145300  0.21967600  1
  Cu  Cu3  1  0.75000000  0.32854700  0.78032400  1
  Cu  Cu4  1  0.25000000  0.25517600  0.43395700  1
  Cu  Cu5  1  0.50000000  0.00000000  0.00000000  1
  Cu  Cu6  1  0.75000000  0.74482400  0.56604300  1
  Cu  Cu7  1  0.00000000  0.00000000  0.00000000  1
  C  C8  1  0.25000000  0.77518300  0.50120700  1
  C  C9  1  0.75000000  0.22481700  0.49879300  1
  C  C10  1  0.25000000  0.26087000  0.75699300  1
  C  C11  1  0.75000000  0.73913000  0.24300700  1
  C  C12  1  0.75000000  0.66872200  0.88179500  1
  C  C13  1  0.25000000  0.33127800  0.11820500  1
  C  C14  1  0.75000000  0.61157100  0.74691600  1
  C  C15  1  0.56795000  0.24964900  0.40257200  1
  C  C16  1  0.25000000  0.19282900  0.63015100  1
  C  C17  1  0.54075100  0.76572100  0.89210100  1
  C  C18  1  0.75000000  0.37757100  0.57858900  1
  C  C19  1  0.75000000  0.11016500  0.90836100  1
  C  C20  1  0.25000000  0.62242900  0.42141100  1
  C  C21  1  0.04075100  0.23427900  0.10789900  1
  C  C22  1  0.25000000  0.94022600  0.41315400  1
  C  C23  1  0.75000000  0.05977400  0.58684600  1
  C  C24  1  0.07155500  0.38788200  0.78179700  1
  C  C25  1  0.25000000  0.88983500  0.09163900  1
  C  C26  1  0.57155500  0.61211800  0.21820300  1
  C  C27  1  0.75000000  0.49937100  0.96943900  1
  C  C28  1  0.75000000  0.80717100  0.36984900  1
  C  C29  1  0.45924900  0.23427900  0.10789900  1
  C  C30  1  0.93205000  0.24964900  0.40257200  1
  C  C31  1  0.43205000  0.75035100  0.59742800  1
  C  C32  1  0.42844500  0.38788200  0.78179700  1
  C  C33  1  0.25000000  0.38842900  0.25308400  1
  C  C34  1  0.75000000  0.89739000  0.14354200  1
  C  C35  1  0.25000000  0.10261000  0.85645800  1
  C  C36  1  0.92844500  0.61211800  0.21820300  1
  C  C37  1  0.95924900  0.76572100  0.89210100  1
  C  C38  1  0.06795000  0.75035100  0.59742800  1
  C  C39  1  0.25000000  0.50062900  0.03056100  1
