# generated using pymatgen
data_Cu6Ni10C27
_symmetry_space_group_name_H-M   'P 1'
_cell_length_a   6.85065000
_cell_length_b   6.85065000
_cell_length_c   21.12137942
_cell_angle_alpha   78.19873223
_cell_angle_beta   78.19873223
_cell_angle_gamma   65.57494097
_symmetry_Int_Tables_number   1
_chemical_formula_structural   Cu6Ni10C27
_chemical_formula_sum   'Cu12 Ni20 C54'
_cell_volume   875.42673123
_cell_formula_units_Z   2
loop_
 _symmetry_equiv_pos_site_id
 _symmetry_equiv_pos_as_xyz
  1  'x, y, z'
loop_
 _atom_site_type_symbol
 _atom_site_label
 _atom_site_symmetry_multiplicity
 _atom_site_fract_x
 _atom_site_fract_y
 _atom_site_fract_z
 _atom_site_occupancy
  C  C0  1  0.86288700  0.92397700  0.09575500  1
  C  C1  1  0.07602300  0.13711300  0.40424500  1
  C  C2  1  0.13711300  0.07602300  0.90424500  1
  C  C3  1  0.92397700  0.86288700  0.59575500  1
  C  C4  1  0.74793100  0.25206900  0.25000000  1
  C  C5  1  0.25206900  0.74793100  0.75000000  1
  C  C6  1  0.27294600  0.18548200  0.03932700  1
  C  C7  1  0.81451800  0.72705400  0.46067300  1
  C  C8  1  0.72705400  0.81451800  0.96067300  1
  C  C9  1  0.18548200  0.27294600  0.53932700  1
  Ni  Ni10  1  0.38618900  0.41418200  0.13239700  1
  Ni  Ni11  1  0.58581800  0.61381100  0.36760300  1
  Ni  Ni12  1  0.61381100  0.58581800  0.86760300  1
  Ni  Ni13  1  0.41418200  0.38618900  0.63239700  1
  Ni  Ni14  1  0.17906200  0.40220200  0.24693100  1
  Ni  Ni15  1  0.59779800  0.82093800  0.25306900  1
  Ni  Ni16  1  0.82093800  0.59779800  0.75306900  1
  Ni  Ni17  1  0.40220200  0.17906200  0.74693100  1
  Ni  Ni18  1  0.75366100  0.45922500  0.08997400  1
  Ni  Ni19  1  0.54077500  0.24633900  0.41002600  1
  Ni  Ni20  1  0.24633900  0.54077500  0.91002600  1
  Ni  Ni21  1  0.45922500  0.75366100  0.58997400  1
  Ni  Ni22  1  0.40155800  0.73300100  0.04979500  1
  Ni  Ni23  1  0.26699900  0.59844200  0.45020500  1
  Ni  Ni24  1  0.59844200  0.26699900  0.95020500  1
  Ni  Ni25  1  0.73300100  0.40155800  0.54979500  1
  Ni  Ni26  1  0.29179400  0.08753000  0.18408500  1
  Ni  Ni27  1  0.91247000  0.70820600  0.31591500  1
  Ni  Ni28  1  0.70820600  0.91247000  0.81591500  1
  Ni  Ni29  1  0.08753000  0.29179400  0.68408500  1
  Cu  Cu30  1  0.86893600  0.37747000  0.00071100  1
  Cu  Cu31  1  0.62253000  0.13106400  0.49928900  1
  Cu  Cu32  1  0.13106400  0.62253000  0.99928900  1
  Cu  Cu33  1  0.37747000  0.86893600  0.50071100  1
  Cu  Cu34  1  0.02369200  0.41296400  0.12916800  1
  Cu  Cu35  1  0.58703600  0.97630800  0.37083200  1
  Cu  Cu36  1  0.97630800  0.58703600  0.87083200  1
  Cu  Cu37  1  0.41296400  0.02369200  0.62916800  1
  Cu  Cu38  1  0.22176100  0.82220300  0.18669700  1
  Cu  Cu39  1  0.17779700  0.77823900  0.31330300  1
  Cu  Cu40  1  0.77823900  0.17779700  0.81330300  1
  Cu  Cu41  1  0.82220300  0.22176100  0.68669700  1
  C  C42  1  0.62311700  0.33534200  0.12625600  1
  C  C43  1  0.66465800  0.37688300  0.37374400  1
  C  C44  1  0.37688300  0.66465800  0.87374400  1
  C  C45  1  0.33534200  0.62311700  0.62625600  1
  C  C46  1  0.30856500  0.24693400  0.12683700  1
  C  C47  1  0.75306600  0.69143500  0.37316300  1
  C  C48  1  0.69143500  0.75306600  0.87316300  1
  C  C49  1  0.24693400  0.30856500  0.62683700  1
  C  C50  1  0.62298900  0.66698400  0.05388700  1
  C  C51  1  0.33301600  0.37701100  0.44611300  1
  C  C52  1  0.37701100  0.33301600  0.94611300  1
  C  C53  1  0.66698400  0.62298900  0.55388700  1
  C  C54  1  0.17499600  0.20464700  0.24266700  1
  C  C55  1  0.79535300  0.82500400  0.25733300  1
  C  C56  1  0.82500400  0.79535300  0.75733300  1
  C  C57  1  0.20464700  0.17499600  0.74266700  1
  C  C58  1  0.29502100  0.59795300  0.08225600  1
  C  C59  1  0.40204700  0.70497900  0.41774400  1
  C  C60  1  0.70497900  0.40204700  0.91774400  1
  C  C61  1  0.59795300  0.29502100  0.58225600  1
  C  C62  1  0.92812800  0.32700900  0.04206300  1
  C  C63  1  0.67299100  0.07187200  0.45793700  1
  C  C64  1  0.07187200  0.67299100  0.95793700  1
  C  C65  1  0.32700900  0.92812800  0.54206300  1
  C  C66  1  0.86509100  0.49974300  0.13658200  1
  C  C67  1  0.50025700  0.13490900  0.36341800  1
  C  C68  1  0.13490900  0.50025700  0.86341800  1
  C  C69  1  0.49974300  0.86509100  0.63658200  1
  C  C70  1  0.06338700  0.48821400  0.30293200  1
  C  C71  1  0.51178600  0.93661300  0.19706800  1
  C  C72  1  0.93661300  0.51178600  0.69706800  1
  C  C73  1  0.48821400  0.06338700  0.80293200  1
  C  C74  1  0.16009000  0.97796700  0.17150800  1
  C  C75  1  0.02203300  0.83991000  0.32849200  1
  C  C76  1  0.83991000  0.02203300  0.82849200  1
  C  C77  1  0.97796700  0.16009000  0.67150800  1
  C  C78  1  0.29233500  0.92060000  0.01474400  1
  C  C79  1  0.07940000  0.70766500  0.48525600  1
  C  C80  1  0.70766500  0.07940000  0.98525600  1
  C  C81  1  0.92060000  0.29233500  0.51474400  1
  C  C82  1  0.29593100  0.49513000  0.19940100  1
  C  C83  1  0.50487000  0.70406900  0.30059900  1
  C  C84  1  0.70406900  0.50487000  0.80059900  1
  C  C85  1  0.49513000  0.29593100  0.69940100  1
