# generated using pymatgen
data_Cu8Ni2C3
_symmetry_space_group_name_H-M   'P 1'
_cell_length_a   12.94219500
_cell_length_b   7.55785800
_cell_length_c   9.07138563
_cell_angle_alpha   85.74880735
_cell_angle_beta   90.00000000
_cell_angle_gamma   90.00000000
_symmetry_Int_Tables_number   1
_chemical_formula_structural   Cu8Ni2C3
_chemical_formula_sum   'Cu32 Ni8 C12'
_cell_volume   884.87871780
_cell_formula_units_Z   4
loop_
 _symmetry_equiv_pos_site_id
 _symmetry_equiv_pos_as_xyz
  1  'x, y, z'
loop_
 _atom_site_type_symbol
 _atom_site_label
 _atom_site_symmetry_multiplicity
 _atom_site_fract_x
 _atom_site_fract_y
 _atom_site_fract_z
 _atom_site_occupancy
  C  C0  1  0.51473600  0.26968800  0.37049000  1
  C  C1  1  0.01473600  0.23031200  0.62951000  1
  C  C2  1  0.48526400  0.73031200  0.62951000  1
  C  C3  1  0.98526400  0.76968800  0.37049000  1
  C  C4  1  0.36711500  0.15948100  0.90012600  1
  C  C5  1  0.86711500  0.34051900  0.09987400  1
  C  C6  1  0.63288500  0.84051900  0.09987400  1
  C  C7  1  0.13288500  0.65948100  0.90012600  1
  C  C8  1  0.26597000  0.43385100  0.54530700  1
  C  C9  1  0.76597000  0.06614900  0.45469300  1
  C  C10  1  0.73403000  0.56614900  0.45469300  1
  C  C11  1  0.23403000  0.93385100  0.54530700  1
  Ni  Ni12  1  0.24809500  0.42981400  0.20670200  1
  Ni  Ni13  1  0.74809500  0.07018600  0.79329800  1
  Ni  Ni14  1  0.75190500  0.57018600  0.79329800  1
  Ni  Ni15  1  0.25190500  0.92981400  0.20670200  1
  Ni  Ni16  1  0.13636300  0.47199700  0.25954900  1
  Ni  Ni17  1  0.63636300  0.02800300  0.74045100  1
  Ni  Ni18  1  0.86363700  0.52800300  0.74045100  1
  Ni  Ni19  1  0.36363700  0.97199700  0.25954900  1
  Cu  Cu20  1  0.28244400  0.67641700  0.51281700  1
  Cu  Cu21  1  0.78244400  0.82358300  0.48718300  1
  Cu  Cu22  1  0.71755600  0.32358300  0.48718300  1
  Cu  Cu23  1  0.21755600  0.17641700  0.51281700  1
  Cu  Cu24  1  0.12552500  0.47399100  0.40096200  1
  Cu  Cu25  1  0.62552500  0.02600900  0.59903800  1
  Cu  Cu26  1  0.87447500  0.52600900  0.59903800  1
  Cu  Cu27  1  0.37447500  0.97399100  0.40096200  1
  Cu  Cu28  1  0.31555600  0.41028200  0.31184100  1
  Cu  Cu29  1  0.81555600  0.08971800  0.68815900  1
  Cu  Cu30  1  0.68444400  0.58971800  0.68815900  1
  Cu  Cu31  1  0.18444400  0.91028200  0.31184100  1
  Cu  Cu32  1  0.39203000  0.37133500  0.60541700  1
  Cu  Cu33  1  0.89203000  0.12866500  0.39458300  1
  Cu  Cu34  1  0.60797000  0.62866500  0.39458300  1
  Cu  Cu35  1  0.10797000  0.87133500  0.60541700  1
  Cu  Cu36  1  0.06591700  0.50440100  0.16748100  1
  Cu  Cu37  1  0.56591700  0.99559900  0.83251900  1
  Cu  Cu38  1  0.93408300  0.49559900  0.83251900  1
  Cu  Cu39  1  0.43408300  0.00440100  0.16748100  1
  Cu  Cu40  1  0.26563700  0.41866800  0.07288100  1
  Cu  Cu41  1  0.76563700  0.08133200  0.92711900  1
  Cu  Cu42  1  0.73436300  0.58133200  0.92711900  1
  Cu  Cu43  1  0.23436300  0.91866800  0.07288100  1
  Cu  Cu44  1  0.18985900  0.42179700  0.70719200  1
  Cu  Cu45  1  0.68985900  0.07820300  0.29280800  1
  Cu  Cu46  1  0.81014100  0.57820300  0.29280800  1
  Cu  Cu47  1  0.31014100  0.92179700  0.70719200  1
  Cu  Cu48  1  0.52983400  0.43750400  0.01611200  1
  Cu  Cu49  1  0.02983400  0.06249600  0.98388800  1
  Cu  Cu50  1  0.47016600  0.56249600  0.98388800  1
  Cu  Cu51  1  0.97016600  0.93750400  0.01611200  1
