# generated using pymatgen
data_Cu5(NiC)2
_symmetry_space_group_name_H-M   'P 1'
_cell_length_a   9.24518496
_cell_length_b   9.24518496
_cell_length_c   10.71704200
_cell_angle_alpha   90.00000000
_cell_angle_beta   90.00000000
_cell_angle_gamma   90.97469154
_symmetry_Int_Tables_number   1
_chemical_formula_structural   Cu5(NiC)2
_chemical_formula_sum   'Cu20 Ni8 C8'
_cell_volume   915.88995779
_cell_formula_units_Z   4
loop_
 _symmetry_equiv_pos_site_id
 _symmetry_equiv_pos_as_xyz
  1  'x, y, z'
loop_
 _atom_site_type_symbol
 _atom_site_label
 _atom_site_symmetry_multiplicity
 _atom_site_fract_x
 _atom_site_fract_y
 _atom_site_fract_z
 _atom_site_occupancy
  C  C0  1  0.90840100  0.42064900  0.75000000  1
  C  C1  1  0.09159900  0.57935100  0.25000000  1
  C  C2  1  0.42064900  0.90840100  0.25000000  1
  C  C3  1  0.57935100  0.09159900  0.75000000  1
  C  C4  1  0.14710900  0.14710900  0.50000000  1
  C  C5  1  0.85289100  0.85289100  0.00000000  1
  C  C6  1  0.85289100  0.85289100  0.50000000  1
  C  C7  1  0.14710900  0.14710900  0.00000000  1
  Ni  Ni8  1  0.31292700  0.40904500  0.75000000  1
  Ni  Ni9  1  0.68707300  0.59095500  0.25000000  1
  Ni  Ni10  1  0.40904500  0.31292700  0.25000000  1
  Ni  Ni11  1  0.59095500  0.68707300  0.75000000  1
  Ni  Ni12  1  0.25515600  0.74484400  0.58148500  1
  Ni  Ni13  1  0.74484400  0.25515600  0.08148500  1
  Ni  Ni14  1  0.74484400  0.25515600  0.41851500  1
  Ni  Ni15  1  0.25515600  0.74484400  0.91851500  1
  Cu  Cu16  1  0.55297500  0.44702600  0.75000000  1
  Cu  Cu17  1  0.44702500  0.55297400  0.25000000  1
  Cu  Cu18  1  0.49619300  0.79479800  0.92103300  1
  Cu  Cu19  1  0.50380700  0.20520200  0.42103300  1
  Cu  Cu20  1  0.79479800  0.49619300  0.07896700  1
  Cu  Cu21  1  0.20520200  0.50380700  0.57896700  1
  Cu  Cu22  1  0.50380700  0.20520200  0.07896700  1
  Cu  Cu23  1  0.49619300  0.79479800  0.57896700  1
  Cu  Cu24  1  0.20520200  0.50380700  0.92103300  1
  Cu  Cu25  1  0.79479800  0.49619300  0.42103300  1
  Cu  Cu26  1  0.15379800  0.84620200  0.75000000  1
  Cu  Cu27  1  0.84620200  0.15379800  0.25000000  1
  Cu  Cu28  1  0.15880500  0.84119500  0.08254700  1
  Cu  Cu29  1  0.84119500  0.15880500  0.58254700  1
  Cu  Cu30  1  0.84119500  0.15880500  0.91745300  1
  Cu  Cu31  1  0.15880500  0.84119500  0.41745300  1
  Cu  Cu32  1  0.82090400  0.72917900  0.75000000  1
  Cu  Cu33  1  0.17909600  0.27082100  0.25000000  1
  Cu  Cu34  1  0.72917900  0.82090400  0.25000000  1
  Cu  Cu35  1  0.27082100  0.17909600  0.75000000  1
