# generated using pymatgen
data_Cu11Ni17C
_symmetry_space_group_name_H-M   'P 1'
_cell_length_a   9.23554619
_cell_length_b   9.23554619
_cell_length_c   9.21504439
_cell_angle_alpha   70.50334348
_cell_angle_beta   70.50334348
_cell_angle_gamma   109.31515739
_symmetry_Int_Tables_number   1
_chemical_formula_structural   Cu11Ni17C
_chemical_formula_sum   'Cu11 Ni17 C1'
_cell_volume   605.84586122
_cell_formula_units_Z   1
loop_
 _symmetry_equiv_pos_site_id
 _symmetry_equiv_pos_as_xyz
  1  'x, y, z'
loop_
 _atom_site_type_symbol
 _atom_site_label
 _atom_site_symmetry_multiplicity
 _atom_site_fract_x
 _atom_site_fract_y
 _atom_site_fract_z
 _atom_site_occupancy
  Ni  Ni0  1  0.00723000  0.00723000  0.65357400  1
  Ni  Ni1  1  0.65825100  0.65825100  0.33752100  1
  Ni  Ni2  1  0.99348000  0.99348000  0.00364600  1
  Ni  Ni3  1  0.39923600  0.39923600  0.28210600  1
  Ni  Ni4  1  0.69871300  0.69871300  0.71264800  1
  Ni  Ni5  1  0.61278100  0.31347100  0.00200600  1
  Ni  Ni6  1  0.31673400  0.99899300  0.39433000  1
  Ni  Ni7  1  0.72565500  0.40161800  0.59319500  1
  Ni  Ni8  1  0.34065200  0.98968700  0.00733400  1
  Ni  Ni9  1  0.68219100  0.28690100  0.31728300  1
  Ni  Ni10  1  0.00311400  0.60200200  0.68338800  1
  Ni  Ni11  1  0.60200200  0.00311400  0.68338800  1
  Ni  Ni12  1  0.28690100  0.68219100  0.31728300  1
  Ni  Ni13  1  0.98968700  0.34065200  0.00733400  1
  Ni  Ni14  1  0.40161800  0.72565500  0.59319500  1
  Ni  Ni15  1  0.99899300  0.31673400  0.39433000  1
  Ni  Ni16  1  0.31347100  0.61278100  0.00200600  1
  Cu  Cu17  1  0.16914300  0.16914300  0.20966600  1
  Cu  Cu18  1  0.81538100  0.63436600  0.99835800  1
  Cu  Cu19  1  0.99747800  0.81033100  0.36587500  1
  Cu  Cu20  1  0.36362900  0.17488700  0.62697100  1
  Cu  Cu21  1  0.18268600  0.81883900  0.81564500  1
  Cu  Cu22  1  0.99671300  0.63317200  0.18381000  1
  Cu  Cu23  1  0.63317200  0.99671300  0.18381000  1
  Cu  Cu24  1  0.81883900  0.18268600  0.81564500  1
  Cu  Cu25  1  0.17488700  0.36362900  0.62697100  1
  Cu  Cu26  1  0.81033100  0.99747800  0.36587500  1
  Cu  Cu27  1  0.63436600  0.81538100  0.99835800  1
  C  C28  1  0.37266700  0.37266700  0.82444400  1
