# generated using pymatgen
data_Cu(NiC4)2
_symmetry_space_group_name_H-M   'P 1'
_cell_length_a   10.30497462
_cell_length_b   10.30497462
_cell_length_c   4.98211771
_cell_angle_alpha   88.20362176
_cell_angle_beta   88.20362176
_cell_angle_gamma   32.80465352
_symmetry_Int_Tables_number   1
_chemical_formula_structural   Cu(NiC4)2
_chemical_formula_sum   'Cu2 Ni4 C16'
_cell_volume   286.48110670
_cell_formula_units_Z   2
loop_
 _symmetry_equiv_pos_site_id
 _symmetry_equiv_pos_as_xyz
  1  'x, y, z'
loop_
 _atom_site_type_symbol
 _atom_site_label
 _atom_site_symmetry_multiplicity
 _atom_site_fract_x
 _atom_site_fract_y
 _atom_site_fract_z
 _atom_site_occupancy
  Ni  Ni0  1  0.67101800  0.07394400  0.24683200  1
  Ni  Ni1  1  0.92605600  0.32898200  0.25316800  1
  Ni  Ni2  1  0.32898200  0.92605600  0.75316800  1
  Ni  Ni3  1  0.07394400  0.67101800  0.74683200  1
  Cu  Cu4  1  0.34764700  0.65235300  0.25000000  1
  Cu  Cu5  1  0.65235300  0.34764700  0.75000000  1
  C  C6  1  0.77424600  0.10793500  0.91422600  1
  C  C7  1  0.89206500  0.22575400  0.58577400  1
  C  C8  1  0.22575400  0.89206500  0.08577400  1
  C  C9  1  0.10793500  0.77424600  0.41422600  1
  C  C10  1  0.57060000  0.32799100  0.42057200  1
  C  C11  1  0.67200900  0.42940000  0.07942800  1
  C  C12  1  0.42940000  0.67200900  0.57942800  1
  C  C13  1  0.32799100  0.57060000  0.92057200  1
  C  C14  1  0.76188900  0.91790600  0.57565000  1
  C  C15  1  0.08209400  0.23811100  0.92435000  1
  C  C16  1  0.24167400  0.38824500  0.64613800  1
  C  C17  1  0.61175500  0.75832600  0.85386200  1
  C  C18  1  0.75832600  0.61175500  0.35386200  1
  C  C19  1  0.38824500  0.24167400  0.14613800  1
  C  C20  1  0.91790600  0.76188900  0.07565000  1
  C  C21  1  0.23811100  0.08209400  0.42435000  1
