# generated using pymatgen
data_Cu2Ni2C13
_symmetry_space_group_name_H-M   'P 1'
_cell_length_a   7.93122800
_cell_length_b   11.73806000
_cell_length_c   13.91377900
_cell_angle_alpha   90.00000000
_cell_angle_beta   90.00000000
_cell_angle_gamma   90.00000000
_symmetry_Int_Tables_number   1
_chemical_formula_structural   Cu2Ni2C13
_chemical_formula_sum   'Cu8 Ni8 C52'
_cell_volume   1295.33428565
_cell_formula_units_Z   4
loop_
 _symmetry_equiv_pos_site_id
 _symmetry_equiv_pos_as_xyz
  1  'x, y, z'
loop_
 _atom_site_type_symbol
 _atom_site_label
 _atom_site_symmetry_multiplicity
 _atom_site_fract_x
 _atom_site_fract_y
 _atom_site_fract_z
 _atom_site_occupancy
  C  C0  1  0.32394400  0.88361900  0.02931500  1
  C  C1  1  0.82394400  0.11638100  0.97068500  1
  C  C2  1  0.32394400  0.61638100  0.52931500  1
  C  C3  1  0.82394400  0.38361900  0.47068500  1
  C  C4  1  0.80174000  0.84415100  0.44195800  1
  C  C5  1  0.30174000  0.15584900  0.55804200  1
  C  C6  1  0.80174000  0.65584900  0.94195800  1
  C  C7  1  0.30174000  0.34415100  0.05804200  1
  C  C8  1  0.00646800  0.59651600  0.24543400  1
  C  C9  1  0.50646800  0.40348400  0.75456600  1
  C  C10  1  0.00646800  0.90348400  0.74543400  1
  C  C11  1  0.50646800  0.09651600  0.25456600  1
  Ni  Ni12  1  0.44516300  0.59439700  0.06463900  1
  Ni  Ni13  1  0.94516300  0.40560300  0.93536100  1
  Ni  Ni14  1  0.44516300  0.90560300  0.56463900  1
  Ni  Ni15  1  0.94516300  0.09439700  0.43536100  1
  Ni  Ni16  1  0.66659500  0.59679500  0.26570700  1
  Ni  Ni17  1  0.16659500  0.40320500  0.73429300  1
  Ni  Ni18  1  0.66659500  0.90320500  0.76570700  1
  Ni  Ni19  1  0.16659500  0.09679500  0.23429300  1
  Cu  Cu20  1  0.81273800  0.31553600  0.18514700  1
  Cu  Cu21  1  0.31273800  0.68446400  0.81485300  1
  Cu  Cu22  1  0.81273800  0.18446400  0.68514700  1
  Cu  Cu23  1  0.31273800  0.81553600  0.31485300  1
  Cu  Cu24  1  0.82111100  0.88139600  0.16575800  1
  Cu  Cu25  1  0.32111100  0.11860400  0.83424200  1
  Cu  Cu26  1  0.82111100  0.61860400  0.66575800  1
  Cu  Cu27  1  0.32111100  0.38139600  0.33424200  1
  C  C28  1  0.48311100  0.75767700  0.36231400  1
  C  C29  1  0.98311100  0.24232300  0.63768600  1
  C  C30  1  0.48311100  0.74232300  0.86231400  1
  C  C31  1  0.98311100  0.25767700  0.13768600  1
  C  C32  1  0.86528800  0.42615200  0.26012000  1
  C  C33  1  0.36528800  0.57384800  0.73988000  1
  C  C34  1  0.86528800  0.07384800  0.76012000  1
  C  C35  1  0.36528800  0.92615200  0.23988000  1
  C  C36  1  0.99572400  0.93881100  0.12413000  1
  C  C37  1  0.49572400  0.06118900  0.87587000  1
  C  C38  1  0.99572400  0.56118900  0.62413000  1
  C  C39  1  0.49572400  0.43881100  0.37587000  1
  C  C40  1  0.99784200  0.60694000  0.37636400  1
  C  C41  1  0.49784200  0.39306000  0.62363600  1
  C  C42  1  0.99784200  0.89306000  0.87636400  1
  C  C43  1  0.49784200  0.10694000  0.12363600  1
  C  C44  1  0.86122400  0.76700700  0.23851300  1
  C  C45  1  0.36122400  0.23299300  0.76148700  1
  C  C46  1  0.86122400  0.73299300  0.73851300  1
  C  C47  1  0.36122400  0.26700700  0.26148700  1
  C  C48  1  0.68685600  0.84482100  0.08028400  1
  C  C49  1  0.18685600  0.15517900  0.91971600  1
  C  C50  1  0.68685600  0.65517900  0.58028400  1
  C  C51  1  0.18685600  0.34482100  0.41971600  1
  C  C52  1  0.73198200  0.97254600  0.24707300  1
  C  C53  1  0.23198200  0.02745400  0.75292700  1
  C  C54  1  0.73198200  0.52745400  0.74707300  1
  C  C55  1  0.23198200  0.47254600  0.25292700  1
  C  C56  1  0.67329200  0.35578000  0.10443700  1
  C  C57  1  0.17329200  0.64422000  0.89556300  1
  C  C58  1  0.67329200  0.14422000  0.60443700  1
  C  C59  1  0.17329200  0.85578000  0.39556300  1
  C  C60  1  0.99887300  0.58302200  0.11495400  1
  C  C61  1  0.49887300  0.41697800  0.88504600  1
  C  C62  1  0.99887300  0.91697800  0.61495400  1
  C  C63  1  0.49887300  0.08302200  0.38504600  1
  C  C64  1  0.22778800  0.72234000  0.23332900  1
  C  C65  1  0.72778800  0.27766000  0.76667100  1
  C  C66  1  0.22778800  0.77766000  0.73332900  1
  C  C67  1  0.72778800  0.22234000  0.26667100  1
