# generated using pymatgen
data_Cu5Ni8C
_symmetry_space_group_name_H-M   'P 1'
_cell_length_a   8.02477592
_cell_length_b   8.02477592
_cell_length_c   8.02477592
_cell_angle_alpha   121.01973191
_cell_angle_beta   121.01973191
_cell_angle_gamma   88.24266443
_symmetry_Int_Tables_number   1
_chemical_formula_structural   Cu5Ni8C
_chemical_formula_sum   'Cu10 Ni16 C2'
_cell_volume   359.59699286
_cell_formula_units_Z   2
loop_
 _symmetry_equiv_pos_site_id
 _symmetry_equiv_pos_as_xyz
  1  'x, y, z'
loop_
 _atom_site_type_symbol
 _atom_site_label
 _atom_site_symmetry_multiplicity
 _atom_site_fract_x
 _atom_site_fract_y
 _atom_site_fract_z
 _atom_site_occupancy
  C  C0  1  0.25000000  0.25000000  0.00000000  1
  C  C1  1  0.75000000  0.75000000  0.00000000  1
  Ni  Ni2  1  0.28787400  0.78787400  0.72659000  1
  Ni  Ni3  1  0.71212600  0.21212600  0.27341000  1
  Ni  Ni4  1  0.06128500  0.56128500  0.27341000  1
  Ni  Ni5  1  0.78787400  0.06128500  0.50000000  1
  Ni  Ni6  1  0.43871500  0.71212600  0.50000000  1
  Ni  Ni7  1  0.93871500  0.43871500  0.72659000  1
  Ni  Ni8  1  0.21212600  0.93871500  0.50000000  1
  Ni  Ni9  1  0.56128500  0.28787400  0.50000000  1
  Ni  Ni10  1  0.20246500  0.05999500  0.26246100  1
  Ni  Ni11  1  0.79753500  0.94000500  0.73753900  1
  Ni  Ni12  1  0.05999500  0.79753500  0.85753000  1
  Ni  Ni13  1  0.70246500  0.44000500  0.14247000  1
  Ni  Ni14  1  0.94000500  0.20246500  0.14247000  1
  Ni  Ni15  1  0.29753500  0.55999500  0.85753000  1
  Ni  Ni16  1  0.55999500  0.70246500  0.26246100  1
  Ni  Ni17  1  0.44000500  0.29753500  0.73753900  1
  Cu  Cu18  1  0.81038300  0.31038300  0.86452500  1
  Cu  Cu19  1  0.18961700  0.68961700  0.13547500  1
  Cu  Cu20  1  0.44585800  0.94585800  0.13547500  1
  Cu  Cu21  1  0.31038300  0.44585800  0.50000000  1
  Cu  Cu22  1  0.05414200  0.18961700  0.50000000  1
  Cu  Cu23  1  0.55414200  0.05414200  0.86452500  1
  Cu  Cu24  1  0.68961700  0.55414200  0.50000000  1
  Cu  Cu25  1  0.94585800  0.81038300  0.50000000  1
  Cu  Cu26  1  0.50000000  0.00000000  0.50000000  1
  Cu  Cu27  1  0.00000000  0.50000000  0.50000000  1
