# generated using pymatgen
data_Cu(NiC2)2
_symmetry_space_group_name_H-M   'P 1'
_cell_length_a   6.49607526
_cell_length_b   6.49607526
_cell_length_c   5.82416109
_cell_angle_alpha   63.73925130
_cell_angle_beta   63.73925130
_cell_angle_gamma   30.18481906
_symmetry_Int_Tables_number   1
_chemical_formula_structural   Cu(NiC2)2
_chemical_formula_sum   'Cu1 Ni2 C4'
_cell_volume   109.83351821
_cell_formula_units_Z   1
loop_
 _symmetry_equiv_pos_site_id
 _symmetry_equiv_pos_as_xyz
  1  'x, y, z'
loop_
 _atom_site_type_symbol
 _atom_site_label
 _atom_site_symmetry_multiplicity
 _atom_site_fract_x
 _atom_site_fract_y
 _atom_site_fract_z
 _atom_site_occupancy
  Ni  Ni0  1  0.74362500  0.74362500  0.26486300  1
  Ni  Ni1  1  0.25637500  0.25637500  0.73513700  1
  Cu  Cu2  1  0.00000000  0.00000000  0.00000000  1
  C  C3  1  0.88538200  0.88538200  0.44365700  1
  C  C4  1  0.11461800  0.11461800  0.55634300  1
  C  C5  1  0.62017800  0.62017800  0.04032200  1
  C  C6  1  0.37982200  0.37982200  0.95967800  1
