# generated using pymatgen
data_CuNi3C11
_symmetry_space_group_name_H-M   'P 1'
_cell_length_a   10.25981215
_cell_length_b   10.25981215
_cell_length_c   11.58675000
_cell_angle_alpha   90.00000000
_cell_angle_beta   90.00000000
_cell_angle_gamma   120.00000095
_symmetry_Int_Tables_number   1
_chemical_formula_structural   CuNi3C11
_chemical_formula_sum   'Cu4 Ni12 C44'
_cell_volume   1056.26060489
_cell_formula_units_Z   4
loop_
 _symmetry_equiv_pos_site_id
 _symmetry_equiv_pos_as_xyz
  1  'x, y, z'
loop_
 _atom_site_type_symbol
 _atom_site_label
 _atom_site_symmetry_multiplicity
 _atom_site_fract_x
 _atom_site_fract_y
 _atom_site_fract_z
 _atom_site_occupancy
  C  C0  1  0.00000000  0.00000000  0.24013600  1
  C  C1  1  0.00000000  0.00000000  0.75986400  1
  Ni  Ni2  1  0.73793300  0.07657600  0.33807500  1
  Ni  Ni3  1  0.92342400  0.66135700  0.33807500  1
  Ni  Ni4  1  0.33864300  0.26206700  0.33807500  1
  Ni  Ni5  1  0.26206700  0.92342400  0.66192500  1
  Ni  Ni6  1  0.07657600  0.33864300  0.66192500  1
  Ni  Ni7  1  0.66135700  0.73793300  0.66192500  1
  Ni  Ni8  1  0.65094900  0.85900400  0.14948100  1
  Ni  Ni9  1  0.14099600  0.79194500  0.14948100  1
  Ni  Ni10  1  0.20805500  0.34905100  0.14948100  1
  Ni  Ni11  1  0.34905100  0.14099600  0.85051900  1
  Ni  Ni12  1  0.85900400  0.20805500  0.85051900  1
  Ni  Ni13  1  0.79194500  0.65094900  0.85051900  1
  Cu  Cu14  1  0.33333300  0.66666700  0.87496000  1
  Cu  Cu15  1  0.66666700  0.33333300  0.12504000  1
  Cu  Cu16  1  0.33333300  0.66666700  0.43839400  1
  Cu  Cu17  1  0.66666700  0.33333300  0.56160600  1
  C  C18  1  0.67998000  0.02249400  0.20611300  1
  C  C19  1  0.97750600  0.65748600  0.20611300  1
  C  C20  1  0.34251400  0.32002000  0.20611300  1
  C  C21  1  0.32002000  0.97750600  0.79388700  1
  C  C22  1  0.02249400  0.34251400  0.79388700  1
  C  C23  1  0.65748600  0.67998000  0.79388700  1
  C  C24  1  0.87662300  0.05924100  0.34986000  1
  C  C25  1  0.94075900  0.81738300  0.34986000  1
  C  C26  1  0.18261700  0.12337700  0.34986000  1
  C  C27  1  0.12337700  0.94075900  0.65014000  1
  C  C28  1  0.05924100  0.18261700  0.65014000  1
  C  C29  1  0.81738300  0.87662300  0.65014000  1
  C  C30  1  0.77803100  0.23250400  0.33654900  1
  C  C31  1  0.76749600  0.54552700  0.33654900  1
  C  C32  1  0.45447300  0.22196900  0.33654900  1
  C  C33  1  0.22196900  0.76749600  0.66345100  1
  C  C34  1  0.23250400  0.45447300  0.66345100  1
  C  C35  1  0.54552700  0.77803100  0.66345100  1
  C  C36  1  0.56860900  0.74180000  0.23171400  1
  C  C37  1  0.25820000  0.82681000  0.23171400  1
  C  C38  1  0.17319000  0.43139100  0.23171400  1
  C  C39  1  0.43139100  0.25820000  0.76828600  1
  C  C40  1  0.74180000  0.17319000  0.76828600  1
  C  C41  1  0.82681000  0.56860900  0.76828600  1
  C  C42  1  0.59066900  0.85868200  0.03843400  1
  C  C43  1  0.14131800  0.73198700  0.03843400  1
  C  C44  1  0.26801300  0.40933100  0.03843400  1
  C  C45  1  0.40933100  0.14131800  0.96156600  1
  C  C46  1  0.85868200  0.26801300  0.96156600  1
  C  C47  1  0.73198700  0.59066900  0.96156600  1
  C  C48  1  0.81288100  0.89052800  0.13496300  1
  C  C49  1  0.10947200  0.92235300  0.13496300  1
  C  C50  1  0.07764700  0.18711900  0.13496300  1
  C  C51  1  0.18711900  0.10947200  0.86503700  1
  C  C52  1  0.89052800  0.07764700  0.86503700  1
  C  C53  1  0.92235300  0.81288100  0.86503700  1
  C  C54  1  0.62521200  0.97984100  0.42002100  1
  C  C55  1  0.02015900  0.64537200  0.42002100  1
  C  C56  1  0.35462800  0.37478800  0.42002100  1
  C  C57  1  0.37478800  0.02015900  0.57997900  1
  C  C58  1  0.97984100  0.35462800  0.57997900  1
  C  C59  1  0.64537200  0.62521200  0.57997900  1
