# generated using pymatgen
data_Cu6Ni8C9
_symmetry_space_group_name_H-M   'P 1'
_cell_length_a   7.47466854
_cell_length_b   7.47466854
_cell_length_c   6.42276500
_cell_angle_alpha   90.00000000
_cell_angle_beta   90.00000000
_cell_angle_gamma   120.00000481
_symmetry_Int_Tables_number   1
_chemical_formula_structural   Cu6Ni8C9
_chemical_formula_sum   'Cu6 Ni8 C9'
_cell_volume   310.76816317
_cell_formula_units_Z   1
loop_
 _symmetry_equiv_pos_site_id
 _symmetry_equiv_pos_as_xyz
  1  'x, y, z'
loop_
 _atom_site_type_symbol
 _atom_site_label
 _atom_site_symmetry_multiplicity
 _atom_site_fract_x
 _atom_site_fract_y
 _atom_site_fract_z
 _atom_site_occupancy
  C  C0  1  0.33333300  0.66666700  0.61589300  1
  C  C1  1  0.66666700  0.33333300  0.38410700  1
  C  C2  1  0.00000000  0.00000000  0.50000000  1
  C  C3  1  0.59958000  0.77591600  0.10188800  1
  C  C4  1  0.17633600  0.40042000  0.10188800  1
  C  C5  1  0.22408400  0.82366400  0.10188800  1
  C  C6  1  0.40042000  0.22408400  0.89811200  1
  C  C7  1  0.82366400  0.59958000  0.89811200  1
  C  C8  1  0.77591600  0.17633600  0.89811200  1
  Ni  Ni9  1  0.33333300  0.66666700  0.07091800  1
  Ni  Ni10  1  0.66666700  0.33333300  0.92908200  1
  Ni  Ni11  1  0.67111600  0.69344600  0.90326500  1
  Ni  Ni12  1  0.02233000  0.32888400  0.90326500  1
  Ni  Ni13  1  0.30655400  0.97767000  0.90326500  1
  Ni  Ni14  1  0.32888400  0.30655400  0.09673500  1
  Ni  Ni15  1  0.97767000  0.67111600  0.09673500  1
  Ni  Ni16  1  0.69344600  0.02233000  0.09673500  1
  Cu  Cu17  1  0.63239000  0.71014400  0.31971300  1
  Cu  Cu18  1  0.07775300  0.36761000  0.31971300  1
  Cu  Cu19  1  0.28985600  0.92224700  0.31971300  1
  Cu  Cu20  1  0.36761000  0.28985600  0.68028700  1
  Cu  Cu21  1  0.92224700  0.63239000  0.68028700  1
  Cu  Cu22  1  0.71014400  0.07775300  0.68028700  1
