# generated using pymatgen
data_Cu3Ni10C27
_symmetry_space_group_name_H-M   'P 1'
_cell_length_a   7.65609900
_cell_length_b   8.86158678
_cell_length_c   17.99660667
_cell_angle_alpha   103.46539544
_cell_angle_beta   91.46618975
_cell_angle_gamma   109.77051903
_symmetry_Int_Tables_number   1
_chemical_formula_structural   Cu3Ni10C27
_chemical_formula_sum   'Cu3 Ni10 C27'
_cell_volume   1110.13897646
_cell_formula_units_Z   1
loop_
 _symmetry_equiv_pos_site_id
 _symmetry_equiv_pos_as_xyz
  1  'x, y, z'
loop_
 _atom_site_type_symbol
 _atom_site_label
 _atom_site_symmetry_multiplicity
 _atom_site_fract_x
 _atom_site_fract_y
 _atom_site_fract_z
 _atom_site_occupancy
  C  C0  1  0.68354300  0.12804100  0.62299400  1
  C  C1  1  0.31610100  0.87325600  0.37792900  1
  C  C2  1  0.22926600  0.46197000  0.18520000  1
  C  C3  1  0.76872500  0.54335900  0.81469200  1
  C  C4  1  0.79791100  0.95672500  0.97529300  1
  Ni  Ni5  1  0.28642400  0.96782300  0.81086600  1
  Ni  Ni6  1  0.71047000  0.03145000  0.19143200  1
  Ni  Ni7  1  0.16670700  0.20154200  0.59600400  1
  Ni  Ni8  1  0.83887100  0.80059500  0.40524200  1
  Ni  Ni9  1  0.41401300  0.38309700  0.41179700  1
  Ni  Ni10  1  0.57824200  0.61454700  0.58925600  1
  Ni  Ni11  1  0.76162200  0.61617700  0.20835300  1
  Ni  Ni12  1  0.24124800  0.38360100  0.79778800  1
  Ni  Ni13  1  0.31424100  0.05265700  0.01809700  1
  Ni  Ni14  1  0.86406300  0.27858000  0.39284600  1
  Cu  Cu15  1  0.13917300  0.71404600  0.61870100  1
  Cu  Cu16  1  0.26350100  0.58100100  0.96722200  1
  Cu  Cu17  1  0.75051500  0.41628100  0.02896200  1
  C  C18  1  0.91308600  0.62767600  0.09177000  1
  C  C19  1  0.07139400  0.36496800  0.90834200  1
  C  C20  1  0.44402100  0.27452600  0.68892600  1
  C  C21  1  0.56545000  0.73082400  0.30949800  1
  C  C22  1  0.48472500  0.29123700  0.08955900  1
  C  C23  1  0.49848200  0.68674200  0.89679200  1
  C  C24  1  0.01429400  0.54980100  0.30839900  1
  C  C25  1  0.99588900  0.45965500  0.68963600  1
  C  C26  1  0.09184400  0.76890400  0.91561200  1
  C  C27  1  0.91552200  0.23572200  0.08794500  1
  C  C28  1  0.05203300  0.87031600  0.67983900  1
  C  C29  1  0.96365500  0.12238600  0.32224600  1
  C  C30  1  0.54507500  0.24982300  0.32754200  1
  C  C31  1  0.44327700  0.74911900  0.67054000  1
  C  C32  1  0.71878800  0.47729100  0.48781800  1
  C  C33  1  0.27505900  0.51984300  0.51206100  1
  C  C34  1  0.48249100  0.85441000  0.09314400  1
  C  C35  1  0.49762500  0.17054600  0.90763000  1
  C  C36  1  0.69417100  0.89326700  0.49091000  1
  C  C37  1  0.30622700  0.10853700  0.50799500  1
  C  C38  1  0.03042000  0.09877500  0.79532300  1
  C  C39  1  0.96193700  0.90358400  0.19690100  1
