# generated using pymatgen
data_CuNi3C8
_symmetry_space_group_name_H-M   'P 1'
_cell_length_a   8.38580270
_cell_length_b   8.38580270
_cell_length_c   8.38580327
_cell_angle_alpha   33.52988283
_cell_angle_beta   33.52988283
_cell_angle_gamma   33.52988280
_symmetry_Int_Tables_number   1
_chemical_formula_structural   CuNi3C8
_chemical_formula_sum   'Cu1 Ni3 C8'
_cell_volume   160.25822926
_cell_formula_units_Z   1
loop_
 _symmetry_equiv_pos_site_id
 _symmetry_equiv_pos_as_xyz
  1  'x, y, z'
loop_
 _atom_site_type_symbol
 _atom_site_label
 _atom_site_symmetry_multiplicity
 _atom_site_fract_x
 _atom_site_fract_y
 _atom_site_fract_z
 _atom_site_occupancy
  Ni  Ni0  1  0.62510000  0.62510000  0.62510000  1
  Ni  Ni1  1  0.00130500  0.00130500  0.00130500  1
  Ni  Ni2  1  0.49880500  0.49880500  0.49880500  1
  Cu  Cu3  1  0.12469300  0.12469300  0.12469300  1
  C  C4  1  0.56249000  0.06545500  0.56249000  1
  C  C5  1  0.06211000  0.56030200  0.06211000  1
  C  C6  1  0.06545500  0.56249000  0.56249000  1
  C  C7  1  0.56030200  0.06211000  0.06211000  1
  C  C8  1  0.81262500  0.81262500  0.81262500  1
  C  C9  1  0.31251600  0.31251600  0.31251600  1
  C  C10  1  0.56249000  0.56249000  0.06545500  1
  C  C11  1  0.06211000  0.06211000  0.56030200  1
