# generated using pymatgen
data_Cu2Ni2C11
_symmetry_space_group_name_H-M   'P 1'
_cell_length_a   8.13767300
_cell_length_b   8.34407400
_cell_length_c   13.53136700
_cell_angle_alpha   90.00000000
_cell_angle_beta   110.23372640
_cell_angle_gamma   90.00000000
_symmetry_Int_Tables_number   1
_chemical_formula_structural   Cu2Ni2C11
_chemical_formula_sum   'Cu8 Ni8 C44'
_cell_volume   862.09863936
_cell_formula_units_Z   4
loop_
 _symmetry_equiv_pos_site_id
 _symmetry_equiv_pos_as_xyz
  1  'x, y, z'
loop_
 _atom_site_type_symbol
 _atom_site_label
 _atom_site_symmetry_multiplicity
 _atom_site_fract_x
 _atom_site_fract_y
 _atom_site_fract_z
 _atom_site_occupancy
  C  C0  1  0.18278100  0.27742700  0.91548700  1
  C  C1  1  0.18278100  0.22257300  0.41548700  1
  C  C2  1  0.81721900  0.72257300  0.08451300  1
  C  C3  1  0.81721900  0.77742700  0.58451300  1
  Ni  Ni4  1  0.47733900  0.55425700  0.26858200  1
  Ni  Ni5  1  0.47733900  0.94574300  0.76858200  1
  Ni  Ni6  1  0.52266100  0.44574300  0.73141800  1
  Ni  Ni7  1  0.52266100  0.05425700  0.23141800  1
  Ni  Ni8  1  0.24412000  0.80326300  0.89463300  1
  Ni  Ni9  1  0.24412000  0.69673700  0.39463300  1
  Ni  Ni10  1  0.75588000  0.19673700  0.10536700  1
  Ni  Ni11  1  0.75588000  0.30326300  0.60536700  1
  Cu  Cu12  1  0.53522000  0.39826500  0.15501900  1
  Cu  Cu13  1  0.53522000  0.10173500  0.65501900  1
  Cu  Cu14  1  0.46478000  0.60173500  0.84498100  1
  Cu  Cu15  1  0.46478000  0.89826500  0.34498100  1
  Cu  Cu16  1  0.97772300  0.87371300  0.87089500  1
  Cu  Cu17  1  0.97772300  0.62628700  0.37089500  1
  Cu  Cu18  1  0.02227700  0.12628700  0.12910500  1
  Cu  Cu19  1  0.02227700  0.37371300  0.62910500  1
  C  C20  1  0.99733800  0.40320700  0.89675700  1
  C  C21  1  0.99733800  0.09679300  0.39675700  1
  C  C22  1  0.00266200  0.59679300  0.10324300  1
  C  C23  1  0.00266200  0.90320700  0.60324300  1
  C  C24  1  0.36687200  0.14889600  0.93381600  1
  C  C25  1  0.36687200  0.35110400  0.43381600  1
  C  C26  1  0.63312800  0.85110400  0.06618400  1
  C  C27  1  0.63312800  0.64889600  0.56618400  1
  C  C28  1  0.65226400  0.51230000  0.12974300  1
  C  C29  1  0.65226400  0.98770000  0.62974300  1
  C  C30  1  0.34773600  0.48770000  0.87025700  1
  C  C31  1  0.34773600  0.01230000  0.37025700  1
  C  C32  1  0.35624800  0.40886000  0.07704700  1
  C  C33  1  0.35624800  0.09114000  0.57704700  1
  C  C34  1  0.64375200  0.59114000  0.92295300  1
  C  C35  1  0.64375200  0.90886000  0.42295300  1
  C  C36  1  0.60670500  0.23555300  0.17179200  1
  C  C37  1  0.60670500  0.26444700  0.67179200  1
  C  C38  1  0.39329500  0.76444700  0.82820800  1
  C  C39  1  0.39329500  0.73555300  0.32820800  1
  C  C40  1  0.52430700  0.44503500  0.26484400  1
  C  C41  1  0.52430700  0.05496500  0.76484400  1
  C  C42  1  0.47569300  0.55496500  0.73515600  1
  C  C43  1  0.47569300  0.94503500  0.23515600  1
  C  C44  1  0.87807700  0.85766000  0.94187300  1
  C  C45  1  0.87807700  0.64234000  0.44187300  1
  C  C46  1  0.12192300  0.14234000  0.05812700  1
  C  C47  1  0.12192300  0.35766000  0.55812700  1
  C  C48  1  0.89859700  0.77926000  0.77435000  1
  C  C49  1  0.89859700  0.72074000  0.27435000  1
  C  C50  1  0.10140300  0.22074000  0.22565000  1
  C  C51  1  0.10140300  0.27926000  0.72565000  1
  C  C52  1  0.00015500  0.04203000  0.84588900  1
  C  C53  1  0.00015500  0.45797000  0.34588900  1
  C  C54  1  0.99984500  0.95797000  0.15411100  1
  C  C55  1  0.99984500  0.54203000  0.65411100  1
  C  C56  1  0.16064500  0.80139100  0.93474300  1
  C  C57  1  0.16064500  0.69860900  0.43474300  1
  C  C58  1  0.83935500  0.19860900  0.06525700  1
  C  C59  1  0.83935500  0.30139100  0.56525700  1
