# generated using pymatgen
data_Cu2Ni3C16
_symmetry_space_group_name_H-M   'P 1'
_cell_length_a   7.78683800
_cell_length_b   7.89070390
_cell_length_c   11.21507677
_cell_angle_alpha   98.11833185
_cell_angle_beta   104.56653604
_cell_angle_gamma   98.95277552
_symmetry_Int_Tables_number   1
_chemical_formula_structural   Cu2Ni3C16
_chemical_formula_sum   'Cu4 Ni6 C32'
_cell_volume   646.99060248
_cell_formula_units_Z   2
loop_
 _symmetry_equiv_pos_site_id
 _symmetry_equiv_pos_as_xyz
  1  'x, y, z'
loop_
 _atom_site_type_symbol
 _atom_site_label
 _atom_site_symmetry_multiplicity
 _atom_site_fract_x
 _atom_site_fract_y
 _atom_site_fract_z
 _atom_site_occupancy
  Ni  Ni0  1  0.89109500  0.25009000  0.72680400  1
  Ni  Ni1  1  0.10890500  0.74991000  0.27319600  1
  Ni  Ni2  1  0.43272500  0.15631700  0.70667800  1
  Ni  Ni3  1  0.56727500  0.84368300  0.29332200  1
  Ni  Ni4  1  0.91812400  0.35334700  0.28224500  1
  Ni  Ni5  1  0.08187600  0.64665300  0.71775500  1
  Cu  Cu6  1  0.13801400  0.32199500  0.55162900  1
  Cu  Cu7  1  0.86198600  0.67800500  0.44837100  1
  Cu  Cu8  1  0.17352100  0.06124700  0.87918800  1
  Cu  Cu9  1  0.82647900  0.93875300  0.12081200  1
  C  C10  1  0.98837400  0.22015500  0.59802200  1
  C  C11  1  0.01162600  0.77984500  0.40197800  1
  C  C12  1  0.08221900  0.29603100  0.40834000  1
  C  C13  1  0.91778100  0.70396900  0.59166000  1
  C  C14  1  0.18085300  0.51732500  0.61362700  1
  C  C15  1  0.81914700  0.48267500  0.38637300  1
  C  C16  1  0.31480400  0.24891700  0.58854700  1
  C  C17  1  0.68519600  0.75108300  0.41145300  1
  C  C18  1  0.31682700  0.14773500  0.81934400  1
  C  C19  1  0.68317300  0.85226500  0.18065600  1
  C  C20  1  0.00002800  0.13492200  0.83554600  1
  C  C21  1  0.99997200  0.86507800  0.16445400  1
  C  C22  1  0.11953000  0.86128200  0.81852400  1
  C  C23  1  0.88047000  0.13871800  0.18147600  1
  C  C24  1  0.24604000  0.09121200  0.01953000  1
  C  C25  1  0.75396000  0.90878800  0.98047000  1
  C  C26  1  0.65235000  0.15265000  0.64930900  1
  C  C27  1  0.34765000  0.84735000  0.35069100  1
  C  C28  1  0.37599100  0.89428900  0.65505900  1
  C  C29  1  0.62400900  0.10571100  0.34494100  1
  C  C30  1  0.66677200  0.22606200  0.78846200  1
  C  C31  1  0.33322800  0.77393800  0.21153800  1
  C  C32  1  0.95217200  0.48311000  0.77596600  1
  C  C33  1  0.04782800  0.51689000  0.22403400  1
  C  C34  1  0.75770800  0.58411400  0.81135200  1
  C  C35  1  0.24229200  0.41588600  0.18864800  1
  C  C36  1  0.48067500  0.82479300  0.60376200  1
  C  C37  1  0.51932500  0.17520700  0.39623800  1
  C  C38  1  0.69694000  0.32490800  0.15540800  1
  C  C39  1  0.30306000  0.67509200  0.84459200  1
  C  C40  1  0.75611700  0.59798900  0.91972300  1
  C  C41  1  0.24388300  0.40201100  0.08027700  1
