# generated using pymatgen
data_Cu2NiC7
_symmetry_space_group_name_H-M   'P 1'
_cell_length_a   8.46175971
_cell_length_b   8.46175971
_cell_length_c   8.46175971
_cell_angle_alpha   107.61007284
_cell_angle_beta   107.61007284
_cell_angle_gamma   113.26130145
_symmetry_Int_Tables_number   1
_chemical_formula_structural   Cu2NiC7
_chemical_formula_sum   'Cu4 Ni2 C14'
_cell_volume   464.86037269
_cell_formula_units_Z   2
loop_
 _symmetry_equiv_pos_site_id
 _symmetry_equiv_pos_as_xyz
  1  'x, y, z'
loop_
 _atom_site_type_symbol
 _atom_site_label
 _atom_site_symmetry_multiplicity
 _atom_site_fract_x
 _atom_site_fract_y
 _atom_site_fract_z
 _atom_site_occupancy
  Ni  Ni0  1  0.66027800  0.66027800  0.00000000  1
  Ni  Ni1  1  0.16027800  0.16027800  0.00000000  1
  C  C2  1  0.58856500  0.76986700  0.73936500  1
  C  C3  1  0.03050200  0.84920100  0.26063500  1
  C  C4  1  0.76986700  0.03050200  0.18130100  1
  C  C5  1  0.53050200  0.26986700  0.18130100  1
  C  C6  1  0.84920100  0.58856500  0.81869900  1
  C  C7  1  0.08856500  0.34920100  0.81869900  1
  C  C8  1  0.34920100  0.53050200  0.26063500  1
  C  C9  1  0.26986700  0.08856500  0.73936500  1
  Cu  Cu10  1  0.36607700  0.86607700  0.19628900  1
  Cu  Cu11  1  0.66978900  0.16978900  0.80371100  1
  Cu  Cu12  1  0.86607700  0.66978900  0.50000000  1
  Cu  Cu13  1  0.16978900  0.36607700  0.50000000  1
  C  C14  1  0.72628100  0.22628100  0.17318800  1
  C  C15  1  0.05309300  0.55309300  0.82681200  1
  C  C16  1  0.22628100  0.05309300  0.50000000  1
  C  C17  1  0.55309300  0.72628100  0.50000000  1
  C  C18  1  0.97244800  0.97244800  0.00000000  1
  C  C19  1  0.47244800  0.47244800  0.00000000  1
