# generated using pymatgen
data_Cu4NiC3
_symmetry_space_group_name_H-M   'P 1'
_cell_length_a   8.26710470
_cell_length_b   8.26710470
_cell_length_c   15.30398057
_cell_angle_alpha   88.86701070
_cell_angle_beta   88.86701070
_cell_angle_gamma   63.54550671
_symmetry_Int_Tables_number   1
_chemical_formula_structural   Cu4NiC3
_chemical_formula_sum   'Cu32 Ni8 C24'
_cell_volume   936.17442415
_cell_formula_units_Z   8
loop_
 _symmetry_equiv_pos_site_id
 _symmetry_equiv_pos_as_xyz
  1  'x, y, z'
loop_
 _atom_site_type_symbol
 _atom_site_label
 _atom_site_symmetry_multiplicity
 _atom_site_fract_x
 _atom_site_fract_y
 _atom_site_fract_z
 _atom_site_occupancy
  C  C0  1  0.76275400  0.49789500  0.05421500  1
  C  C1  1  0.50210500  0.23724600  0.44578500  1
  C  C2  1  0.23724600  0.50210500  0.94578500  1
  C  C3  1  0.49789500  0.76275400  0.55421500  1
  C  C4  1  0.99609000  0.75370600  0.42114900  1
  C  C5  1  0.24629400  0.00391000  0.07885100  1
  C  C6  1  0.00391000  0.24629400  0.57885100  1
  C  C7  1  0.75370600  0.99609000  0.92114900  1
  C  C8  1  0.12244200  0.38123500  0.24740400  1
  C  C9  1  0.61876500  0.87755800  0.25259600  1
  C  C10  1  0.87755800  0.61876500  0.75259600  1
  C  C11  1  0.38123500  0.12244200  0.74740400  1
  C  C12  1  0.82880900  0.17119100  0.25000000  1
  C  C13  1  0.17119100  0.82880900  0.75000000  1
  C  C14  1  0.42091600  0.57908400  0.25000000  1
  C  C15  1  0.57908400  0.42091600  0.75000000  1
  Ni  Ni16  1  0.76502800  0.50883100  0.38272900  1
  Ni  Ni17  1  0.49116900  0.23497200  0.11727100  1
  Ni  Ni18  1  0.23497200  0.49116900  0.61727100  1
  Ni  Ni19  1  0.50883100  0.76502800  0.88272900  1
  Ni  Ni20  1  0.01462100  0.76874800  0.14300600  1
  Ni  Ni21  1  0.23125200  0.98537900  0.35699400  1
  Ni  Ni22  1  0.98537900  0.23125200  0.85699400  1
  Ni  Ni23  1  0.76874800  0.01462100  0.64300600  1
  Cu  Cu24  1  0.96264400  0.43373500  0.36498900  1
  Cu  Cu25  1  0.56626500  0.03735600  0.13501100  1
  Cu  Cu26  1  0.03735600  0.56626500  0.63501100  1
  Cu  Cu27  1  0.43373500  0.96264400  0.86498900  1
  Cu  Cu28  1  0.29055000  0.31909600  0.12916300  1
  Cu  Cu29  1  0.68090400  0.70945000  0.37083700  1
  Cu  Cu30  1  0.70945000  0.68090400  0.87083700  1
  Cu  Cu31  1  0.31909600  0.29055000  0.62916300  1
  Cu  Cu32  1  0.73240000  0.46150200  0.47235000  1
  Cu  Cu33  1  0.53849800  0.26760000  0.02765000  1
  Cu  Cu34  1  0.26760000  0.53849800  0.52765000  1
  Cu  Cu35  1  0.46150200  0.73240000  0.97235000  1
  Cu  Cu36  1  0.68077000  0.42919900  0.31924500  1
  Cu  Cu37  1  0.57080100  0.31923000  0.18075500  1
  Cu  Cu38  1  0.31923000  0.57080100  0.68075500  1
  Cu  Cu39  1  0.42919900  0.68077000  0.81924500  1
  Cu  Cu40  1  0.03147200  0.06009200  0.34793900  1
  Cu  Cu41  1  0.93990800  0.96852800  0.15206100  1
  Cu  Cu42  1  0.96852800  0.93990800  0.65206100  1
  Cu  Cu43  1  0.06009200  0.03147200  0.84793900  1
  Cu  Cu44  1  0.31001900  0.78583700  0.34719400  1
  Cu  Cu45  1  0.21416300  0.68998100  0.15280600  1
  Cu  Cu46  1  0.68998100  0.21416300  0.65280600  1
  Cu  Cu47  1  0.78583700  0.31001900  0.84719400  1
  Cu  Cu48  1  0.03002200  0.27426100  0.94398800  1
  Cu  Cu49  1  0.72573900  0.96997800  0.55601200  1
  Cu  Cu50  1  0.96997800  0.72573900  0.05601200  1
  Cu  Cu51  1  0.27426100  0.03002200  0.44398800  1
  Cu  Cu52  1  0.93580800  0.69213400  0.21408900  1
  Cu  Cu53  1  0.30786600  0.06419200  0.28591100  1
  Cu  Cu54  1  0.06419200  0.30786600  0.78591100  1
  Cu  Cu55  1  0.69213400  0.93580800  0.71408900  1
  C  C56  1  0.96851800  0.28964100  0.18442000  1
  C  C57  1  0.71036000  0.03148200  0.31558000  1
  C  C58  1  0.03148200  0.71036000  0.81558000  1
  C  C59  1  0.28964100  0.96851800  0.68442000  1
  C  C60  1  0.28473300  0.45699600  0.31279200  1
  C  C61  1  0.54300400  0.71526700  0.18720800  1
  C  C62  1  0.71526700  0.54300400  0.68720800  1
  C  C63  1  0.45699600  0.28473300  0.81279200  1
