# generated using pymatgen
data_Cu3NiC15
_symmetry_space_group_name_H-M   'P 1'
_cell_length_a   8.74162344
_cell_length_b   8.74162344
_cell_length_c   6.79058404
_cell_angle_alpha   74.37680346
_cell_angle_beta   74.37680346
_cell_angle_gamma   93.87137966
_symmetry_Int_Tables_number   1
_chemical_formula_structural   Cu3NiC15
_chemical_formula_sum   'Cu6 Ni2 C30'
_cell_volume   475.75572212
_cell_formula_units_Z   2
loop_
 _symmetry_equiv_pos_site_id
 _symmetry_equiv_pos_as_xyz
  1  'x, y, z'
loop_
 _atom_site_type_symbol
 _atom_site_label
 _atom_site_symmetry_multiplicity
 _atom_site_fract_x
 _atom_site_fract_y
 _atom_site_fract_z
 _atom_site_occupancy
  C  C0  1  0.72406600  0.27593400  0.75000000  1
  C  C1  1  0.27593400  0.72406600  0.25000000  1
  C  C2  1  0.05389500  0.37604300  0.87492400  1
  C  C3  1  0.62395700  0.94610500  0.62507600  1
  C  C4  1  0.94610500  0.62395700  0.12507600  1
  C  C5  1  0.37604300  0.05389500  0.37492400  1
  Ni  Ni6  1  0.01271500  0.98728500  0.75000000  1
  Ni  Ni7  1  0.98728500  0.01271500  0.25000000  1
  Cu  Cu8  1  0.30485600  0.69514400  0.75000000  1
  Cu  Cu9  1  0.69514400  0.30485600  0.25000000  1
  Cu  Cu10  1  0.87843300  0.65358100  0.61809800  1
  Cu  Cu11  1  0.34641900  0.12156700  0.88190200  1
  Cu  Cu12  1  0.12156700  0.34641900  0.38190200  1
  Cu  Cu13  1  0.65358100  0.87843300  0.11809800  1
  C  C14  1  0.15081100  0.16406400  0.90022000  1
  C  C15  1  0.83593600  0.84918900  0.59978000  1
  C  C16  1  0.84918900  0.83593600  0.09978000  1
  C  C17  1  0.16406400  0.15081100  0.40022000  1
  C  C18  1  0.71995100  0.51620800  0.66511000  1
  C  C19  1  0.48379200  0.28004900  0.83489000  1
  C  C20  1  0.28004900  0.48379200  0.33489000  1
  C  C21  1  0.51620800  0.71995100  0.16511000  1
  C  C22  1  0.26169800  0.49524800  0.76698000  1
  C  C23  1  0.50475200  0.73830200  0.73302000  1
  C  C24  1  0.73830200  0.50475200  0.23302000  1
  C  C25  1  0.49524800  0.26169800  0.26698000  1
  C  C26  1  0.98145800  0.32561700  0.63088900  1
  C  C27  1  0.67438300  0.01854200  0.86911100  1
  C  C28  1  0.01854200  0.67438300  0.36911100  1
  C  C29  1  0.32561700  0.98145800  0.13088900  1
  C  C30  1  0.97486800  0.60213500  0.81839900  1
  C  C31  1  0.39786500  0.02513200  0.68160100  1
  C  C32  1  0.02513200  0.39786500  0.18160100  1
  C  C33  1  0.60213500  0.97486800  0.31839900  1
  C  C34  1  0.18566800  0.72709900  0.98158900  1
  C  C35  1  0.27290100  0.81433200  0.51841100  1
  C  C36  1  0.81433200  0.27290100  0.01841100  1
  C  C37  1  0.72709900  0.18566800  0.48158900  1
