# generated using pymatgen
data_Cu3NiC4
_symmetry_space_group_name_H-M   'P 1'
_cell_length_a   9.93191518
_cell_length_b   9.93191518
_cell_length_c   9.93191518
_cell_angle_alpha   135.88580383
_cell_angle_beta   135.88580383
_cell_angle_gamma   64.15693376
_symmetry_Int_Tables_number   1
_chemical_formula_structural   Cu3NiC4
_chemical_formula_sum   'Cu12 Ni4 C16'
_cell_volume   468.27119359
_cell_formula_units_Z   4
loop_
 _symmetry_equiv_pos_site_id
 _symmetry_equiv_pos_as_xyz
  1  'x, y, z'
loop_
 _atom_site_type_symbol
 _atom_site_label
 _atom_site_symmetry_multiplicity
 _atom_site_fract_x
 _atom_site_fract_y
 _atom_site_fract_z
 _atom_site_occupancy
  C  C0  1  0.90859100  0.71765100  0.43744100  1
  C  C1  1  0.28021000  0.47115000  0.56255900  1
  C  C2  1  0.46765100  0.53021000  0.30906000  1
  C  C3  1  0.84140900  0.53234900  0.06255900  1
  C  C4  1  0.22115000  0.15859100  0.69094000  1
  C  C5  1  0.46979000  0.77885000  0.93744100  1
  C  C6  1  0.28234900  0.71979000  0.19094000  1
  C  C7  1  0.52885000  0.09140900  0.80906000  1
  C  C8  1  0.26520300  0.20704800  0.29334800  1
  C  C9  1  0.91369900  0.97185500  0.70665200  1
  C  C10  1  0.95704800  0.16369900  0.44184500  1
  C  C11  1  0.48479700  0.04295200  0.20665200  1
  C  C12  1  0.72185500  0.51520300  0.55815500  1
  C  C13  1  0.83630100  0.27814500  0.79334800  1
  C  C14  1  0.79295200  0.08630100  0.05815500  1
  C  C15  1  0.02814500  0.73479700  0.94184500  1
  Ni  Ni16  1  0.87500000  0.62500000  0.25000000  1
  Ni  Ni17  1  0.37500000  0.62500000  0.75000000  1
  Ni  Ni18  1  0.37500000  0.62500000  0.25000000  1
  Ni  Ni19  1  0.37500000  0.12500000  0.75000000  1
  Cu  Cu20  1  0.17636000  0.29718200  0.35121800  1
  Cu  Cu21  1  0.94596300  0.82514100  0.64878200  1
  Cu  Cu22  1  0.04718200  0.19596300  0.62082200  1
  Cu  Cu23  1  0.57364000  0.95281800  0.14878200  1
  Cu  Cu24  1  0.57514100  0.42636000  0.37917800  1
  Cu  Cu25  1  0.80403700  0.42485900  0.85121800  1
  Cu  Cu26  1  0.70281800  0.05403700  0.87917800  1
  Cu  Cu27  1  0.17485900  0.82364000  0.12082200  1
  Cu  Cu28  1  0.37500000  0.12500000  0.25000000  1
  Cu  Cu29  1  0.87500000  0.12500000  0.75000000  1
  Cu  Cu30  1  0.87500000  0.12500000  0.25000000  1
  Cu  Cu31  1  0.87500000  0.62500000  0.75000000  1
