# generated using pymatgen
data_CuNiC10
_symmetry_space_group_name_H-M   'P 1'
_cell_length_a   8.01826145
_cell_length_b   8.01826145
_cell_length_c   5.29835200
_cell_angle_alpha   90.00000000
_cell_angle_beta   90.00000000
_cell_angle_gamma   91.64901029
_symmetry_Int_Tables_number   1
_chemical_formula_structural   CuNiC10
_chemical_formula_sum   'Cu2 Ni2 C20'
_cell_volume   340.50331141
_cell_formula_units_Z   2
loop_
 _symmetry_equiv_pos_site_id
 _symmetry_equiv_pos_as_xyz
  1  'x, y, z'
loop_
 _atom_site_type_symbol
 _atom_site_label
 _atom_site_symmetry_multiplicity
 _atom_site_fract_x
 _atom_site_fract_y
 _atom_site_fract_z
 _atom_site_occupancy
  Ni  Ni0  1  0.16254100  0.83745900  0.49153700  1
  Ni  Ni1  1  0.83745900  0.16254100  0.49153700  1
  Cu  Cu2  1  0.65961500  0.65961500  0.51789400  1
  Cu  Cu3  1  0.34038500  0.34038500  0.51789400  1
  C  C4  1  0.36085400  0.63914600  0.03529500  1
  C  C5  1  0.84984400  0.84984400  0.96735400  1
  C  C6  1  0.63914600  0.36085400  0.03529500  1
  C  C7  1  0.15015600  0.15015600  0.96735400  1
  C  C8  1  0.50000000  0.00000000  0.99175000  1
  C  C9  1  0.00000000  0.50000000  0.99175000  1
  C  C10  1  0.00000000  0.00000000  0.82434800  1
  C  C11  1  0.50000000  0.50000000  0.22146700  1
  C  C12  1  0.37637800  0.62362200  0.69187400  1
  C  C13  1  0.84055000  0.84055000  0.30809200  1
  C  C14  1  0.62362200  0.37637800  0.69187400  1
  C  C15  1  0.15945000  0.15945000  0.30809200  1
  C  C16  1  0.41840800  0.83541600  0.20438600  1
  C  C17  1  0.89828600  0.65515700  0.78226300  1
  C  C18  1  0.58159200  0.16458400  0.20438600  1
  C  C19  1  0.10171400  0.34484300  0.78226300  1
  C  C20  1  0.34484300  0.10171400  0.78226300  1
  C  C21  1  0.83541600  0.41840800  0.20438600  1
  C  C22  1  0.65515700  0.89828600  0.78226300  1
  C  C23  1  0.16458400  0.58159200  0.20438600  1
