# generated using pymatgen
data_Cu2Ni14C9
_symmetry_space_group_name_H-M   'P 1'
_cell_length_a   4.79151795
_cell_length_b   4.85489509
_cell_length_c   11.86323053
_cell_angle_alpha   90.03178342
_cell_angle_beta   89.85813425
_cell_angle_gamma   90.39055355
_symmetry_Int_Tables_number   1
_chemical_formula_structural   Cu2Ni14C9
_chemical_formula_sum   'Cu2 Ni14 C9'
_cell_volume   275.95893201
_cell_formula_units_Z   1
loop_
 _symmetry_equiv_pos_site_id
 _symmetry_equiv_pos_as_xyz
  1  'x, y, z'
loop_
 _atom_site_type_symbol
 _atom_site_label
 _atom_site_symmetry_multiplicity
 _atom_site_fract_x
 _atom_site_fract_y
 _atom_site_fract_z
 _atom_site_occupancy
  C  C0  1  0.99964100  0.51692200  0.49853200  1
  C  C1  1  0.00169700  0.99147100  0.00402300  1
  C  C2  1  0.99589000  0.99282100  0.24595500  1
  C  C3  1  0.04986000  0.02344700  0.49713100  1
  C  C4  1  0.99835800  0.98970900  0.74688700  1
  C  C5  1  0.50226800  0.49176500  0.11879400  1
  C  C6  1  0.49949400  0.47681200  0.63898500  1
  C  C7  1  0.46784400  0.52625000  0.87623100  1
  C  C8  1  0.49884700  0.47829900  0.35795300  1
  Ni  Ni9  1  0.18812900  0.80370900  0.11931000  1
  Ni  Ni10  1  0.16692100  0.78200300  0.61492000  1
  Ni  Ni11  1  0.17047900  0.81516300  0.87866300  1
  Ni  Ni12  1  0.16771000  0.78018800  0.38054400  1
  Ni  Ni13  1  0.31064900  0.31418300  0.99694900  1
  Ni  Ni14  1  0.31533300  0.29131500  0.23728800  1
  Ni  Ni15  1  0.34657000  0.30547800  0.49822700  1
  Ni  Ni16  1  0.30360500  0.30003700  0.75931500  1
  Ni  Ni17  1  0.68184300  0.68187700  0.99684100  1
  Ni  Ni18  1  0.68386400  0.68800300  0.24108600  1
  Ni  Ni19  1  0.67341900  0.70292800  0.75421800  1
  Ni  Ni20  1  0.80928300  0.17931100  0.11825300  1
  Ni  Ni21  1  0.85002000  0.22958500  0.38193900  1
  Ni  Ni22  1  0.84768900  0.22980200  0.61446700  1
  Cu  Cu23  1  0.66757800  0.73020300  0.49775400  1
  Cu  Cu24  1  0.80300600  0.19261600  0.87573700  1
