# generated using pymatgen
data_CuNiC6
_symmetry_space_group_name_H-M   'P 1'
_cell_length_a   6.03485773
_cell_length_b   8.32042053
_cell_length_c   11.79825400
_cell_angle_alpha   90.00000000
_cell_angle_beta   90.00000000
_cell_angle_gamma   96.15811433
_symmetry_Int_Tables_number   1
_chemical_formula_structural   CuNiC6
_chemical_formula_sum   'Cu4 Ni4 C24'
_cell_volume   589.00199482
_cell_formula_units_Z   4
loop_
 _symmetry_equiv_pos_site_id
 _symmetry_equiv_pos_as_xyz
  1  'x, y, z'
loop_
 _atom_site_type_symbol
 _atom_site_label
 _atom_site_symmetry_multiplicity
 _atom_site_fract_x
 _atom_site_fract_y
 _atom_site_fract_z
 _atom_site_occupancy
  Ni  Ni0  1  0.75247500  0.44653700  0.32070700  1
  Ni  Ni1  1  0.74752500  0.55346300  0.82070700  1
  Ni  Ni2  1  0.24752500  0.55346300  0.67929300  1
  Ni  Ni3  1  0.25247500  0.44653700  0.17929300  1
  Cu  Cu4  1  0.83643000  0.73018600  0.07987400  1
  Cu  Cu5  1  0.66357000  0.26981400  0.57987400  1
  Cu  Cu6  1  0.16357000  0.26981400  0.92012600  1
  Cu  Cu7  1  0.33643000  0.73018600  0.42012600  1
  C  C8  1  0.70313900  0.60005300  0.14855600  1
  C  C9  1  0.79686100  0.39994700  0.64855600  1
  C  C10  1  0.29686100  0.39994700  0.85144400  1
  C  C11  1  0.20313900  0.60005300  0.35144400  1
  C  C12  1  0.61407800  0.93801300  0.13227700  1
  C  C13  1  0.88592200  0.06198700  0.63227700  1
  C  C14  1  0.38592200  0.06198700  0.86772300  1
  C  C15  1  0.11407800  0.93801300  0.36772300  1
  C  C16  1  0.04739000  0.81545800  0.12133900  1
  C  C17  1  0.45261000  0.18454200  0.62133900  1
  C  C18  1  0.95261000  0.18454200  0.87866100  1
  C  C19  1  0.54739000  0.81545800  0.37866100  1
  C  C20  1  0.76496200  0.74078900  0.95706500  1
  C  C21  1  0.73503800  0.25921100  0.45706500  1
  C  C22  1  0.23503800  0.25921100  0.04293500  1
  C  C23  1  0.26496200  0.74078900  0.54293500  1
  C  C24  1  0.97111100  0.32853400  0.23952600  1
  C  C25  1  0.52888900  0.67146600  0.73952600  1
  C  C26  1  0.02888900  0.67146600  0.76047400  1
  C  C27  1  0.47111100  0.32853400  0.26047400  1
  C  C28  1  0.67407200  0.07913500  0.10613300  1
  C  C29  1  0.82592800  0.92086500  0.60613300  1
  C  C30  1  0.32592800  0.92086500  0.89386700  1
  C  C31  1  0.17407200  0.07913500  0.39386700  1
