# generated using pymatgen
data_Cu(NiC3)2
_symmetry_space_group_name_H-M   'P 1'
_cell_length_a   6.38929631
_cell_length_b   6.38929631
_cell_length_c   5.31782007
_cell_angle_alpha   74.75979645
_cell_angle_beta   74.75979645
_cell_angle_gamma   83.59488884
_symmetry_Int_Tables_number   1
_chemical_formula_structural   Cu(NiC3)2
_chemical_formula_sum   'Cu2 Ni4 C12'
_cell_volume   201.87899960
_cell_formula_units_Z   2
loop_
 _symmetry_equiv_pos_site_id
 _symmetry_equiv_pos_as_xyz
  1  'x, y, z'
loop_
 _atom_site_type_symbol
 _atom_site_label
 _atom_site_symmetry_multiplicity
 _atom_site_fract_x
 _atom_site_fract_y
 _atom_site_fract_z
 _atom_site_occupancy
  Ni  Ni0  1  0.28878000  0.11279400  0.74421900  1
  Ni  Ni1  1  0.71122000  0.88720600  0.25578100  1
  Ni  Ni2  1  0.88720600  0.71122000  0.75578100  1
  Ni  Ni3  1  0.11279400  0.28878000  0.24421900  1
  Cu  Cu4  1  0.41363600  0.58636400  0.75000000  1
  Cu  Cu5  1  0.58636400  0.41363600  0.25000000  1
  C  C6  1  0.86236000  0.85742400  0.46427600  1
  C  C7  1  0.41724600  0.87647900  0.78398500  1
  C  C8  1  0.69541900  0.52889400  0.86296200  1
  C  C9  1  0.13764000  0.14257600  0.53572400  1
  C  C10  1  0.58275400  0.12352100  0.21601500  1
  C  C11  1  0.30458100  0.47110600  0.13703800  1
  C  C12  1  0.12352100  0.58275400  0.71601500  1
  C  C13  1  0.47110600  0.30458100  0.63703800  1
  C  C14  1  0.85742400  0.86236000  0.96427600  1
  C  C15  1  0.14257600  0.13764000  0.03572400  1
  C  C16  1  0.52889400  0.69541900  0.36296200  1
  C  C17  1  0.87647900  0.41724600  0.28398500  1
