# generated using pymatgen
data_CuNi3C8
_symmetry_space_group_name_H-M   'P 1'
_cell_length_a   9.89032737
_cell_length_b   9.89032737
_cell_length_c   9.89032743
_cell_angle_alpha   33.22359304
_cell_angle_beta   33.22359304
_cell_angle_gamma   33.22359481
_symmetry_Int_Tables_number   1
_chemical_formula_structural   CuNi3C8
_chemical_formula_sum   'Cu1 Ni3 C8'
_cell_volume   258.55477435
_cell_formula_units_Z   1
loop_
 _symmetry_equiv_pos_site_id
 _symmetry_equiv_pos_as_xyz
  1  'x, y, z'
loop_
 _atom_site_type_symbol
 _atom_site_label
 _atom_site_symmetry_multiplicity
 _atom_site_fract_x
 _atom_site_fract_y
 _atom_site_fract_z
 _atom_site_occupancy
  Ni  Ni0  1  0.37457100  0.37457100  0.37457100  1
  Ni  Ni1  1  0.99931500  0.99931500  0.99931500  1
  Ni  Ni2  1  0.50055500  0.50055500  0.50055500  1
  Cu  Cu3  1  0.87490300  0.87490300  0.87490300  1
  C  C4  1  0.43597900  0.93469400  0.43597900  1
  C  C5  1  0.93857000  0.44193000  0.93857000  1
  C  C6  1  0.43597900  0.43597900  0.93469400  1
  C  C7  1  0.93857000  0.93857000  0.44193000  1
  C  C8  1  0.18792600  0.18792600  0.18792600  1
  C  C9  1  0.68700900  0.68700900  0.68700900  1
  C  C10  1  0.93469400  0.43597900  0.43597900  1
  C  C11  1  0.44193000  0.93857000  0.93857000  1
