# generated using pymatgen
data_Cu2NiC12
_symmetry_space_group_name_H-M   'P 1'
_cell_length_a   5.53647300
_cell_length_b   9.60299300
_cell_length_c   13.64001263
_cell_angle_alpha   89.05795532
_cell_angle_beta   90.00000000
_cell_angle_gamma   90.00000000
_symmetry_Int_Tables_number   1
_chemical_formula_structural   Cu2NiC12
_chemical_formula_sum   'Cu8 Ni4 C48'
_cell_volume   725.09659612
_cell_formula_units_Z   4
loop_
 _symmetry_equiv_pos_site_id
 _symmetry_equiv_pos_as_xyz
  1  'x, y, z'
loop_
 _atom_site_type_symbol
 _atom_site_label
 _atom_site_symmetry_multiplicity
 _atom_site_fract_x
 _atom_site_fract_y
 _atom_site_fract_z
 _atom_site_occupancy
  Ni  Ni0  1  0.49226500  0.49629800  0.75021600  1
  Ni  Ni1  1  0.99226500  0.00370200  0.24978400  1
  Ni  Ni2  1  0.50773500  0.50370200  0.24978400  1
  Ni  Ni3  1  0.00773500  0.99629800  0.75021600  1
  Cu  Cu4  1  0.49071300  0.16978800  0.41714300  1
  Cu  Cu5  1  0.49154400  0.83697600  0.08454400  1
  Cu  Cu6  1  0.99154400  0.66302400  0.91545600  1
  Cu  Cu7  1  0.99071300  0.33021200  0.58285700  1
  Cu  Cu8  1  0.50928700  0.83021200  0.58285700  1
  Cu  Cu9  1  0.50845600  0.16302400  0.91545600  1
  Cu  Cu10  1  0.00928700  0.66978800  0.41714300  1
  Cu  Cu11  1  0.00845600  0.33697600  0.08454400  1
  C  C12  1  0.50000000  0.50000000  0.00000000  1
  C  C13  1  0.49929400  0.16550400  0.66799300  1
  C  C14  1  0.50070600  0.83449600  0.33200700  1
  C  C15  1  0.00000000  0.00000000  0.00000000  1
  C  C16  1  0.00070600  0.66550400  0.66799300  1
  C  C17  1  0.99929400  0.33449600  0.33200700  1
  C  C18  1  0.49947200  0.83267600  0.83282000  1
  C  C19  1  0.50000000  0.50000000  0.50000000  1
  C  C20  1  0.50052800  0.16732400  0.16718000  1
  C  C21  1  0.99947200  0.66732400  0.16718000  1
  C  C22  1  0.00052800  0.33267600  0.83282000  1
  C  C23  1  0.00000000  0.00000000  0.50000000  1
  C  C24  1  0.50347200  0.02332000  0.27243200  1
  C  C25  1  0.50190800  0.68920300  0.94030200  1
  C  C26  1  0.50245000  0.34923300  0.59962100  1
  C  C27  1  0.00190800  0.81079700  0.05969800  1
  C  C28  1  0.00347200  0.47668000  0.72756800  1
  C  C29  1  0.00245000  0.15076700  0.40037900  1
  C  C30  1  0.49652800  0.97668000  0.72756800  1
  C  C31  1  0.49755000  0.65076700  0.40037900  1
  C  C32  1  0.49809200  0.31079700  0.05969800  1
  C  C33  1  0.99809200  0.18920300  0.94030200  1
  C  C34  1  0.99755000  0.84923300  0.59962100  1
  C  C35  1  0.99652800  0.52332000  0.27243200  1
  C  C36  1  0.73630200  0.76779400  0.23421500  1
  C  C37  1  0.74519500  0.43592600  0.90619700  1
  C  C38  1  0.73456900  0.09991800  0.56641500  1
  C  C39  1  0.24519500  0.06407400  0.09380300  1
  C  C40  1  0.23630200  0.73220600  0.76578500  1
  C  C41  1  0.23456900  0.40008200  0.43358500  1
  C  C42  1  0.26583900  0.94259100  0.91394800  1
  C  C43  1  0.26226700  0.60973000  0.57310000  1
  C  C44  1  0.25803100  0.27326200  0.24176100  1
  C  C45  1  0.75803100  0.22673800  0.75823900  1
  C  C46  1  0.76226700  0.89027000  0.42690000  1
  C  C47  1  0.76583900  0.55740900  0.08605200  1
  C  C48  1  0.26369800  0.23220600  0.76578500  1
  C  C49  1  0.26543100  0.90008200  0.43358500  1
  C  C50  1  0.25480500  0.56407400  0.09380300  1
  C  C51  1  0.75480500  0.93592600  0.90619700  1
  C  C52  1  0.76543100  0.59991800  0.56641500  1
  C  C53  1  0.76369800  0.26779400  0.23421500  1
  C  C54  1  0.73416100  0.05740900  0.08605200  1
  C  C55  1  0.74196900  0.72673800  0.75823900  1
  C  C56  1  0.73773300  0.39027000  0.42690000  1
  C  C57  1  0.24196900  0.77326200  0.24176100  1
  C  C58  1  0.23416100  0.44259100  0.91394800  1
  C  C59  1  0.23773300  0.10973000  0.57310000  1
