# generated using pymatgen
data_CuNi3C16
_symmetry_space_group_name_H-M   'P 1'
_cell_length_a   7.79579300
_cell_length_b   7.91443500
_cell_length_c   7.94944000
_cell_angle_alpha   90.00000000
_cell_angle_beta   90.00000000
_cell_angle_gamma   90.00000000
_symmetry_Int_Tables_number   1
_chemical_formula_structural   CuNi3C16
_chemical_formula_sum   'Cu2 Ni6 C32'
_cell_volume   490.47485932
_cell_formula_units_Z   2
loop_
 _symmetry_equiv_pos_site_id
 _symmetry_equiv_pos_as_xyz
  1  'x, y, z'
loop_
 _atom_site_type_symbol
 _atom_site_label
 _atom_site_symmetry_multiplicity
 _atom_site_fract_x
 _atom_site_fract_y
 _atom_site_fract_z
 _atom_site_occupancy
  C  C0  1  0.50000000  0.74609100  0.00000000  1
  C  C1  1  0.00000000  0.74609100  0.00000000  1
  C  C2  1  0.50000000  0.25179800  0.00000000  1
  C  C3  1  0.00000000  0.25179800  0.00000000  1
  C  C4  1  0.50000000  0.25396900  0.50000000  1
  C  C5  1  0.00000000  0.25396900  0.50000000  1
  C  C6  1  0.50000000  0.74738000  0.50000000  1
  C  C7  1  0.00000000  0.74738000  0.50000000  1
  Ni  Ni8  1  0.75000000  0.99964100  0.74953400  1
  Ni  Ni9  1  0.25000000  0.99919100  0.74911400  1
  Ni  Ni10  1  0.75000000  0.50082600  0.74925600  1
  Ni  Ni11  1  0.75000000  0.99919100  0.25088600  1
  Ni  Ni12  1  0.25000000  0.99964100  0.25046600  1
  Ni  Ni13  1  0.25000000  0.50082600  0.25074400  1
  Cu  Cu14  1  0.25000000  0.50060200  0.74945300  1
  Cu  Cu15  1  0.75000000  0.50060200  0.25054700  1
  C  C16  1  0.75000000  0.99954200  0.00181000  1
  C  C17  1  0.25000000  0.99954200  0.99819000  1
  C  C18  1  0.75000000  0.49935900  0.00301300  1
  C  C19  1  0.25000000  0.49935900  0.99698700  1
  C  C20  1  0.75000000  0.99708600  0.49859500  1
  C  C21  1  0.25000000  0.99708600  0.50140500  1
  C  C22  1  0.75000000  0.50419600  0.49689400  1
  C  C23  1  0.25000000  0.50419600  0.50310600  1
  C  C24  1  0.75000000  0.74942800  0.74657500  1
  C  C25  1  0.25000000  0.74668700  0.74648800  1
  C  C26  1  0.75000000  0.25097000  0.74990700  1
  C  C27  1  0.25000000  0.25324800  0.75012400  1
  C  C28  1  0.75000000  0.74668700  0.25351200  1
  C  C29  1  0.25000000  0.74942800  0.25342500  1
  C  C30  1  0.75000000  0.25324800  0.24987600  1
  C  C31  1  0.25000000  0.25097000  0.25009300  1
  C  C32  1  0.50032700  0.99840100  0.74842100  1
  C  C33  1  0.99967300  0.99840100  0.74842100  1
  C  C34  1  0.49999200  0.50159200  0.74836700  1
  C  C35  1  0.00000800  0.50159200  0.74836700  1
  C  C36  1  0.49967300  0.99840100  0.25157900  1
  C  C37  1  0.00032700  0.99840100  0.25157900  1
  C  C38  1  0.50000800  0.50159200  0.25163300  1
  C  C39  1  0.99999200  0.50159200  0.25163300  1
