# generated using pymatgen
data_CuNiC6
_symmetry_space_group_name_H-M   'P 1'
_cell_length_a   7.49677200
_cell_length_b   8.11240800
_cell_length_c   12.03483600
_cell_angle_alpha   90.00000000
_cell_angle_beta   90.00000000
_cell_angle_gamma   90.00000000
_symmetry_Int_Tables_number   1
_chemical_formula_structural   CuNiC6
_chemical_formula_sum   'Cu4 Ni4 C24'
_cell_volume   731.92109436
_cell_formula_units_Z   4
loop_
 _symmetry_equiv_pos_site_id
 _symmetry_equiv_pos_as_xyz
  1  'x, y, z'
loop_
 _atom_site_type_symbol
 _atom_site_label
 _atom_site_symmetry_multiplicity
 _atom_site_fract_x
 _atom_site_fract_y
 _atom_site_fract_z
 _atom_site_occupancy
  C  C0  1  0.97586900  0.74984800  0.92876300  1
  C  C1  1  0.52413100  0.25015200  0.42876300  1
  C  C2  1  0.02413100  0.24984800  0.57123700  1
  C  C3  1  0.47586900  0.75015200  0.07123700  1
  Ni  Ni4  1  0.02345100  0.74998200  0.57337200  1
  Ni  Ni5  1  0.47654900  0.25001800  0.07337200  1
  Ni  Ni6  1  0.97654900  0.24998200  0.92662800  1
  Ni  Ni7  1  0.52345100  0.75001800  0.42662800  1
  Cu  Cu8  1  0.42992200  0.49935100  0.75610100  1
  Cu  Cu9  1  0.07007800  0.50064900  0.25610100  1
  Cu  Cu10  1  0.57007800  0.99935100  0.74389900  1
  Cu  Cu11  1  0.92992200  0.00064900  0.24389900  1
  C  C12  1  0.66022100  0.28990700  0.65461200  1
  C  C13  1  0.83977900  0.71009300  0.15461200  1
  C  C14  1  0.33977900  0.78990700  0.84538800  1
  C  C15  1  0.16022100  0.21009300  0.34538800  1
  C  C16  1  0.33575900  0.20963100  0.85007500  1
  C  C17  1  0.16424100  0.79036900  0.35007500  1
  C  C18  1  0.66424100  0.70963100  0.64992500  1
  C  C19  1  0.83575900  0.29036900  0.14992500  1
  C  C20  1  0.30271400  0.50941000  0.53487300  1
  C  C21  1  0.19728600  0.49059000  0.03487300  1
  C  C22  1  0.69728600  0.00941000  0.96512700  1
  C  C23  1  0.80271400  0.99059000  0.46512700  1
  C  C24  1  0.67034100  0.49005100  0.93728400  1
  C  C25  1  0.82965900  0.50994900  0.43728400  1
  C  C26  1  0.32965900  0.99005100  0.56271600  1
  C  C27  1  0.17034100  0.00994900  0.06271600  1
  C  C28  1  0.04115000  0.49986100  0.75062200  1
  C  C29  1  0.45885000  0.50013900  0.25062200  1
  C  C30  1  0.95885000  0.99986100  0.74937800  1
  C  C31  1  0.54115000  0.00013900  0.24937800  1
