# generated using pymatgen
data_CuNi2C9
_symmetry_space_group_name_H-M   'P 1'
_cell_length_a   7.34584900
_cell_length_b   7.34584900
_cell_length_c   4.76078700
_cell_angle_alpha   90.00000000
_cell_angle_beta   90.00000000
_cell_angle_gamma   90.00000000
_symmetry_Int_Tables_number   1
_chemical_formula_structural   CuNi2C9
_chemical_formula_sum   'Cu2 Ni4 C18'
_cell_volume   256.89919595
_cell_formula_units_Z   2
loop_
 _symmetry_equiv_pos_site_id
 _symmetry_equiv_pos_as_xyz
  1  'x, y, z'
loop_
 _atom_site_type_symbol
 _atom_site_label
 _atom_site_symmetry_multiplicity
 _atom_site_fract_x
 _atom_site_fract_y
 _atom_site_fract_z
 _atom_site_occupancy
  C  C0  1  0.15785500  0.34214500  0.50628600  1
  C  C1  1  0.84214500  0.65785500  0.50628600  1
  C  C2  1  0.65785500  0.15785500  0.49371400  1
  C  C3  1  0.34214500  0.84214500  0.49371400  1
  Ni  Ni4  1  0.63576000  0.86424000  0.94706800  1
  Ni  Ni5  1  0.36424000  0.13576000  0.94706800  1
  Ni  Ni6  1  0.13576000  0.63576000  0.05293200  1
  Ni  Ni7  1  0.86424000  0.36424000  0.05293200  1
  Cu  Cu8  1  0.00000000  0.00000000  0.00000000  1
  Cu  Cu9  1  0.50000000  0.50000000  0.00000000  1
  C  C10  1  0.00000000  0.50000000  0.19637500  1
  C  C11  1  0.50000000  0.00000000  0.80362500  1
  C  C12  1  0.64252500  0.85747500  0.28053700  1
  C  C13  1  0.35747500  0.14252500  0.28053700  1
  C  C14  1  0.14252500  0.64252500  0.71946300  1
  C  C15  1  0.85747500  0.35747500  0.71946300  1
  C  C16  1  0.08261800  0.82950400  0.22500400  1
  C  C17  1  0.91738200  0.17049600  0.22500400  1
  C  C18  1  0.17049600  0.08261800  0.77499600  1
  C  C19  1  0.41738200  0.32950400  0.77499600  1
  C  C20  1  0.82950400  0.91738200  0.77499600  1
  C  C21  1  0.58261800  0.67049600  0.77499600  1
  C  C22  1  0.32950400  0.58261800  0.22500400  1
  C  C23  1  0.67049600  0.41738200  0.22500400  1
