# generated using pymatgen
data_CuNiC7
_symmetry_space_group_name_H-M   'P 1'
_cell_length_a   10.77518294
_cell_length_b   11.23083706
_cell_length_c   17.51196689
_cell_angle_alpha   108.79796450
_cell_angle_beta   108.06282539
_cell_angle_gamma   89.80630576
_symmetry_Int_Tables_number   1
_chemical_formula_structural   CuNiC7
_chemical_formula_sum   'Cu16 Ni16 C112'
_cell_volume   1896.29056761
_cell_formula_units_Z   16
loop_
 _symmetry_equiv_pos_site_id
 _symmetry_equiv_pos_as_xyz
  1  'x, y, z'
loop_
 _atom_site_type_symbol
 _atom_site_label
 _atom_site_symmetry_multiplicity
 _atom_site_fract_x
 _atom_site_fract_y
 _atom_site_fract_z
 _atom_site_occupancy
  Ni  Ni0  1  0.30708300  0.56179600  0.61109300  1
  Ni  Ni1  1  0.80785300  0.06764800  0.60874300  1
  Ni  Ni2  1  0.80617000  0.56404100  0.61166200  1
  Ni  Ni3  1  0.18931200  0.43242500  0.38319100  1
  Ni  Ni4  1  0.19789600  0.43857700  0.89607800  1
  Ni  Ni5  1  0.69438300  0.43483300  0.38243400  1
  Ni  Ni6  1  0.69477000  0.93384000  0.38496800  1
  Ni  Ni7  1  0.70323600  0.93930700  0.89521900  1
  Ni  Ni8  1  0.06000500  0.29367300  0.61014400  1
  Ni  Ni9  1  0.05633400  0.79752300  0.61033400  1
  Ni  Ni10  1  0.56180100  0.29947400  0.61053900  1
  Ni  Ni11  1  0.55375700  0.79770300  0.60967400  1
  Ni  Ni12  1  0.44778700  0.19990300  0.38530200  1
  Ni  Ni13  1  0.45095600  0.20414400  0.89401800  1
  Ni  Ni14  1  0.94657800  0.19927800  0.38444600  1
  Ni  Ni15  1  0.95025400  0.20510800  0.89545300  1
  Cu  Cu16  1  0.30783400  0.06972000  0.10509800  1
  Cu  Cu17  1  0.30705100  0.06555300  0.60612200  1
  Cu  Cu18  1  0.30210800  0.56590600  0.10897400  1
  Cu  Cu19  1  0.80718500  0.07087200  0.10675700  1
  Cu  Cu20  1  0.80400500  0.56304000  0.10993200  1
  Cu  Cu21  1  0.19723500  0.92722900  0.38749100  1
  Cu  Cu22  1  0.20258600  0.93599500  0.89826400  1
  Cu  Cu23  1  0.69615800  0.43517500  0.89907000  1
  Cu  Cu24  1  0.05432900  0.29147800  0.10711700  1
  Cu  Cu25  1  0.05169200  0.78944300  0.10820400  1
  Cu  Cu26  1  0.55244900  0.29236400  0.10615200  1
  Cu  Cu27  1  0.55315100  0.78646500  0.10491600  1
  Cu  Cu28  1  0.44073800  0.71032000  0.38718900  1
  Cu  Cu29  1  0.44671700  0.71505900  0.89694100  1
  Cu  Cu30  1  0.94011600  0.70217100  0.38740500  1
  Cu  Cu31  1  0.94958100  0.71521700  0.89858400  1
  C  C32  1  0.11367500  0.08985900  0.75476000  1
  C  C33  1  0.10934700  0.59730900  0.75564000  1
  C  C34  1  0.60388300  0.08377700  0.24200900  1
  C  C35  1  0.60517200  0.09505500  0.75059800  1
  C  C36  1  0.60968400  0.59394800  0.75796600  1
  C  C37  1  0.35308100  0.41364500  0.24502700  1
  C  C38  1  0.36206900  0.41186200  0.75516800  1
  C  C39  1  0.34843800  0.90411500  0.24465100  1
  C  C40  1  0.35651500  0.90753700  0.75227300  1
  C  C41  1  0.85823100  0.41706700  0.75907400  1
  C  C42  1  0.85854000  0.90192000  0.24325600  1
  C  C43  1  0.86159900  0.90842400  0.75243700  1
  C  C44  1  0.01201300  0.00184100  0.00552900  1
  C  C45  1  0.00336500  0.99468700  0.49319700  1
  C  C46  1  0.00454100  0.50124000  0.00274400  1
  C  C47  1  0.00179400  0.49926000  0.49901400  1
  C  C48  1  0.51187300  0.00354600  0.00645400  1
  C  C49  1  0.50277000  0.99915300  0.49689200  1
  C  C50  1  0.50644400  0.50148500  0.00302900  1
  C  C51  1  0.50062000  0.49487500  0.49067500  1
  C  C52  1  0.25900500  0.25244300  0.00525400  1
  C  C53  1  0.25548100  0.24565100  0.49701900  1
  C  C54  1  0.25875300  0.75315900  0.00563500  1
  C  C55  1  0.25037800  0.74710800  0.49517400  1
  C  C56  1  0.75896400  0.25520800  0.00640700  1
  C  C57  1  0.75409200  0.24892800  0.49426100  1
  C  C58  1  0.75833400  0.74923400  0.00309000  1
  C  C59  1  0.74981700  0.74905600  0.49714100  1
  C  C60  1  0.10755000  0.08855000  0.24512100  1
  C  C61  1  0.10311500  0.59596800  0.24615700  1
  C  C62  1  0.60622200  0.59398900  0.24517400  1
  C  C63  1  0.85474800  0.40832700  0.24490700  1
  C  C64  1  0.12681200  0.10511800  0.48959600  1
  C  C65  1  0.13019600  0.11640500  0.99415300  1
  C  C66  1  0.11255400  0.61474100  0.48647100  1
  C  C67  1  0.12011200  0.62607900  0.99402900  1
  C  C68  1  0.62639100  0.12234900  0.48873200  1
  C  C69  1  0.63010500  0.12383100  0.99666800  1
  C  C70  1  0.61094500  0.61898300  0.48789400  1
  C  C71  1  0.62017200  0.61927400  0.98886300  1
  C  C72  1  0.13769800  0.38253400  0.02041300  1
  C  C73  1  0.13176000  0.37417400  0.50575300  1
  C  C74  1  0.14352700  0.87593000  0.01364000  1
  C  C75  1  0.13347600  0.86370100  0.50082500  1
  C  C76  1  0.63854000  0.38364900  0.01787800  1
  C  C77  1  0.63583500  0.37609000  0.50559600  1
  C  C78  1  0.64353800  0.87369500  0.01540800  1
  C  C79  1  0.62476900  0.87673400  0.50168800  1
  C  C80  1  0.37645900  0.11291100  0.48908500  1
  C  C81  1  0.37557500  0.11657900  0.99237900  1
  C  C82  1  0.36343000  0.62680800  0.48663400  1
  C  C83  1  0.37337100  0.62830300  0.99341400  1
  C  C84  1  0.87552600  0.12292900  0.48959100  1
  C  C85  1  0.88131600  0.12332000  0.99826400  1
  C  C86  1  0.86969800  0.62140600  0.48736700  1
  C  C87  1  0.86994100  0.62252500  0.99015700  1
  C  C88  1  0.38762400  0.38983100  0.01728600  1
  C  C89  1  0.38533300  0.38556600  0.50274600  1
  C  C90  1  0.39374800  0.88577600  0.01711800  1
  C  C91  1  0.37797000  0.88306400  0.50742900  1
  C  C92  1  0.88405300  0.38886800  0.01567000  1
  C  C93  1  0.88389700  0.38195600  0.50363600  1
  C  C94  1  0.89561100  0.88584700  0.01854200  1
  C  C95  1  0.88629300  0.88195300  0.50219100  1
  C  C96  1  0.09718700  0.10379700  0.14392400  1
  C  C97  1  0.09628200  0.08850900  0.64351400  1
  C  C98  1  0.08285300  0.60485700  0.14168700  1
  C  C99  1  0.07747900  0.59409700  0.64191800  1
  C  C100  1  0.59292600  0.10708000  0.13991800  1
  C  C101  1  0.58381900  0.09475800  0.63977800  1
  C  C102  1  0.58623600  0.60468300  0.14085600  1
  C  C103  1  0.58226400  0.59491700  0.64624000  1
  C  C104  1  0.43620300  0.40456700  0.35530600  1
  C  C105  1  0.44868500  0.40392700  0.86389400  1
  C  C106  1  0.43615100  0.89846900  0.35504500  1
  C  C107  1  0.45035200  0.89893000  0.86080700  1
  C  C108  1  0.93206400  0.40316500  0.35215300  1
  C  C109  1  0.94653300  0.40455600  0.86601000  1
  C  C110  1  0.94510500  0.89673000  0.35494500  1
  C  C111  1  0.95095300  0.89858200  0.86137600  1
  C  C112  1  0.34198800  0.28899600  0.14014400  1
  C  C113  1  0.33717800  0.29354900  0.64456800  1
  C  C114  1  0.33549900  0.78205300  0.13892000  1
  C  C115  1  0.32549800  0.79277300  0.64116200  1
  C  C116  1  0.84423100  0.29360500  0.14220400  1
  C  C117  1  0.83792400  0.30479500  0.64860400  1
  C  C118  1  0.84070600  0.77797200  0.13738600  1
  C  C119  1  0.82939400  0.79761600  0.64002300  1
  C  C120  1  0.18567900  0.19618500  0.35314800  1
  C  C121  1  0.19407300  0.20759100  0.86489200  1
  C  C122  1  0.19418000  0.70432100  0.35365800  1
  C  C123  1  0.20513500  0.71534500  0.86318400  1
  C  C124  1  0.68799300  0.19838300  0.35265200  1
  C  C125  1  0.68811000  0.21217100  0.86138200  1
  C  C126  1  0.69324100  0.69625800  0.35381100  1
  C  C127  1  0.70696900  0.71093600  0.86523800  1
  C  C128  1  0.42237400  0.05690700  0.23872100  1
  C  C129  1  0.42326000  0.06286500  0.74482300  1
  C  C130  1  0.42422700  0.57303200  0.24776900  1
  C  C131  1  0.43108000  0.57485300  0.76075200  1
  C  C132  1  0.92324900  0.05757600  0.23835300  1
  C  C133  1  0.93353500  0.06503100  0.75146600  1
  C  C134  1  0.92445600  0.57123200  0.24889800  1
  C  C135  1  0.93307500  0.57704300  0.76265400  1
  C  C136  1  0.17172600  0.43319300  0.23959400  1
  C  C137  1  0.18267900  0.43931500  0.75372900  1
  C  C138  1  0.16994000  0.92487800  0.24652100  1
  C  C139  1  0.18154300  0.93259000  0.76103000  1
  C  C140  1  0.67168600  0.43134200  0.23787200  1
  C  C141  1  0.67862400  0.43559800  0.76141500  1
  C  C142  1  0.67606900  0.92490600  0.23844100  1
  C  C143  1  0.68408200  0.94103500  0.75325400  1
