# generated using pymatgen
data_Cu2Ni3C4
_symmetry_space_group_name_H-M   'P 1'
_cell_length_a   6.75276465
_cell_length_b   6.59073951
_cell_length_c   5.19449763
_cell_angle_alpha   89.99999602
_cell_angle_beta   75.96130334
_cell_angle_gamma   119.20940858
_symmetry_Int_Tables_number   1
_chemical_formula_structural   Cu2Ni3C4
_chemical_formula_sum   'Cu4 Ni6 C8'
_cell_volume   193.83842500
_cell_formula_units_Z   2
loop_
 _symmetry_equiv_pos_site_id
 _symmetry_equiv_pos_as_xyz
  1  'x, y, z'
loop_
 _atom_site_type_symbol
 _atom_site_label
 _atom_site_symmetry_multiplicity
 _atom_site_fract_x
 _atom_site_fract_y
 _atom_site_fract_z
 _atom_site_occupancy
  Ni  Ni0  1  0.15795100  0.97040700  0.86807800  1
  Ni  Ni1  1  0.84204900  0.81245700  0.63192200  1
  Ni  Ni2  1  0.84204900  0.02959300  0.13192200  1
  Ni  Ni3  1  0.15795100  0.18754300  0.36807800  1
  Ni  Ni4  1  0.00000000  0.56655900  0.75000000  1
  Ni  Ni5  1  0.00000000  0.43344100  0.25000000  1
  Cu  Cu6  1  0.60153900  0.16473100  0.73430700  1
  Cu  Cu7  1  0.39846100  0.56319300  0.76569300  1
  Cu  Cu8  1  0.39846100  0.83526900  0.26569300  1
  Cu  Cu9  1  0.60153900  0.43680700  0.23430700  1
  C  C10  1  0.18934700  0.94141300  0.50048100  1
  C  C11  1  0.81065300  0.75206700  0.99951900  1
  C  C12  1  0.81065300  0.05858700  0.49951900  1
  C  C13  1  0.18934700  0.24793300  0.00048100  1
  C  C14  1  0.78990600  0.28376500  0.01286100  1
  C  C15  1  0.21009400  0.49386000  0.48713900  1
  C  C16  1  0.21009400  0.71623500  0.98713900  1
  C  C17  1  0.78990600  0.50614000  0.51286100  1
