# generated using pymatgen
data_Cu12Ni2C5
_symmetry_space_group_name_H-M   'P 1'
_cell_length_a   9.91544300
_cell_length_b   9.91544300
_cell_length_c   9.91544300
_cell_angle_alpha   90.00000000
_cell_angle_beta   90.00000000
_cell_angle_gamma   90.00000000
_symmetry_Int_Tables_number   1
_chemical_formula_structural   Cu12Ni2C5
_chemical_formula_sum   'Cu48 Ni8 C20'
_cell_volume   974.84679201
_cell_formula_units_Z   4
loop_
 _symmetry_equiv_pos_site_id
 _symmetry_equiv_pos_as_xyz
  1  'x, y, z'
loop_
 _atom_site_type_symbol
 _atom_site_label
 _atom_site_symmetry_multiplicity
 _atom_site_fract_x
 _atom_site_fract_y
 _atom_site_fract_z
 _atom_site_occupancy
  C  C0  1  0.02007200  0.21025500  0.37551300  1
  C  C1  1  0.47992800  0.78974500  0.87551300  1
  C  C2  1  0.97992800  0.71025500  0.12448700  1
  C  C3  1  0.37551300  0.02007200  0.21025500  1
  C  C4  1  0.52007200  0.28974500  0.62448700  1
  C  C5  1  0.87551300  0.47992800  0.78974500  1
  C  C6  1  0.12448700  0.97992800  0.71025500  1
  C  C7  1  0.62448700  0.52007200  0.28974500  1
  C  C8  1  0.21025500  0.37551300  0.02007200  1
  C  C9  1  0.71025500  0.12448700  0.97992800  1
  C  C10  1  0.28974500  0.62448700  0.52007200  1
  C  C11  1  0.78974500  0.87551300  0.47992800  1
  C  C12  1  0.33720600  0.33720600  0.33720600  1
  C  C13  1  0.16279400  0.66279400  0.83720600  1
  C  C14  1  0.66279400  0.83720600  0.16279400  1
  C  C15  1  0.83720600  0.16279400  0.66279400  1
  C  C16  1  0.60655300  0.60655300  0.60655300  1
  C  C17  1  0.89344700  0.39344700  0.10655300  1
  C  C18  1  0.39344700  0.10655300  0.89344700  1
  C  C19  1  0.10655300  0.89344700  0.39344700  1
  Ni  Ni20  1  0.04393300  0.04393300  0.04393300  1
  Ni  Ni21  1  0.45606700  0.95606700  0.54393300  1
  Ni  Ni22  1  0.95606700  0.54393300  0.45606700  1
  Ni  Ni23  1  0.54393300  0.45606700  0.95606700  1
  Ni  Ni24  1  0.81765700  0.81765700  0.81765700  1
  Ni  Ni25  1  0.68234300  0.18234300  0.31765700  1
  Ni  Ni26  1  0.18234300  0.31765700  0.68234300  1
  Ni  Ni27  1  0.31765700  0.68234300  0.18234300  1
  Cu  Cu28  1  0.01568700  0.05733700  0.33418500  1
  Cu  Cu29  1  0.48431300  0.94266300  0.83418500  1
  Cu  Cu30  1  0.98431300  0.55733700  0.16581500  1
  Cu  Cu31  1  0.33418500  0.01568700  0.05733700  1
  Cu  Cu32  1  0.51568700  0.44266300  0.66581500  1
  Cu  Cu33  1  0.83418500  0.48431300  0.94266300  1
  Cu  Cu34  1  0.16581500  0.98431300  0.55733700  1
  Cu  Cu35  1  0.66581500  0.51568700  0.44266300  1
  Cu  Cu36  1  0.05733700  0.33418500  0.01568700  1
  Cu  Cu37  1  0.55733700  0.16581500  0.98431300  1
  Cu  Cu38  1  0.44266300  0.66581500  0.51568700  1
  Cu  Cu39  1  0.94266300  0.83418500  0.48431300  1
  Cu  Cu40  1  0.27232500  0.49357200  0.43467000  1
  Cu  Cu41  1  0.22767500  0.50642800  0.93467000  1
  Cu  Cu42  1  0.72767500  0.99357200  0.06533000  1
  Cu  Cu43  1  0.43467000  0.27232500  0.49357200  1
  Cu  Cu44  1  0.77232500  0.00642800  0.56533000  1
  Cu  Cu45  1  0.93467000  0.22767500  0.50642800  1
  Cu  Cu46  1  0.06533000  0.72767500  0.99357200  1
  Cu  Cu47  1  0.56533000  0.77232500  0.00642800  1
  Cu  Cu48  1  0.49357200  0.43467000  0.27232500  1
  Cu  Cu49  1  0.99357200  0.06533000  0.72767500  1
  Cu  Cu50  1  0.00642800  0.56533000  0.77232500  1
  Cu  Cu51  1  0.50642800  0.93467000  0.22767500  1
  Cu  Cu52  1  0.04692000  0.80060100  0.23393900  1
  Cu  Cu53  1  0.45308000  0.19939900  0.73393900  1
  Cu  Cu54  1  0.95308000  0.30060100  0.26606100  1
  Cu  Cu55  1  0.23393900  0.04692000  0.80060100  1
  Cu  Cu56  1  0.54692000  0.69939900  0.76606100  1
  Cu  Cu57  1  0.73393900  0.45308000  0.19939900  1
  Cu  Cu58  1  0.26606100  0.95308000  0.30060100  1
  Cu  Cu59  1  0.76606100  0.54692000  0.69939900  1
  Cu  Cu60  1  0.80060100  0.23393900  0.04692000  1
  Cu  Cu61  1  0.30060100  0.26606100  0.95308000  1
  Cu  Cu62  1  0.69939900  0.76606100  0.54692000  1
  Cu  Cu63  1  0.19939900  0.73393900  0.45308000  1
  Cu  Cu64  1  0.17025600  0.25239700  0.39625500  1
  Cu  Cu65  1  0.32974400  0.74760300  0.89625500  1
  Cu  Cu66  1  0.82974400  0.75239700  0.10374500  1
  Cu  Cu67  1  0.39625500  0.17025600  0.25239700  1
  Cu  Cu68  1  0.67025600  0.24760300  0.60374500  1
  Cu  Cu69  1  0.89625500  0.32974400  0.74760300  1
  Cu  Cu70  1  0.10374500  0.82974400  0.75239700  1
  Cu  Cu71  1  0.60374500  0.67025600  0.24760300  1
  Cu  Cu72  1  0.25239700  0.39625500  0.17025600  1
  Cu  Cu73  1  0.75239700  0.10374500  0.82974400  1
  Cu  Cu74  1  0.24760300  0.60374500  0.67025600  1
  Cu  Cu75  1  0.74760300  0.89625500  0.32974400  1
