# generated using pymatgen
data_Cu7Ni5C4
_symmetry_space_group_name_H-M   'P 1'
_cell_length_a   10.39261651
_cell_length_b   10.39261651
_cell_length_c   10.39261651
_cell_angle_alpha   150.19531635
_cell_angle_beta   150.19531635
_cell_angle_gamma   42.65477534
_symmetry_Int_Tables_number   1
_chemical_formula_structural   Cu7Ni5C4
_chemical_formula_sum   'Cu7 Ni5 C4'
_cell_volume   276.61393654
_cell_formula_units_Z   1
loop_
 _symmetry_equiv_pos_site_id
 _symmetry_equiv_pos_as_xyz
  1  'x, y, z'
loop_
 _atom_site_type_symbol
 _atom_site_label
 _atom_site_symmetry_multiplicity
 _atom_site_fract_x
 _atom_site_fract_y
 _atom_site_fract_z
 _atom_site_occupancy
  C  C0  1  0.88701000  0.88701000  0.00000000  1
  C  C1  1  0.38151900  0.38151900  0.00000000  1
  C  C2  1  0.11376600  0.61376600  0.50000000  1
  C  C3  1  0.61376600  0.11376600  0.50000000  1
  Ni  Ni4  1  0.00428500  0.00428500  0.50455800  1
  Ni  Ni5  1  0.49972600  0.49972600  0.49544200  1
  Ni  Ni6  1  0.49972600  0.00428500  0.00000000  1
  Ni  Ni7  1  0.00428500  0.49972600  0.00000000  1
  Ni  Ni8  1  0.67097800  0.67097800  0.00000000  1
  Cu  Cu9  1  0.27779300  0.27779300  0.55603400  1
  Cu  Cu10  1  0.72175900  0.72175900  0.44396600  1
  Cu  Cu11  1  0.72175900  0.27779300  0.00000000  1
  Cu  Cu12  1  0.27779300  0.72175900  0.00000000  1
  Cu  Cu13  1  0.17343100  0.17343100  0.00000000  1
  Cu  Cu14  1  0.32620300  0.82620300  0.50000000  1
  Cu  Cu15  1  0.82620300  0.32620300  0.50000000  1
