# generated using pymatgen
data_CuNiC5
_symmetry_space_group_name_H-M   'P 1'
_cell_length_a   6.78647762
_cell_length_b   6.78647762
_cell_length_c   5.50738400
_cell_angle_alpha   90.00000000
_cell_angle_beta   90.00000000
_cell_angle_gamma   132.07167032
_symmetry_Int_Tables_number   1
_chemical_formula_structural   CuNiC5
_chemical_formula_sum   'Cu2 Ni2 C10'
_cell_volume   188.28594274
_cell_formula_units_Z   2
loop_
 _symmetry_equiv_pos_site_id
 _symmetry_equiv_pos_as_xyz
  1  'x, y, z'
loop_
 _atom_site_type_symbol
 _atom_site_label
 _atom_site_symmetry_multiplicity
 _atom_site_fract_x
 _atom_site_fract_y
 _atom_site_fract_z
 _atom_site_occupancy
  Ni  Ni0  1  0.89540900  0.10459100  0.25000000  1
  Ni  Ni1  1  0.10459100  0.89540900  0.75000000  1
  Cu  Cu2  1  0.39175800  0.60824200  0.75000000  1
  Cu  Cu3  1  0.60824200  0.39175800  0.25000000  1
  C  C4  1  0.24582600  0.75417400  0.25000000  1
  C  C5  1  0.75417400  0.24582600  0.75000000  1
  C  C6  1  0.07960100  0.92039900  0.25000000  1
  C  C7  1  0.57765800  0.42234200  0.75000000  1
  C  C8  1  0.42234200  0.57765800  0.25000000  1
  C  C9  1  0.92039900  0.07960100  0.75000000  1
  C  C10  1  0.53571800  0.02921400  0.03260900  1
  C  C11  1  0.97078600  0.46428200  0.46739100  1
  C  C12  1  0.46428200  0.97078600  0.53260900  1
  C  C13  1  0.02921400  0.53571800  0.96739100  1
