# generated using pymatgen
data_CuNi4C3
_symmetry_space_group_name_H-M   'P 1'
_cell_length_a   6.44707100
_cell_length_b   10.66623297
_cell_length_c   11.00176014
_cell_angle_alpha   90.45053327
_cell_angle_beta   91.17167101
_cell_angle_gamma   90.30985178
_symmetry_Int_Tables_number   1
_chemical_formula_structural   CuNi4C3
_chemical_formula_sum   'Cu8 Ni32 C24'
_cell_volume   756.35331200
_cell_formula_units_Z   8
loop_
 _symmetry_equiv_pos_site_id
 _symmetry_equiv_pos_as_xyz
  1  'x, y, z'
loop_
 _atom_site_type_symbol
 _atom_site_label
 _atom_site_symmetry_multiplicity
 _atom_site_fract_x
 _atom_site_fract_y
 _atom_site_fract_z
 _atom_site_occupancy
  C  C0  1  0.24556700  0.22596400  0.91114500  1
  C  C1  1  0.52761800  0.23861600  0.66291100  1
  C  C2  1  0.25549700  0.43864700  0.22059900  1
  C  C3  1  0.25710100  0.72187200  0.59164700  1
  C  C4  1  0.98598600  0.73133300  0.82184900  1
  C  C5  1  0.50411300  0.76566500  0.32881200  1
  C  C6  1  0.75538600  0.77870700  0.09020100  1
  C  C7  1  0.23422500  0.96790000  0.27149100  1
  C  C8  1  0.99886600  0.00191500  0.99874200  1
  C  C9  1  0.50541300  0.99975300  0.99545600  1
  C  C10  1  0.98779500  0.00967500  0.50354800  1
  C  C11  1  0.49881500  0.99705500  0.50204300  1
  C  C12  1  0.99551400  0.49376200  0.50252000  1
  C  C13  1  0.50558800  0.49396000  0.50064800  1
  C  C14  1  0.99897400  0.49925400  0.99969400  1
  C  C15  1  0.50853900  0.50300400  0.99632900  1
  C  C16  1  0.73846700  0.04048300  0.26216100  1
  C  C17  1  0.74550500  0.23819400  0.91729100  1
  C  C18  1  0.23981600  0.26389600  0.42690100  1
  C  C19  1  0.25436100  0.46501000  0.76534200  1
  C  C20  1  0.75048700  0.54129200  0.23739900  1
  C  C21  1  0.76212100  0.73626000  0.57823400  1
  C  C22  1  0.26016700  0.76539100  0.07824400  1
  C  C23  1  0.24379700  0.96469400  0.73521700  1
  Ni  Ni24  1  0.26031800  0.02090400  0.86951800  1
  Ni  Ni25  1  0.05109300  0.02654000  0.67347700  1
  Ni  Ni26  1  0.44402100  0.01420400  0.67216600  1
  Ni  Ni27  1  0.23352500  0.11987500  0.46269300  1
  Ni  Ni28  1  0.72534700  0.17827700  0.25580000  1
  Ni  Ni29  1  0.55087400  0.17532900  0.97827200  1
  Ni  Ni30  1  0.94968400  0.17725000  0.97334000  1
  Ni  Ni31  1  0.73696200  0.23182700  0.78264800  1
  Ni  Ni32  1  0.25373000  0.28155300  0.29341100  1
  Ni  Ni33  1  0.04315900  0.32099100  0.48700800  1
  Ni  Ni34  1  0.43573000  0.31842400  0.50072700  1
  Ni  Ni35  1  0.27001600  0.32371600  0.76348100  1
  Ni  Ni36  1  0.74697600  0.37720100  0.96915200  1
  Ni  Ni37  1  0.55720200  0.48043100  0.16954700  1
  Ni  Ni38  1  0.95412100  0.49751100  0.17297400  1
  Ni  Ni39  1  0.75971200  0.48726100  0.36842800  1
  Ni  Ni40  1  0.24177600  0.52287100  0.63352800  1
  Ni  Ni41  1  0.05604700  0.51852200  0.83042800  1
  Ni  Ni42  1  0.44923500  0.52670000  0.82906900  1
  Ni  Ni43  1  0.26077400  0.62338100  0.04058500  1
  Ni  Ni44  1  0.72580500  0.68326200  0.23802400  1
  Ni  Ni45  1  0.55828400  0.67752900  0.51349300  1
  Ni  Ni46  1  0.95804400  0.67189500  0.52150700  1
  Ni  Ni47  1  0.75678500  0.72829300  0.71307800  1
  Ni  Ni48  1  0.26496000  0.78754900  0.21382200  1
  Ni  Ni49  1  0.05605100  0.82075600  0.01622600  1
  Ni  Ni50  1  0.45450600  0.82314000  0.01542700  1
  Ni  Ni51  1  0.22259700  0.82273500  0.73848400  1
  Ni  Ni52  1  0.76688000  0.87411900  0.52815200  1
  Ni  Ni53  1  0.54729100  0.97229300  0.32813400  1
  Ni  Ni54  1  0.94046400  0.98740700  0.32804800  1
  Ni  Ni55  1  0.73798200  0.97330000  0.13061800  1
  Cu  Cu56  1  0.23540100  0.03830500  0.10778100  1
  Cu  Cu57  1  0.71624300  0.11854700  0.52124900  1
  Cu  Cu58  1  0.24516000  0.38212400  0.02121300  1
  Cu  Cu59  1  0.73409500  0.45856500  0.60694100  1
  Cu  Cu60  1  0.26992400  0.53394800  0.39229300  1
  Cu  Cu61  1  0.76751000  0.62727100  0.98400700  1
  Cu  Cu62  1  0.26925200  0.87556200  0.47858000  1
  Cu  Cu63  1  0.77095000  0.95353000  0.89524900  1
