# generated using pymatgen
data_Cu11Ni27C11
_symmetry_space_group_name_H-M   'P 1'
_cell_length_a   8.56448988
_cell_length_b   14.66429329
_cell_length_c   25.70096450
_cell_angle_alpha   90.00000000
_cell_angle_beta   92.69839183
_cell_angle_gamma   90.00000000
_symmetry_Int_Tables_number   1
_chemical_formula_structural   Cu11Ni27C11
_chemical_formula_sum   'Cu44 Ni108 C44'
_cell_volume   3224.26141605
_cell_formula_units_Z   4
loop_
 _symmetry_equiv_pos_site_id
 _symmetry_equiv_pos_as_xyz
  1  'x, y, z'
loop_
 _atom_site_type_symbol
 _atom_site_label
 _atom_site_symmetry_multiplicity
 _atom_site_fract_x
 _atom_site_fract_y
 _atom_site_fract_z
 _atom_site_occupancy
  C  C0  1  0.74618862  0.44927095  0.77638305  1
  C  C1  1  0.25381138  0.94927095  0.72361695  1
  C  C2  1  0.25381138  0.55072905  0.22361695  1
  C  C3  1  0.74618862  0.05072905  0.27638305  1
  C  C4  1  0.68553111  0.71153947  0.50125207  1
  C  C5  1  0.31446889  0.21153947  0.99874793  1
  C  C6  1  0.31446889  0.28846053  0.49874793  1
  C  C7  1  0.68553111  0.78846053  0.00125207  1
  C  C8  1  0.03622690  0.66457774  0.69012015  1
  C  C9  1  0.96377310  0.16457774  0.80987985  1
  C  C10  1  0.96377310  0.33542226  0.30987985  1
  C  C11  1  0.03622690  0.83542226  0.19012015  1
  C  C12  1  0.44920570  0.67658886  0.66834496  1
  C  C13  1  0.55079430  0.17658886  0.83165504  1
  C  C14  1  0.55079430  0.32341114  0.33165504  1
  C  C15  1  0.44920570  0.82341114  0.16834496  1
  C  C16  1  0.18360513  0.59427562  0.56519629  1
  C  C17  1  0.81639487  0.09427562  0.93480371  1
  C  C18  1  0.81639487  0.40572438  0.43480371  1
  C  C19  1  0.18360513  0.90572438  0.06519629  1
  C  C20  1  0.42125153  0.64273420  0.86152105  1
  C  C21  1  0.57874847  0.14273420  0.63847895  1
  C  C22  1  0.57874847  0.35726580  0.13847895  1
  C  C23  1  0.42125153  0.85726580  0.36152105  1
  C  C24  1  0.00850892  0.65754615  0.88547530  1
  C  C25  1  0.99149108  0.15754615  0.61452470  1
  C  C26  1  0.99149108  0.34245385  0.11452470  1
  C  C27  1  0.00850892  0.84245385  0.38547530  1
  C  C28  1  0.19464170  0.43584202  0.87740501  1
  C  C29  1  0.80535830  0.93584202  0.62259499  1
  C  C30  1  0.80535830  0.56415798  0.12259499  1
  C  C31  1  0.19464170  0.06415798  0.37740501  1
  C  C32  1  0.70595782  0.41273622  0.95178130  1
  C  C33  1  0.29404218  0.91273622  0.54821870  1
  C  C34  1  0.29404218  0.58726378  0.04821870  1
  C  C35  1  0.70595782  0.08726378  0.45178130  1
  C  C36  1  0.71895539  0.43850295  0.59568606  1
  C  C37  1  0.28104461  0.93850295  0.90431394  1
  C  C38  1  0.28104461  0.56149705  0.40431394  1
  C  C39  1  0.71895539  0.06149705  0.09568606  1
  C  C40  1  0.25965415  0.36556071  0.70121714  1
  C  C41  1  0.74034585  0.86556071  0.79878286  1
  C  C42  1  0.74034585  0.63443929  0.29878286  1
  C  C43  1  0.25965415  0.13443929  0.20121714  1
  Ni  Ni44  1  0.08876452  0.76188862  0.72327138  1
  Ni  Ni45  1  0.91123548  0.26188862  0.77672862  1
  Ni  Ni46  1  0.91123548  0.23811138  0.27672862  1
  Ni  Ni47  1  0.08876452  0.73811138  0.22327138  1
  Ni  Ni48  1  0.94993708  0.59651211  0.73453050  1
  Ni  Ni49  1  0.05006292  0.09651211  0.76546950  1
  Ni  Ni50  1  0.05006292  0.40348789  0.26546950  1
  Ni  Ni51  1  0.94993708  0.90348789  0.23453050  1
  Ni  Ni52  1  0.88667641  0.69952997  0.64848798  1
  Ni  Ni53  1  0.11332359  0.19952997  0.85151202  1
  Ni  Ni54  1  0.11332359  0.30047003  0.35151202  1
  Ni  Ni55  1  0.88667641  0.80047003  0.14848798  1
  Ni  Ni56  1  0.59369191  0.61420292  0.69950462  1
  Ni  Ni57  1  0.40630809  0.11420292  0.80049538  1
  Ni  Ni58  1  0.40630809  0.38579708  0.30049538  1
  Ni  Ni59  1  0.59369191  0.88579708  0.19950462  1
  Ni  Ni60  1  0.42527083  0.77064094  0.70670423  1
  Ni  Ni61  1  0.57472917  0.27064094  0.79329577  1
  Ni  Ni62  1  0.57472917  0.22935906  0.29329577  1
  Ni  Ni63  1  0.42527083  0.72935906  0.20670423  1
  Ni  Ni64  1  0.53181926  0.72005717  0.61423739  1
  Ni  Ni65  1  0.46818074  0.22005717  0.88576261  1
  Ni  Ni66  1  0.46818074  0.27994283  0.38576261  1
  Ni  Ni67  1  0.53181926  0.77994283  0.11423739  1
  Ni  Ni68  1  0.31928503  0.65121334  0.53041013  1
  Ni  Ni69  1  0.68071497  0.15121334  0.96958987  1
  Ni  Ni70  1  0.68071497  0.34878666  0.46958987  1
  Ni  Ni71  1  0.31928503  0.84878666  0.03041013  1
  Ni  Ni72  1  0.01021877  0.64183353  0.54336304  1
  Ni  Ni73  1  0.98978123  0.14183353  0.95663696  1
  Ni  Ni74  1  0.98978123  0.35816647  0.45663696  1
  Ni  Ni75  1  0.01021877  0.85816647  0.04336304  1
  Ni  Ni76  1  0.18154178  0.48620802  0.54003216  1
  Ni  Ni77  1  0.81845822  0.98620802  0.95996784  1
  Ni  Ni78  1  0.81845822  0.51379198  0.45996784  1
  Ni  Ni79  1  0.18154178  0.01379198  0.04003216  1
  Ni  Ni80  1  0.37340327  0.73786901  0.82563132  1
  Ni  Ni81  1  0.62659673  0.23786901  0.67436868  1
  Ni  Ni82  1  0.62659673  0.26213099  0.17436868  1
  Ni  Ni83  1  0.37340327  0.76213099  0.32563132  1
  Ni  Ni84  1  0.50902717  0.57337472  0.81797311  1
  Ni  Ni85  1  0.49097283  0.07337472  0.68202689  1
  Ni  Ni86  1  0.49097283  0.42662528  0.18202689  1
  Ni  Ni87  1  0.50902717  0.92662528  0.31797311  1
  Ni  Ni88  1  0.56893753  0.67768508  0.90400810  1
  Ni  Ni89  1  0.43106247  0.17768508  0.59599190  1
  Ni  Ni90  1  0.43106247  0.32231492  0.09599190  1
  Ni  Ni91  1  0.56893753  0.82231492  0.40400810  1
  Ni  Ni92  1  0.92724461  0.70536958  0.93848502  1
  Ni  Ni93  1  0.07275539  0.20536958  0.56151498  1
  Ni  Ni94  1  0.07275539  0.29463042  0.06151498  1
  Ni  Ni95  1  0.92724461  0.79463042  0.43848502  1
  Ni  Ni96  1  0.03077670  0.74629850  0.84319195  1
  Ni  Ni97  1  0.96922330  0.24629850  0.65680805  1
  Ni  Ni98  1  0.96922330  0.25370150  0.15680805  1
  Ni  Ni99  1  0.03077670  0.75370150  0.34319195  1
  Ni  Ni100  1  0.86135019  0.59490954  0.85549640  1
  Ni  Ni101  1  0.13864981  0.09490954  0.64450360  1
  Ni  Ni102  1  0.13864981  0.40509046  0.14450360  1
  Ni  Ni103  1  0.86135019  0.90509046  0.35549640  1
  Ni  Ni104  1  0.01219543  0.41468590  0.84977087  1
  Ni  Ni105  1  0.98780457  0.91468590  0.65022913  1
  Ni  Ni106  1  0.98780457  0.58531410  0.15022913  1
  Ni  Ni107  1  0.01219543  0.08531410  0.34977087  1
  Ni  Ni108  1  0.21873828  0.35896404  0.92709475  1
  Ni  Ni109  1  0.78126172  0.85896404  0.57290525  1
  Ni  Ni110  1  0.78126172  0.64103596  0.07290525  1
  Ni  Ni111  1  0.21873828  0.14103596  0.42709475  1
  Ni  Ni112  1  0.31569155  0.39922415  0.83057853  1
  Ni  Ni113  1  0.68430845  0.89922415  0.66942147  1
  Ni  Ni114  1  0.68430845  0.60077585  0.16942147  1
  Ni  Ni115  1  0.31569155  0.10077585  0.33057853  1
  Ni  Ni116  1  0.67235669  0.41117312  0.88568834  1
  Ni  Ni117  1  0.32764331  0.91117312  0.61431166  1
  Ni  Ni118  1  0.32764331  0.58882688  0.11431166  1
  Ni  Ni119  1  0.67235669  0.08882688  0.38568834  1
  Ni  Ni120  1  0.87476510  0.35478117  0.96645006  1
  Ni  Ni121  1  0.12523490  0.85478117  0.53354994  1
  Ni  Ni122  1  0.12523490  0.64521883  0.03354994  1
  Ni  Ni123  1  0.87476510  0.14521883  0.46645006  1
  Ni  Ni124  1  0.72870442  0.52265414  0.97191627  1
  Ni  Ni125  1  0.27129558  0.02265414  0.52808373  1
  Ni  Ni126  1  0.27129558  0.47734586  0.02808373  1
  Ni  Ni127  1  0.72870442  0.97734586  0.47191627  1
  Ni  Ni128  1  0.55552570  0.37745087  0.57776860  1
  Ni  Ni129  1  0.44447430  0.87745087  0.92223140  1
  Ni  Ni130  1  0.44447430  0.62254913  0.42223140  1
  Ni  Ni131  1  0.55552570  0.12254913  0.07776860  1
  Ni  Ni132  1  0.87602425  0.38835559  0.56935566  1
  Ni  Ni133  1  0.12397575  0.88835559  0.93064434  1
  Ni  Ni134  1  0.12397575  0.61164441  0.43064434  1
  Ni  Ni135  1  0.87602425  0.11164441  0.06935566  1
  Ni  Ni136  1  0.69918108  0.54570318  0.57014529  1
  Ni  Ni137  1  0.30081892  0.04570318  0.92985471  1
  Ni  Ni138  1  0.30081892  0.45429682  0.42985471  1
  Ni  Ni139  1  0.69918108  0.95429682  0.07014529  1
  Ni  Ni140  1  0.23977560  0.36122318  0.63490269  1
  Ni  Ni141  1  0.76022440  0.86122318  0.86509731  1
  Ni  Ni142  1  0.76022440  0.63877682  0.36509731  1
  Ni  Ni143  1  0.23977560  0.13877682  0.13490269  1
  Ni  Ni144  1  0.27413216  0.25671591  0.72436623  1
  Ni  Ni145  1  0.72586784  0.75671591  0.77563377  1
  Ni  Ni146  1  0.72586784  0.74328409  0.27563377  1
  Ni  Ni147  1  0.27413216  0.24328409  0.22436623  1
  Ni  Ni148  1  0.09976328  0.41622314  0.72588404  1
  Ni  Ni149  1  0.90023672  0.91622314  0.77411596  1
  Ni  Ni150  1  0.90023672  0.58377686  0.27411596  1
  Ni  Ni151  1  0.09976328  0.08377686  0.22588404  1
  Cu  Cu152  1  0.06956951  0.55561863  0.63438100  1
  Cu  Cu153  1  0.93043049  0.05561863  0.86561900  1
  Cu  Cu154  1  0.93043049  0.44438137  0.36561900  1
  Cu  Cu155  1  0.06956951  0.94438137  0.13438100  1
  Cu  Cu156  1  0.26539149  0.61342565  0.70856857  1
  Cu  Cu157  1  0.73460851  0.11342565  0.79143143  1
  Cu  Cu158  1  0.73460851  0.38657435  0.29143143  1
  Cu  Cu159  1  0.26539149  0.88657435  0.20856857  1
  Cu  Cu160  1  0.37254417  0.56281849  0.62065621  1
  Cu  Cu161  1  0.62745583  0.06281849  0.87934379  1
  Cu  Cu162  1  0.62745583  0.43718151  0.37934379  1
  Cu  Cu163  1  0.37254417  0.93718151  0.12065621  1
  Cu  Cu164  1  0.20983537  0.70449339  0.62744540  1
  Cu  Cu165  1  0.79016463  0.20449339  0.87255460  1
  Cu  Cu166  1  0.79016463  0.29550661  0.37255460  1
  Cu  Cu167  1  0.20983537  0.79550661  0.12744540  1
  Cu  Cu168  1  0.37952892  0.52141018  0.90740339  1
  Cu  Cu169  1  0.62047108  0.02141018  0.59259661  1
  Cu  Cu170  1  0.62047108  0.47858982  0.09259661  1
  Cu  Cu171  1  0.37952892  0.97858982  0.40740339  1
  Cu  Cu172  1  0.24439716  0.68290603  0.91328388  1
  Cu  Cu173  1  0.75560284  0.18290603  0.58671612  1
  Cu  Cu174  1  0.75560284  0.31709397  0.08671612  1
  Cu  Cu175  1  0.24439716  0.81709397  0.41328388  1
  Cu  Cu176  1  0.08232747  0.53562051  0.92437580  1
  Cu  Cu177  1  0.91767253  0.03562051  0.57562420  1
  Cu  Cu178  1  0.91767253  0.46437949  0.07562420  1
  Cu  Cu179  1  0.08232747  0.96437949  0.42437580  1
  Cu  Cu180  1  0.18800926  0.57715762  0.83827349  1
  Cu  Cu181  1  0.81199074  0.07715762  0.66172651  1
  Cu  Cu182  1  0.81199074  0.42284238  0.16172651  1
  Cu  Cu183  1  0.18800926  0.92284238  0.33827349  1
  Cu  Cu184  1  0.54123749  0.35690538  0.98474208  1
  Cu  Cu185  1  0.45876251  0.85690538  0.51525792  1
  Cu  Cu186  1  0.45876251  0.64309462  0.01525792  1
  Cu  Cu187  1  0.54123749  0.14309462  0.48474208  1
  Cu  Cu188  1  0.75216706  0.44238874  0.66781079  1
  Cu  Cu189  1  0.24783294  0.94238874  0.83218921  1
  Cu  Cu190  1  0.24783294  0.55761126  0.33218921  1
  Cu  Cu191  1  0.75216706  0.05761126  0.16781079  1
  Cu  Cu192  1  0.44358768  0.42868425  0.71933427  1
  Cu  Cu193  1  0.55641232  0.92868425  0.78066573  1
  Cu  Cu194  1  0.55641232  0.57131575  0.28066573  1
  Cu  Cu195  1  0.44358768  0.07131575  0.21933427  1
