# generated using pymatgen
data_Cu4NiC6
_symmetry_space_group_name_H-M   'P 1'
_cell_length_a   5.77568600
_cell_length_b   6.18841000
_cell_length_c   6.18841000
_cell_angle_alpha   90.00000000
_cell_angle_beta   90.00000000
_cell_angle_gamma   90.00000000
_symmetry_Int_Tables_number   1
_chemical_formula_structural   Cu4NiC6
_chemical_formula_sum   'Cu8 Ni2 C12'
_cell_volume   221.18808719
_cell_formula_units_Z   2
loop_
 _symmetry_equiv_pos_site_id
 _symmetry_equiv_pos_as_xyz
  1  'x, y, z'
loop_
 _atom_site_type_symbol
 _atom_site_label
 _atom_site_symmetry_multiplicity
 _atom_site_fract_x
 _atom_site_fract_y
 _atom_site_fract_z
 _atom_site_occupancy
  C  C0  1  0.61734300  0.00000000  0.50000000  1
  C  C1  1  0.38265700  0.50000000  0.00000000  1
  C  C2  1  0.50000000  0.50000000  0.50000000  1
  C  C3  1  0.50000000  0.00000000  0.00000000  1
  C  C4  1  0.75039600  0.65419600  0.32411100  1
  C  C5  1  0.75039600  0.34580400  0.67588900  1
  C  C6  1  0.24960400  0.15419600  0.82411100  1
  C  C7  1  0.24960400  0.84580400  0.17588900  1
  C  C8  1  0.24960400  0.32411100  0.34580400  1
  C  C9  1  0.24960400  0.67588900  0.65419600  1
  C  C10  1  0.75039600  0.82411100  0.84580400  1
  C  C11  1  0.75039600  0.17588900  0.15419600  1
  Ni  Ni12  1  0.15013000  0.00000000  0.50000000  1
  Ni  Ni13  1  0.84987000  0.50000000  0.00000000  1
  Cu  Cu14  1  0.65219500  0.04948700  0.18555000  1
  Cu  Cu15  1  0.65219500  0.95051300  0.81445000  1
  Cu  Cu16  1  0.34780500  0.54948700  0.68555000  1
  Cu  Cu17  1  0.34780500  0.45051300  0.31445000  1
  Cu  Cu18  1  0.34780500  0.18555000  0.95051300  1
  Cu  Cu19  1  0.34780500  0.81445000  0.04948700  1
  Cu  Cu20  1  0.65219500  0.68555000  0.45051300  1
  Cu  Cu21  1  0.65219500  0.31445000  0.54948700  1
