# generated using pymatgen
data_Cu3Ni2C
_symmetry_space_group_name_H-M   'P 1'
_cell_length_a   7.28413100
_cell_length_b   7.28413100
_cell_length_c   8.77528410
_cell_angle_alpha   114.52163517
_cell_angle_beta   114.52163517
_cell_angle_gamma   90.00000000
_symmetry_Int_Tables_number   1
_chemical_formula_structural   Cu3Ni2C
_chemical_formula_sum   'Cu12 Ni8 C4'
_cell_volume   376.96353786
_cell_formula_units_Z   4
loop_
 _symmetry_equiv_pos_site_id
 _symmetry_equiv_pos_as_xyz
  1  'x, y, z'
loop_
 _atom_site_type_symbol
 _atom_site_label
 _atom_site_symmetry_multiplicity
 _atom_site_fract_x
 _atom_site_fract_y
 _atom_site_fract_z
 _atom_site_occupancy
  C  C0  1  0.25000000  0.25000000  0.50000000  1
  C  C1  1  0.75000000  0.75000000  0.50000000  1
  C  C2  1  0.25000000  0.75000000  0.50000000  1
  C  C3  1  0.75000000  0.25000000  0.50000000  1
  Ni  Ni4  1  0.72135400  0.61702400  0.83837800  1
  Ni  Ni5  1  0.11702400  0.22135400  0.83837800  1
  Ni  Ni6  1  0.61702400  0.11702400  0.83837800  1
  Ni  Ni7  1  0.22135400  0.72135400  0.83837800  1
  Ni  Ni8  1  0.27864600  0.38297600  0.16162200  1
  Ni  Ni9  1  0.88297600  0.77864600  0.16162200  1
  Ni  Ni10  1  0.38297600  0.88297600  0.16162200  1
  Ni  Ni11  1  0.77864600  0.27864600  0.16162200  1
  Cu  Cu12  1  0.74427300  0.75572700  0.00000000  1
  Cu  Cu13  1  0.25572700  0.24427300  0.00000000  1
  Cu  Cu14  1  0.75572700  0.25572700  0.00000000  1
  Cu  Cu15  1  0.24427300  0.74427300  0.00000000  1
  Cu  Cu16  1  0.68625400  0.49732600  0.68358000  1
  Cu  Cu17  1  0.99732600  0.18625400  0.68358000  1
  Cu  Cu18  1  0.49732600  0.99732600  0.68358000  1
  Cu  Cu19  1  0.18625400  0.68625400  0.68358000  1
  Cu  Cu20  1  0.31374600  0.50267400  0.31642000  1
  Cu  Cu21  1  0.00267400  0.81374600  0.31642000  1
  Cu  Cu22  1  0.50267400  0.00267400  0.31642000  1
  Cu  Cu23  1  0.81374600  0.31374600  0.31642000  1
