# generated using pymatgen
data_CuNi9C11
_symmetry_space_group_name_H-M   'P 1'
_cell_length_a   5.65897689
_cell_length_b   9.45329369
_cell_length_c   5.77121864
_cell_angle_alpha   73.30917627
_cell_angle_beta   98.15365099
_cell_angle_gamma   86.47189752
_symmetry_Int_Tables_number   1
_chemical_formula_structural   CuNi9C11
_chemical_formula_sum   'Cu1 Ni9 C11'
_cell_volume   291.03210304
_cell_formula_units_Z   1
loop_
 _symmetry_equiv_pos_site_id
 _symmetry_equiv_pos_as_xyz
  1  'x, y, z'
loop_
 _atom_site_type_symbol
 _atom_site_label
 _atom_site_symmetry_multiplicity
 _atom_site_fract_x
 _atom_site_fract_y
 _atom_site_fract_z
 _atom_site_occupancy
  C  C0  1  0.87940800  0.47749700  0.33690800  1
  Ni  Ni1  1  0.39819600  0.31184700  0.34385700  1
  Ni  Ni2  1  0.04041700  0.06283600  0.86672800  1
  Ni  Ni3  1  0.38930000  0.96554000  0.42046800  1
  Ni  Ni4  1  0.23976200  0.70466000  0.14222400  1
  Ni  Ni5  1  0.90879500  0.14957000  0.34879600  1
  Ni  Ni6  1  0.49015800  0.21859600  0.86628400  1
  Ni  Ni7  1  0.43292100  0.56788000  0.74296400  1
  Ni  Ni8  1  0.97824400  0.39103200  0.86430900  1
  Ni  Ni9  1  0.90582400  0.77954800  0.56962800  1
  Cu  Cu10  1  0.62721700  0.83578700  0.00556000  1
  C  C11  1  0.72015800  0.97741000  0.29800900  1
  C  C12  1  0.68371900  0.33896000  0.09634100  1
  C  C13  1  0.77601900  0.24031000  0.62996700  1
  C  C14  1  0.75971600  0.58097000  0.61209200  1
  C  C15  1  0.19716200  0.16750300  0.11556600  1
  C  C16  1  0.24200100  0.76274200  0.46311100  1
  C  C17  1  0.97814000  0.85254100  0.87981700  1
  C  C18  1  0.29352800  0.10176200  0.62462000  1
  C  C19  1  0.25382100  0.40703900  0.61957200  1
  C  C20  1  0.18644500  0.50440800  0.08175000  1
