# generated using pymatgen
data_Cu8Ni8C9
_symmetry_space_group_name_H-M   'P 1'
_cell_length_a   5.08196327
_cell_length_b   10.79044385
_cell_length_c   5.65554921
_cell_angle_alpha   79.86438959
_cell_angle_beta   94.74648874
_cell_angle_gamma   91.59814469
_symmetry_Int_Tables_number   1
_chemical_formula_structural   Cu8Ni8C9
_chemical_formula_sum   'Cu8 Ni8 C9'
_cell_volume   304.21635006
_cell_formula_units_Z   1
loop_
 _symmetry_equiv_pos_site_id
 _symmetry_equiv_pos_as_xyz
  1  'x, y, z'
loop_
 _atom_site_type_symbol
 _atom_site_label
 _atom_site_symmetry_multiplicity
 _atom_site_fract_x
 _atom_site_fract_y
 _atom_site_fract_z
 _atom_site_occupancy
  C  C0  1  0.24482580  0.04599646  0.84989829  1
  C  C1  1  0.53567740  0.28583087  0.71588892  1
  C  C2  1  0.53200339  0.97536025  0.49137929  1
  C  C3  1  0.53807782  0.73264556  0.21374837  1
  C  C4  1  0.49925974  0.51598916  0.97821068  1
  C  C5  1  0.97502193  0.24947232  0.26504822  1
  C  C6  1  0.02915364  0.75419730  0.72078159  1
  C  C7  1  0.01327882  0.49635338  0.48545367  1
  C  C8  1  0.97433160  0.97450364  0.27152094  1
  Ni  Ni9  1  0.83601768  0.33839147  0.50598964  1
  Ni  Ni10  1  0.72101147  0.10429312  0.30818066  1
  Ni  Ni11  1  0.73352589  0.82602685  0.46093703  1
  Ni  Ni12  1  0.71771219  0.57794041  0.24570310  1
  Ni  Ni13  1  0.32428523  0.44431393  0.71698862  1
  Ni  Ni14  1  0.31338708  0.68529033  0.94487260  1
  Ni  Ni15  1  0.18378719  0.92898092  0.61615019  1
  Ni  Ni16  1  0.13709161  0.14075082  0.07875409  1
  Cu  Cu17  1  0.81868565  0.58340569  0.74882933  1
  Cu  Cu18  1  0.82372646  0.81918517  0.97800457  1
  Cu  Cu19  1  0.62714018  0.06270407  0.79168060  1
  Cu  Cu20  1  0.72651429  0.35031737  0.01181611  1
  Cu  Cu21  1  0.33565510  0.90870325  0.15487266  1
  Cu  Cu22  1  0.24731452  0.18051594  0.54485099  1
  Cu  Cu23  1  0.20857480  0.67965218  0.44540192  1
  Cu  Cu24  1  0.22338451  0.42667953  0.21694291  1
