# generated using pymatgen
data_Cu(NiC)3
_symmetry_space_group_name_H-M   'P 1'
_cell_length_a   7.38051500
_cell_length_b   7.44399100
_cell_length_c   13.73188000
_cell_angle_alpha   90.00000000
_cell_angle_beta   90.00000000
_cell_angle_gamma   90.00000000
_symmetry_Int_Tables_number   1
_chemical_formula_structural   Cu(NiC)3
_chemical_formula_sum   'Cu8 Ni24 C24'
_cell_volume   754.43617786
_cell_formula_units_Z   8
loop_
 _symmetry_equiv_pos_site_id
 _symmetry_equiv_pos_as_xyz
  1  'x, y, z'
loop_
 _atom_site_type_symbol
 _atom_site_label
 _atom_site_symmetry_multiplicity
 _atom_site_fract_x
 _atom_site_fract_y
 _atom_site_fract_z
 _atom_site_occupancy
  C  C0  1  0.72591600  0.75000000  0.37265300  1
  C  C1  1  0.77408400  0.75000000  0.87265300  1
  C  C2  1  0.27408400  0.25000000  0.62734700  1
  C  C3  1  0.22591600  0.25000000  0.12734700  1
  C  C4  1  0.56529700  0.25000000  0.38550100  1
  C  C5  1  0.93470300  0.25000000  0.88550100  1
  C  C6  1  0.43470300  0.75000000  0.61449900  1
  C  C7  1  0.06529700  0.75000000  0.11449900  1
  Ni  Ni8  1  0.96646400  0.75000000  0.51842200  1
  Ni  Ni9  1  0.53353600  0.75000000  0.01842200  1
  Ni  Ni10  1  0.03353600  0.25000000  0.48157800  1
  Ni  Ni11  1  0.46646400  0.25000000  0.98157800  1
  Ni  Ni12  1  0.05917500  0.87069100  0.41641200  1
  Ni  Ni13  1  0.44082500  0.62930900  0.91641200  1
  Ni  Ni14  1  0.94082500  0.37069100  0.58358800  1
  Ni  Ni15  1  0.55917500  0.12930900  0.08358800  1
  Ni  Ni16  1  0.94082500  0.12930900  0.58358800  1
  Ni  Ni17  1  0.55917500  0.37069100  0.08358800  1
  Ni  Ni18  1  0.05917500  0.62930900  0.41641200  1
  Ni  Ni19  1  0.44082500  0.87069100  0.91641200  1
  Ni  Ni20  1  0.38431200  0.75000000  0.31165100  1
  Ni  Ni21  1  0.11568800  0.75000000  0.81165100  1
  Ni  Ni22  1  0.61568800  0.25000000  0.68834900  1
  Ni  Ni23  1  0.88431200  0.25000000  0.18834900  1
  Ni  Ni24  1  0.52121300  0.62915400  0.22531200  1
  Ni  Ni25  1  0.97878700  0.87084600  0.72531200  1
  Ni  Ni26  1  0.47878700  0.12915400  0.77468800  1
  Ni  Ni27  1  0.02121300  0.37084600  0.27468800  1
  Ni  Ni28  1  0.47878700  0.37084600  0.77468800  1
  Ni  Ni29  1  0.02121300  0.12915400  0.27468800  1
  Ni  Ni30  1  0.52121300  0.87084600  0.22531200  1
  Ni  Ni31  1  0.97878700  0.62915400  0.72531200  1
  Cu  Cu32  1  0.98617600  0.75000000  0.43942800  1
  Cu  Cu33  1  0.51382400  0.75000000  0.93942800  1
  Cu  Cu34  1  0.01382400  0.25000000  0.56057200  1
  Cu  Cu35  1  0.48617600  0.25000000  0.06057200  1
  Cu  Cu36  1  0.51109400  0.75000000  0.27014500  1
  Cu  Cu37  1  0.98890600  0.75000000  0.77014500  1
  Cu  Cu38  1  0.48890600  0.25000000  0.72985500  1
  Cu  Cu39  1  0.01109400  0.25000000  0.22985500  1
  C  C40  1  0.70576600  0.44814600  0.38235700  1
  C  C41  1  0.79423400  0.05185400  0.88235700  1
  C  C42  1  0.29423400  0.94814600  0.61764300  1
  C  C43  1  0.20576600  0.55185400  0.11764300  1
  C  C44  1  0.29423400  0.55185400  0.61764300  1
  C  C45  1  0.20576600  0.94814600  0.11764300  1
  C  C46  1  0.70576600  0.05185400  0.38235700  1
  C  C47  1  0.79423400  0.44814600  0.88235700  1
  C  C48  1  0.43257100  0.25000000  0.49649100  1
  C  C49  1  0.06742900  0.25000000  0.99649100  1
  C  C50  1  0.56742900  0.75000000  0.50350900  1
  C  C51  1  0.93257100  0.75000000  0.00350900  1
  C  C52  1  0.41958200  0.25000000  0.28331800  1
  C  C53  1  0.08041800  0.25000000  0.78331800  1
  C  C54  1  0.58041800  0.75000000  0.71668200  1
  C  C55  1  0.91958200  0.75000000  0.21668200  1
