# generated using pymatgen
data_CuNiC3
_symmetry_space_group_name_H-M   'P 1'
_cell_length_a   5.64861604
_cell_length_b   5.64861604
_cell_length_c   10.48877300
_cell_angle_alpha   90.00000000
_cell_angle_beta   90.00000000
_cell_angle_gamma   120.00000048
_symmetry_Int_Tables_number   1
_chemical_formula_structural   CuNiC3
_chemical_formula_sum   'Cu6 Ni6 C18'
_cell_volume   289.82739014
_cell_formula_units_Z   6
loop_
 _symmetry_equiv_pos_site_id
 _symmetry_equiv_pos_as_xyz
  1  'x, y, z'
loop_
 _atom_site_type_symbol
 _atom_site_label
 _atom_site_symmetry_multiplicity
 _atom_site_fract_x
 _atom_site_fract_y
 _atom_site_fract_z
 _atom_site_occupancy
  Ni  Ni0  1  0.66666700  0.33333300  0.23741200  1
  Ni  Ni1  1  0.33333300  0.66666700  0.73741200  1
  Ni  Ni2  1  0.66666700  0.33333300  0.73741200  1
  Ni  Ni3  1  0.33333300  0.66666700  0.23741200  1
  Ni  Ni4  1  0.00000000  0.00000000  0.76112600  1
  Ni  Ni5  1  0.00000000  0.00000000  0.26112600  1
  Cu  Cu6  1  0.66968000  0.00000000  0.50035400  1
  Cu  Cu7  1  0.66968000  0.66968000  0.00035400  1
  Cu  Cu8  1  0.00000000  0.33032000  0.00035400  1
  Cu  Cu9  1  0.00000000  0.66968000  0.50035400  1
  Cu  Cu10  1  0.33032000  0.33032000  0.50035400  1
  Cu  Cu11  1  0.33032000  0.00000000  0.00035400  1
  C  C12  1  0.66666700  0.33333300  0.04296100  1
  C  C13  1  0.33333300  0.66666700  0.54296100  1
  C  C14  1  0.66666700  0.33333300  0.54296100  1
  C  C15  1  0.33333300  0.66666700  0.04296100  1
  C  C16  1  0.00000000  0.00000000  0.94174000  1
  C  C17  1  0.00000000  0.00000000  0.44174000  1
  C  C18  1  0.40082500  0.00000000  0.82729500  1
  C  C19  1  0.40082500  0.40082500  0.32729500  1
  C  C20  1  0.00000000  0.59917500  0.32729500  1
  C  C21  1  0.00000000  0.40082500  0.82729500  1
  C  C22  1  0.59917500  0.59917500  0.82729500  1
  C  C23  1  0.59917500  0.00000000  0.32729500  1
  C  C24  1  0.28854800  0.00000000  0.17614800  1
  C  C25  1  0.28854800  0.28854800  0.67614800  1
  C  C26  1  0.00000000  0.71145200  0.67614800  1
  C  C27  1  0.00000000  0.28854800  0.17614800  1
  C  C28  1  0.71145200  0.71145200  0.17614800  1
  C  C29  1  0.71145200  0.00000000  0.67614800  1
