# generated using pymatgen
data_Cu4(NiC9)3
_symmetry_space_group_name_H-M   'P 1'
_cell_length_a   12.29235278
_cell_length_b   12.29235278
_cell_length_c   5.06470500
_cell_angle_alpha   90.00000000
_cell_angle_beta   90.00000000
_cell_angle_gamma   120.00000418
_symmetry_Int_Tables_number   1
_chemical_formula_structural   Cu4(NiC9)3
_chemical_formula_sum   'Cu8 Ni6 C54'
_cell_volume   662.75772549
_cell_formula_units_Z   2
loop_
 _symmetry_equiv_pos_site_id
 _symmetry_equiv_pos_as_xyz
  1  'x, y, z'
loop_
 _atom_site_type_symbol
 _atom_site_label
 _atom_site_symmetry_multiplicity
 _atom_site_fract_x
 _atom_site_fract_y
 _atom_site_fract_z
 _atom_site_occupancy
  C  C0  1  0.00000000  0.00000000  0.69005800  1
  C  C1  1  0.42543200  0.33855400  0.49964300  1
  C  C2  1  0.91312200  0.57456800  0.49964300  1
  C  C3  1  0.66144600  0.08687800  0.49964300  1
  C  C4  1  0.57441800  0.66118500  0.99804100  1
  C  C5  1  0.08676700  0.42558200  0.99804100  1
  C  C6  1  0.33881500  0.91323300  0.99804100  1
  C  C7  1  0.00000000  0.00000000  0.19085200  1
  Ni  Ni8  1  0.34842400  0.41849000  0.98938600  1
  Ni  Ni9  1  0.07006600  0.65157600  0.98938600  1
  Ni  Ni10  1  0.58151000  0.92993400  0.98938600  1
  Ni  Ni11  1  0.65127600  0.58158100  0.49230400  1
  Ni  Ni12  1  0.93030500  0.34872400  0.49230400  1
  Ni  Ni13  1  0.41841900  0.06969500  0.49230400  1
  Cu  Cu14  1  0.66666700  0.33333300  0.28060700  1
  Cu  Cu15  1  0.33333300  0.66666700  0.77917600  1
  Cu  Cu16  1  0.30342500  0.14699500  0.98026600  1
  Cu  Cu17  1  0.84357000  0.69657500  0.98026600  1
  Cu  Cu18  1  0.85300500  0.15643000  0.98026600  1
  Cu  Cu19  1  0.69672000  0.85322800  0.47275100  1
  Cu  Cu20  1  0.15650800  0.30328000  0.47275100  1
  Cu  Cu21  1  0.14677200  0.84349200  0.47275100  1
  C  C22  1  0.33333300  0.66666700  0.27110600  1
  C  C23  1  0.66666700  0.33333300  0.77174400  1
  C  C24  1  0.43416700  0.55684600  0.42493900  1
  C  C25  1  0.12267900  0.56583300  0.42493900  1
  C  C26  1  0.44315400  0.87732100  0.42493900  1
  C  C27  1  0.56548500  0.44331200  0.92502100  1
  C  C28  1  0.87782700  0.43451500  0.92502100  1
  C  C29  1  0.55668800  0.12217300  0.92502100  1
  C  C30  1  0.27706700  0.34090400  0.66858900  1
  C  C31  1  0.06383800  0.72293300  0.66858900  1
  C  C32  1  0.65909600  0.93616200  0.66858900  1
  C  C33  1  0.72093800  0.65619300  0.17030500  1
  C  C34  1  0.93525500  0.27906200  0.17030500  1
  C  C35  1  0.34380700  0.06474500  0.17030500  1
  C  C36  1  0.47763400  0.52399100  0.31773700  1
  C  C37  1  0.04635800  0.52236600  0.31773700  1
  C  C38  1  0.47600900  0.95364200  0.31773700  1
  C  C39  1  0.52249400  0.47630600  0.81655700  1
  C  C40  1  0.95381200  0.47750600  0.81655700  1
  C  C41  1  0.52369400  0.04618800  0.81655700  1
  C  C42  1  0.33333300  0.66666700  0.46178800  1
  C  C43  1  0.66666700  0.33333300  0.96266500  1
  C  C44  1  0.14810500  0.07074000  0.95321900  1
  C  C45  1  0.92263400  0.85189500  0.95321900  1
  C  C46  1  0.92926000  0.07736600  0.95321900  1
  C  C47  1  0.85104400  0.92890400  0.42451600  1
  C  C48  1  0.07786000  0.14895600  0.42451600  1
  C  C49  1  0.07109600  0.92214000  0.42451600  1
  C  C50  1  0.38814500  0.58034500  0.89460400  1
  C  C51  1  0.19220000  0.61185500  0.89460400  1
  C  C52  1  0.41965500  0.80780000  0.89460400  1
  C  C53  1  0.61228000  0.41976400  0.39756700  1
  C  C54  1  0.80748400  0.38772000  0.39756700  1
  C  C55  1  0.58023600  0.19251600  0.39756700  1
  C  C56  1  0.35521400  0.28313600  0.12985100  1
  C  C57  1  0.92792200  0.64478600  0.12985100  1
  C  C58  1  0.71686400  0.07207800  0.12985100  1
  C  C59  1  0.64666400  0.71872800  0.62848100  1
  C  C60  1  0.07206400  0.35333600  0.62848100  1
  C  C61  1  0.28127200  0.92793600  0.62848100  1
  C  C62  1  0.37917500  0.17416100  0.69307100  1
  C  C63  1  0.79498600  0.62082500  0.69307100  1
  C  C64  1  0.82583900  0.20501400  0.69307100  1
  C  C65  1  0.61718400  0.82396700  0.19037300  1
  C  C66  1  0.20678300  0.38281600  0.19037300  1
  C  C67  1  0.17603300  0.79321700  0.19037300  1
