# generated using pymatgen
data_Cu2Ni4C7
_symmetry_space_group_name_H-M   'P 1'
_cell_length_a   14.15820100
_cell_length_b   7.11455400
_cell_length_c   16.67437972
_cell_angle_alpha   71.69445327
_cell_angle_beta   90.00000000
_cell_angle_gamma   90.00000000
_symmetry_Int_Tables_number   1
_chemical_formula_structural   Cu2Ni4C7
_chemical_formula_sum   'Cu8 Ni16 C28'
_cell_volume   1594.60240898
_cell_formula_units_Z   4
loop_
 _symmetry_equiv_pos_site_id
 _symmetry_equiv_pos_as_xyz
  1  'x, y, z'
loop_
 _atom_site_type_symbol
 _atom_site_label
 _atom_site_symmetry_multiplicity
 _atom_site_fract_x
 _atom_site_fract_y
 _atom_site_fract_z
 _atom_site_occupancy
  C  C0  1  0.43133800  0.12003100  0.07386400  1
  C  C1  1  0.06866200  0.12003100  0.57386400  1
  C  C2  1  0.56866200  0.87996900  0.92613600  1
  C  C3  1  0.93133800  0.87996900  0.42613600  1
  C  C4  1  0.15332200  0.00489900  0.12907200  1
  C  C5  1  0.34667800  0.00489900  0.62907200  1
  C  C6  1  0.84667800  0.99510100  0.87092800  1
  C  C7  1  0.65332200  0.99510100  0.37092800  1
  C  C8  1  0.26167100  0.27736200  0.97240800  1
  C  C9  1  0.23832900  0.27736200  0.47240800  1
  C  C10  1  0.73832900  0.72263800  0.02759200  1
  C  C11  1  0.76167100  0.72263800  0.52759200  1
  Ni  Ni12  1  0.19154400  0.51673000  0.91932100  1
  Ni  Ni13  1  0.30845600  0.51673000  0.41932100  1
  Ni  Ni14  1  0.80845600  0.48327000  0.08067900  1
  Ni  Ni15  1  0.69154400  0.48327000  0.58067900  1
  Ni  Ni16  1  0.18353700  0.38872000  0.88068500  1
  Ni  Ni17  1  0.31646300  0.38872000  0.38068500  1
  Ni  Ni18  1  0.81646300  0.61128000  0.11931500  1
  Ni  Ni19  1  0.68353700  0.61128000  0.61931500  1
  Ni  Ni20  1  0.15536100  0.75766700  0.21038600  1
  Ni  Ni21  1  0.34463900  0.75766700  0.71038600  1
  Ni  Ni22  1  0.84463900  0.24233300  0.78961400  1
  Ni  Ni23  1  0.65536100  0.24233300  0.28961400  1
  Ni  Ni24  1  0.17298700  0.88493800  0.24754100  1
  Ni  Ni25  1  0.32701300  0.88493800  0.74754100  1
  Ni  Ni26  1  0.82701300  0.11506200  0.75245900  1
  Ni  Ni27  1  0.67298700  0.11506200  0.25245900  1
  Cu  Cu28  1  0.23982900  0.10313200  0.06330400  1
  Cu  Cu29  1  0.26017100  0.10313200  0.56330400  1
  Cu  Cu30  1  0.76017100  0.89686800  0.93669600  1
  Cu  Cu31  1  0.73982900  0.89686800  0.43669600  1
  Cu  Cu32  1  0.38205400  0.27041700  0.96590500  1
  Cu  Cu33  1  0.11794600  0.27041700  0.46590500  1
  Cu  Cu34  1  0.61794600  0.72958300  0.03409500  1
  Cu  Cu35  1  0.88205400  0.72958300  0.53409500  1
  C  C36  1  0.41070700  0.89210100  0.95789200  1
  C  C37  1  0.08929300  0.89210100  0.45789200  1
  C  C38  1  0.58929300  0.10789900  0.04210800  1
  C  C39  1  0.91070700  0.10789900  0.54210800  1
  C  C40  1  0.43876900  0.34999800  0.13553000  1
  C  C41  1  0.06123100  0.34999800  0.63553000  1
  C  C42  1  0.56123100  0.65000200  0.86447000  1
  C  C43  1  0.93876900  0.65000200  0.36447000  1
  C  C44  1  0.40974500  0.83032500  0.17503900  1
  C  C45  1  0.09025500  0.83032500  0.67503900  1
  C  C46  1  0.59025500  0.16967500  0.82496100  1
  C  C47  1  0.90974500  0.16967500  0.32496100  1
  C  C48  1  0.02354400  0.12229000  0.09523400  1
  C  C49  1  0.47645600  0.12229000  0.59523400  1
  C  C50  1  0.97645600  0.87771000  0.90476600  1
  C  C51  1  0.52354400  0.87771000  0.40476600  1
