# generated using pymatgen
data_Cu(NiC8)2
_symmetry_space_group_name_H-M   'P 1'
_cell_length_a   7.62410453
_cell_length_b   7.62410453
_cell_length_c   15.08505279
_cell_angle_alpha   89.05857201
_cell_angle_beta   89.05857201
_cell_angle_gamma   41.31849841
_symmetry_Int_Tables_number   1
_chemical_formula_structural   Cu(NiC8)2
_chemical_formula_sum   'Cu2 Ni4 C32'
_cell_volume   578.84480472
_cell_formula_units_Z   2
loop_
 _symmetry_equiv_pos_site_id
 _symmetry_equiv_pos_as_xyz
  1  'x, y, z'
loop_
 _atom_site_type_symbol
 _atom_site_label
 _atom_site_symmetry_multiplicity
 _atom_site_fract_x
 _atom_site_fract_y
 _atom_site_fract_z
 _atom_site_occupancy
  C  C0  1  0.75215500  0.89093000  0.62704200  1
  C  C1  1  0.89093000  0.75215500  0.12704200  1
  C  C2  1  0.24784500  0.10907000  0.37295800  1
  C  C3  1  0.10907000  0.24784500  0.87295800  1
  Ni  Ni4  1  0.85367800  0.90091200  0.87407000  1
  Ni  Ni5  1  0.14632200  0.09908800  0.12593000  1
  Ni  Ni6  1  0.90091200  0.85367800  0.37407000  1
  Ni  Ni7  1  0.09908800  0.14632200  0.62593000  1
  Cu  Cu8  1  0.50000000  0.50000000  0.00000000  1
  Cu  Cu9  1  0.50000000  0.50000000  0.50000000  1
  C  C10  1  0.93156900  0.06160700  0.34816000  1
  C  C11  1  0.60986600  0.11150300  0.45144200  1
  C  C12  1  0.39013400  0.88849700  0.54855800  1
  C  C13  1  0.14402400  0.34778300  0.58950800  1
  C  C14  1  0.49437900  0.37649200  0.60506000  1
  C  C15  1  0.62350800  0.50562100  0.89494000  1
  C  C16  1  0.11150300  0.60986600  0.95144200  1
  C  C17  1  0.93839300  0.06843100  0.15184000  1
  C  C18  1  0.00692700  0.64612500  0.78355300  1
  C  C19  1  0.85597600  0.65221700  0.41049200  1
  C  C20  1  0.59090400  0.15701900  0.79678400  1
  C  C21  1  0.65221700  0.85597600  0.91049200  1
  C  C22  1  0.15701900  0.59090400  0.29678400  1
  C  C23  1  0.40909600  0.84298100  0.20321600  1
  C  C24  1  0.37649200  0.49437900  0.10506000  1
  C  C25  1  0.99307300  0.35387500  0.21644700  1
  C  C26  1  0.29503800  0.87431900  0.02361700  1
  C  C27  1  0.06843100  0.93839300  0.65184000  1
  C  C28  1  0.70496200  0.12568100  0.97638300  1
  C  C29  1  0.87431900  0.29503800  0.52361700  1
  C  C30  1  0.88849700  0.39013400  0.04855800  1
  C  C31  1  0.84298100  0.40909600  0.70321600  1
  C  C32  1  0.64612500  0.00692700  0.28355300  1
  C  C33  1  0.12568100  0.70496200  0.47638300  1
  C  C34  1  0.50562100  0.62350800  0.39494000  1
  C  C35  1  0.06160700  0.93156900  0.84816000  1
  C  C36  1  0.35387500  0.99307300  0.71644700  1
  C  C37  1  0.34778300  0.14402400  0.08950800  1
