# generated using pymatgen
data_CuNi3C10
_symmetry_space_group_name_H-M   'P 1'
_cell_length_a   2.80889575
_cell_length_b   2.80889575
_cell_length_c   21.95520400
_cell_angle_alpha   90.00000000
_cell_angle_beta   90.00000000
_cell_angle_gamma   119.99999403
_symmetry_Int_Tables_number   1
_chemical_formula_structural   CuNi3C10
_chemical_formula_sum   'Cu1 Ni3 C10'
_cell_volume   150.01661976
_cell_formula_units_Z   1
loop_
 _symmetry_equiv_pos_site_id
 _symmetry_equiv_pos_as_xyz
  1  'x, y, z'
loop_
 _atom_site_type_symbol
 _atom_site_label
 _atom_site_symmetry_multiplicity
 _atom_site_fract_x
 _atom_site_fract_y
 _atom_site_fract_z
 _atom_site_occupancy
  C  C0  1  0.66666700  0.33333300  0.94913300  1
  C  C1  1  0.66666700  0.33333300  0.74957800  1
  C  C2  1  0.66666700  0.33333300  0.54952400  1
  C  C3  1  0.66666700  0.33333300  0.34941000  1
  C  C4  1  0.66666700  0.33333300  0.14883800  1
  C  C5  1  0.33333300  0.66666700  0.85063200  1
  C  C6  1  0.33333300  0.66666700  0.65030500  1
  C  C7  1  0.33333300  0.66666700  0.45042800  1
  C  C8  1  0.33333300  0.66666700  0.25076600  1
  C  C9  1  0.33333300  0.66666700  0.05109700  1
  Ni  Ni10  1  0.00000000  0.00000000  0.79979800  1
  Ni  Ni11  1  0.00000000  0.00000000  0.60001200  1
  Ni  Ni12  1  0.00000000  0.00000000  0.40014700  1
  Cu  Cu13  1  0.00000000  0.00000000  0.20033300  1
