# generated using pymatgen
data_Cu3NiC7
_symmetry_space_group_name_H-M   'P 1'
_cell_length_a   7.47514751
_cell_length_b   7.71123896
_cell_length_c   13.10505860
_cell_angle_alpha   82.55500650
_cell_angle_beta   74.49434065
_cell_angle_gamma   61.00773196
_symmetry_Int_Tables_number   1
_chemical_formula_structural   Cu3NiC7
_chemical_formula_sum   'Cu12 Ni4 C28'
_cell_volume   636.69765932
_cell_formula_units_Z   4
loop_
 _symmetry_equiv_pos_site_id
 _symmetry_equiv_pos_as_xyz
  1  'x, y, z'
loop_
 _atom_site_type_symbol
 _atom_site_label
 _atom_site_symmetry_multiplicity
 _atom_site_fract_x
 _atom_site_fract_y
 _atom_site_fract_z
 _atom_site_occupancy
  C  C0  1  0.31812300  0.98565100  0.87068200  1
  C  C1  1  0.69622600  0.98565100  0.62931800  1
  C  C2  1  0.68187700  0.01434900  0.12931800  1
  C  C3  1  0.30377400  0.01434900  0.37068200  1
  Ni  Ni4  1  0.34676300  0.64305800  0.62287800  1
  Ni  Ni5  1  0.01018000  0.64305800  0.87712200  1
  Ni  Ni6  1  0.65323700  0.35694200  0.37712200  1
  Ni  Ni7  1  0.98982000  0.35694200  0.12287800  1
  Cu  Cu8  1  0.02975000  0.47065900  0.65978800  1
  Cu  Cu9  1  0.49959200  0.47065900  0.84021200  1
  Cu  Cu10  1  0.97025000  0.52934100  0.34021200  1
  Cu  Cu11  1  0.50040800  0.52934100  0.15978800  1
  Cu  Cu12  1  0.17469800  0.11454300  0.62690600  1
  Cu  Cu13  1  0.71075900  0.11454300  0.87309400  1
  Cu  Cu14  1  0.82530200  0.88545700  0.37309400  1
  Cu  Cu15  1  0.28924100  0.88545700  0.12690600  1
  Cu  Cu16  1  0.16774700  0.64395900  0.41116400  1
  Cu  Cu17  1  0.18829400  0.64395900  0.08883600  1
  Cu  Cu18  1  0.83225300  0.35604100  0.58883600  1
  Cu  Cu19  1  0.81170600  0.35604100  0.91116400  1
  C  C20  1  0.33443700  0.93216000  0.62490400  1
  C  C21  1  0.73340300  0.93216000  0.87509600  1
  C  C22  1  0.66556300  0.06784000  0.37509600  1
  C  C23  1  0.26659700  0.06784000  0.12490400  1
  C  C24  1  0.33930000  0.61071800  0.44211900  1
  C  C25  1  0.04998300  0.61071800  0.05788100  1
  C  C26  1  0.66070000  0.38928200  0.55788100  1
  C  C27  1  0.95001700  0.38928200  0.94211900  1
  C  C28  1  0.18255200  0.27227400  0.66607200  1
  C  C29  1  0.54517400  0.27227400  0.83392800  1
  C  C30  1  0.81744800  0.72772600  0.33392800  1
  C  C31  1  0.45482600  0.72772600  0.16607200  1
  C  C32  1  0.85353300  0.50844000  0.62306400  1
  C  C33  1  0.63802700  0.50844000  0.87693600  1
  C  C34  1  0.14646700  0.49156000  0.37693600  1
  C  C35  1  0.36197300  0.49156000  0.12306400  1
  C  C36  1  0.99675100  0.16048300  0.58892500  1
  C  C37  1  0.84276700  0.16048300  0.91107500  1
  C  C38  1  0.00324900  0.83951700  0.41107500  1
  C  C39  1  0.15723300  0.83951700  0.08892500  1
  C  C40  1  0.04782800  0.62199700  0.68820800  1
  C  C41  1  0.33017500  0.62199700  0.81179200  1
  C  C42  1  0.95217200  0.37800300  0.31179200  1
  C  C43  1  0.66982500  0.37800300  0.18820800  1
