# generated using pymatgen
data_Cu2Ni5C17
_symmetry_space_group_name_H-M   'P 1'
_cell_length_a   24.74095100
_cell_length_b   5.91374700
_cell_length_c   5.97777529
_cell_angle_alpha   60.63978885
_cell_angle_beta   90.00000000
_cell_angle_gamma   90.00000000
_symmetry_Int_Tables_number   1
_chemical_formula_structural   Cu2Ni5C17
_chemical_formula_sum   'Cu4 Ni10 C34'
_cell_volume   762.27779456
_cell_formula_units_Z   2
loop_
 _symmetry_equiv_pos_site_id
 _symmetry_equiv_pos_as_xyz
  1  'x, y, z'
loop_
 _atom_site_type_symbol
 _atom_site_label
 _atom_site_symmetry_multiplicity
 _atom_site_fract_x
 _atom_site_fract_y
 _atom_site_fract_z
 _atom_site_occupancy
  Ni  Ni0  1  0.44120200  0.68032600  0.64237400  1
  Ni  Ni1  1  0.55683300  0.32579200  0.37172600  1
  Ni  Ni2  1  0.94120200  0.31967400  0.35762600  1
  Ni  Ni3  1  0.05683300  0.67420800  0.62827400  1
  Ni  Ni4  1  0.33548400  0.00577500  0.97662300  1
  Ni  Ni5  1  0.66501400  0.98578100  0.02346400  1
  Ni  Ni6  1  0.83548400  0.99422500  0.02337700  1
  Ni  Ni7  1  0.16501400  0.01421900  0.97653600  1
  Ni  Ni8  1  0.25054600  0.34272300  0.31370700  1
  Ni  Ni9  1  0.75054600  0.65727700  0.68629300  1
  Cu  Cu10  1  0.40263600  0.34552300  0.31831800  1
  Cu  Cu11  1  0.59894300  0.67764800  0.68134800  1
  Cu  Cu12  1  0.90263600  0.65447700  0.68168200  1
  Cu  Cu13  1  0.09894300  0.32235200  0.31865200  1
  C  C14  1  0.30603400  0.67370100  0.64821000  1
  C  C15  1  0.69326900  0.32495500  0.35283300  1
  C  C16  1  0.80603400  0.32629900  0.35179000  1
  C  C17  1  0.19326900  0.67504500  0.64716700  1
  C  C18  1  0.49787400  0.99618700  0.01213100  1
  C  C19  1  0.99787400  0.00381300  0.98786900  1
  C  C20  1  0.44295600  0.76113900  0.12716900  1
  C  C21  1  0.55800100  0.92848900  0.87420800  1
  C  C22  1  0.94295600  0.23886100  0.87283100  1
  C  C23  1  0.05800100  0.07151100  0.12579200  1
  C  C24  1  0.46467100  0.17925900  0.66999100  1
  C  C25  1  0.53301400  0.81830000  0.35404700  1
  C  C26  1  0.96467100  0.82074100  0.33000900  1
  C  C27  1  0.03301400  0.18170000  0.64595300  1
  C  C28  1  0.34804600  0.98605100  0.49247100  1
  C  C29  1  0.65215800  0.48000900  0.51312100  1
  C  C30  1  0.84804600  0.01394900  0.50752900  1
  C  C31  1  0.15215800  0.51999100  0.48687900  1
  C  C32  1  0.24916900  0.37083400  0.79904000  1
  C  C33  1  0.75019800  0.17276900  0.19985500  1
  C  C34  1  0.74916900  0.62916600  0.20096000  1
  C  C35  1  0.25019800  0.82723100  0.80014500  1
  C  C36  1  0.34610800  0.51500900  0.49227500  1
  C  C37  1  0.65393200  0.01070600  0.50900900  1
  C  C38  1  0.84610800  0.48499100  0.50772500  1
  C  C39  1  0.15393200  0.98929400  0.49099100  1
  C  C40  1  0.34726500  0.51145900  0.95934400  1
  C  C41  1  0.65049000  0.47028500  0.04574100  1
  C  C42  1  0.84726500  0.48854100  0.04065600  1
  C  C43  1  0.15049000  0.52971500  0.95425900  1
  C  C44  1  0.25002300  0.82473200  0.34736300  1
  C  C45  1  0.75002300  0.17526800  0.65263700  1
  C  C46  1  0.48913400  0.28718800  0.04544100  1
  C  C47  1  0.98913400  0.71281200  0.95455900  1
