# generated using pymatgen
data_Cu(Ni5C3)2
_symmetry_space_group_name_H-M   'P 1'
_cell_length_a   11.22648100
_cell_length_b   7.36589100
_cell_length_c   11.98641516
_cell_angle_alpha   59.74073109
_cell_angle_beta   90.00000000
_cell_angle_gamma   90.00000000
_symmetry_Int_Tables_number   1
_chemical_formula_structural   Cu(Ni5C3)2
_chemical_formula_sum   'Cu4 Ni40 C24'
_cell_volume   856.14696069
_cell_formula_units_Z   4
loop_
 _symmetry_equiv_pos_site_id
 _symmetry_equiv_pos_as_xyz
  1  'x, y, z'
loop_
 _atom_site_type_symbol
 _atom_site_label
 _atom_site_symmetry_multiplicity
 _atom_site_fract_x
 _atom_site_fract_y
 _atom_site_fract_z
 _atom_site_occupancy
  C  C0  1  0.46923200  0.74409000  0.01827400  1
  C  C1  1  0.96923200  0.25591000  0.48172600  1
  C  C2  1  0.53076800  0.25591000  0.98172600  1
  C  C3  1  0.03076800  0.74409000  0.51827400  1
  C  C4  1  0.22916100  0.59602700  0.31087300  1
  C  C5  1  0.72916100  0.40397300  0.18912700  1
  C  C6  1  0.77083900  0.40397300  0.68912700  1
  C  C7  1  0.27083900  0.59602700  0.81087300  1
  C  C8  1  0.09847100  0.80559400  0.99681500  1
  C  C9  1  0.59847100  0.19440600  0.50318500  1
  C  C10  1  0.90152900  0.19440600  0.00318500  1
  C  C11  1  0.40152900  0.80559400  0.49681500  1
  C  C12  1  0.46343200  0.28631500  0.70843500  1
  C  C13  1  0.75575700  0.87602200  0.89011800  1
  C  C14  1  0.74424300  0.87602200  0.39011800  1
  C  C15  1  0.24424300  0.12397800  0.10988200  1
  C  C16  1  0.41381900  0.28515100  0.24059200  1
  C  C17  1  0.91381900  0.71484900  0.25940800  1
  C  C18  1  0.58618100  0.71484900  0.75940800  1
  C  C19  1  0.08618100  0.28515100  0.74059200  1
  C  C20  1  0.03656800  0.28631500  0.20843500  1
  C  C21  1  0.53656800  0.71368500  0.29156500  1
  C  C22  1  0.25575700  0.12397800  0.60988200  1
  C  C23  1  0.96343200  0.71368500  0.79156500  1
  Ni  Ni24  1  0.09062600  0.65782900  0.86998200  1
  Ni  Ni25  1  0.59062600  0.34217100  0.63001800  1
  Ni  Ni26  1  0.90937400  0.34217100  0.13001800  1
  Ni  Ni27  1  0.40937400  0.65782900  0.36998200  1
  Ni  Ni28  1  0.47823200  0.10390900  0.86209900  1
  Ni  Ni29  1  0.97823200  0.89609100  0.63790100  1
  Ni  Ni30  1  0.52176800  0.89609100  0.13790100  1
  Ni  Ni31  1  0.02176800  0.10390900  0.36209900  1
  Ni  Ni32  1  0.10391700  0.49595700  0.19136800  1
  Ni  Ni33  1  0.60391700  0.50404300  0.30863200  1
  Ni  Ni34  1  0.89608300  0.50404300  0.80863200  1
  Ni  Ni35  1  0.39608300  0.49595700  0.69136800  1
  Ni  Ni36  1  0.39212000  0.19914300  0.62148000  1
  Ni  Ni37  1  0.89212000  0.80085700  0.87852000  1
  Ni  Ni38  1  0.60788000  0.80085700  0.37852000  1
  Ni  Ni39  1  0.10788000  0.19914300  0.12148000  1
  Ni  Ni40  1  0.35677200  0.51433100  0.19734500  1
  Ni  Ni41  1  0.27440600  0.89632200  0.62065200  1
  Ni  Ni42  1  0.72559400  0.10367800  0.37934800  1
  Ni  Ni43  1  0.22559400  0.89632200  0.12065200  1
  Ni  Ni44  1  0.18102500  0.28751100  0.48144700  1
  Ni  Ni45  1  0.68102500  0.71248900  0.01855300  1
  Ni  Ni46  1  0.81897500  0.71248900  0.51855300  1
  Ni  Ni47  1  0.31897500  0.28751100  0.98144700  1
  Ni  Ni48  1  0.17839000  0.11569300  0.73068400  1
  Ni  Ni49  1  0.67839000  0.88430700  0.76931600  1
  Ni  Ni50  1  0.82161000  0.88430700  0.26931600  1
  Ni  Ni51  1  0.32161000  0.11569300  0.23068400  1
  Ni  Ni52  1  0.02451000  0.64889300  0.36349400  1
  Ni  Ni53  1  0.52451000  0.35110700  0.13650600  1
  Ni  Ni54  1  0.97549000  0.35110700  0.63650600  1
  Ni  Ni55  1  0.47549000  0.64889300  0.86349400  1
  Ni  Ni56  1  0.04974900  0.14827000  0.89221800  1
  Ni  Ni57  1  0.54974900  0.85173000  0.60778200  1
  Ni  Ni58  1  0.95025100  0.85173000  0.10778200  1
  Ni  Ni59  1  0.45025100  0.14827000  0.39221800  1
  Ni  Ni60  1  0.14322800  0.51433100  0.69734500  1
  Ni  Ni61  1  0.64322800  0.48566900  0.80265500  1
  Ni  Ni62  1  0.85677200  0.48566900  0.30265500  1
  Ni  Ni63  1  0.77440600  0.10367800  0.87934800  1
  Cu  Cu64  1  0.71436500  0.24353300  0.05936600  1
  Cu  Cu65  1  0.21436500  0.75646700  0.44063400  1
  Cu  Cu66  1  0.78563500  0.24353300  0.55936600  1
  Cu  Cu67  1  0.28563500  0.75646700  0.94063400  1
