# generated using pymatgen
data_Cu2(NiC3)3
_symmetry_space_group_name_H-M   'P 1'
_cell_length_a   5.41900004
_cell_length_b   5.41900004
_cell_length_c   15.00619700
_cell_angle_alpha   90.00000000
_cell_angle_beta   90.00000000
_cell_angle_gamma   120.16867888
_symmetry_Int_Tables_number   1
_chemical_formula_structural   Cu2(NiC3)3
_chemical_formula_sum   'Cu4 Ni6 C18'
_cell_volume   380.97711840
_cell_formula_units_Z   2
loop_
 _symmetry_equiv_pos_site_id
 _symmetry_equiv_pos_as_xyz
  1  'x, y, z'
loop_
 _atom_site_type_symbol
 _atom_site_label
 _atom_site_symmetry_multiplicity
 _atom_site_fract_x
 _atom_site_fract_y
 _atom_site_fract_z
 _atom_site_occupancy
  Ni  Ni0  1  0.36528200  0.36528200  0.72717900  1
  Ni  Ni1  1  0.63471800  0.63471800  0.22717900  1
  Ni  Ni2  1  0.07814100  0.72155700  0.72532700  1
  Ni  Ni3  1  0.72155700  0.07814100  0.72532700  1
  Ni  Ni4  1  0.92185900  0.27844300  0.22532700  1
  Ni  Ni5  1  0.27844300  0.92185900  0.22532700  1
  Cu  Cu6  1  0.38405500  0.05080500  0.53756300  1
  Cu  Cu7  1  0.05080500  0.38405500  0.53756300  1
  Cu  Cu8  1  0.61594500  0.94919500  0.03756300  1
  Cu  Cu9  1  0.94919500  0.61594500  0.03756300  1
  C  C10  1  0.21964400  0.21964400  0.50367900  1
  C  C11  1  0.78035600  0.78035600  0.00367900  1
  C  C12  1  0.71783700  0.21447400  0.50227900  1
  C  C13  1  0.21447400  0.71783700  0.50227900  1
  C  C14  1  0.28216300  0.78552600  0.00227900  1
  C  C15  1  0.78552600  0.28216300  0.00227900  1
  C  C16  1  0.38659300  0.05235800  0.64757000  1
  C  C17  1  0.05235800  0.38659300  0.64757000  1
  C  C18  1  0.61340700  0.94764200  0.14757000  1
  C  C19  1  0.94764200  0.61340700  0.14757000  1
  C  C20  1  0.72075200  0.72075200  0.67474200  1
  C  C21  1  0.27924800  0.27924800  0.17474200  1
  C  C22  1  0.02519300  0.02519300  0.78664700  1
  C  C23  1  0.97480700  0.97480700  0.28664700  1
  C  C24  1  0.72281100  0.41497800  0.78663800  1
  C  C25  1  0.41497800  0.72281100  0.78663800  1
  C  C26  1  0.27718900  0.58502200  0.28663800  1
  C  C27  1  0.58502200  0.27718900  0.28663800  1
