# generated using pymatgen
data_CuNiC12
_symmetry_space_group_name_H-M   'P 1'
_cell_length_a   10.32237031
_cell_length_b   10.32237031
_cell_length_c   7.44264400
_cell_angle_alpha   90.00000000
_cell_angle_beta   90.00000000
_cell_angle_gamma   120.00000196
_symmetry_Int_Tables_number   1
_chemical_formula_structural   CuNiC12
_chemical_formula_sum   'Cu3 Ni3 C36'
_cell_volume   686.77857627
_cell_formula_units_Z   3
loop_
 _symmetry_equiv_pos_site_id
 _symmetry_equiv_pos_as_xyz
  1  'x, y, z'
loop_
 _atom_site_type_symbol
 _atom_site_label
 _atom_site_symmetry_multiplicity
 _atom_site_fract_x
 _atom_site_fract_y
 _atom_site_fract_z
 _atom_site_occupancy
  Ni  Ni0  1  0.74135100  0.04671300  0.50000000  1
  Ni  Ni1  1  0.30536200  0.25864900  0.50000000  1
  Ni  Ni2  1  0.95328700  0.69463800  0.50000000  1
  Cu  Cu3  1  0.92392600  0.28688700  0.00000000  1
  Cu  Cu4  1  0.36296200  0.07607400  0.00000000  1
  Cu  Cu5  1  0.71311300  0.63703800  0.00000000  1
  C  C6  1  0.00000000  0.00000000  0.24030300  1
  C  C7  1  0.66666700  0.33333300  0.75116800  1
  C  C8  1  0.66666700  0.33333300  0.24883200  1
  C  C9  1  0.00000000  0.00000000  0.75969700  1
  C  C10  1  0.07512200  0.65042300  0.00000000  1
  C  C11  1  0.57530100  0.92487800  0.00000000  1
  C  C12  1  0.34957700  0.42469900  0.00000000  1
  C  C13  1  0.58736800  0.67776400  0.50000000  1
  C  C14  1  0.09039600  0.41263200  0.50000000  1
  C  C15  1  0.32223600  0.90960400  0.50000000  1
  C  C16  1  0.33333300  0.66666700  0.25034000  1
  C  C17  1  0.33333300  0.66666700  0.74966000  1
  C  C18  1  0.74727000  0.19168200  0.00000000  1
  C  C19  1  0.44441200  0.25273000  0.00000000  1
  C  C20  1  0.80831800  0.55558800  0.00000000  1
  C  C21  1  0.93618500  0.14629700  0.50000000  1
  C  C22  1  0.21011200  0.06381500  0.50000000  1
  C  C23  1  0.85370300  0.78988800  0.50000000  1
  C  C24  1  0.97137200  0.39079100  0.16888000  1
  C  C25  1  0.41942000  0.02862800  0.16888000  1
  C  C26  1  0.60920900  0.58058000  0.16888000  1
  C  C27  1  0.68969900  0.92940100  0.68376300  1
  C  C28  1  0.23970100  0.31030100  0.68376300  1
  C  C29  1  0.07059900  0.76029900  0.68376300  1
  C  C30  1  0.68969900  0.92940100  0.31623700  1
  C  C31  1  0.23970100  0.31030100  0.31623700  1
  C  C32  1  0.07059900  0.76029900  0.31623700  1
  C  C33  1  0.97137200  0.39079100  0.83112000  1
  C  C34  1  0.41942000  0.02862800  0.83112000  1
  C  C35  1  0.60920900  0.58058000  0.83112000  1
  C  C36  1  0.99152400  0.18198100  0.00000000  1
  C  C37  1  0.19045800  0.00847600  0.00000000  1
  C  C38  1  0.81801900  0.80954200  0.00000000  1
  C  C39  1  0.66579000  0.16186500  0.50000000  1
  C  C40  1  0.49607500  0.33421000  0.50000000  1
  C  C41  1  0.83813500  0.50392500  0.50000000  1
