# generated using pymatgen
data_Cu2Ni4C3
_symmetry_space_group_name_H-M   'P 1'
_cell_length_a   7.20407100
_cell_length_b   7.90217200
_cell_length_c   8.00268400
_cell_angle_alpha   90.00000000
_cell_angle_beta   90.00000000
_cell_angle_gamma   90.00000000
_symmetry_Int_Tables_number   1
_chemical_formula_structural   Cu2Ni4C3
_chemical_formula_sum   'Cu8 Ni16 C12'
_cell_volume   455.57525937
_cell_formula_units_Z   4
loop_
 _symmetry_equiv_pos_site_id
 _symmetry_equiv_pos_as_xyz
  1  'x, y, z'
loop_
 _atom_site_type_symbol
 _atom_site_label
 _atom_site_symmetry_multiplicity
 _atom_site_fract_x
 _atom_site_fract_y
 _atom_site_fract_z
 _atom_site_occupancy
  Ni  Ni0  1  0.83301100  0.53609200  0.67374400  1
  Ni  Ni1  1  0.66698900  0.03609200  0.67374400  1
  Ni  Ni2  1  0.16698900  0.46390800  0.17374400  1
  Ni  Ni3  1  0.33301100  0.96390800  0.17374400  1
  Ni  Ni4  1  0.73541900  0.38140700  0.15492900  1
  Ni  Ni5  1  0.99642600  0.60000100  0.45372600  1
  Ni  Ni6  1  0.82982100  0.72586200  0.46488200  1
  Ni  Ni7  1  0.26458100  0.61859300  0.65492900  1
  Ni  Ni8  1  0.00357400  0.39999900  0.95372600  1
  Ni  Ni9  1  0.17017900  0.27413800  0.96488200  1
  Ni  Ni10  1  0.49642600  0.89999900  0.95372600  1
  Ni  Ni11  1  0.32982100  0.77413800  0.96488200  1
  Ni  Ni12  1  0.23541900  0.11859300  0.65492900  1
  Ni  Ni13  1  0.50357400  0.10000100  0.45372600  1
  Ni  Ni14  1  0.67017900  0.22586200  0.46488200  1
  Ni  Ni15  1  0.76458100  0.88140700  0.15492900  1
  Cu  Cu16  1  0.23813000  0.14524200  0.78284100  1
  Cu  Cu17  1  0.26187000  0.64524200  0.78284100  1
  Cu  Cu18  1  0.76187000  0.85475800  0.28284100  1
  Cu  Cu19  1  0.73813000  0.35475800  0.28284100  1
  Cu  Cu20  1  0.61895300  0.44164700  0.79244600  1
  Cu  Cu21  1  0.88104700  0.94164700  0.79244600  1
  Cu  Cu22  1  0.38104700  0.55835300  0.29244600  1
  Cu  Cu23  1  0.11895300  0.05835300  0.29244600  1
  C  C24  1  0.81039000  0.46369100  0.78059800  1
  C  C25  1  0.68961000  0.96369100  0.78059800  1
  C  C26  1  0.18961000  0.53630900  0.28059800  1
  C  C27  1  0.31039000  0.03630900  0.28059800  1
  C  C28  1  0.57680400  0.36400800  0.91629000  1
  C  C29  1  0.90540000  0.64661200  0.53240300  1
  C  C30  1  0.42319600  0.63599200  0.41629000  1
  C  C31  1  0.09460000  0.35338800  0.03240300  1
  C  C32  1  0.40540000  0.85338800  0.03240300  1
  C  C33  1  0.07680400  0.13599200  0.41629000  1
  C  C34  1  0.59460000  0.14661200  0.53240300  1
  C  C35  1  0.92319600  0.86400800  0.91629000  1
