# generated using pymatgen
data_CuNi5C6
_symmetry_space_group_name_H-M   'P 1'
_cell_length_a   5.56758600
_cell_length_b   9.87739300
_cell_length_c   17.11411600
_cell_angle_alpha   90.00000000
_cell_angle_beta   90.00000000
_cell_angle_gamma   90.00000000
_symmetry_Int_Tables_number   1
_chemical_formula_structural   CuNi5C6
_chemical_formula_sum   'Cu4 Ni20 C24'
_cell_volume   941.16060272
_cell_formula_units_Z   4
loop_
 _symmetry_equiv_pos_site_id
 _symmetry_equiv_pos_as_xyz
  1  'x, y, z'
loop_
 _atom_site_type_symbol
 _atom_site_label
 _atom_site_symmetry_multiplicity
 _atom_site_fract_x
 _atom_site_fract_y
 _atom_site_fract_z
 _atom_site_occupancy
  C  C0  1  0.75000000  0.37525000  0.82706700  1
  C  C1  1  0.75000000  0.12475000  0.32706700  1
  C  C2  1  0.25000000  0.62475000  0.17293300  1
  C  C3  1  0.25000000  0.87525000  0.67293300  1
  C  C4  1  0.25000000  0.43293700  0.57863200  1
  C  C5  1  0.25000000  0.06706300  0.07863200  1
  C  C6  1  0.75000000  0.56706300  0.42136800  1
  C  C7  1  0.75000000  0.93293700  0.92136800  1
  Ni  Ni8  1  0.50964900  0.51139600  0.87836000  1
  Ni  Ni9  1  0.99035100  0.98860400  0.37836000  1
  Ni  Ni10  1  0.00964900  0.48860400  0.12164000  1
  Ni  Ni11  1  0.49035100  0.01139600  0.62164000  1
  Ni  Ni12  1  0.49035100  0.48860400  0.12164000  1
  Ni  Ni13  1  0.00964900  0.01139600  0.62164000  1
  Ni  Ni14  1  0.99035100  0.51139600  0.87836000  1
  Ni  Ni15  1  0.50964900  0.98860400  0.37836000  1
  Ni  Ni16  1  0.75000000  0.39309100  0.72900500  1
  Ni  Ni17  1  0.75000000  0.10690900  0.22900500  1
  Ni  Ni18  1  0.25000000  0.60690900  0.27099500  1
  Ni  Ni19  1  0.25000000  0.89309100  0.77099500  1
  Ni  Ni20  1  0.55648100  0.22373500  0.86306600  1
  Ni  Ni21  1  0.94351900  0.27626500  0.36306600  1
  Ni  Ni22  1  0.05648100  0.77626500  0.13693400  1
  Ni  Ni23  1  0.44351900  0.72373500  0.63693400  1
  Ni  Ni24  1  0.44351900  0.77626500  0.13693400  1
  Ni  Ni25  1  0.05648100  0.72373500  0.63693400  1
  Ni  Ni26  1  0.94351900  0.22373500  0.86306600  1
  Ni  Ni27  1  0.55648100  0.27626500  0.36306600  1
  Cu  Cu28  1  0.75000000  0.44627700  0.10683800  1
  Cu  Cu29  1  0.75000000  0.05372300  0.60683800  1
  Cu  Cu30  1  0.25000000  0.55372300  0.89316200  1
  Cu  Cu31  1  0.25000000  0.94627700  0.39316200  1
  C  C32  1  0.00178100  0.33771000  0.61106900  1
  C  C33  1  0.49821900  0.16229000  0.11106900  1
  C  C34  1  0.50178100  0.66229000  0.38893100  1
  C  C35  1  0.99821900  0.83771000  0.88893100  1
  C  C36  1  0.99821900  0.66229000  0.38893100  1
  C  C37  1  0.50178100  0.83771000  0.88893100  1
  C  C38  1  0.49821900  0.33771000  0.61106900  1
  C  C39  1  0.00178100  0.16229000  0.11106900  1
  C  C40  1  0.25000000  0.62028800  0.64565000  1
  C  C41  1  0.25000000  0.87971200  0.14565000  1
  C  C42  1  0.75000000  0.37971200  0.35435000  1
  C  C43  1  0.75000000  0.12028800  0.85435000  1
  C  C44  1  0.25000000  0.43043700  0.47460900  1
  C  C45  1  0.25000000  0.06956300  0.97460900  1
  C  C46  1  0.75000000  0.56956300  0.52539100  1
  C  C47  1  0.75000000  0.93043700  0.02539100  1
