# generated using pymatgen
data_Cu7Ni5C53
_symmetry_space_group_name_H-M   'P 1'
_cell_length_a   8.88151400
_cell_length_b   9.29193282
_cell_length_c   9.34373581
_cell_angle_alpha   90.57890416
_cell_angle_beta   91.12555790
_cell_angle_gamma   90.87632926
_symmetry_Int_Tables_number   1
_chemical_formula_structural   Cu7Ni5C53
_chemical_formula_sum   'Cu7 Ni5 C53'
_cell_volume   770.82446563
_cell_formula_units_Z   1
loop_
 _symmetry_equiv_pos_site_id
 _symmetry_equiv_pos_as_xyz
  1  'x, y, z'
loop_
 _atom_site_type_symbol
 _atom_site_label
 _atom_site_symmetry_multiplicity
 _atom_site_fract_x
 _atom_site_fract_y
 _atom_site_fract_z
 _atom_site_occupancy
  C  C0  1  0.35127500  0.38033800  0.37596700  1
  C  C1  1  0.34833000  0.63961500  0.61920700  1
  C  C2  1  0.62498700  0.65549800  0.34492200  1
  C  C3  1  0.59430400  0.31297000  0.66516600  1
  C  C4  1  0.88181800  0.15940000  0.14517400  1
  C  C5  1  0.02601100  0.95504400  0.94655600  1
  Ni  Ni6  1  0.03454800  0.26067200  0.50739100  1
  Ni  Ni7  1  0.35359200  0.96626200  0.80128000  1
  Ni  Ni8  1  0.45906600  0.00405300  0.23302900  1
  Ni  Ni9  1  0.75245500  0.49761000  0.00129700  1
  Ni  Ni10  1  0.76563000  0.99688000  0.49581000  1
  Cu  Cu11  1  0.00099400  0.50187600  0.74563100  1
  Cu  Cu12  1  0.24840200  0.49333800  0.99610500  1
  Cu  Cu13  1  0.25119200  0.99160800  0.50092000  1
  Cu  Cu14  1  0.48167000  0.24597300  0.99511200  1
  Cu  Cu15  1  0.49289500  0.73750400  0.00723000  1
  Cu  Cu16  1  0.02057000  0.49815100  0.25006600  1
  Cu  Cu17  1  0.01096300  0.73594200  0.49355900  1
  C  C18  1  0.17124700  0.11962400  0.18989700  1
  C  C19  1  0.33266300  0.68182400  0.31521600  1
  C  C20  1  0.32113600  0.32454500  0.68364600  1
  C  C21  1  0.60119200  0.27879600  0.26888700  1
  C  C22  1  0.58232700  0.77950500  0.78196600  1
  C  C23  1  0.78092300  0.22925800  0.39671500  1
  C  C24  1  0.72275600  0.72947500  0.61253100  1
  C  C25  1  0.73125300  0.39287700  0.28030900  1
  C  C26  1  0.72152900  0.61497700  0.72976700  1
  C  C27  1  0.78140200  0.78502200  0.09679000  1
  C  C28  1  0.76793800  0.21507100  0.89740700  1
  C  C29  1  0.71901200  0.91881600  0.25650000  1
  C  C30  1  0.74041200  0.07289900  0.73364700  1
  C  C31  1  0.93198500  0.82458600  0.18347400  1
  C  C32  1  0.92243000  0.20622800  0.82164300  1
  C  C33  1  0.08436600  0.37693200  0.35703100  1
  C  C34  1  0.04507800  0.62487100  0.62581900  1
  C  C35  1  0.11156800  0.11173800  0.10246000  1
  C  C36  1  0.20323100  0.85137800  0.83744000  1
  C  C37  1  0.14388400  0.54302500  0.13019800  1
  C  C38  1  0.14114600  0.46624400  0.85461600  1
  C  C39  1  0.14765100  0.84491400  0.45728100  1
  C  C40  1  0.13739700  0.10853800  0.57193500  1
  C  C41  1  0.32007100  0.06467300  0.35579700  1
  C  C42  1  0.38903600  0.94591700  0.60473300  1
  C  C43  1  0.34766000  0.35503200  0.04392200  1
  C  C44  1  0.37394100  0.61383500  0.95525300  1
  C  C45  1  0.38816200  0.61728900  0.37709300  1
  C  C46  1  0.36416800  0.39011700  0.61469700  1
  C  C47  1  0.43025800  0.84339900  0.12689400  1
  C  C48  1  0.43622000  0.14134400  0.86364300  1
  C  C49  1  0.54062800  0.16440000  0.14284900  1
  C  C50  1  0.54154500  0.83563600  0.86574600  1
  C  C51  1  0.65323500  0.34543300  0.34139300  1
  C  C52  1  0.65031800  0.66477600  0.66271300  1
  C  C53  1  0.64922900  0.65796400  0.06709400  1
  C  C54  1  0.63356700  0.34061600  0.94268500  1
  C  C55  1  0.64456800  0.94034400  0.33321900  1
  C  C56  1  0.67844600  0.08023600  0.64544100  1
  C  C57  1  0.85633200  0.82334400  0.52853600  1
  C  C58  1  0.86516400  0.15788000  0.40937100  1
  C  C59  1  0.86366500  0.44224900  0.16459300  1
  C  C60  1  0.85718600  0.55466300  0.84139200  1
  C  C61  1  0.84794900  0.86795600  0.13061200  1
  C  C62  1  0.85382900  0.14898200  0.88104500  1
  C  C63  1  0.97082700  0.64262600  0.34357300  1
  C  C64  1  0.94796900  0.35440900  0.66011000  1
