# generated using pymatgen
data_Cu2NiC3
_symmetry_space_group_name_H-M   'P 1'
_cell_length_a   5.77714723
_cell_length_b   5.77304102
_cell_length_c   5.39030300
_cell_angle_alpha   90.00000000
_cell_angle_beta   90.00000000
_cell_angle_gamma   119.97649285
_symmetry_Int_Tables_number   1
_chemical_formula_structural   Cu2NiC3
_chemical_formula_sum   'Cu4 Ni2 C6'
_cell_volume   155.72728561
_cell_formula_units_Z   2
loop_
 _symmetry_equiv_pos_site_id
 _symmetry_equiv_pos_as_xyz
  1  'x, y, z'
loop_
 _atom_site_type_symbol
 _atom_site_label
 _atom_site_symmetry_multiplicity
 _atom_site_fract_x
 _atom_site_fract_y
 _atom_site_fract_z
 _atom_site_occupancy
  Ni  Ni0  1  0.00000000  0.67473500  0.48969600  1
  Ni  Ni1  1  0.00000000  0.32526500  0.98969600  1
  Cu  Cu2  1  0.34094000  0.33385200  0.49257500  1
  Cu  Cu3  1  0.65906000  0.99291200  0.49257500  1
  Cu  Cu4  1  0.65906000  0.66614800  0.99257500  1
  Cu  Cu5  1  0.34094000  0.00708800  0.99257500  1
  C  C6  1  0.36050400  0.33367900  0.85888300  1
  C  C7  1  0.63949600  0.97317400  0.85888300  1
  C  C8  1  0.63949600  0.66632100  0.35888300  1
  C  C9  1  0.36050400  0.02682600  0.35888300  1
  C  C10  1  0.00000000  0.69255500  0.89538900  1
  C  C11  1  0.00000000  0.30744500  0.39538900  1
