# generated using pymatgen
data_Cu2NiC27
_symmetry_space_group_name_H-M   'P 1'
_cell_length_a   10.66787169
_cell_length_b   16.31331700
_cell_length_c   16.31331090
_cell_angle_alpha   120.00008233
_cell_angle_beta   90.00006385
_cell_angle_gamma   90.00001996
_symmetry_Int_Tables_number   1
_chemical_formula_structural   Cu2NiC27
_chemical_formula_sum   'Cu12 Ni6 C162'
_cell_volume   2458.62584961
_cell_formula_units_Z   6
loop_
 _symmetry_equiv_pos_site_id
 _symmetry_equiv_pos_as_xyz
  1  'x, y, z'
loop_
 _atom_site_type_symbol
 _atom_site_label
 _atom_site_symmetry_multiplicity
 _atom_site_fract_x
 _atom_site_fract_y
 _atom_site_fract_z
 _atom_site_occupancy
  Ni  Ni0  1  0.22199695  0.66666301  0.33333160  1
  Ni  Ni1  1  0.77800305  0.33333699  0.66666840  1
  Ni  Ni2  1  0.72983760  0.66666335  0.33333165  1
  Ni  Ni3  1  0.27016240  0.33333665  0.66666835  1
  Ni  Ni4  1  0.25909337  0.99999986  -0.00000015  1
  Ni  Ni5  1  0.74090663  0.00000014  0.00000015  1
  Cu  Cu6  1  0.56280162  0.00106626  0.36133538  1
  Cu  Cu7  1  0.56280293  0.63866850  0.63973236  1
  Cu  Cu8  1  0.56279935  0.36026591  0.99893147  1
  Cu  Cu9  1  0.43719838  0.99893374  0.63866462  1
  Cu  Cu10  1  0.43719707  0.36133150  0.36026764  1
  Cu  Cu11  1  0.43720065  0.63973409  0.00106853  1
  Cu  Cu12  1  0.07656763  0.98917985  0.30442482  1
  Cu  Cu13  1  0.07656774  0.69557932  0.68475807  1
  Cu  Cu14  1  0.07656931  0.31523974  0.01081783  1
  Cu  Cu15  1  0.92343237  0.01082015  0.69557518  1
  Cu  Cu16  1  0.92343226  0.30442068  0.31524193  1
  Cu  Cu17  1  0.92343069  0.68476026  0.98918217  1
  C  C18  1  0.14343565  0.85223343  0.50363943  1
  C  C19  1  0.14343558  0.49635646  0.34859482  1
  C  C20  1  0.14343621  0.65140344  0.14776293  1
  C  C21  1  0.85656435  0.14776657  0.49636057  1
  C  C22  1  0.85656442  0.50364354  0.65140518  1
  C  C23  1  0.85656379  0.34859656  0.85223707  1
  C  C24  1  0.31505753  0.86521370  0.37663501  1
  C  C25  1  0.31505829  0.62336165  0.48857967  1
  C  C26  1  0.31505775  0.51141806  0.13478190  1
  C  C27  1  0.68494247  0.13478630  0.62336499  1
  C  C28  1  0.68494171  0.37663835  0.51142033  1
  C  C29  1  0.68494225  0.48858194  0.86521810  1
  C  C30  1  0.83267902  0.83830247  0.32781184  1
  C  C31  1  0.83267994  0.67218636  0.51049169  1
  C  C32  1  0.83268012  0.48950412  0.16169360  1
  C  C33  1  0.16732098  0.16169753  0.67218816  1
  C  C34  1  0.16732006  0.32781364  0.48950831  1
  C  C35  1  0.16731988  0.51049588  0.83830640  1
  C  C36  1  0.34621214  0.99044269  0.17189102  1
  C  C37  1  0.34621219  0.82810868  0.81855131  1
  C  C38  1  0.34621265  0.18144816  0.00955771  1
  C  C39  1  0.65378786  0.00955731  0.82810898  1
  C  C40  1  0.65378781  0.17189132  0.18144869  1
  C  C41  1  0.65378735  0.81855184  0.99044229  1
  C  C42  1  0.63900727  0.73409517  0.19691175  1
  C  C43  1  0.63900748  0.80308603  0.53718337  1
  C  C44  1  0.63900734  0.46281222  0.26590127  1
  C  C45  1  0.36099273  0.26590483  0.80308825  1
  C  C46  1  0.36099252  0.19691397  0.46281663  1
  C  C47  1  0.36099266  0.53718778  0.73409873  1
  C  C48  1  0.16810615  0.85178299  0.05303595  1
  C  C49  1  0.16810651  0.94696426  0.79874690  1
  C  C50  1  0.16810587  0.20125322  0.14821734  1
  C  C51  1  0.83189385  0.14821701  0.94696405  1
  C  C52  1  0.83189349  0.05303574  0.20125310  1
  C  C53  1  0.83189413  0.79874678  0.85178266  1
  C  C54  1  0.12256705  0.74875366  0.42734278  1
  C  C55  1  0.12256523  0.57265228  0.32141081  1
  C  C56  1  0.12256531  0.67858350  0.25124146  1
  C  C57  1  0.87743295  0.25124634  0.57265722  1
  C  C58  1  0.87743477  0.42734772  0.67858919  1
  C  C59  1  0.87743469  0.32141650  0.74875854  1
  C  C60  1  0.18420546  0.89984834  0.43983815  1
  C  C61  1  0.18420430  0.56015966  0.46001220  1
  C  C62  1  0.18420522  0.53998595  0.10014609  1
  C  C63  1  0.81579454  0.10015166  0.56016185  1
  C  C64  1  0.81579570  0.43984034  0.53998780  1
  C  C65  1  0.81579478  0.46001405  0.89985391  1
  C  C66  1  0.32326978  0.76033517  0.34537831  1
  C  C67  1  0.32327018  0.65461560  0.41495527  1
  C  C68  1  0.32326956  0.58503886  0.23966005  1
  C  C69  1  0.67673022  0.23966483  0.65462169  1
  C  C70  1  0.67672982  0.34538440  0.58504473  1
  C  C71  1  0.67673044  0.41496114  0.76033995  1
  C  C72  1  0.35992763  0.01838369  0.09578817  1
  C  C73  1  0.35992716  0.90421110  0.92259494  1
  C  C74  1  0.35992757  0.07740489  0.98161628  1
  C  C75  1  0.64007237  0.98161631  0.90421183  1
  C  C76  1  0.64007284  0.09578890  0.07740506  1
  C  C77  1  0.64007243  0.92259511  0.01838372  1
  C  C78  1  0.02387891  0.89466940  0.54177444  1
  C  C79  1  0.02387773  0.45822226  0.35289661  1
  C  C80  1  0.02387925  0.64710337  0.10532677  1
  C  C81  1  0.97612109  0.10533060  0.45822556  1
  C  C82  1  0.97612227  0.54177774  0.64710339  1
  C  C83  1  0.97612075  0.35289663  0.89467323  1
  C  C84  1  0.46722529  0.98733126  0.20779846  1
  C  C85  1  0.46722491  0.79220032  0.77953252  1
  C  C86  1  0.46722515  0.22046700  0.01266864  1
  C  C87  1  0.53277471  0.01266874  0.79220154  1
  C  C88  1  0.53277509  0.20779968  0.22046748  1
  C  C89  1  0.53277485  0.77953300  0.98733136  1
  C  C90  1  0.28547680  0.88435848  0.30226486  1
  C  C91  1  0.28547725  0.69773408  0.58209279  1
  C  C92  1  0.28547725  0.41790403  0.11563858  1
  C  C93  1  0.71452320  0.11564152  0.69773514  1
  C  C94  1  0.71452275  0.30226592  0.41790721  1
  C  C95  1  0.71452275  0.58209597  0.88436142  1
  C  C96  1  0.24505099  0.04050827  0.23620799  1
  C  C97  1  0.24505103  0.76379165  0.80430007  1
  C  C98  1  0.24505140  0.19569969  0.95949174  1
  C  C99  1  0.75494901  0.95949173  0.76379201  1
  C  C100  1  0.75494897  0.23620835  0.19569993  1
  C  C101  1  0.75494860  0.80430031  0.04050826  1
  C  C102  1  0.41971546  0.91361052  0.43750167  1
  C  C103  1  0.41971637  0.56249541  0.47611026  1
  C  C104  1  0.41971646  0.52388956  0.08638625  1
  C  C105  1  0.58028454  0.08638948  0.56249833  1
  C  C106  1  0.58028363  0.43750459  0.52388974  1
  C  C107  1  0.58028354  0.47611044  0.91361375  1
  C  C108  1  0.24621082  0.86475384  0.56543405  1
  C  C109  1  0.24621166  0.43456310  0.29932092  1
  C  C110  1  0.24621033  0.70067923  0.13524364  1
  C  C111  1  0.75378918  0.13524616  0.43456595  1
  C  C112  1  0.75378834  0.56543690  0.70067908  1
  C  C113  1  0.75378967  0.29932077  0.86475636  1
  C  C114  1  0.83125668  0.76440326  0.35903973  1
  C  C115  1  0.83125617  0.64095488  0.40536427  1
  C  C116  1  0.83125764  0.59463112  0.23559127  1
  C  C117  1  0.16874332  0.23559674  0.64096027  1
  C  C118  1  0.16874383  0.35904512  0.59463573  1
  C  C119  1  0.16874236  0.40536888  0.76440873  1
  C  C120  1  0.78370803  0.77688271  0.21756208  1
  C  C121  1  0.78370871  0.78243678  0.55932009  1
  C  C122  1  0.78370858  0.44067513  0.22311418  1
  C  C123  1  0.21629197  0.22311729  0.78243792  1
  C  C124  1  0.21629129  0.21756322  0.44067991  1
  C  C125  1  0.21629142  0.55932487  0.77688582  1
  C  C126  1  0.62793776  0.69444360  0.26352760  1
  C  C127  1  0.62793650  0.73646603  0.43091604  1
  C  C128  1  0.62793692  0.56907926  0.30555035  1
  C  C129  1  0.37206224  0.30555640  0.73647240  1
  C  C130  1  0.37206350  0.26353397  0.56908396  1
  C  C131  1  0.37206308  0.43092074  0.69444965  1
  C  C132  1  0.74461393  0.91303970  0.38063563  1
  C  C133  1  0.74461362  0.61936508  0.53240702  1
  C  C134  1  0.74461416  0.46759155  0.08695678  1
  C  C135  1  0.25538607  0.08696030  0.61936437  1
  C  C136  1  0.25538638  0.38063492  0.46759298  1
  C  C137  1  0.25538584  0.53240845  0.91304322  1
  C  C138  1  0.95958156  0.86110604  0.31828608  1
  C  C139  1  0.95958266  0.68171290  0.54282091  1
  C  C140  1  0.95958320  0.45717596  0.13889024  1
  C  C141  1  0.04041844  0.13889396  0.68171392  1
  C  C142  1  0.04041734  0.31828710  0.45717909  1
  C  C143  1  0.04041680  0.54282404  0.86110976  1
  C  C144  1  0.30453004  0.87879415  0.10889393  1
  C  C145  1  0.30452951  0.89110574  0.76989997  1
  C  C146  1  0.30452998  0.23009946  0.12120554  1
  C  C147  1  0.69546996  0.12120585  0.89110607  1
  C  C148  1  0.69547049  0.10889426  0.23010003  1
  C  C149  1  0.69547002  0.76990054  0.87879446  1
  C  C150  1  0.15754037  0.92331908  0.01916431  1
  C  C151  1  0.15754042  0.98083540  0.90415514  1
  C  C152  1  0.15754035  0.09584527  0.07668081  1
  C  C153  1  0.84245963  0.07668092  0.98083569  1
  C  C154  1  0.84245958  0.01916460  0.09584486  1
  C  C155  1  0.84245965  0.90415473  0.92331919  1
  C  C156  1  0.06998872  0.86930434  0.12079334  1
  C  C157  1  0.06998855  0.87920639  0.74851106  1
  C  C158  1  0.06998820  0.25148919  0.13069546  1
  C  C159  1  0.93001128  0.13069566  0.87920666  1
  C  C160  1  0.93001145  0.12079361  0.25148894  1
  C  C161  1  0.93001180  0.74851081  0.86930454  1
  C  C162  1  0.64431710  0.66115482  0.09932585  1
  C  C163  1  0.64431710  0.90067043  0.56182551  1
  C  C164  1  0.64431760  0.43816968  0.33884373  1
  C  C165  1  0.35568290  0.33884518  0.90067415  1
  C  C166  1  0.35568290  0.09932957  0.43817449  1
  C  C167  1  0.35568240  0.56183032  0.66115627  1
  C  C168  1  0.55241397  0.81051942  0.22358410  1
  C  C169  1  0.55241319  0.77641600  0.58693730  1
  C  C170  1  0.55241312  0.41305953  0.18947758  1
  C  C171  1  0.44758603  0.18948058  0.77641590  1
  C  C172  1  0.44758681  0.22358400  0.41306270  1
  C  C173  1  0.44758688  0.58694047  0.81052242  1
  C  C174  1  0.18698520  0.75666614  0.97857460  1
  C  C175  1  0.18698484  0.02142590  0.77809130  1
  C  C176  1  0.18698480  0.22190884  0.24333417  1
  C  C177  1  0.81301480  0.24333386  0.02142540  1
  C  C178  1  0.81301516  0.97857410  0.22190870  1
  C  C179  1  0.81301520  0.77809116  0.75666583  1
