# generated using pymatgen
data_CuNiC12
_symmetry_space_group_name_H-M   'P 1'
_cell_length_a   8.00958000
_cell_length_b   11.28858100
_cell_length_c   15.30704664
_cell_angle_alpha   75.81520284
_cell_angle_beta   90.00000000
_cell_angle_gamma   90.00000000
_symmetry_Int_Tables_number   1
_chemical_formula_structural   CuNiC12
_chemical_formula_sum   'Cu4 Ni4 C48'
_cell_volume   1341.81603440
_cell_formula_units_Z   4
loop_
 _symmetry_equiv_pos_site_id
 _symmetry_equiv_pos_as_xyz
  1  'x, y, z'
loop_
 _atom_site_type_symbol
 _atom_site_label
 _atom_site_symmetry_multiplicity
 _atom_site_fract_x
 _atom_site_fract_y
 _atom_site_fract_z
 _atom_site_occupancy
  Ni  Ni0  1  0.25000000  0.30153300  0.63679900  1
  Ni  Ni1  1  0.75000000  0.69846700  0.36320100  1
  Ni  Ni2  1  0.25000000  0.28654700  0.13468800  1
  Ni  Ni3  1  0.75000000  0.71345300  0.86531200  1
  Cu  Cu4  1  0.25000000  0.78400400  0.14267700  1
  Cu  Cu5  1  0.75000000  0.21599600  0.85732300  1
  Cu  Cu6  1  0.25000000  0.76486500  0.62480900  1
  Cu  Cu7  1  0.75000000  0.23513500  0.37519100  1
  C  C8  1  0.41802500  0.70055300  0.08148100  1
  C  C9  1  0.58197500  0.29944700  0.91851900  1
  C  C10  1  0.91802500  0.29944700  0.91851900  1
  C  C11  1  0.08197500  0.70055300  0.08148100  1
  C  C12  1  0.48912300  0.80875200  0.59748800  1
  C  C13  1  0.51087700  0.19124800  0.40251200  1
  C  C14  1  0.98912300  0.19124800  0.40251200  1
  C  C15  1  0.01087700  0.80875200  0.59748800  1
  C  C16  1  0.25000000  0.63547200  0.70942300  1
  C  C17  1  0.75000000  0.36452800  0.29057700  1
  C  C18  1  0.25000000  0.70933000  0.25332800  1
  C  C19  1  0.75000000  0.29067000  0.74667200  1
  C  C20  1  0.41751800  0.91700700  0.12640200  1
  C  C21  1  0.58248200  0.08299300  0.87359800  1
  C  C22  1  0.91751800  0.08299300  0.87359800  1
  C  C23  1  0.08248200  0.91700700  0.12640200  1
  C  C24  1  0.25000000  0.71509600  0.50949100  1
  C  C25  1  0.75000000  0.28490400  0.49050900  1
  C  C26  1  0.25000000  0.90548500  0.68380800  1
  C  C27  1  0.75000000  0.09451500  0.31619200  1
  C  C28  1  0.25000000  0.90270000  0.96780400  1
  C  C29  1  0.75000000  0.09730000  0.03219600  1
  C  C30  1  0.25000000  0.46220600  0.02088300  1
  C  C31  1  0.75000000  0.53779400  0.97911700  1
  C  C32  1  0.25000000  0.96789500  0.49433100  1
  C  C33  1  0.75000000  0.03210500  0.50566900  1
  C  C34  1  0.25000000  0.25830400  0.79162400  1
  C  C35  1  0.75000000  0.74169600  0.20837600  1
  C  C36  1  0.96571900  0.28761200  0.13651100  1
  C  C37  1  0.03428100  0.71238800  0.86348900  1
  C  C38  1  0.46571900  0.71238800  0.86348900  1
  C  C39  1  0.53428100  0.28761200  0.13651100  1
  C  C40  1  0.25000000  0.34951600  0.48328600  1
  C  C41  1  0.75000000  0.65048400  0.51671400  1
  C  C42  1  0.25000000  0.11263600  0.24883800  1
  C  C43  1  0.75000000  0.88736400  0.75116200  1
  C  C44  1  0.25000000  0.17431200  0.03058600  1
  C  C45  1  0.75000000  0.82568800  0.96941400  1
  C  C46  1  0.95198600  0.84072300  0.35953700  1
  C  C47  1  0.04801400  0.15927700  0.64046300  1
  C  C48  1  0.45198600  0.15927700  0.64046300  1
  C  C49  1  0.54801400  0.84072300  0.35953700  1
  C  C50  1  0.95061000  0.55165600  0.36476000  1
  C  C51  1  0.04939000  0.44834400  0.63524000  1
  C  C52  1  0.45061000  0.44834400  0.63524000  1
  C  C53  1  0.54939000  0.55165600  0.36476000  1
  C  C54  1  0.25000000  0.40487300  0.23870400  1
  C  C55  1  0.75000000  0.59512700  0.76129600  1
