# generated using pymatgen
data_Cu2Ni4C3
_symmetry_space_group_name_H-M   'P 1'
_cell_length_a   4.85349500
_cell_length_b   8.63459300
_cell_length_c   9.10126300
_cell_angle_alpha   90.00000000
_cell_angle_beta   90.00000000
_cell_angle_gamma   90.00000000
_symmetry_Int_Tables_number   1
_chemical_formula_structural   Cu2Ni4C3
_chemical_formula_sum   'Cu8 Ni16 C12'
_cell_volume   381.41531071
_cell_formula_units_Z   4
loop_
 _symmetry_equiv_pos_site_id
 _symmetry_equiv_pos_as_xyz
  1  'x, y, z'
loop_
 _atom_site_type_symbol
 _atom_site_label
 _atom_site_symmetry_multiplicity
 _atom_site_fract_x
 _atom_site_fract_y
 _atom_site_fract_z
 _atom_site_occupancy
  C  C0  1  0.91355200  0.58108300  0.63039500  1
  C  C1  1  0.08644800  0.41891700  0.36960500  1
  C  C2  1  0.41355200  0.41891700  0.86960500  1
  C  C3  1  0.08644800  0.08108300  0.36960500  1
  C  C4  1  0.58644800  0.58108300  0.13039500  1
  C  C5  1  0.91355200  0.91891700  0.63039500  1
  C  C6  1  0.58644800  0.91891700  0.13039500  1
  C  C7  1  0.41355200  0.08108300  0.86960500  1
  C  C8  1  0.10158100  0.75000000  0.93780700  1
  C  C9  1  0.89841900  0.25000000  0.06219300  1
  C  C10  1  0.60158100  0.25000000  0.56219300  1
  C  C11  1  0.39841900  0.75000000  0.43780700  1
  Ni  Ni12  1  0.03115300  0.75000000  0.74654800  1
  Ni  Ni13  1  0.96884700  0.25000000  0.25345200  1
  Ni  Ni14  1  0.53115300  0.25000000  0.75345200  1
  Ni  Ni15  1  0.46884700  0.75000000  0.24654800  1
  Ni  Ni16  1  0.72061300  0.75000000  0.53385700  1
  Ni  Ni17  1  0.27938700  0.25000000  0.46614300  1
  Ni  Ni18  1  0.22061300  0.25000000  0.96614300  1
  Ni  Ni19  1  0.77938700  0.75000000  0.03385700  1
  Ni  Ni20  1  0.80033800  0.08628200  0.51046800  1
  Ni  Ni21  1  0.19966200  0.91371800  0.48953200  1
  Ni  Ni22  1  0.30033800  0.91371800  0.98953200  1
  Ni  Ni23  1  0.19966200  0.58628200  0.48953200  1
  Ni  Ni24  1  0.69966200  0.08628200  0.01046800  1
  Ni  Ni25  1  0.80033800  0.41371800  0.51046800  1
  Ni  Ni26  1  0.69966200  0.41371800  0.01046800  1
  Ni  Ni27  1  0.30033800  0.58628200  0.98953200  1
  Cu  Cu28  1  0.60713400  0.55288300  0.74842200  1
  Cu  Cu29  1  0.39286600  0.44711700  0.25157800  1
  Cu  Cu30  1  0.10713400  0.44711700  0.75157800  1
  Cu  Cu31  1  0.39286600  0.05288300  0.25157800  1
  Cu  Cu32  1  0.89286600  0.55288300  0.24842200  1
  Cu  Cu33  1  0.60713400  0.94711700  0.74842200  1
  Cu  Cu34  1  0.89286600  0.94711700  0.24842200  1
  Cu  Cu35  1  0.10713400  0.05288300  0.75157800  1
