# generated using pymatgen
data_Cu3NiC8
_symmetry_space_group_name_H-M   'P 1'
_cell_length_a   10.02606389
_cell_length_b   10.02606389
_cell_length_c   5.89474800
_cell_angle_alpha   90.00000000
_cell_angle_beta   90.00000000
_cell_angle_gamma   119.99999929
_symmetry_Int_Tables_number   1
_chemical_formula_structural   Cu3NiC8
_chemical_formula_sum   'Cu6 Ni2 C16'
_cell_volume   513.16474755
_cell_formula_units_Z   2
loop_
 _symmetry_equiv_pos_site_id
 _symmetry_equiv_pos_as_xyz
  1  'x, y, z'
loop_
 _atom_site_type_symbol
 _atom_site_label
 _atom_site_symmetry_multiplicity
 _atom_site_fract_x
 _atom_site_fract_y
 _atom_site_fract_z
 _atom_site_occupancy
  Ni  Ni0  1  0.00000000  0.00000000  0.46661700  1
  Ni  Ni1  1  0.00000000  0.00000000  0.96661700  1
  Cu  Cu2  1  0.77359300  0.13592300  0.75465500  1
  Cu  Cu3  1  0.36233000  0.22640700  0.75465500  1
  Cu  Cu4  1  0.86407700  0.63767000  0.75465500  1
  Cu  Cu5  1  0.22640700  0.86407700  0.25465500  1
  Cu  Cu6  1  0.63767000  0.77359300  0.25465500  1
  Cu  Cu7  1  0.13592300  0.36233000  0.25465500  1
  C  C8  1  0.66666700  0.33333300  0.33403100  1
  C  C9  1  0.33333300  0.66666700  0.83403100  1
  C  C10  1  0.66666700  0.33333300  0.95824400  1
  C  C11  1  0.33333300  0.66666700  0.45824400  1
  C  C12  1  0.73805700  0.83919000  0.71124400  1
  C  C13  1  0.10113200  0.26194300  0.71124400  1
  C  C14  1  0.16081000  0.89886800  0.71124400  1
  C  C15  1  0.26194300  0.16081000  0.21124400  1
  C  C16  1  0.89886800  0.73805700  0.21124400  1
  C  C17  1  0.83919000  0.10113200  0.21124400  1
  C  C18  1  0.57988800  0.47946400  0.49454700  1
  C  C19  1  0.89957600  0.42011200  0.49454700  1
  C  C20  1  0.52053600  0.10042400  0.49454700  1
  C  C21  1  0.42011200  0.52053600  0.99454700  1
  C  C22  1  0.10042400  0.57988800  0.99454700  1
  C  C23  1  0.47946400  0.89957600  0.99454700  1
