# generated using pymatgen
data_Cu2NiC4
_symmetry_space_group_name_H-M   'P 1'
_cell_length_a   4.10638600
_cell_length_b   12.44659400
_cell_length_c   14.63842200
_cell_angle_alpha   90.00000000
_cell_angle_beta   90.00000000
_cell_angle_gamma   90.00000000
_symmetry_Int_Tables_number   1
_chemical_formula_structural   Cu2NiC4
_chemical_formula_sum   'Cu8 Ni4 C16'
_cell_volume   748.17735087
_cell_formula_units_Z   4
loop_
 _symmetry_equiv_pos_site_id
 _symmetry_equiv_pos_as_xyz
  1  'x, y, z'
loop_
 _atom_site_type_symbol
 _atom_site_label
 _atom_site_symmetry_multiplicity
 _atom_site_fract_x
 _atom_site_fract_y
 _atom_site_fract_z
 _atom_site_occupancy
  Ni  Ni0  1  0.25000000  0.75916000  0.33771100  1
  Ni  Ni1  1  0.25000000  0.25916000  0.16228900  1
  Ni  Ni2  1  0.75000000  0.24084000  0.66228900  1
  Ni  Ni3  1  0.75000000  0.74084000  0.83771100  1
  Cu  Cu4  1  0.25000000  0.43387300  0.39002200  1
  Cu  Cu5  1  0.25000000  0.93387300  0.10997800  1
  Cu  Cu6  1  0.75000000  0.56612700  0.60997800  1
  Cu  Cu7  1  0.75000000  0.06612700  0.89002200  1
  Cu  Cu8  1  0.25000000  0.41930000  0.89885500  1
  Cu  Cu9  1  0.25000000  0.91930000  0.60114500  1
  Cu  Cu10  1  0.75000000  0.58070000  0.10114500  1
  Cu  Cu11  1  0.75000000  0.08070000  0.39885500  1
  C  C12  1  0.25000000  0.20500300  0.83452900  1
  C  C13  1  0.25000000  0.70500300  0.66547100  1
  C  C14  1  0.75000000  0.79499700  0.16547100  1
  C  C15  1  0.75000000  0.29499700  0.33452900  1
  C  C16  1  0.25000000  0.12326000  0.52446300  1
  C  C17  1  0.25000000  0.62326000  0.97553700  1
  C  C18  1  0.75000000  0.87674000  0.47553700  1
  C  C19  1  0.75000000  0.37674000  0.02446300  1
  C  C20  1  0.25000000  0.52466000  0.21710400  1
  C  C21  1  0.25000000  0.02466000  0.28289600  1
  C  C22  1  0.75000000  0.47534000  0.78289600  1
  C  C23  1  0.75000000  0.97534000  0.71710400  1
  C  C24  1  0.25000000  0.41841000  0.57692900  1
  C  C25  1  0.25000000  0.91841000  0.92307100  1
  C  C26  1  0.75000000  0.58159000  0.42307100  1
  C  C27  1  0.75000000  0.08159000  0.07692900  1
