# generated using pymatgen
data_Cu2Ni7C30
_symmetry_space_group_name_H-M   'P 1'
_cell_length_a   5.99759402
_cell_length_b   27.33589316
_cell_length_c   11.59541324
_cell_angle_alpha   90.58364990
_cell_angle_beta   90.12236756
_cell_angle_gamma   86.17748865
_symmetry_Int_Tables_number   1
_chemical_formula_structural   Cu2Ni7C30
_chemical_formula_sum   'Cu8 Ni28 C120'
_cell_volume   1896.73360845
_cell_formula_units_Z   4
loop_
 _symmetry_equiv_pos_site_id
 _symmetry_equiv_pos_as_xyz
  1  'x, y, z'
loop_
 _atom_site_type_symbol
 _atom_site_label
 _atom_site_symmetry_multiplicity
 _atom_site_fract_x
 _atom_site_fract_y
 _atom_site_fract_z
 _atom_site_occupancy
  Ni  Ni0  1  0.49585947  0.12416217  0.30319252  1
  Ni  Ni1  1  0.16612451  0.45729360  0.30237639  1
  Ni  Ni2  1  0.83320822  0.79092351  0.30217096  1
  Ni  Ni3  1  0.66836071  0.20925943  0.80568098  1
  Ni  Ni4  1  0.33435393  0.54297047  0.80589427  1
  Ni  Ni5  1  0.00430355  0.87602095  0.80367854  1
  Ni  Ni6  1  0.16834012  0.20976169  0.69730375  1
  Ni  Ni7  1  0.83475326  0.54346286  0.69746584  1
  Ni  Ni8  1  0.50113815  0.87699625  0.69641872  1
  Ni  Ni9  1  0.99732417  0.12255146  0.19606327  1
  Ni  Ni10  1  0.66947315  0.45645851  0.19347510  1
  Ni  Ni11  1  0.33654982  0.79029536  0.19299936  1
  Ni  Ni12  1  0.59186481  0.22799248  0.44821230  1
  Ni  Ni13  1  0.25872763  0.56206218  0.44674930  1
  Ni  Ni14  1  0.92590129  0.89613259  0.44865580  1
  Ni  Ni15  1  0.57364440  0.10381066  0.94969209  1
  Ni  Ni16  1  0.24101011  0.43687422  0.94902065  1
  Ni  Ni17  1  0.90741717  0.77027485  0.94881367  1
  Ni  Ni18  1  0.07464286  0.09999930  0.55306470  1
  Ni  Ni19  1  0.74076943  0.43564837  0.54788566  1
  Ni  Ni20  1  0.40794921  0.76890190  0.54772033  1
  Ni  Ni21  1  0.09248757  0.23141534  0.05850897  1
  Ni  Ni22  1  0.75811855  0.56522602  0.05851101  1
  Ni  Ni23  1  0.42485970  0.90094561  0.05258908  1
  Ni  Ni24  1  0.54740151  0.31262882  0.11699406  1
  Ni  Ni25  1  0.21389632  0.64600720  0.11706184  1
  Ni  Ni26  1  0.87838429  0.97939162  0.11716509  1
  Ni  Ni27  1  0.62427506  0.01949177  0.61745760  1
  Cu  Cu28  1  0.32687191  0.35109373  0.62198336  1
  Cu  Cu29  1  0.99354291  0.68445003  0.62197042  1
  Cu  Cu30  1  0.15123216  0.01854325  0.88004534  1
  Cu  Cu31  1  0.82395398  0.35171529  0.88013110  1
  Cu  Cu32  1  0.49033496  0.68526259  0.88025743  1
  Cu  Cu33  1  0.00969834  0.31479677  0.37689102  1
  Cu  Cu34  1  0.67636086  0.64843945  0.37684946  1
  Cu  Cu35  1  0.34823968  0.98147572  0.37913197  1
  C  C36  1  0.85950120  0.03519486  0.36270026  1
  C  C37  1  0.52542717  0.36917276  0.35662088  1
  C  C38  1  0.19206635  0.70268633  0.35624796  1
  C  C39  1  0.30173967  0.29700933  0.87079607  1
  C  C40  1  0.96811146  0.63068994  0.87096235  1
  C  C41  1  0.63992841  0.96506529  0.86287218  1
  C  C42  1  0.80448622  0.29643802  0.63573476  1
  C  C43  1  0.47118887  0.62992226  0.63575837  1
  C  C44  1  0.13837911  0.96495765  0.63617220  1
  C  C45  1  0.36137454  0.03520100  0.13598136  1
  C  C46  1  0.03064190  0.36838825  0.13560170  1
  C  C47  1  0.69728965  0.70187840  0.13557332  1
  C  C48  1  0.60408526  0.20320440  0.09274638  1
  C  C49  1  0.26971727  0.53684293  0.09225088  1
  C  C50  1  0.93656682  0.87074990  0.09057326  1
  C  C51  1  0.56274799  0.12958504  0.59166166  1
  C  C52  1  0.22777855  0.46439871  0.59009224  1
  C  C53  1  0.89504042  0.79761317  0.58926243  1
  C  C54  1  0.06157763  0.13162868  0.91043525  1
  C  C55  1  0.72831375  0.46518721  0.90974780  1
  C  C56  1  0.39469589  0.79889843  0.90986185  1
  C  C57  1  0.10435878  0.20141530  0.41093853  1
  C  C58  1  0.77116824  0.53530719  0.40956881  1
  C  C59  1  0.43775505  0.86875892  0.40962326  1
  C  C60  1  0.57696763  0.15221612  0.46746705  1
  C  C61  1  0.24518061  0.48639215  0.46537069  1
  C  C62  1  0.91220466  0.81986185  0.46485037  1
  C  C63  1  0.58847069  0.18093540  0.96707033  1
  C  C64  1  0.25465117  0.51435821  0.96665001  1
  C  C65  1  0.92240551  0.84751852  0.96604838  1
  C  C66  1  0.08695185  0.17901061  0.53537871  1
  C  C67  1  0.75277697  0.51321276  0.53433641  1
  C  C68  1  0.41940666  0.84648076  0.53426744  1
  C  C69  1  0.07946372  0.15394687  0.03616764  1
  C  C70  1  0.74595033  0.48745984  0.03564125  1
  C  C71  1  0.41231774  0.82160495  0.03524438  1
  C  C72  1  0.65909940  0.02661477  0.44316145  1
  C  C73  1  0.31547036  0.36099688  0.42895250  1
  C  C74  1  0.98226706  0.69449976  0.42866030  1
  C  C75  1  0.51032326  0.30490371  0.94672875  1
  C  C76  1  0.17672843  0.63851350  0.94684452  1
  C  C77  1  0.84113419  0.97376548  0.94328146  1
  C  C78  1  0.02114983  0.30448866  0.56847371  1
  C  C79  1  0.68795768  0.63788522  0.56850321  1
  C  C80  1  0.35985024  0.97399240  0.57130552  1
  C  C81  1  0.13885061  0.02605224  0.07153629  1
  C  C82  1  0.80806100  0.35987749  0.07035474  1
  C  C83  1  0.47463425  0.69338336  0.07043897  1
  C  C84  1  0.28214627  0.23963134  0.40543968  1
  C  C85  1  0.94881036  0.57345660  0.40431894  1
  C  C86  1  0.61559191  0.90687138  0.40504798  1
  C  C87  1  0.88309291  0.09356465  0.90454663  1
  C  C88  1  0.55078135  0.42681349  0.90359156  1
  C  C89  1  0.21752543  0.76041717  0.90386398  1
  C  C90  1  0.38663405  0.09059088  0.59660399  1
  C  C91  1  0.05034793  0.42599651  0.59481348  1
  C  C92  1  0.71751213  0.75919351  0.59404480  1
  C  C93  1  0.78041474  0.24214979  0.09999675  1
  C  C94  1  0.44615117  0.57576774  0.09937081  1
  C  C95  1  0.11328842  0.90980645  0.09635253  1
  C  C96  1  0.38463738  0.23193495  0.12900611  1
  C  C97  1  0.05053597  0.56574409  0.12815077  1
  C  C98  1  0.71702748  0.90040160  0.12424627  1
  C  C99  1  0.78349448  0.10087505  0.62563298  1
  C  C100  1  0.45107586  0.43645663  0.62478380  1
  C  C101  1  0.11817540  0.76955272  0.62405113  1
  C  C102  1  0.28278505  0.10314990  0.87412096  1
  C  C103  1  0.95008114  0.43705512  0.87340880  1
  C  C104  1  0.61633882  0.77072382  0.87341418  1
  C  C105  1  0.88245040  0.22961577  0.37471108  1
  C  C106  1  0.54940516  0.56339219  0.37316303  1
  C  C107  1  0.21651488  0.89700776  0.37355832  1
  C  C108  1  0.66397105  0.15991675  0.17629410  1
  C  C109  1  0.32942140  0.49380957  0.17602350  1
  C  C110  1  0.99461027  0.82838358  0.17648862  1
  C  C111  1  0.50264447  0.17264872  0.67799157  1
  C  C112  1  0.16853806  0.50748407  0.67628229  1
  C  C113  1  0.83622280  0.84052502  0.67557535  1
  C  C114  1  0.00334954  0.17435409  0.82501732  1
  C  C115  1  0.66914084  0.50797518  0.82494255  1
  C  C116  1  0.33537050  0.84163107  0.82463352  1
  C  C117  1  0.16338405  0.15866814  0.32407930  1
  C  C118  1  0.83070370  0.49211672  0.32387775  1
  C  C119  1  0.49732911  0.82564911  0.32365680  1
  C  C120  1  0.78878482  0.08068888  0.28587018  1
  C  C121  1  0.46323803  0.41471966  0.27908495  1
  C  C122  1  0.13038284  0.74829354  0.27858020  1
  C  C123  1  0.37483948  0.25415841  0.78409888  1
  C  C124  1  0.04111838  0.58786176  0.78431656  1
  C  C125  1  0.71089511  0.91930864  0.78515886  1
  C  C126  1  0.86914330  0.25346494  0.72082574  1
  C  C127  1  0.53571862  0.58696915  0.72089103  1
  C  C128  1  0.20428657  0.92104780  0.71926033  1
  C  C129  1  0.29470249  0.07930028  0.22020698  1
  C  C130  1  0.96475955  0.41219943  0.22088793  1
  C  C131  1  0.63173906  0.74574473  0.22081677  1
  C  C132  1  0.06923016  0.04669221  0.43498650  1
  C  C133  1  0.72704649  0.38016151  0.43587917  1
  C  C134  1  0.39384965  0.71353744  0.43552366  1
  C  C135  1  0.09799255  0.28282188  0.94180762  1
  C  C136  1  0.76407053  0.61649686  0.94170400  1
  C  C137  1  0.43081457  0.95368330  0.93479253  1
  C  C138  1  0.60816953  0.28287045  0.55709788  1
  C  C139  1  0.27495415  0.61639005  0.55703086  1
  C  C140  1  0.94729648  0.95097568  0.55559254  1
  C  C141  1  0.55059655  0.04944716  0.05566786  1
  C  C142  1  0.22014623  0.38277246  0.05567228  1
  C  C143  1  0.88676484  0.71623652  0.05556369  1
  C  C144  1  0.60444151  0.32390691  0.28194049  1
  C  C145  1  0.27082145  0.65732354  0.28184101  1
  C  C146  1  0.92805844  0.99028106  0.28500861  1
  C  C147  1  0.57188413  0.00964421  0.78581892  1
  C  C148  1  0.22039563  0.34362301  0.80369318  1
  C  C149  1  0.88696126  0.67731178  0.80383987  1
  C  C150  1  0.04711325  0.01138480  0.70187867  1
  C  C151  1  0.71274418  0.34326177  0.70170607  1
  C  C152  1  0.37950337  0.67672255  0.70177428  1
  C  C153  1  0.12071479  0.32194350  0.19932371  1
  C  C154  1  0.78726064  0.65540858  0.19920268  1
  C  C155  1  0.45246908  0.98911293  0.20095448  1
