# generated using pymatgen
data_Cu15Ni3C2
_symmetry_space_group_name_H-M   'P 1'
_cell_length_a   11.57513353
_cell_length_b   11.57513353
_cell_length_c   9.39390900
_cell_angle_alpha   90.00000000
_cell_angle_beta   90.00000000
_cell_angle_gamma   106.92456451
_symmetry_Int_Tables_number   1
_chemical_formula_structural   Cu15Ni3C2
_chemical_formula_sum   'Cu60 Ni12 C8'
_cell_volume   1204.11810596
_cell_formula_units_Z   4
loop_
 _symmetry_equiv_pos_site_id
 _symmetry_equiv_pos_as_xyz
  1  'x, y, z'
loop_
 _atom_site_type_symbol
 _atom_site_label
 _atom_site_symmetry_multiplicity
 _atom_site_fract_x
 _atom_site_fract_y
 _atom_site_fract_z
 _atom_site_occupancy
  C  C0  1  0.36897100  0.63102900  0.49945900  1
  C  C1  1  0.63102900  0.36897100  0.99945900  1
  C  C2  1  0.89885300  0.10114700  0.50832200  1
  C  C3  1  0.10114700  0.89885300  0.00832200  1
  C  C4  1  0.47706200  0.15242400  0.55114400  1
  C  C5  1  0.84757600  0.52293800  0.55114400  1
  C  C6  1  0.52293800  0.84757600  0.05114400  1
  C  C7  1  0.15242400  0.47706200  0.05114400  1
  Ni  Ni8  1  0.59209800  0.91184000  0.42378700  1
  Ni  Ni9  1  0.08816000  0.40790200  0.42378700  1
  Ni  Ni10  1  0.40790200  0.08816000  0.92378700  1
  Ni  Ni11  1  0.91184000  0.59209800  0.92378700  1
  Ni  Ni12  1  0.24371800  0.75628200  0.23290400  1
  Ni  Ni13  1  0.75628200  0.24371800  0.73290400  1
  Ni  Ni14  1  0.99877500  0.00122500  0.26261200  1
  Ni  Ni15  1  0.00122500  0.99877500  0.76261200  1
  Ni  Ni16  1  0.71364700  0.28635300  0.32493500  1
  Ni  Ni17  1  0.28635300  0.71364700  0.82493600  1
  Ni  Ni18  1  0.46028400  0.53971600  0.16145300  1
  Ni  Ni19  1  0.53971600  0.46028400  0.66145300  1
  Cu  Cu20  1  0.51659400  0.98994200  0.47043100  1
  Cu  Cu21  1  0.01005800  0.48340600  0.47043100  1
  Cu  Cu22  1  0.48340600  0.01005800  0.97043100  1
  Cu  Cu23  1  0.98994200  0.51659400  0.97043100  1
  Cu  Cu24  1  0.53420800  0.78764900  0.47787000  1
  Cu  Cu25  1  0.21235100  0.46579200  0.47787000  1
  Cu  Cu26  1  0.46579200  0.21235100  0.97787000  1
  Cu  Cu27  1  0.78764900  0.53420800  0.97787000  1
  Cu  Cu28  1  0.71575300  0.95914200  0.48057000  1
  Cu  Cu29  1  0.04085800  0.28424700  0.48057000  1
  Cu  Cu30  1  0.28424700  0.04085800  0.98057000  1
  Cu  Cu31  1  0.95914200  0.71575300  0.98057000  1
  Cu  Cu32  1  0.59728300  0.90953000  0.26567200  1
  Cu  Cu33  1  0.09047000  0.40271700  0.26567200  1
  Cu  Cu34  1  0.40271700  0.09047000  0.76567200  1
  Cu  Cu35  1  0.90953000  0.59728300  0.76567200  1
  Cu  Cu36  1  0.26350300  0.73649700  0.38490800  1
  Cu  Cu37  1  0.73649700  0.26350300  0.88490800  1
  Cu  Cu38  1  0.16557700  0.83442300  0.21197900  1
  Cu  Cu39  1  0.83442300  0.16557700  0.71197900  1
  Cu  Cu40  1  0.18710200  0.63825300  0.16509400  1
  Cu  Cu41  1  0.36174700  0.81289800  0.16509400  1
  Cu  Cu42  1  0.81289800  0.36174700  0.66509400  1
  Cu  Cu43  1  0.63825300  0.18710200  0.66509400  1
  Cu  Cu44  1  0.91857000  0.08143000  0.25801800  1
  Cu  Cu45  1  0.08143000  0.91857000  0.75801800  1
  Cu  Cu46  1  0.01424400  0.98575600  0.41869100  1
  Cu  Cu47  1  0.98575600  0.01424400  0.91869100  1
  Cu  Cu48  1  0.11608700  0.05457100  0.18889600  1
  Cu  Cu49  1  0.94542900  0.88391300  0.18889600  1
  Cu  Cu50  1  0.88391300  0.94542900  0.68889600  1
  Cu  Cu51  1  0.05457100  0.11608700  0.68889600  1
  Cu  Cu52  1  0.78632300  0.21367700  0.38499100  1
  Cu  Cu53  1  0.21367700  0.78632300  0.88499100  1
  Cu  Cu54  1  0.71386800  0.28613200  0.16745000  1
  Cu  Cu55  1  0.28613200  0.71386800  0.66745000  1
  Cu  Cu56  1  0.58566100  0.23992400  0.37251200  1
  Cu  Cu57  1  0.76007600  0.41433900  0.37251200  1
  Cu  Cu58  1  0.41433900  0.76007600  0.87251200  1
  Cu  Cu59  1  0.23992400  0.58566100  0.87251200  1
  Cu  Cu60  1  0.44072400  0.55927600  0.31470100  1
  Cu  Cu61  1  0.55927600  0.44072400  0.81470100  1
  Cu  Cu62  1  0.53968200  0.46031900  0.14653300  1
  Cu  Cu63  1  0.46031800  0.53968200  0.64653300  1
  Cu  Cu64  1  0.52031600  0.65791900  0.09368300  1
  Cu  Cu65  1  0.34208100  0.47968400  0.09368300  1
  Cu  Cu66  1  0.47968400  0.34208100  0.59368300  1
  Cu  Cu67  1  0.65791900  0.52031600  0.59368300  1
  Cu  Cu68  1  0.24613200  0.02206600  0.53540500  1
  Cu  Cu69  1  0.97793400  0.75386800  0.53540500  1
  Cu  Cu70  1  0.75386800  0.97793400  0.03540500  1
  Cu  Cu71  1  0.02206600  0.24613200  0.03540500  1
  Cu  Cu72  1  0.37260200  0.11182700  0.33950200  1
  Cu  Cu73  1  0.88817300  0.62739800  0.33950200  1
  Cu  Cu74  1  0.62739800  0.88817300  0.83950200  1
  Cu  Cu75  1  0.11182700  0.37260200  0.83950200  1
  Cu  Cu76  1  0.23715300  0.12447100  0.55100500  1
  Cu  Cu77  1  0.87552900  0.76284700  0.55100500  1
  Cu  Cu78  1  0.76284700  0.87552900  0.05100500  1
  Cu  Cu79  1  0.12447100  0.23715300  0.05100500  1
