# generated using pymatgen
data_Cu3NiC18
_symmetry_space_group_name_H-M   'P 1'
_cell_length_a   7.73552800
_cell_length_b   7.45711700
_cell_length_c   9.55191941
_cell_angle_alpha   68.31667600
_cell_angle_beta   90.00000000
_cell_angle_gamma   90.00000000
_symmetry_Int_Tables_number   1
_chemical_formula_structural   Cu3NiC18
_chemical_formula_sum   'Cu6 Ni2 C36'
_cell_volume   512.01128623
_cell_formula_units_Z   2
loop_
 _symmetry_equiv_pos_site_id
 _symmetry_equiv_pos_as_xyz
  1  'x, y, z'
loop_
 _atom_site_type_symbol
 _atom_site_label
 _atom_site_symmetry_multiplicity
 _atom_site_fract_x
 _atom_site_fract_y
 _atom_site_fract_z
 _atom_site_occupancy
  Ni  Ni0  1  0.00000000  0.50000000  0.00000000  1
  Ni  Ni1  1  0.50000000  0.50000000  0.50000000  1
  Cu  Cu2  1  0.12862100  0.81025300  0.52315700  1
  Cu  Cu3  1  0.62862100  0.18974700  0.97684300  1
  Cu  Cu4  1  0.87137900  0.18974700  0.47684300  1
  Cu  Cu5  1  0.37137900  0.81025300  0.02315700  1
  Cu  Cu6  1  0.00000000  0.00000000  0.00000000  1
  Cu  Cu7  1  0.50000000  0.00000000  0.50000000  1
  C  C8  1  0.92842400  0.40795100  0.70824000  1
  C  C9  1  0.42842400  0.59204900  0.79176000  1
  C  C10  1  0.07157600  0.59204900  0.29176000  1
  C  C11  1  0.57157600  0.40795100  0.20824000  1
  C  C12  1  0.20793300  0.13669500  0.68453600  1
  C  C13  1  0.70793300  0.86330500  0.81546400  1
  C  C14  1  0.79206700  0.86330500  0.31546400  1
  C  C15  1  0.29206700  0.13669500  0.18453600  1
  C  C16  1  0.37820400  0.20193300  0.59778900  1
  C  C17  1  0.87820400  0.79806700  0.90221100  1
  C  C18  1  0.62179600  0.79806700  0.40221100  1
  C  C19  1  0.12179600  0.20193300  0.09778900  1
  C  C20  1  0.38324700  0.71846200  0.62455100  1
  C  C21  1  0.88324700  0.28153800  0.87544900  1
  C  C22  1  0.61675300  0.28153800  0.37544900  1
  C  C23  1  0.11675300  0.71846200  0.12455100  1
  C  C24  1  0.79631400  0.38589700  0.59643100  1
  C  C25  1  0.29631400  0.61410300  0.90356900  1
  C  C26  1  0.20368600  0.61410300  0.40356900  1
  C  C27  1  0.70368600  0.38589700  0.09643100  1
  C  C28  1  0.11295100  0.33202400  0.67368600  1
  C  C29  1  0.61295100  0.66797600  0.82631400  1
  C  C30  1  0.88704900  0.66797600  0.32631400  1
  C  C31  1  0.38704900  0.33202400  0.17368600  1
  C  C32  1  0.52677800  0.60841600  0.20344200  1
  C  C33  1  0.02677800  0.39158400  0.29655800  1
  C  C34  1  0.47322200  0.39158400  0.79655800  1
  C  C35  1  0.97322200  0.60841600  0.70344200  1
  C  C36  1  0.78069600  0.98099300  0.14595200  1
  C  C37  1  0.28069600  0.01900700  0.35404800  1
  C  C38  1  0.21930400  0.01900700  0.85404800  1
  C  C39  1  0.71930400  0.98099300  0.64595200  1
  C  C40  1  0.41170500  0.03748400  0.10742100  1
  C  C41  1  0.91170500  0.96251600  0.39257900  1
  C  C42  1  0.58829500  0.96251600  0.89257900  1
  C  C43  1  0.08829500  0.03748400  0.60742100  1
