# generated using pymatgen
data_Cu9Ni6C
_symmetry_space_group_name_H-M   'P 1'
_cell_length_a   7.61589905
_cell_length_b   13.51150830
_cell_length_c   11.16158700
_cell_angle_alpha   90.00000000
_cell_angle_beta   90.00000000
_cell_angle_gamma   27.49397547
_symmetry_Int_Tables_number   1
_chemical_formula_structural   Cu9Ni6C
_chemical_formula_sum   'Cu18 Ni12 C2'
_cell_volume   530.23553094
_cell_formula_units_Z   2
loop_
 _symmetry_equiv_pos_site_id
 _symmetry_equiv_pos_as_xyz
  1  'x, y, z'
loop_
 _atom_site_type_symbol
 _atom_site_label
 _atom_site_symmetry_multiplicity
 _atom_site_fract_x
 _atom_site_fract_y
 _atom_site_fract_z
 _atom_site_occupancy
  C  C0  1  0.00000000  0.27577000  0.25000000  1
  C  C1  1  0.00000000  0.72423000  0.75000000  1
  Ni  Ni2  1  0.67930700  0.78350600  0.25000000  1
  Ni  Ni3  1  0.67930700  0.53718700  0.75000000  1
  Ni  Ni4  1  0.32069300  0.21649400  0.75000000  1
  Ni  Ni5  1  0.32069300  0.46281300  0.25000000  1
  Ni  Ni6  1  0.67882400  0.30735900  0.90859300  1
  Ni  Ni7  1  0.67882400  0.01381700  0.09140700  1
  Ni  Ni8  1  0.67882400  0.30735900  0.59140700  1
  Ni  Ni9  1  0.67882400  0.01381700  0.40859300  1
  Ni  Ni10  1  0.32117600  0.69264100  0.09140700  1
  Ni  Ni11  1  0.32117600  0.98618300  0.90859300  1
  Ni  Ni12  1  0.32117600  0.69264100  0.40859300  1
  Ni  Ni13  1  0.32117600  0.98618300  0.59140700  1
  Cu  Cu14  1  0.00000000  0.57649900  0.25000000  1
  Cu  Cu15  1  0.00000000  0.42350100  0.75000000  1
  Cu  Cu16  1  0.37881300  0.97224400  0.25000000  1
  Cu  Cu17  1  0.37881300  0.64894400  0.75000000  1
  Cu  Cu18  1  0.62118700  0.02775600  0.75000000  1
  Cu  Cu19  1  0.62118700  0.35105600  0.25000000  1
  Cu  Cu20  1  0.00000000  0.12224200  0.95579400  1
  Cu  Cu21  1  0.00000000  0.87775800  0.04420600  1
  Cu  Cu22  1  0.00000000  0.12224200  0.54420600  1
  Cu  Cu23  1  0.00000000  0.87775800  0.45579400  1
  Cu  Cu24  1  0.37697800  0.47845800  0.86989900  1
  Cu  Cu25  1  0.37697800  0.14456400  0.13010100  1
  Cu  Cu26  1  0.37697800  0.47845800  0.63010100  1
  Cu  Cu27  1  0.37697800  0.14456400  0.36989900  1
  Cu  Cu28  1  0.62302200  0.52154200  0.13010100  1
  Cu  Cu29  1  0.62302200  0.85543600  0.86989900  1
  Cu  Cu30  1  0.62302200  0.52154200  0.36989900  1
  Cu  Cu31  1  0.62302200  0.85543600  0.63010100  1
