# generated using pymatgen
data_Cu2NiC4
_symmetry_space_group_name_H-M   'P 1'
_cell_length_a   5.81855413
_cell_length_b   5.81855413
_cell_length_c   5.81855413
_cell_angle_alpha   118.68925063
_cell_angle_beta   118.34815593
_cell_angle_gamma   92.58566260
_symmetry_Int_Tables_number   1
_chemical_formula_structural   Cu2NiC4
_chemical_formula_sum   'Cu4 Ni2 C8'
_cell_volume   142.25385432
_cell_formula_units_Z   2
loop_
 _symmetry_equiv_pos_site_id
 _symmetry_equiv_pos_as_xyz
  1  'x, y, z'
loop_
 _atom_site_type_symbol
 _atom_site_label
 _atom_site_symmetry_multiplicity
 _atom_site_fract_x
 _atom_site_fract_y
 _atom_site_fract_z
 _atom_site_occupancy
  Ni  Ni0  1  0.00000000  0.50000000  0.00000000  1
  Ni  Ni1  1  0.00000000  0.00000000  0.50000000  1
  Cu  Cu2  1  0.61584000  0.86584000  0.75000000  1
  Cu  Cu3  1  0.38416000  0.13416000  0.25000000  1
  Cu  Cu4  1  0.00000000  0.50000000  0.50000000  1
  Cu  Cu5  1  0.50000000  0.50000000  0.00000000  1
  C  C6  1  0.77708700  0.26537800  0.51170900  1
  C  C7  1  0.25371100  0.74074500  0.98703300  1
  C  C8  1  0.25366900  0.26537800  0.98829100  1
  C  C9  1  0.25371100  0.26667800  0.51296700  1
  C  C10  1  0.74628900  0.73332200  0.48703300  1
  C  C11  1  0.74628900  0.25925500  0.01296700  1
  C  C12  1  0.74633100  0.73462200  0.01170900  1
  C  C13  1  0.22291300  0.73462200  0.48829100  1
