# generated using pymatgen
data_Cu7NiC4
_symmetry_space_group_name_H-M   'P 1'
_cell_length_a   7.25348900
_cell_length_b   5.60469200
_cell_length_c   9.94146636
_cell_angle_alpha   88.75329132
_cell_angle_beta   90.00000000
_cell_angle_gamma   90.00000000
_symmetry_Int_Tables_number   1
_chemical_formula_structural   Cu7NiC4
_chemical_formula_sum   'Cu14 Ni2 C8'
_cell_volume   404.06044368
_cell_formula_units_Z   2
loop_
 _symmetry_equiv_pos_site_id
 _symmetry_equiv_pos_as_xyz
  1  'x, y, z'
loop_
 _atom_site_type_symbol
 _atom_site_label
 _atom_site_symmetry_multiplicity
 _atom_site_fract_x
 _atom_site_fract_y
 _atom_site_fract_z
 _atom_site_occupancy
  C  C0  1  0.01696700  0.24011000  0.77434100  1
  C  C1  1  0.48303300  0.24011000  0.77434100  1
  C  C2  1  0.51696700  0.75989000  0.22565900  1
  C  C3  1  0.98303300  0.75989000  0.22565900  1
  C  C4  1  0.75000000  0.76996700  0.63035800  1
  C  C5  1  0.25000000  0.23003300  0.36964200  1
  C  C6  1  0.25000000  0.71471100  0.57454700  1
  C  C7  1  0.75000000  0.28528900  0.42545300  1
  Ni  Ni8  1  0.75000000  0.72800200  0.90629400  1
  Ni  Ni9  1  0.25000000  0.27199800  0.09370600  1
  Cu  Cu10  1  0.25000000  0.29748800  0.96784300  1
  Cu  Cu11  1  0.75000000  0.93758100  0.84420200  1
  Cu  Cu12  1  0.75000000  0.54124800  0.82580200  1
  Cu  Cu13  1  0.07642300  0.78544200  0.65594500  1
  Cu  Cu14  1  0.42357700  0.78544200  0.65594500  1
  Cu  Cu15  1  0.75000000  0.16803700  0.56971200  1
  Cu  Cu16  1  0.25000000  0.43260200  0.55848100  1
  Cu  Cu17  1  0.75000000  0.56739800  0.44151900  1
  Cu  Cu18  1  0.25000000  0.83196300  0.43028800  1
  Cu  Cu19  1  0.57642300  0.21455800  0.34405500  1
  Cu  Cu20  1  0.92357700  0.21455800  0.34405500  1
  Cu  Cu21  1  0.25000000  0.45875200  0.17419800  1
  Cu  Cu22  1  0.25000000  0.06241900  0.15579800  1
  Cu  Cu23  1  0.75000000  0.70251200  0.03215700  1
