# generated using pymatgen
data_Cu8Ni3C
_symmetry_space_group_name_H-M   'P 1'
_cell_length_a   4.92151269
_cell_length_b   4.92151269
_cell_length_c   8.48695009
_cell_angle_alpha   106.85472190
_cell_angle_beta   73.14527810
_cell_angle_gamma   120.00000000
_symmetry_Int_Tables_number   1
_chemical_formula_structural   Cu8Ni3C
_chemical_formula_sum   'Cu8 Ni3 C1'
_cell_volume   167.75041029
_cell_formula_units_Z   1
loop_
 _symmetry_equiv_pos_site_id
 _symmetry_equiv_pos_as_xyz
  1  'x, y, z'
loop_
 _atom_site_type_symbol
 _atom_site_label
 _atom_site_symmetry_multiplicity
 _atom_site_fract_x
 _atom_site_fract_y
 _atom_site_fract_z
 _atom_site_occupancy
  Ni  Ni0  1  0.37535400  0.62464600  0.87393800  1
  Ni  Ni1  1  0.99586200  0.00413800  0.01241500  1
  Ni  Ni2  1  0.50320900  0.49679100  0.49037300  1
  Cu  Cu3  1  0.43648400  0.56351600  0.19023800  1
  Cu  Cu4  1  0.93790200  0.06209800  0.68340200  1
  Cu  Cu5  1  0.43648400  0.06320500  0.19023800  1
  Cu  Cu6  1  0.93790200  0.55920500  0.68340200  1
  Cu  Cu7  1  0.18800400  0.81199600  0.43598900  1
  Cu  Cu8  1  0.68772900  0.31227100  0.93681200  1
  Cu  Cu9  1  0.93679500  0.56351600  0.19023800  1
  Cu  Cu10  1  0.44079500  0.06209800  0.68340200  1
  C  C11  1  0.87348200  0.12651800  0.37955500  1
