# generated using pymatgen
data_Cu(NiC5)2
_symmetry_space_group_name_H-M   'P 1'
_cell_length_a   3.94710901
_cell_length_b   4.07238501
_cell_length_c   11.85369800
_cell_angle_alpha   89.99982375
_cell_angle_beta   90.00006769
_cell_angle_gamma   89.99315540
_symmetry_Int_Tables_number   1
_chemical_formula_structural   Cu(NiC5)2
_chemical_formula_sum   'Cu1 Ni2 C10'
_cell_volume   190.53808921
_cell_formula_units_Z   1
loop_
 _symmetry_equiv_pos_site_id
 _symmetry_equiv_pos_as_xyz
  1  'x, y, z'
loop_
 _atom_site_type_symbol
 _atom_site_label
 _atom_site_symmetry_multiplicity
 _atom_site_fract_x
 _atom_site_fract_y
 _atom_site_fract_z
 _atom_site_occupancy
  Ni  Ni0  1  0.50000300  0.50000100  0.81899800  1
  Ni  Ni1  1  0.50000000  0.50000100  0.18101000  1
  Cu  Cu2  1  0.49999900  0.50000100  0.49999800  1
  C  C3  1  0.00000300  0.00000200  0.65401400  1
  C  C4  1  0.99999800  0.99999700  0.34599300  1
  C  C5  1  0.00000400  0.99999800  0.00000200  1
  C  C6  1  0.99999600  0.49999800  0.00000500  1
  C  C7  1  0.50000100  0.00000100  0.61922300  1
  C  C8  1  0.49999200  0.00000000  0.38076400  1
  C  C9  1  0.00000600  0.50000300  0.62053100  1
  C  C10  1  0.99999700  0.49999900  0.37945900  1
  C  C11  1  0.00000400  0.00000100  0.83354800  1
  C  C12  1  0.99999700  0.00000000  0.16645300  1
