# generated using pymatgen
data_Cu(Ni11C7)2
_symmetry_space_group_name_H-M   'P 1'
_cell_length_a   7.08968848
_cell_length_b   12.86541407
_cell_length_c   23.10742434
_cell_angle_alpha   90.00000000
_cell_angle_beta   90.00000000
_cell_angle_gamma   90.00000000
_symmetry_Int_Tables_number   1
_chemical_formula_structural   Cu(Ni11C7)2
_chemical_formula_sum   'Cu4 Ni88 C56'
_cell_volume   2107.66925726
_cell_formula_units_Z   4
loop_
 _symmetry_equiv_pos_site_id
 _symmetry_equiv_pos_as_xyz
  1  'x, y, z'
loop_
 _atom_site_type_symbol
 _atom_site_label
 _atom_site_symmetry_multiplicity
 _atom_site_fract_x
 _atom_site_fract_y
 _atom_site_fract_z
 _atom_site_occupancy
  C  C0  1  0.51575299  0.75000000  0.49616883  1
  C  C1  1  0.98424701  0.75000000  0.99616883  1
  C  C2  1  0.48424701  0.25000000  0.50383117  1
  C  C3  1  0.01575299  0.25000000  0.00383117  1
  C  C4  1  0.01790509  0.99040440  0.29862575  1
  C  C5  1  0.48209491  0.50959560  0.79862575  1
  C  C6  1  0.98209491  0.49040440  0.70137425  1
  C  C7  1  0.51790509  0.00959560  0.20137425  1
  C  C8  1  0.98209491  0.00959560  0.70137425  1
  C  C9  1  0.51790509  0.49040440  0.20137425  1
  C  C10  1  0.01790509  0.50959560  0.29862575  1
  C  C11  1  0.48209491  0.99040440  0.79862575  1
  C  C12  1  0.38535846  0.75000000  0.09395389  1
  C  C13  1  0.11464154  0.75000000  0.59395389  1
  C  C14  1  0.61464154  0.25000000  0.90604611  1
  C  C15  1  0.88535846  0.25000000  0.40604611  1
  C  C16  1  0.50559651  0.88396019  0.34157745  1
  C  C17  1  0.99440349  0.61603981  0.84157745  1
  C  C18  1  0.49440349  0.38396019  0.65842255  1
  C  C19  1  0.00559651  0.11603981  0.15842255  1
  C  C20  1  0.49440349  0.11603981  0.65842255  1
  C  C21  1  0.00559651  0.38396019  0.15842255  1
  C  C22  1  0.50559651  0.61603981  0.34157745  1
  C  C23  1  0.99440349  0.88396019  0.84157745  1
  C  C24  1  0.00715484  0.87849815  0.15332948  1
  C  C25  1  0.49284516  0.62150185  0.65332948  1
  C  C26  1  0.99284516  0.37849815  0.84667052  1
  C  C27  1  0.50715484  0.12150185  0.34667052  1
  C  C28  1  0.99284516  0.12150185  0.84667052  1
  C  C29  1  0.50715484  0.37849815  0.34667052  1
  C  C30  1  0.00715484  0.62150185  0.15332948  1
  C  C31  1  0.49284516  0.87849815  0.65332948  1
  C  C32  1  0.74897169  0.99137408  0.43853805  1
  C  C33  1  0.75102831  0.50862592  0.93853805  1
  C  C34  1  0.25102831  0.49137408  0.56146195  1
  C  C35  1  0.24897169  0.00862592  0.06146195  1
  C  C36  1  0.25102831  0.00862592  0.56146195  1
  C  C37  1  0.24897169  0.49137408  0.06146195  1
  C  C38  1  0.74897169  0.50862592  0.43853805  1
  C  C39  1  0.75102831  0.99137408  0.93853805  1
  C  C40  1  0.73166071  0.75000000  0.24046326  1
  C  C41  1  0.76833929  0.75000000  0.74046326  1
  C  C42  1  0.26833929  0.25000000  0.75953674  1
  C  C43  1  0.23166071  0.25000000  0.25953674  1
  C  C44  1  0.33211477  0.75000000  0.23818195  1
  C  C45  1  0.16788523  0.75000000  0.73818195  1
  C  C46  1  0.66788523  0.25000000  0.76181805  1
  C  C47  1  0.83211477  0.25000000  0.26181805  1
  C  C48  1  0.19395431  0.96612545  0.43712216  1
  C  C49  1  0.30604569  0.53387455  0.93712216  1
  C  C50  1  0.80604569  0.46612545  0.56287784  1
  C  C51  1  0.69395431  0.03387455  0.06287784  1
  C  C52  1  0.80604569  0.03387455  0.56287784  1
  C  C53  1  0.69395431  0.46612545  0.06287784  1
  C  C54  1  0.19395431  0.53387455  0.43712216  1
  C  C55  1  0.30604569  0.96612545  0.93712216  1
  Ni  Ni56  1  0.53439331  0.75000000  0.19992961  1
  Ni  Ni57  1  0.96560669  0.75000000  0.69992961  1
  Ni  Ni58  1  0.46560669  0.25000000  0.80007039  1
  Ni  Ni59  1  0.03439331  0.25000000  0.30007039  1
  Ni  Ni60  1  0.17815791  0.75000000  0.18649400  1
  Ni  Ni61  1  0.32184209  0.75000000  0.68649400  1
  Ni  Ni62  1  0.82184209  0.25000000  0.81350600  1
  Ni  Ni63  1  0.67815791  0.25000000  0.31350600  1
  Ni  Ni64  1  0.47392338  0.99637982  0.08040081  1
  Ni  Ni65  1  0.02607662  0.50362018  0.58040081  1
  Ni  Ni66  1  0.52607662  0.49637982  0.91959919  1
  Ni  Ni67  1  0.97392338  0.00362018  0.41959919  1
  Ni  Ni68  1  0.52607662  0.00362018  0.91959919  1
  Ni  Ni69  1  0.97392338  0.49637982  0.41959919  1
  Ni  Ni70  1  0.47392338  0.50362018  0.08040081  1
  Ni  Ni71  1  0.02607662  0.99637982  0.58040081  1
  Ni  Ni72  1  0.65318503  0.75000000  0.30915477  1
  Ni  Ni73  1  0.84681497  0.75000000  0.80915477  1
  Ni  Ni74  1  0.34681497  0.25000000  0.69084523  1
  Ni  Ni75  1  0.15318503  0.25000000  0.19084523  1
  Ni  Ni76  1  0.31001153  0.99418459  0.37684171  1
  Ni  Ni77  1  0.18998847  0.50581541  0.87684171  1
  Ni  Ni78  1  0.68998847  0.49418459  0.62315829  1
  Ni  Ni79  1  0.81001153  0.00581541  0.12315829  1
  Ni  Ni80  1  0.68998847  0.00581541  0.62315829  1
  Ni  Ni81  1  0.81001153  0.49418459  0.12315829  1
  Ni  Ni82  1  0.31001153  0.50581541  0.37684171  1
  Ni  Ni83  1  0.18998847  0.99418459  0.87684171  1
  Ni  Ni84  1  0.63109648  0.01023546  0.31020460  1
  Ni  Ni85  1  0.86890352  0.48976454  0.81020460  1
  Ni  Ni86  1  0.36890352  0.51023546  0.68979540  1
  Ni  Ni87  1  0.13109648  0.98976454  0.18979540  1
  Ni  Ni88  1  0.36890352  0.98976454  0.68979540  1
  Ni  Ni89  1  0.13109648  0.51023546  0.18979540  1
  Ni  Ni90  1  0.63109648  0.48976454  0.31020460  1
  Ni  Ni91  1  0.86890352  0.01023546  0.81020460  1
  Ni  Ni92  1  0.76380495  0.95880606  0.00789257  1
  Ni  Ni93  1  0.73619505  0.54119394  0.50789257  1
  Ni  Ni94  1  0.23619505  0.45880606  0.99210743  1
  Ni  Ni95  1  0.26380495  0.04119394  0.49210743  1
  Ni  Ni96  1  0.23619505  0.04119394  0.99210743  1
  Ni  Ni97  1  0.26380495  0.45880606  0.49210743  1
  Ni  Ni98  1  0.76380495  0.54119394  0.00789257  1
  Ni  Ni99  1  0.73619505  0.95880606  0.50789257  1
  Ni  Ni100  1  0.21770196  0.84835211  0.45517790  1
  Ni  Ni101  1  0.28229804  0.65164789  0.95517790  1
  Ni  Ni102  1  0.78229804  0.34835211  0.54482210  1
  Ni  Ni103  1  0.71770196  0.15164789  0.04482210  1
  Ni  Ni104  1  0.78229804  0.15164789  0.54482210  1
  Ni  Ni105  1  0.71770196  0.34835211  0.04482210  1
  Ni  Ni106  1  0.21770196  0.65164789  0.45517790  1
  Ni  Ni107  1  0.28229804  0.84835211  0.95517790  1
  Ni  Ni108  1  0.84176696  0.85775627  0.22488418  1
  Ni  Ni109  1  0.65823304  0.64224373  0.72488418  1
  Ni  Ni110  1  0.15823304  0.35775627  0.77511582  1
  Ni  Ni111  1  0.34176696  0.14224373  0.27511582  1
  Ni  Ni112  1  0.15823304  0.14224373  0.77511582  1
  Ni  Ni113  1  0.34176696  0.35775627  0.27511582  1
  Ni  Ni114  1  0.84176696  0.64224373  0.22488418  1
  Ni  Ni115  1  0.65823304  0.85775627  0.72488418  1
  Ni  Ni116  1  0.32867163  0.85651854  0.27836843  1
  Ni  Ni117  1  0.17132837  0.64348146  0.77836843  1
  Ni  Ni118  1  0.67132837  0.35651854  0.72163157  1
  Ni  Ni119  1  0.82867163  0.14348146  0.22163157  1
  Ni  Ni120  1  0.67132837  0.14348146  0.72163157  1
  Ni  Ni121  1  0.82867163  0.35651854  0.22163157  1
  Ni  Ni122  1  0.32867163  0.64348146  0.27836843  1
  Ni  Ni123  1  0.17132837  0.85651854  0.77836843  1
  Ni  Ni124  1  0.65323946  0.88806473  0.40840577  1
  Ni  Ni125  1  0.84676054  0.61193527  0.90840577  1
  Ni  Ni126  1  0.34676054  0.38806473  0.59159423  1
  Ni  Ni127  1  0.15323946  0.11193527  0.09159423  1
  Ni  Ni128  1  0.34676054  0.11193527  0.59159423  1
  Ni  Ni129  1  0.15323946  0.38806473  0.09159423  1
  Ni  Ni130  1  0.65323946  0.61193527  0.40840577  1
  Ni  Ni131  1  0.84676054  0.88806473  0.90840577  1
  Ni  Ni132  1  0.15217869  0.89773177  0.08106444  1
  Ni  Ni133  1  0.34782131  0.60226823  0.58106444  1
  Ni  Ni134  1  0.84782131  0.39773177  0.91893556  1
  Ni  Ni135  1  0.65217869  0.10226823  0.41893556  1
  Ni  Ni136  1  0.84782131  0.10226823  0.91893556  1
  Ni  Ni137  1  0.65217869  0.39773177  0.41893556  1
  Ni  Ni138  1  0.15217869  0.60226823  0.08106444  1
  Ni  Ni139  1  0.34782131  0.89773177  0.58106444  1
  Ni  Ni140  1  0.53052576  0.75000000  0.00288708  1
  Ni  Ni141  1  0.96947424  0.75000000  0.50288708  1
  Ni  Ni142  1  0.46947424  0.25000000  0.99711292  1
  Ni  Ni143  1  0.03052576  0.25000000  0.49711292  1
  Cu  Cu144  1  0.88431208  0.75000000  0.11585743  1
  Cu  Cu145  1  0.61568792  0.75000000  0.61585743  1
  Cu  Cu146  1  0.11568792  0.25000000  0.88414257  1
  Cu  Cu147  1  0.38431208  0.25000000  0.38414257  1
