# generated using pymatgen
data_Cu2(NiC3)3
_symmetry_space_group_name_H-M   'P 1'
_cell_length_a   7.19680346
_cell_length_b   7.19680346
_cell_length_c   7.19680337
_cell_angle_alpha   58.68568125
_cell_angle_beta   58.68568125
_cell_angle_gamma   58.68568040
_symmetry_Int_Tables_number   1
_chemical_formula_structural   Cu2(NiC3)3
_chemical_formula_sum   'Cu2 Ni3 C9'
_cell_volume   255.65845154
_cell_formula_units_Z   1
loop_
 _symmetry_equiv_pos_site_id
 _symmetry_equiv_pos_as_xyz
  1  'x, y, z'
loop_
 _atom_site_type_symbol
 _atom_site_label
 _atom_site_symmetry_multiplicity
 _atom_site_fract_x
 _atom_site_fract_y
 _atom_site_fract_z
 _atom_site_occupancy
  Ni  Ni0  1  0.50000000  0.00000000  0.00000000  1
  Ni  Ni1  1  0.00000000  0.00000000  0.50000000  1
  Ni  Ni2  1  0.00000000  0.50000000  0.00000000  1
  Cu  Cu3  1  0.37013300  0.37013300  0.37013300  1
  Cu  Cu4  1  0.62986700  0.62986700  0.62986700  1
  C  C5  1  0.00000000  0.00000000  0.00000000  1
  C  C6  1  0.24107200  0.24107200  0.24107200  1
  C  C7  1  0.76883100  0.25366500  0.25366500  1
  C  C8  1  0.25366500  0.25366500  0.76883100  1
  C  C9  1  0.25366500  0.76883100  0.25366500  1
  C  C10  1  0.75892800  0.75892800  0.75892800  1
  C  C11  1  0.23116900  0.74633500  0.74633500  1
  C  C12  1  0.74633500  0.74633500  0.23116900  1
  C  C13  1  0.74633500  0.23116900  0.74633500  1
