# generated using pymatgen
data_Cu(Ni4C)3
_symmetry_space_group_name_H-M   'P 1'
_cell_length_a   5.63811495
_cell_length_b   5.63811495
_cell_length_c   8.68536100
_cell_angle_alpha   90.00000000
_cell_angle_beta   90.00000000
_cell_angle_gamma   94.35578753
_symmetry_Int_Tables_number   1
_chemical_formula_structural   Cu(Ni4C)3
_chemical_formula_sum   'Cu2 Ni24 C6'
_cell_volume   275.29575819
_cell_formula_units_Z   2
loop_
 _symmetry_equiv_pos_site_id
 _symmetry_equiv_pos_as_xyz
  1  'x, y, z'
loop_
 _atom_site_type_symbol
 _atom_site_label
 _atom_site_symmetry_multiplicity
 _atom_site_fract_x
 _atom_site_fract_y
 _atom_site_fract_z
 _atom_site_occupancy
  C  C0  1  0.10417600  0.89582400  0.25000000  1
  C  C1  1  0.89582400  0.10417600  0.75000000  1
  C  C2  1  0.28920600  0.71079400  0.14651200  1
  C  C3  1  0.71079400  0.28920600  0.85348800  1
  C  C4  1  0.28920600  0.71079400  0.35348800  1
  C  C5  1  0.71079400  0.28920600  0.64651200  1
  Ni  Ni6  1  0.86031600  0.35837900  0.25000000  1
  Ni  Ni7  1  0.35837900  0.86031600  0.75000000  1
  Ni  Ni8  1  0.13968400  0.64162100  0.75000000  1
  Ni  Ni9  1  0.64162100  0.13968400  0.25000000  1
  Ni  Ni10  1  0.60629500  0.39370500  0.15310600  1
  Ni  Ni11  1  0.39370500  0.60629500  0.84689400  1
  Ni  Ni12  1  0.60629500  0.39370500  0.34689400  1
  Ni  Ni13  1  0.39370500  0.60629500  0.65310600  1
  Ni  Ni14  1  0.21175500  0.51900500  0.09668000  1
  Ni  Ni15  1  0.51900500  0.21175500  0.90332000  1
  Ni  Ni16  1  0.21175500  0.51900500  0.40332000  1
  Ni  Ni17  1  0.51900500  0.21175500  0.59668000  1
  Ni  Ni18  1  0.78824500  0.48099500  0.90332000  1
  Ni  Ni19  1  0.48099500  0.78824500  0.09668000  1
  Ni  Ni20  1  0.78824500  0.48099500  0.59668000  1
  Ni  Ni21  1  0.48099500  0.78824500  0.40332000  1
  Ni  Ni22  1  0.14885400  0.85114600  0.08799800  1
  Ni  Ni23  1  0.85114600  0.14885400  0.91200200  1
  Ni  Ni24  1  0.14885400  0.85114600  0.41200200  1
  Ni  Ni25  1  0.85114600  0.14885400  0.58799800  1
  Ni  Ni26  1  0.89266600  0.84041300  0.25000000  1
  Ni  Ni27  1  0.84041300  0.89266600  0.75000000  1
  Ni  Ni28  1  0.10733400  0.15958700  0.75000000  1
  Ni  Ni29  1  0.15958700  0.10733400  0.25000000  1
  Cu  Cu30  1  0.67810600  0.32189400  0.25000000  1
  Cu  Cu31  1  0.32189400  0.67810600  0.75000000  1
