# generated using pymatgen
data_CuNiC8
_symmetry_space_group_name_H-M   'P 1'
_cell_length_a   6.00051723
_cell_length_b   6.00051723
_cell_length_c   8.75233244
_cell_angle_alpha   90.00000000
_cell_angle_beta   90.00000000
_cell_angle_gamma   90.00000000
_symmetry_Int_Tables_number   1
_chemical_formula_structural   CuNiC8
_chemical_formula_sum   'Cu2 Ni2 C16'
_cell_volume   315.13829381
_cell_formula_units_Z   2
loop_
 _symmetry_equiv_pos_site_id
 _symmetry_equiv_pos_as_xyz
  1  'x, y, z'
loop_
 _atom_site_type_symbol
 _atom_site_label
 _atom_site_symmetry_multiplicity
 _atom_site_fract_x
 _atom_site_fract_y
 _atom_site_fract_z
 _atom_site_occupancy
  Ni  Ni0  1  0.00000000  0.50000000  0.25000000  1
  Ni  Ni1  1  0.50000000  -0.00000000  0.75000000  1
  Cu  Cu2  1  0.50000000  -0.00000000  0.25000000  1
  Cu  Cu3  1  -0.00000000  0.50000000  0.75000000  1
  C  C4  1  0.00000000  0.00000000  -0.00000000  1
  C  C5  1  0.50000000  0.50000000  0.50000000  1
  C  C6  1  -0.00000000  -0.00000000  0.50000000  1
  C  C7  1  0.50000000  0.50000000  -0.00000000  1
  C  C8  1  -0.00000000  0.00000000  0.27241136  1
  C  C9  1  0.50000000  0.50000000  0.22758864  1
  C  C10  1  0.00000000  0.00000000  0.72758864  1
  C  C11  1  0.50000000  0.50000000  0.77241136  1
  C  C12  1  0.33767356  0.21419453  0.01179790  1
  C  C13  1  0.66232644  0.78580547  0.01179790  1
  C  C14  1  0.78580547  0.33767356  0.98820210  1
  C  C15  1  0.21419453  0.66232644  0.98820210  1
  C  C16  1  0.83767356  0.28580547  0.51179790  1
  C  C17  1  0.16232644  0.71419453  0.51179790  1
  C  C18  1  0.28580547  0.16232644  0.48820210  1
  C  C19  1  0.71419453  0.83767356  0.48820210  1
