# generated using pymatgen
data_Cu2Ni2C23
_symmetry_space_group_name_H-M   'P 1'
_cell_length_a   6.87866128
_cell_length_b   11.74410098
_cell_length_c   11.70811623
_cell_angle_alpha   60.06019371
_cell_angle_beta   89.70410154
_cell_angle_gamma   89.38546248
_symmetry_Int_Tables_number   1
_chemical_formula_structural   Cu2Ni2C23
_chemical_formula_sum   'Cu4 Ni4 C46'
_cell_volume   819.55757563
_cell_formula_units_Z   2
loop_
 _symmetry_equiv_pos_site_id
 _symmetry_equiv_pos_as_xyz
  1  'x, y, z'
loop_
 _atom_site_type_symbol
 _atom_site_label
 _atom_site_symmetry_multiplicity
 _atom_site_fract_x
 _atom_site_fract_y
 _atom_site_fract_z
 _atom_site_occupancy
  C  C0  1  0.32939752  0.17324473  0.64915166  1
  C  C1  1  0.32635647  0.65128809  0.17402634  1
  C  C2  1  0.33380366  0.17410145  0.17342358  1
  C  C3  1  0.82694509  0.82372830  0.34840460  1
  C  C4  1  0.83378427  0.34464935  0.82823954  1
  C  C5  1  0.82634569  0.82696920  0.82674262  1
  C  C6  1  0.01507394  0.33433104  0.33197958  1
  C  C7  1  0.50612811  0.66569563  0.66924899  1
  Ni  Ni8  1  0.51576270  0.99983209  0.00007104  1
  Ni  Ni9  1  0.01693106  0.00027986  0.00024475  1
  Ni  Ni10  1  0.66495491  0.04947749  0.47518293  1
  Ni  Ni11  1  0.16898239  0.52301763  0.52474065  1
  Cu  Cu12  1  0.66027058  0.47627750  0.04507233  1
  Cu  Cu13  1  0.66751423  0.47492363  0.47467608  1
  Cu  Cu14  1  0.16144953  0.52077787  0.95427435  1
  Cu  Cu15  1  0.16871998  0.95262163  0.52335493  1
  C  C16  1  0.83903227  0.17341622  0.64755183  1
  C  C17  1  0.83286367  0.64857689  0.17280658  1
  C  C18  1  0.84205842  0.17343274  0.17974509  1
  C  C19  1  0.33697103  0.82104527  0.35187169  1
  C  C20  1  0.34515307  0.35058859  0.82146051  1
  C  C21  1  0.33112708  0.82170557  0.82692760  1
  C  C22  1  0.48227532  0.33153965  0.32996224  1
  C  C23  1  0.96459040  0.66465246  0.66711482  1
  C  C24  1  0.48220150  0.66783499  0.39348792  1
  C  C25  1  0.47061724  0.39862035  0.93750438  1
  C  C26  1  0.44784931  0.93401832  0.66759895  1
  C  C27  1  0.48417571  0.39565690  0.67058457  1
  C  C28  1  0.45486503  0.93686130  0.39476103  1
  C  C29  1  0.46284417  0.66311263  0.93989454  1
  C  C30  1  0.95406452  0.33286072  0.60475114  1
  C  C31  1  0.96271408  0.60381577  0.05942767  1
  C  C32  1  0.98212902  0.06785822  0.32820805  1
  C  C33  1  0.94905796  0.60168483  0.33313052  1
  C  C34  1  0.98102302  0.06208712  0.60731391  1
  C  C35  1  0.96467789  0.33735704  0.06390820  1
  C  C36  1  0.66492642  0.25717183  0.50021788  1
  C  C37  1  0.65978314  0.50307352  0.24531519  1
  C  C38  1  0.65999178  0.26048486  0.24041982  1
  C  C39  1  0.16235057  0.75793007  0.49653845  1
  C  C40  1  0.16325906  0.49499275  0.76320658  1
  C  C41  1  0.15864966  0.74621275  0.75653106  1
  C  C42  1  0.32978329  0.42048965  0.16024131  1
  C  C43  1  0.32431079  0.16866661  0.41562871  1
  C  C44  1  0.34343806  0.41264421  0.41180825  1
  C  C45  1  0.82705692  0.58125002  0.83883139  1
  C  C46  1  0.84265560  0.83269784  0.58612724  1
  C  C47  1  0.82792597  0.58372468  0.58648277  1
  C  C48  1  0.25689902  0.90577898  0.18087049  1
  C  C49  1  0.25456440  0.18436780  0.91166521  1
  C  C50  1  0.25906998  0.90680360  0.91398305  1
  C  C51  1  0.75692618  0.08846706  0.81830836  1
  C  C52  1  0.76098239  0.82066616  0.08705959  1
  C  C53  1  0.75191593  0.09663655  0.08991948  1
