# generated using pymatgen
data_Cu19(NiC19)2
_symmetry_space_group_name_H-M   'P 1'
_cell_length_a   10.52288635
_cell_length_b   10.52288635
_cell_length_c   15.12846600
_cell_angle_alpha   90.00000000
_cell_angle_beta   90.00000000
_cell_angle_gamma   120.00000219
_symmetry_Int_Tables_number   1
_chemical_formula_structural   Cu19(NiC19)2
_chemical_formula_sum   'Cu38 Ni4 C76'
_cell_volume   1450.75900654
_cell_formula_units_Z   2
loop_
 _symmetry_equiv_pos_site_id
 _symmetry_equiv_pos_as_xyz
  1  'x, y, z'
loop_
 _atom_site_type_symbol
 _atom_site_label
 _atom_site_symmetry_multiplicity
 _atom_site_fract_x
 _atom_site_fract_y
 _atom_site_fract_z
 _atom_site_occupancy
  C  C0  1  0.87322800  0.08251200  0.90971400  1
  C  C1  1  0.20928400  0.12677200  0.90971400  1
  C  C2  1  0.91748800  0.79071600  0.90971400  1
  C  C3  1  0.87322800  0.79071600  0.40971400  1
  C  C4  1  0.91748800  0.12677200  0.40971400  1
  C  C5  1  0.20928400  0.08251200  0.40971400  1
  C  C6  1  0.12677200  0.91748800  0.09028600  1
  C  C7  1  0.79071600  0.87322800  0.09028600  1
  C  C8  1  0.08251200  0.20928400  0.09028600  1
  C  C9  1  0.12677200  0.20928400  0.59028600  1
  C  C10  1  0.08251200  0.87322800  0.59028600  1
  C  C11  1  0.79071600  0.91748800  0.59028600  1
  C  C12  1  0.55706500  0.37192800  0.22392000  1
  C  C13  1  0.81486300  0.44293500  0.22392000  1
  C  C14  1  0.62807200  0.18513700  0.22392000  1
  C  C15  1  0.55706500  0.18513700  0.72392000  1
  C  C16  1  0.62807200  0.44293500  0.72392000  1
  C  C17  1  0.81486300  0.37192800  0.72392000  1
  C  C18  1  0.44293500  0.62807200  0.77608000  1
  C  C19  1  0.18513700  0.55706500  0.77608000  1
  C  C20  1  0.37192800  0.81486300  0.77608000  1
  C  C21  1  0.44293500  0.81486300  0.27608000  1
  C  C22  1  0.37192800  0.55706500  0.27608000  1
  C  C23  1  0.18513700  0.62807200  0.27608000  1
  C  C24  1  0.44938800  0.29594000  0.12595200  1
  C  C25  1  0.84655200  0.55061200  0.12595200  1
  C  C26  1  0.70406000  0.15344800  0.12595200  1
  C  C27  1  0.44938800  0.15344800  0.62595200  1
  C  C28  1  0.70406000  0.55061200  0.62595200  1
  C  C29  1  0.84655200  0.29594000  0.62595200  1
  C  C30  1  0.55061200  0.70406000  0.87404800  1
  C  C31  1  0.15344800  0.44938800  0.87404800  1
  C  C32  1  0.29594000  0.84655200  0.87404800  1
  C  C33  1  0.55061200  0.84655200  0.37404800  1
  C  C34  1  0.29594000  0.44938800  0.37404800  1
  C  C35  1  0.15344800  0.70406000  0.37404800  1
  C  C36  1  0.59013000  0.48563000  0.12794700  1
  C  C37  1  0.89550000  0.40987000  0.12794700  1
  C  C38  1  0.51437000  0.10450000  0.12794700  1
  C  C39  1  0.59013000  0.10450000  0.62794700  1
  C  C40  1  0.51437000  0.40987000  0.62794700  1
  C  C41  1  0.89550000  0.48563000  0.62794700  1
  C  C42  1  0.40987000  0.51437000  0.87205300  1
  C  C43  1  0.10450000  0.59013000  0.87205300  1
  C  C44  1  0.48563000  0.89550000  0.87205300  1
  C  C45  1  0.40987000  0.89550000  0.37205300  1
  C  C46  1  0.48563000  0.59013000  0.37205300  1
  C  C47  1  0.10450000  0.51437000  0.37205300  1
  C  C48  1  0.55561000  0.25598300  0.99604700  1
  C  C49  1  0.70037200  0.44439000  0.99604700  1
  C  C50  1  0.74401700  0.29962800  0.99604700  1
  C  C51  1  0.55561000  0.29962800  0.49604700  1
  C  C52  1  0.74401700  0.44439000  0.49604700  1
  C  C53  1  0.70037200  0.25598300  0.49604700  1
  C  C54  1  0.44439000  0.74401700  0.00395300  1
  C  C55  1  0.29962800  0.55561000  0.00395300  1
  C  C56  1  0.25598300  0.70037200  0.00395300  1
  C  C57  1  0.44439000  0.70037200  0.50395300  1
  C  C58  1  0.25598300  0.55561000  0.50395300  1
  C  C59  1  0.29962800  0.74401700  0.50395300  1
  C  C60  1  0.55789400  0.37544600  0.15149700  1
  C  C61  1  0.81755200  0.44210600  0.15149700  1
  C  C62  1  0.62455400  0.18244800  0.15149700  1
  C  C63  1  0.55789400  0.18244800  0.65149700  1
  C  C64  1  0.62455400  0.44210600  0.65149700  1
  C  C65  1  0.81755200  0.37544600  0.65149700  1
  C  C66  1  0.44210600  0.62455400  0.84850300  1
  C  C67  1  0.18244800  0.55789400  0.84850300  1
  C  C68  1  0.37544600  0.81755200  0.84850300  1
  C  C69  1  0.44210600  0.81755200  0.34850300  1
  C  C70  1  0.37544600  0.55789400  0.34850300  1
  C  C71  1  0.18244800  0.62455400  0.34850300  1
  C  C72  1  0.66666700  0.33333300  0.01918700  1
  C  C73  1  0.66666700  0.33333300  0.51918700  1
  C  C74  1  0.33333300  0.66666700  0.98081300  1
  C  C75  1  0.33333300  0.66666700  0.48081300  1
  Ni  Ni76  1  0.66666700  0.33333300  0.11838500  1
  Ni  Ni77  1  0.66666700  0.33333300  0.61838500  1
  Ni  Ni78  1  0.33333300  0.66666700  0.88161500  1
  Ni  Ni79  1  0.33333300  0.66666700  0.38161500  1
  Cu  Cu80  1  0.77661400  0.14070700  0.84606900  1
  Cu  Cu81  1  0.36409300  0.22338600  0.84606900  1
  Cu  Cu82  1  0.85929300  0.63590700  0.84606900  1
  Cu  Cu83  1  0.77661400  0.63590700  0.34606900  1
  Cu  Cu84  1  0.85929300  0.22338600  0.34606900  1
  Cu  Cu85  1  0.36409300  0.14070700  0.34606900  1
  Cu  Cu86  1  0.22338600  0.85929300  0.15393100  1
  Cu  Cu87  1  0.63590700  0.77661400  0.15393100  1
  Cu  Cu88  1  0.14070700  0.36409300  0.15393100  1
  Cu  Cu89  1  0.22338600  0.36409300  0.65393100  1
  Cu  Cu90  1  0.14070700  0.77661400  0.65393100  1
  Cu  Cu91  1  0.63590700  0.85929300  0.65393100  1
  Cu  Cu92  1  0.95541900  0.23088700  0.00169700  1
  Cu  Cu93  1  0.27546800  0.04458100  0.00169700  1
  Cu  Cu94  1  0.76911300  0.72453200  0.00169700  1
  Cu  Cu95  1  0.95541900  0.72453200  0.50169700  1
  Cu  Cu96  1  0.76911300  0.04458100  0.50169700  1
  Cu  Cu97  1  0.27546800  0.23088700  0.50169700  1
  Cu  Cu98  1  0.04458100  0.76911300  0.99830300  1
  Cu  Cu99  1  0.72453200  0.95541900  0.99830300  1
  Cu  Cu100  1  0.23088700  0.27546800  0.99830300  1
  Cu  Cu101  1  0.04458100  0.27546800  0.49830300  1
  Cu  Cu102  1  0.23088700  0.95541900  0.49830300  1
  Cu  Cu103  1  0.72453200  0.76911300  0.49830300  1
  Cu  Cu104  1  0.06450500  0.16951300  0.85552200  1
  Cu  Cu105  1  0.10500800  0.93549500  0.85552200  1
  Cu  Cu106  1  0.83048700  0.89499200  0.85552200  1
  Cu  Cu107  1  0.06450500  0.89499200  0.35552200  1
  Cu  Cu108  1  0.83048700  0.93549500  0.35552200  1
  Cu  Cu109  1  0.10500800  0.16951300  0.35552200  1
  Cu  Cu110  1  0.93549500  0.83048700  0.14447800  1
  Cu  Cu111  1  0.89499200  0.06450500  0.14447800  1
  Cu  Cu112  1  0.16951300  0.10500800  0.14447800  1
  Cu  Cu113  1  0.93549500  0.10500800  0.64447800  1
  Cu  Cu114  1  0.16951300  0.06450500  0.64447800  1
  Cu  Cu115  1  0.89499200  0.83048700  0.64447800  1
  Cu  Cu116  1  0.00000000  0.00000000  0.00000000  1
  Cu  Cu117  1  0.00000000  0.00000000  0.50000000  1
