# generated using pymatgen
data_CuNiC
_symmetry_space_group_name_H-M   'P 1'
_cell_length_a   3.80693600
_cell_length_b   3.82107000
_cell_length_c   16.95437300
_cell_angle_alpha   90.00000000
_cell_angle_beta   90.00000000
_cell_angle_gamma   90.00000000
_symmetry_Int_Tables_number   1
_chemical_formula_structural   CuNiC
_chemical_formula_sum   'Cu4 Ni4 C4'
_cell_volume   246.62795570
_cell_formula_units_Z   4
loop_
 _symmetry_equiv_pos_site_id
 _symmetry_equiv_pos_as_xyz
  1  'x, y, z'
loop_
 _atom_site_type_symbol
 _atom_site_label
 _atom_site_symmetry_multiplicity
 _atom_site_fract_x
 _atom_site_fract_y
 _atom_site_fract_z
 _atom_site_occupancy
  C  C0  1  0.25000000  0.22124500  0.85430000  1
  C  C1  1  0.25000000  0.27875500  0.35430000  1
  C  C2  1  0.75000000  0.77875500  0.14570000  1
  C  C3  1  0.75000000  0.72124500  0.64570000  1
  Ni  Ni4  1  0.75000000  0.22244200  0.50146100  1
  Ni  Ni5  1  0.75000000  0.27755800  0.00146100  1
  Ni  Ni6  1  0.25000000  0.77755800  0.49853900  1
  Ni  Ni7  1  0.25000000  0.72244200  0.99853900  1
  Cu  Cu8  1  0.25000000  0.22076300  0.68742500  1
  Cu  Cu9  1  0.25000000  0.27923700  0.18742500  1
  Cu  Cu10  1  0.75000000  0.77923700  0.31257500  1
  Cu  Cu11  1  0.75000000  0.72076300  0.81257500  1
