# generated using pymatgen
data_Cu4Ni3C14
_symmetry_space_group_name_H-M   'P 1'
_cell_length_a   7.57812321
_cell_length_b   7.57812321
_cell_length_c   7.57812256
_cell_angle_alpha   60.01037911
_cell_angle_beta   60.01037911
_cell_angle_gamma   60.01037881
_symmetry_Int_Tables_number   1
_chemical_formula_structural   Cu4Ni3C14
_chemical_formula_sum   'Cu4 Ni3 C14'
_cell_volume   307.80249035
_cell_formula_units_Z   1
loop_
 _symmetry_equiv_pos_site_id
 _symmetry_equiv_pos_as_xyz
  1  'x, y, z'
loop_
 _atom_site_type_symbol
 _atom_site_label
 _atom_site_symmetry_multiplicity
 _atom_site_fract_x
 _atom_site_fract_y
 _atom_site_fract_z
 _atom_site_occupancy
  C  C0  1  0.49951300  0.49951300  0.49951300  1
  Ni  Ni1  1  0.00074000  0.49950400  0.49950400  1
  Ni  Ni2  1  0.49950400  0.49950400  0.00074000  1
  Ni  Ni3  1  0.49950400  0.00074000  0.49950400  1
  Cu  Cu4  1  0.99932800  0.99932800  0.99932800  1
  Cu  Cu5  1  0.50235900  0.99949400  0.99949400  1
  Cu  Cu6  1  0.99949400  0.99949400  0.50235900  1
  Cu  Cu7  1  0.99949400  0.50235900  0.99949400  1
  C  C8  1  0.83583900  0.42558500  0.42558500  1
  C  C9  1  0.42443200  0.82181100  0.82181100  1
  C  C10  1  0.42558500  0.42558500  0.83583900  1
  C  C11  1  0.82181100  0.82181100  0.42443200  1
  C  C12  1  0.82181100  0.42443200  0.82181100  1
  C  C13  1  0.42558500  0.83583900  0.42558500  1
  C  C14  1  0.16760100  0.57198900  0.57198900  1
  C  C15  1  0.57394500  0.18022300  0.18022300  1
  C  C16  1  0.57198900  0.57198900  0.16760100  1
  C  C17  1  0.18022300  0.18022300  0.57394500  1
  C  C18  1  0.18022300  0.57394500  0.18022300  1
  C  C19  1  0.57198900  0.16760100  0.57198900  1
  C  C20  1  0.12403300  0.12403300  0.12403300  1
