# generated using pymatgen
data_Cu2Ni2C5
_symmetry_space_group_name_H-M   'P 1'
_cell_length_a   3.51733700
_cell_length_b   5.67190700
_cell_length_c   10.87453800
_cell_angle_alpha   90.00000000
_cell_angle_beta   90.00000000
_cell_angle_gamma   90.00000000
_symmetry_Int_Tables_number   1
_chemical_formula_structural   Cu2Ni2C5
_chemical_formula_sum   'Cu4 Ni4 C10'
_cell_volume   216.94712392
_cell_formula_units_Z   2
loop_
 _symmetry_equiv_pos_site_id
 _symmetry_equiv_pos_as_xyz
  1  'x, y, z'
loop_
 _atom_site_type_symbol
 _atom_site_label
 _atom_site_symmetry_multiplicity
 _atom_site_fract_x
 _atom_site_fract_y
 _atom_site_fract_z
 _atom_site_occupancy
  Ni  Ni0  1  0.50000000  0.26079800  0.13704800  1
  Ni  Ni1  1  0.50000000  0.73920200  0.86295200  1
  Ni  Ni2  1  0.50000000  0.23920200  0.63704800  1
  Ni  Ni3  1  0.50000000  0.76079800  0.36295200  1
  Cu  Cu4  1  0.00000000  0.28558000  0.40048200  1
  Cu  Cu5  1  0.00000000  0.71442000  0.59951800  1
  Cu  Cu6  1  0.00000000  0.78558000  0.09951800  1
  Cu  Cu7  1  0.00000000  0.21442000  0.90048200  1
  C  C8  1  0.50000000  0.50000000  0.00000000  1
  C  C9  1  0.50000000  0.13472000  0.80555000  1
  C  C10  1  0.50000000  0.63472000  0.69445000  1
  C  C11  1  0.50000000  0.36528000  0.30555000  1
  C  C12  1  0.00000000  0.33574300  0.58430400  1
  C  C13  1  0.00000000  0.66425700  0.41569600  1
  C  C14  1  0.50000000  0.86528000  0.19445000  1
  C  C15  1  0.00000000  0.16425700  0.08430400  1
  C  C16  1  0.50000000  0.00000000  0.50000000  1
  C  C17  1  0.00000000  0.83574300  0.91569600  1
