# generated using pymatgen
data_Cu2NiC9
_symmetry_space_group_name_H-M   'P 1'
_cell_length_a   5.28189200
_cell_length_b   7.82905300
_cell_length_c   7.82905300
_cell_angle_alpha   90.00000000
_cell_angle_beta   90.00000000
_cell_angle_gamma   90.00000000
_symmetry_Int_Tables_number   1
_chemical_formula_structural   Cu2NiC9
_chemical_formula_sum   'Cu4 Ni2 C18'
_cell_volume   323.74866261
_cell_formula_units_Z   2
loop_
 _symmetry_equiv_pos_site_id
 _symmetry_equiv_pos_as_xyz
  1  'x, y, z'
loop_
 _atom_site_type_symbol
 _atom_site_label
 _atom_site_symmetry_multiplicity
 _atom_site_fract_x
 _atom_site_fract_y
 _atom_site_fract_z
 _atom_site_occupancy
  C  C0  1  0.51547000  0.16851700  0.66851700  1
  C  C1  1  0.51547000  0.83148300  0.33148300  1
  C  C2  1  0.48453000  0.66851700  0.83148300  1
  C  C3  1  0.48453000  0.33148300  0.16851700  1
  Ni  Ni4  1  0.00000000  0.00000000  0.00000000  1
  Ni  Ni5  1  0.00000000  0.50000000  0.50000000  1
  Cu  Cu6  1  0.96839000  0.64906600  0.14906600  1
  Cu  Cu7  1  0.96839000  0.35093400  0.85093400  1
  Cu  Cu8  1  0.03161000  0.14906600  0.35093400  1
  Cu  Cu9  1  0.03161000  0.85093400  0.64906600  1
  C  C10  1  0.19807000  0.00000000  0.50000000  1
  C  C11  1  0.80193000  0.50000000  0.00000000  1
  C  C12  1  0.31396900  0.63378200  0.13378200  1
  C  C13  1  0.31396900  0.36621800  0.86621800  1
  C  C14  1  0.68603100  0.13378200  0.36621800  1
  C  C15  1  0.68603100  0.86621800  0.63378200  1
  C  C16  1  0.19141800  0.08625500  0.14806400  1
  C  C17  1  0.19141800  0.91374500  0.85193600  1
  C  C18  1  0.80858200  0.14806400  0.91374500  1
  C  C19  1  0.80858200  0.41374500  0.64806400  1
  C  C20  1  0.80858200  0.85193600  0.08625500  1
  C  C21  1  0.80858200  0.58625500  0.35193600  1
  C  C22  1  0.19141800  0.35193600  0.41374500  1
  C  C23  1  0.19141800  0.64806400  0.58625500  1
