# generated using pymatgen
data_Cu8Ni8C9
_symmetry_space_group_name_H-M   'P 1'
_cell_length_a   4.80827664
_cell_length_b   4.88934130
_cell_length_c   12.65097793
_cell_angle_alpha   90.26571255
_cell_angle_beta   89.88281448
_cell_angle_gamma   89.86629784
_symmetry_Int_Tables_number   1
_chemical_formula_structural   Cu8Ni8C9
_chemical_formula_sum   'Cu8 Ni8 C9'
_cell_volume   297.41106916
_cell_formula_units_Z   1
loop_
 _symmetry_equiv_pos_site_id
 _symmetry_equiv_pos_as_xyz
  1  'x, y, z'
loop_
 _atom_site_type_symbol
 _atom_site_label
 _atom_site_symmetry_multiplicity
 _atom_site_fract_x
 _atom_site_fract_y
 _atom_site_fract_z
 _atom_site_occupancy
  C  C0  1  0.95901500  0.51904800  0.74455100  1
  C  C1  1  0.96924900  0.94168100  0.00333100  1
  C  C2  1  0.02965600  0.00620900  0.24542200  1
  C  C3  1  0.96878000  0.95397000  0.49257900  1
  C  C4  1  0.28181100  0.98911500  0.75487500  1
  C  C5  1  0.46254900  0.52983300  0.60620000  1
  C  C6  1  0.52924400  0.44454900  0.12766100  1
  C  C7  1  0.46538000  0.51736300  0.36550000  1
  C  C8  1  0.47305100  0.51691600  0.88897400  1
  Ni  Ni9  1  0.17606100  0.79988400  0.36192000  1
  Ni  Ni10  1  0.14864200  0.77658700  0.62769300  1
  Ni  Ni11  1  0.15105100  0.76106100  0.87801600  1
  Ni  Ni12  1  0.32865700  0.29360300  0.24591400  1
  Ni  Ni13  1  0.34031200  0.37828200  0.74791900  1
  Ni  Ni14  1  0.66656400  0.66623300  0.00689000  1
  Ni  Ni15  1  0.63282800  0.70305400  0.48964000  1
  Ni  Ni16  1  0.83345700  0.16818700  0.12181900  1
  Cu  Cu17  1  0.21102100  0.73832000  0.12272600  1
  Cu  Cu18  1  0.29812600  0.22236700  0.99212000  1
  Cu  Cu19  1  0.27192600  0.26990500  0.49725200  1
  Cu  Cu20  1  0.71604000  0.71331900  0.24335200  1
  Cu  Cu21  1  0.67010500  0.79196400  0.75477400  1
  Cu  Cu22  1  0.78326500  0.22116300  0.37457100  1
  Cu  Cu23  1  0.79779900  0.28752500  0.62917500  1
  Cu  Cu24  1  0.80763100  0.27597600  0.85941700  1
