# generated using pymatgen
data_Cu4Ni4C27
_symmetry_space_group_name_H-M   'P 1'
_cell_length_a   10.09344206
_cell_length_b   10.09344206
_cell_length_c   10.09344196
_cell_angle_alpha   90.45121602
_cell_angle_beta   90.45121602
_cell_angle_gamma   90.45121355
_symmetry_Int_Tables_number   1
_chemical_formula_structural   Cu4Ni4C27
_chemical_formula_sum   'Cu4 Ni4 C27'
_cell_volume   1028.19920206
_cell_formula_units_Z   1
loop_
 _symmetry_equiv_pos_site_id
 _symmetry_equiv_pos_as_xyz
  1  'x, y, z'
loop_
 _atom_site_type_symbol
 _atom_site_label
 _atom_site_symmetry_multiplicity
 _atom_site_fract_x
 _atom_site_fract_y
 _atom_site_fract_z
 _atom_site_occupancy
  C  C0  1  0.99953600  0.50036100  0.99953600  1
  C  C1  1  0.99953600  0.99953600  0.50036100  1
  C  C2  1  0.50036100  0.99953600  0.99953600  1
  C  C3  1  0.04333400  0.50088900  0.50088900  1
  C  C4  1  0.50088900  0.04333400  0.50088900  1
  C  C5  1  0.50088900  0.50088900  0.04333400  1
  C  C6  1  0.33437500  0.67634600  0.33437500  1
  C  C7  1  0.33437500  0.33437500  0.67634600  1
  C  C8  1  0.67634600  0.33437500  0.33437500  1
  C  C9  1  0.66663300  0.66663300  0.66663300  1
  Ni  Ni10  1  0.86641400  0.86641400  0.86641400  1
  Ni  Ni11  1  0.13279700  0.86621700  0.13279700  1
  Ni  Ni12  1  0.86621700  0.13279700  0.13279700  1
  Ni  Ni13  1  0.13279700  0.13279700  0.86621700  1
  Cu  Cu14  1  0.22440000  0.77612300  0.77612300  1
  Cu  Cu15  1  0.77612300  0.22440000  0.77612300  1
  Cu  Cu16  1  0.77612300  0.77612300  0.22440000  1
  Cu  Cu17  1  0.22262800  0.22262800  0.22262800  1
  C  C18  1  0.00068300  0.00068300  0.00068300  1
  C  C19  1  0.35320600  0.63866400  0.63866400  1
  C  C20  1  0.63866400  0.35320600  0.63866400  1
  C  C21  1  0.63866400  0.63866400  0.35320600  1
  C  C22  1  0.35934400  0.35934400  0.35934400  1
  C  C23  1  0.99227000  0.72711800  0.72711800  1
  C  C24  1  0.72711800  0.99227000  0.72711800  1
  C  C25  1  0.72711800  0.72711800  0.99227000  1
  C  C26  1  0.00786600  0.72782300  0.27316300  1
  C  C27  1  0.27366800  0.99352300  0.27366800  1
  C  C28  1  0.27316300  0.72782300  0.00786600  1
  C  C29  1  0.99352300  0.27366800  0.27366800  1
  C  C30  1  0.72782300  0.00786600  0.27316300  1
  C  C31  1  0.72782300  0.27316300  0.00786600  1
  C  C32  1  0.00786600  0.27316300  0.72782300  1
  C  C33  1  0.27316300  0.00786600  0.72782300  1
  C  C34  1  0.27366800  0.27366800  0.99352300  1
