# generated using pymatgen
data_Cu6Ni3C16
_symmetry_space_group_name_H-M   'P 1'
_cell_length_a   7.83797603
_cell_length_b   7.83797603
_cell_length_c   7.83797633
_cell_angle_alpha   96.11187290
_cell_angle_beta   96.11187290
_cell_angle_gamma   96.11187824
_symmetry_Int_Tables_number   1
_chemical_formula_structural   Cu6Ni3C16
_chemical_formula_sum   'Cu12 Ni6 C32'
_cell_volume   472.66707370
_cell_formula_units_Z   2
loop_
 _symmetry_equiv_pos_site_id
 _symmetry_equiv_pos_as_xyz
  1  'x, y, z'
loop_
 _atom_site_type_symbol
 _atom_site_label
 _atom_site_symmetry_multiplicity
 _atom_site_fract_x
 _atom_site_fract_y
 _atom_site_fract_z
 _atom_site_occupancy
  C  C0  1  0.94654700  0.94654700  0.94654700  1
  C  C1  1  0.44654700  0.44654700  0.44654700  1
  C  C2  1  0.30946700  0.09096100  0.87154900  1
  C  C3  1  0.09096100  0.87154900  0.30946700  1
  C  C4  1  0.87154900  0.30946700  0.09096100  1
  C  C5  1  0.80946700  0.37154900  0.59096100  1
  C  C6  1  0.37154900  0.59096100  0.80946700  1
  C  C7  1  0.59096100  0.80946700  0.37154900  1
  C  C8  1  0.40287000  0.09146800  0.61402600  1
  C  C9  1  0.09146800  0.61402600  0.40287000  1
  C  C10  1  0.61402600  0.40287000  0.09146800  1
  C  C11  1  0.90287000  0.11402600  0.59146800  1
  C  C12  1  0.11402600  0.59146800  0.90287000  1
  C  C13  1  0.59146800  0.90287000  0.11402600  1
  C  C14  1  0.39854900  0.88311800  0.66748800  1
  C  C15  1  0.88311800  0.66748800  0.39854900  1
  C  C16  1  0.66748800  0.39854900  0.88311800  1
  C  C17  1  0.89854900  0.16748800  0.38311800  1
  C  C18  1  0.16748800  0.38311800  0.89854900  1
  C  C19  1  0.38311800  0.89854900  0.16748800  1
  C  C20  1  0.58983800  0.01306100  0.69621800  1
  C  C21  1  0.01306100  0.69621800  0.58983800  1
  C  C22  1  0.69621800  0.58983800  0.01306100  1
  C  C23  1  0.08983800  0.19621800  0.51306100  1
  C  C24  1  0.19621800  0.51306100  0.08983800  1
  C  C25  1  0.51306100  0.08983800  0.19621800  1
  C  C26  1  0.45546700  0.00984300  0.69868900  1
  C  C27  1  0.00984300  0.69868900  0.45546700  1
  C  C28  1  0.69868900  0.45546700  0.00984300  1
  C  C29  1  0.95546700  0.19868900  0.50984300  1
  C  C30  1  0.19868900  0.50984300  0.95546700  1
  C  C31  1  0.50984300  0.95546700  0.19868900  1
  Ni  Ni32  1  0.43705800  0.07204400  0.87144500  1
  Ni  Ni33  1  0.07204400  0.87144500  0.43705800  1
  Ni  Ni34  1  0.87144500  0.43705800  0.07204400  1
  Ni  Ni35  1  0.93705800  0.37144500  0.57204400  1
  Ni  Ni36  1  0.37144500  0.57204400  0.93705800  1
  Ni  Ni37  1  0.57204400  0.93705800  0.37144500  1
  Cu  Cu38  1  0.13056200  0.12588800  0.87940400  1
  Cu  Cu39  1  0.12588800  0.87940400  0.13056200  1
  Cu  Cu40  1  0.87940400  0.13056200  0.12588800  1
  Cu  Cu41  1  0.63056200  0.37940400  0.62588800  1
  Cu  Cu42  1  0.37940400  0.62588800  0.63056200  1
  Cu  Cu43  1  0.62588800  0.63056200  0.37940400  1
  Cu  Cu44  1  0.79757200  0.01891300  0.74328400  1
  Cu  Cu45  1  0.01891300  0.74328400  0.79757200  1
  Cu  Cu46  1  0.74328400  0.79757200  0.01891300  1
  Cu  Cu47  1  0.29757200  0.24328400  0.51891300  1
  Cu  Cu48  1  0.24328400  0.51891300  0.29757200  1
  Cu  Cu49  1  0.51891300  0.29757200  0.24328400  1
