# generated using pymatgen
data_CuNi4C15
_symmetry_space_group_name_H-M   'P 1'
_cell_length_a   5.54498619
_cell_length_b   5.54888853
_cell_length_c   9.38162909
_cell_angle_alpha   79.68946737
_cell_angle_beta   80.43903653
_cell_angle_gamma   85.41966462
_symmetry_Int_Tables_number   1
_chemical_formula_structural   CuNi4C15
_chemical_formula_sum   'Cu1 Ni4 C15'
_cell_volume   279.67857389
_cell_formula_units_Z   1
loop_
 _symmetry_equiv_pos_site_id
 _symmetry_equiv_pos_as_xyz
  1  'x, y, z'
loop_
 _atom_site_type_symbol
 _atom_site_label
 _atom_site_symmetry_multiplicity
 _atom_site_fract_x
 _atom_site_fract_y
 _atom_site_fract_z
 _atom_site_occupancy
  Ni  Ni0  1  0.97210800  0.48859400  0.82590400  1
  Ni  Ni1  1  0.53308700  0.05417500  0.82078500  1
  Ni  Ni2  1  0.41773000  0.90934600  0.21912300  1
  Ni  Ni3  1  0.89493900  0.38238500  0.24280500  1
  Cu  Cu4  1  0.32890700  0.80166300  0.60092500  1
  C  C5  1  0.34577000  0.34685500  0.44310700  1
  C  C6  1  0.86506500  0.82845900  0.44226700  1
  C  C7  1  0.45935600  0.45922500  0.01436900  1
  C  C8  1  0.95904700  0.95928100  0.01453400  1
  C  C9  1  0.07842100  0.95026800  0.81135200  1
  C  C10  1  0.47767700  0.55033200  0.80123300  1
  C  C11  1  0.36032600  0.44506300  0.22084600  1
  C  C12  1  0.96133600  0.84416900  0.21631100  1
  C  C13  1  0.60386200  0.08850700  0.48321600  1
  C  C14  1  0.07577700  0.55644000  0.53081200  1
  C  C15  1  0.12432800  0.06854500  0.43461100  1
  C  C16  1  0.58773300  0.61055900  0.43292800  1
  C  C17  1  0.70936400  0.20757700  0.01763900  1
  C  C18  1  0.69346700  0.71910200  0.00868300  1
  C  C19  1  0.20646300  0.21755100  0.01230100  1
