# generated using pymatgen
data_Cu10Ni2C3
_symmetry_space_group_name_H-M   'P 1'
_cell_length_a   11.81258500
_cell_length_b   4.75569100
_cell_length_c   9.34045644
_cell_angle_alpha   79.55292384
_cell_angle_beta   90.00000000
_cell_angle_gamma   90.00000000
_symmetry_Int_Tables_number   1
_chemical_formula_structural   Cu10Ni2C3
_chemical_formula_sum   'Cu20 Ni4 C6'
_cell_volume   516.02050070
_cell_formula_units_Z   2
loop_
 _symmetry_equiv_pos_site_id
 _symmetry_equiv_pos_as_xyz
  1  'x, y, z'
loop_
 _atom_site_type_symbol
 _atom_site_label
 _atom_site_symmetry_multiplicity
 _atom_site_fract_x
 _atom_site_fract_y
 _atom_site_fract_z
 _atom_site_occupancy
  C  C0  1  0.58705900  0.08795900  0.39483200  1
  C  C1  1  0.08705900  0.91204100  0.60516800  1
  C  C2  1  0.44072300  0.25735400  0.83416600  1
  C  C3  1  0.94072300  0.74264600  0.16583400  1
  C  C4  1  0.75121900  0.88222700  0.80285000  1
  C  C5  1  0.25121900  0.11777300  0.19715000  1
  Ni  Ni6  1  0.82135400  0.48114700  0.57067000  1
  Ni  Ni7  1  0.32135400  0.51885300  0.42933000  1
  Ni  Ni8  1  0.19480400  0.67233500  0.95386400  1
  Ni  Ni9  1  0.69480400  0.32766500  0.04613600  1
  Cu  Cu10  1  0.93446200  0.39395800  0.53570600  1
  Cu  Cu11  1  0.43446200  0.60604200  0.46429400  1
  Cu  Cu12  1  0.87756700  0.05348500  0.87893500  1
  Cu  Cu13  1  0.37756700  0.94651500  0.12106500  1
  Cu  Cu14  1  0.61856000  0.80936100  0.76054700  1
  Cu  Cu15  1  0.11856000  0.19063900  0.23945300  1
  Cu  Cu16  1  0.76121800  0.65407600  0.44957700  1
  Cu  Cu17  1  0.26121800  0.34592400  0.55042300  1
  Cu  Cu18  1  0.83872300  0.66424000  0.69266500  1
  Cu  Cu19  1  0.33872300  0.33576000  0.30733500  1
  Cu  Cu20  1  0.17591400  0.83863600  0.07571200  1
  Cu  Cu21  1  0.67591400  0.16136400  0.92428800  1
  Cu  Cu22  1  0.26288500  0.83007400  0.83525000  1
  Cu  Cu23  1  0.76288500  0.16992600  0.16475000  1
  Cu  Cu24  1  0.08403700  0.58511500  0.90894200  1
  Cu  Cu25  1  0.58403700  0.41488500  0.09105800  1
  Cu  Cu26  1  0.26504800  0.40699700  0.01953900  1
  Cu  Cu27  1  0.76504800  0.59300300  0.98046100  1
  Cu  Cu28  1  0.74704600  0.23021600  0.63301600  1
  Cu  Cu29  1  0.24704600  0.76978400  0.36698400  1
