# generated using pymatgen
data_CuNiC3
_symmetry_space_group_name_H-M   'P 1'
_cell_length_a   5.10085700
_cell_length_b   5.30255200
_cell_length_c   7.46431600
_cell_angle_alpha   90.00000000
_cell_angle_beta   90.00000000
_cell_angle_gamma   90.00000000
_symmetry_Int_Tables_number   1
_chemical_formula_structural   CuNiC3
_chemical_formula_sum   'Cu4 Ni4 C12'
_cell_volume   201.89153104
_cell_formula_units_Z   4
loop_
 _symmetry_equiv_pos_site_id
 _symmetry_equiv_pos_as_xyz
  1  'x, y, z'
loop_
 _atom_site_type_symbol
 _atom_site_label
 _atom_site_symmetry_multiplicity
 _atom_site_fract_x
 _atom_site_fract_y
 _atom_site_fract_z
 _atom_site_occupancy
  Ni  Ni0  1  0.99060100  0.05455300  0.75000000  1
  Ni  Ni1  1  0.49060100  0.44544700  0.25000000  1
  Ni  Ni2  1  0.50939900  0.55455300  0.75000000  1
  Ni  Ni3  1  0.00939900  0.94544700  0.25000000  1
  Cu  Cu4  1  0.50000000  0.00000000  0.50000000  1
  Cu  Cu5  1  0.00000000  0.50000000  0.50000000  1
  Cu  Cu6  1  0.00000000  0.50000000  0.00000000  1
  Cu  Cu7  1  0.50000000  0.00000000  0.00000000  1
  C  C8  1  0.87700500  0.55623900  0.25000000  1
  C  C9  1  0.37700500  0.94376100  0.75000000  1
  C  C10  1  0.62299500  0.05623900  0.25000000  1
  C  C11  1  0.12299500  0.44376100  0.75000000  1
  C  C12  1  0.68295100  0.31249500  0.93527800  1
  C  C13  1  0.18295100  0.18750500  0.06472200  1
  C  C14  1  0.81704900  0.81249500  0.56472200  1
  C  C15  1  0.31704900  0.68750500  0.43527800  1
  C  C16  1  0.68295100  0.31249500  0.56472200  1
  C  C17  1  0.18295100  0.18750500  0.43527800  1
  C  C18  1  0.31704900  0.68750500  0.06472200  1
  C  C19  1  0.81704900  0.81249500  0.93527800  1
