# generated using pymatgen
data_Cu2Ni3C10
_symmetry_space_group_name_H-M   'P 1'
_cell_length_a   6.09958512
_cell_length_b   8.64904500
_cell_length_c   10.57306052
_cell_angle_alpha   65.85712938
_cell_angle_beta   73.23485567
_cell_angle_gamma   90.00000000
_symmetry_Int_Tables_number   1
_chemical_formula_structural   Cu2Ni3C10
_chemical_formula_sum   'Cu4 Ni6 C20'
_cell_volume   482.89915919
_cell_formula_units_Z   2
loop_
 _symmetry_equiv_pos_site_id
 _symmetry_equiv_pos_as_xyz
  1  'x, y, z'
loop_
 _atom_site_type_symbol
 _atom_site_label
 _atom_site_symmetry_multiplicity
 _atom_site_fract_x
 _atom_site_fract_y
 _atom_site_fract_z
 _atom_site_occupancy
  Ni  Ni0  1  0.50000000  0.26460400  0.00000000  1
  Ni  Ni1  1  0.83913400  0.58020400  0.32173200  1
  Ni  Ni2  1  0.16086600  0.90193700  0.67826800  1
  Ni  Ni3  1  0.50000000  0.73539600  0.00000000  1
  Ni  Ni4  1  0.83913400  0.09806300  0.32173200  1
  Ni  Ni5  1  0.16086600  0.41979600  0.67826800  1
  Cu  Cu6  1  0.00000000  0.00000000  0.00000000  1
  Cu  Cu7  1  0.32804600  0.32804600  0.34390700  1
  Cu  Cu8  1  0.67195400  0.67195400  0.65609300  1
  Cu  Cu9  1  0.00000000  0.50000000  0.00000000  1
  C  C10  1  0.33412700  0.83412700  0.33174400  1
  C  C11  1  0.66587300  0.16587300  0.66825600  1
  C  C12  1  0.00000000  0.24679900  0.00000000  1
  C  C13  1  0.32994000  0.60141600  0.34011800  1
  C  C14  1  0.67006000  0.94153500  0.65988200  1
  C  C15  1  0.16086300  0.41036900  0.17926100  1
  C  C16  1  0.48942400  0.76004400  0.47991200  1
  C  C17  1  0.81814100  0.08975300  0.82049500  1
  C  C18  1  0.34012500  0.58963100  0.82073900  1
  C  C19  1  0.63863600  0.91024700  0.17950500  1
  C  C20  1  0.96933500  0.23995600  0.52008800  1
  C  C21  1  0.00000000  0.75320100  0.00000000  1
  C  C22  1  0.32994000  0.05846500  0.34011800  1
  C  C23  1  0.67006000  0.39858400  0.65988200  1
  C  C24  1  0.83913700  0.58963100  0.82073900  1
  C  C25  1  0.18185900  0.91024700  0.17950500  1
  C  C26  1  0.51057600  0.23995600  0.52008800  1
  C  C27  1  0.65987500  0.41036900  0.17926100  1
  C  C28  1  0.03066500  0.76004400  0.47991200  1
  C  C29  1  0.36136400  0.08975300  0.82049500  1
