# generated using pymatgen
data_CuNi2C7
_symmetry_space_group_name_H-M   'P 1'
_cell_length_a   5.46627100
_cell_length_b   5.31791600
_cell_length_c   9.36790568
_cell_angle_alpha   55.76221889
_cell_angle_beta   90.00000000
_cell_angle_gamma   90.00000000
_symmetry_Int_Tables_number   1
_chemical_formula_structural   CuNi2C7
_chemical_formula_sum   'Cu2 Ni4 C14'
_cell_volume   225.12732085
_cell_formula_units_Z   2
loop_
 _symmetry_equiv_pos_site_id
 _symmetry_equiv_pos_as_xyz
  1  'x, y, z'
loop_
 _atom_site_type_symbol
 _atom_site_label
 _atom_site_symmetry_multiplicity
 _atom_site_fract_x
 _atom_site_fract_y
 _atom_site_fract_z
 _atom_site_occupancy
  Ni  Ni0  1  0.95042200  0.26398100  0.74705000  1
  Ni  Ni1  1  0.54957800  0.26398100  0.24705000  1
  Ni  Ni2  1  0.04957800  0.73601900  0.25295000  1
  Ni  Ni3  1  0.45042200  0.73601900  0.75295000  1
  Cu  Cu4  1  0.00000000  0.50000000  0.00000000  1
  Cu  Cu5  1  0.50000000  0.50000000  0.50000000  1
  C  C6  1  0.00000000  0.00000000  0.50000000  1
  C  C7  1  0.50000000  0.00000000  0.00000000  1
  C  C8  1  0.69052700  0.37026500  0.94099700  1
  C  C9  1  0.80947300  0.37026500  0.44099700  1
  C  C10  1  0.30947300  0.62973500  0.05900300  1
  C  C11  1  0.19052700  0.62973500  0.55900300  1
  C  C12  1  0.69416200  0.74825800  0.56621500  1
  C  C13  1  0.80583800  0.74825800  0.06621500  1
  C  C14  1  0.30583800  0.25174200  0.43378500  1
  C  C15  1  0.19416200  0.25174200  0.93378500  1
  C  C16  1  0.55558700  0.12747500  0.75405000  1
  C  C17  1  0.94441300  0.12747500  0.25405000  1
  C  C18  1  0.44441300  0.87252500  0.24595000  1
  C  C19  1  0.05558700  0.87252500  0.74595000  1
