# generated using pymatgen
data_CuNiC11
_symmetry_space_group_name_H-M   'P 1'
_cell_length_a   9.68401800
_cell_length_b   10.61237000
_cell_length_c   11.29162100
_cell_angle_alpha   90.00000000
_cell_angle_beta   90.00000000
_cell_angle_gamma   90.00000000
_symmetry_Int_Tables_number   1
_chemical_formula_structural   CuNiC11
_chemical_formula_sum   'Cu8 Ni8 C88'
_cell_volume   1160.44420473
_cell_formula_units_Z   8
loop_
 _symmetry_equiv_pos_site_id
 _symmetry_equiv_pos_as_xyz
  1  'x, y, z'
loop_
 _atom_site_type_symbol
 _atom_site_label
 _atom_site_symmetry_multiplicity
 _atom_site_fract_x
 _atom_site_fract_y
 _atom_site_fract_z
 _atom_site_occupancy
  C  C0  1  0.96629100  0.42909900  0.00642100  1
  C  C1  1  0.03370900  0.57090100  0.50642100  1
  C  C2  1  0.96629100  0.07090100  0.50642100  1
  C  C3  1  0.03370900  0.92909900  0.00642100  1
  Ni  Ni4  1  0.88509300  0.34734700  0.70681000  1
  Ni  Ni5  1  0.11490700  0.65265300  0.20681000  1
  Ni  Ni6  1  0.88509300  0.15265300  0.20681000  1
  Ni  Ni7  1  0.11490700  0.84734700  0.70681000  1
  Ni  Ni8  1  0.24572700  0.21411500  0.93757000  1
  Ni  Ni9  1  0.75427300  0.78588500  0.43757000  1
  Ni  Ni10  1  0.24572700  0.28588500  0.43757000  1
  Ni  Ni11  1  0.75427300  0.71411500  0.93757000  1
  C  C12  1  0.44081800  0.28571800  0.02560200  1
  C  C13  1  0.55918200  0.71428200  0.52560200  1
  C  C14  1  0.44081800  0.21428200  0.52560200  1
  C  C15  1  0.55918200  0.78571800  0.02560200  1
  C  C16  1  0.39635700  0.55336800  0.80566800  1
  C  C17  1  0.60364300  0.44663200  0.30566800  1
  C  C18  1  0.39635700  0.94663200  0.30566800  1
  C  C19  1  0.60364300  0.05336800  0.80566800  1
  C  C20  1  0.47050700  0.59069700  0.92282500  1
  C  C21  1  0.52949300  0.40930300  0.42282500  1
  C  C22  1  0.47050700  0.90930300  0.42282500  1
  C  C23  1  0.52949300  0.09069700  0.92282500  1
  C  C24  1  0.67329500  0.39956700  0.60940400  1
  C  C25  1  0.32670500  0.60043300  0.10940400  1
  C  C26  1  0.67329500  0.10043300  0.10940400  1
  C  C27  1  0.32670500  0.89956700  0.60940400  1
  C  C28  1  0.68138300  0.45926700  0.75850900  1
  C  C29  1  0.31861700  0.54073300  0.25850900  1
  C  C30  1  0.68138300  0.04073300  0.25850900  1
  C  C31  1  0.31861700  0.95926700  0.75850900  1
  C  C32  1  0.64743900  0.29735700  0.73550200  1
  C  C33  1  0.35256100  0.70264300  0.23550200  1
  C  C34  1  0.64743900  0.20264300  0.23550200  1
  C  C35  1  0.35256100  0.79735700  0.73550200  1
  C  C36  1  0.17114000  0.26617600  0.74080700  1
  C  C37  1  0.82886000  0.73382400  0.24080700  1
  C  C38  1  0.17114000  0.23382400  0.24080700  1
  C  C39  1  0.82886000  0.76617600  0.74080700  1
  C  C40  1  0.32940600  0.18025000  0.74289800  1
  C  C41  1  0.67059400  0.81975000  0.24289800  1
  C  C42  1  0.32940600  0.31975000  0.24289800  1
  C  C43  1  0.67059400  0.68025000  0.74289800  1
  C  C44  1  0.32848700  0.34385600  0.78209000  1
  C  C45  1  0.67151300  0.65614400  0.28209000  1
  C  C46  1  0.32848700  0.15614400  0.28209000  1
  C  C47  1  0.67151300  0.84385600  0.78209000  1
  Cu  Cu48  1  0.70425000  0.37881500  0.70084900  1
  Cu  Cu49  1  0.29575000  0.62118500  0.20084900  1
  Cu  Cu50  1  0.70425000  0.12118500  0.20084900  1
  Cu  Cu51  1  0.29575000  0.87881500  0.70084900  1
  Cu  Cu52  1  0.27024100  0.25541300  0.78614500  1
  Cu  Cu53  1  0.72975900  0.74458700  0.28614500  1
  Cu  Cu54  1  0.27024100  0.24458700  0.28614500  1
  Cu  Cu55  1  0.72975900  0.75541300  0.78614500  1
  C  C56  1  0.65598900  0.39989100  0.08153400  1
  C  C57  1  0.34401100  0.60010900  0.58153400  1
  C  C58  1  0.65598900  0.10010900  0.58153400  1
  C  C59  1  0.34401100  0.89989100  0.08153400  1
  C  C60  1  0.96491600  0.46582600  0.65974500  1
  C  C61  1  0.03508400  0.53417400  0.15974500  1
  C  C62  1  0.96491600  0.03417400  0.15974500  1
  C  C63  1  0.03508400  0.96582600  0.65974500  1
  C  C64  1  0.92416500  0.23026700  0.63339200  1
  C  C65  1  0.07583500  0.76973300  0.13339200  1
  C  C66  1  0.92416500  0.26973300  0.13339200  1
  C  C67  1  0.07583500  0.73026700  0.63339200  1
  C  C68  1  0.92668300  0.32848600  0.83880500  1
  C  C69  1  0.07331700  0.67151400  0.33880500  1
  C  C70  1  0.92668300  0.17151400  0.33880500  1
  C  C71  1  0.07331700  0.82848600  0.83880500  1
  C  C72  1  0.39454100  0.20639300  0.99600000  1
  C  C73  1  0.60545900  0.79360700  0.49600000  1
  C  C74  1  0.39454100  0.29360700  0.49600000  1
  C  C75  1  0.60545900  0.70639300  0.99600000  1
  C  C76  1  0.18453200  0.08092600  0.94501300  1
  C  C77  1  0.81546800  0.91907400  0.44501300  1
  C  C78  1  0.18453200  0.41907400  0.44501300  1
  C  C79  1  0.81546800  0.58092600  0.94501300  1
  C  C80  1  0.15830000  0.31207100  0.00486600  1
  C  C81  1  0.84170000  0.68792900  0.50486600  1
  C  C82  1  0.15830000  0.18792900  0.50486600  1
  C  C83  1  0.84170000  0.81207100  0.00486600  1
  C  C84  1  0.53088800  0.38860100  0.11083800  1
  C  C85  1  0.46911200  0.61139900  0.61083800  1
  C  C86  1  0.53088800  0.11139900  0.61083800  1
  C  C87  1  0.46911200  0.88860100  0.11083800  1
  C  C88  1  0.70346500  0.34667900  0.98956000  1
  C  C89  1  0.29653500  0.65332100  0.48956000  1
  C  C90  1  0.70346500  0.15332100  0.48956000  1
  C  C91  1  0.29653500  0.84667900  0.98956000  1
  C  C92  1  0.73823400  0.46343000  0.14575200  1
  C  C93  1  0.26176600  0.53657000  0.64575200  1
  C  C94  1  0.73823400  0.03657000  0.64575200  1
  C  C95  1  0.26176600  0.96343000  0.14575200  1
  C  C96  1  0.07794800  0.53314400  0.92369800  1
  C  C97  1  0.92205200  0.46685600  0.42369800  1
  C  C98  1  0.07794800  0.96685600  0.42369800  1
  C  C99  1  0.92205200  0.03314400  0.92369800  1
  C  C100  1  0.41140800  0.52609500  0.88704500  1
  C  C101  1  0.58859200  0.47390500  0.38704500  1
  C  C102  1  0.41140800  0.97390500  0.38704500  1
  C  C103  1  0.58859200  0.02609500  0.88704500  1
