# generated using pymatgen
data_Cu4NiC11
_symmetry_space_group_name_H-M   'P 1'
_cell_length_a   8.38923100
_cell_length_b   9.45583900
_cell_length_c   13.88126388
_cell_angle_alpha   84.25764518
_cell_angle_beta   90.00000000
_cell_angle_gamma   90.00000000
_symmetry_Int_Tables_number   1
_chemical_formula_structural   Cu4NiC11
_chemical_formula_sum   'Cu16 Ni4 C44'
_cell_volume   1095.63627553
_cell_formula_units_Z   4
loop_
 _symmetry_equiv_pos_site_id
 _symmetry_equiv_pos_as_xyz
  1  'x, y, z'
loop_
 _atom_site_type_symbol
 _atom_site_label
 _atom_site_symmetry_multiplicity
 _atom_site_fract_x
 _atom_site_fract_y
 _atom_site_fract_z
 _atom_site_occupancy
  C  C0  1  0.24191700  0.44924900  0.80511600  1
  C  C1  1  0.75808300  0.55075100  0.19488400  1
  C  C2  1  0.74191700  0.55075100  0.69488400  1
  C  C3  1  0.25808300  0.44924900  0.30511600  1
  C  C4  1  0.23860900  0.92099500  0.64758300  1
  C  C5  1  0.76139100  0.07900500  0.35241700  1
  C  C6  1  0.73860900  0.07900500  0.85241700  1
  C  C7  1  0.26139100  0.92099500  0.14758300  1
  C  C8  1  0.40817700  0.64685800  0.93812300  1
  C  C9  1  0.59182300  0.35314200  0.06187700  1
  C  C10  1  0.90817700  0.35314200  0.56187700  1
  C  C11  1  0.09182300  0.64685800  0.43812300  1
  C  C12  1  0.00203700  0.58701100  0.91512000  1
  C  C13  1  0.99796300  0.41298900  0.08488000  1
  C  C14  1  0.50203700  0.41298900  0.58488000  1
  C  C15  1  0.49796300  0.58701100  0.41512000  1
  Ni  Ni16  1  0.74625300  0.82914200  0.84949200  1
  Ni  Ni17  1  0.25374700  0.17085800  0.15050800  1
  Ni  Ni18  1  0.24625300  0.17085800  0.65050800  1
  Ni  Ni19  1  0.75374700  0.82914200  0.34949200  1
  Cu  Cu20  1  0.05043200  0.78396500  0.65235500  1
  Cu  Cu21  1  0.94956800  0.21603500  0.34764500  1
  Cu  Cu22  1  0.55043200  0.21603500  0.84764500  1
  Cu  Cu23  1  0.44956800  0.78396500  0.15235500  1
  Cu  Cu24  1  0.25688500  0.87921700  0.77194600  1
  Cu  Cu25  1  0.74311500  0.12078300  0.22805400  1
  Cu  Cu26  1  0.75688500  0.12078300  0.72805400  1
  Cu  Cu27  1  0.24311500  0.87921700  0.27194600  1
  Cu  Cu28  1  0.25049000  0.92343500  0.52299600  1
  Cu  Cu29  1  0.74951000  0.07656500  0.47700400  1
  Cu  Cu30  1  0.75049000  0.07656500  0.97700400  1
  Cu  Cu31  1  0.24951000  0.92343500  0.02299600  1
  Cu  Cu32  1  0.41160600  0.76483000  0.64055100  1
  Cu  Cu33  1  0.58839400  0.23517000  0.35944900  1
  Cu  Cu34  1  0.91160600  0.23517000  0.85944900  1
  Cu  Cu35  1  0.08839400  0.76483000  0.14055100  1
  C  C36  1  0.92731900  0.82507000  0.61103200  1
  C  C37  1  0.07268100  0.17493000  0.38896800  1
  C  C38  1  0.42731900  0.17493000  0.88896800  1
  C  C39  1  0.57268100  0.82507000  0.11103200  1
  C  C40  1  0.41875700  0.66321800  0.70452100  1
  C  C41  1  0.58124300  0.33678200  0.29547900  1
  C  C42  1  0.91875700  0.33678200  0.79547900  1
  C  C43  1  0.08124300  0.66321800  0.20452100  1
  C  C44  1  0.50651400  0.78112100  0.57292100  1
  C  C45  1  0.49348600  0.21887900  0.42707900  1
  C  C46  1  0.00651400  0.21887900  0.92707900  1
  C  C47  1  0.99348600  0.78112100  0.07292100  1
  C  C48  1  0.61526600  0.90699200  0.85185200  1
  C  C49  1  0.38473400  0.09300800  0.14814800  1
  C  C50  1  0.11526600  0.09300800  0.64814800  1
  C  C51  1  0.88473400  0.90699200  0.35185200  1
  C  C52  1  0.87525000  0.90919900  0.84961900  1
  C  C53  1  0.12475000  0.09080100  0.15038100  1
  C  C54  1  0.37525000  0.09080100  0.65038100  1
  C  C55  1  0.62475000  0.90919900  0.34961900  1
  C  C56  1  0.06511200  0.66479800  0.69830000  1
  C  C57  1  0.93488800  0.33520200  0.30170000  1
  C  C58  1  0.56511200  0.33520200  0.80170000  1
  C  C59  1  0.43488800  0.66479800  0.19830000  1
  C  C60  1  0.24665800  0.30192900  0.65350100  1
  C  C61  1  0.75334200  0.69807100  0.34649900  1
  C  C62  1  0.74665800  0.69807100  0.84649900  1
  C  C63  1  0.25334200  0.30192900  0.15350100  1
