# generated using pymatgen
data_Cu10Ni2C3
_symmetry_space_group_name_H-M   'P 1'
_cell_length_a   5.56633835
_cell_length_b   5.56633835
_cell_length_c   8.65741721
_cell_angle_alpha   65.03771049
_cell_angle_beta   65.03771049
_cell_angle_gamma   66.99330958
_symmetry_Int_Tables_number   1
_chemical_formula_structural   Cu10Ni2C3
_chemical_formula_sum   'Cu10 Ni2 C3'
_cell_volume   212.95464427
_cell_formula_units_Z   1
loop_
 _symmetry_equiv_pos_site_id
 _symmetry_equiv_pos_as_xyz
  1  'x, y, z'
loop_
 _atom_site_type_symbol
 _atom_site_label
 _atom_site_symmetry_multiplicity
 _atom_site_fract_x
 _atom_site_fract_y
 _atom_site_fract_z
 _atom_site_occupancy
  C  C0  1  0.50000000  0.50000000  0.50000000  1
  C  C1  1  0.00000000  0.50000000  0.00000000  1
  C  C2  1  0.50000000  0.00000000  0.00000000  1
  Ni  Ni3  1  0.06520700  0.06520700  0.72772800  1
  Ni  Ni4  1  0.93479300  0.93479300  0.27227200  1
  Cu  Cu5  1  0.16418300  0.16418300  0.81635600  1
  Cu  Cu6  1  0.83581700  0.83581700  0.18364400  1
  Cu  Cu7  1  0.16567100  0.16567100  0.53269600  1
  Cu  Cu8  1  0.83432900  0.83432900  0.46730400  1
  Cu  Cu9  1  0.75068700  0.15915100  0.78051700  1
  Cu  Cu10  1  0.15915100  0.75068700  0.78051700  1
  Cu  Cu11  1  0.24931300  0.84084900  0.21948300  1
  Cu  Cu12  1  0.84084900  0.24931300  0.21948300  1
  Cu  Cu13  1  0.32989400  0.32989400  0.03451900  1
  Cu  Cu14  1  0.67010600  0.67010600  0.96548100  1
