# generated using pymatgen
data_Cu3NiC2
_symmetry_space_group_name_H-M   'P 1'
_cell_length_a   5.99729100
_cell_length_b   6.75421000
_cell_length_c   8.58650300
_cell_angle_alpha   90.00000000
_cell_angle_beta   90.00000000
_cell_angle_gamma   90.00000000
_symmetry_Int_Tables_number   1
_chemical_formula_structural   Cu3NiC2
_chemical_formula_sum   'Cu12 Ni4 C8'
_cell_volume   347.81315799
_cell_formula_units_Z   4
loop_
 _symmetry_equiv_pos_site_id
 _symmetry_equiv_pos_as_xyz
  1  'x, y, z'
loop_
 _atom_site_type_symbol
 _atom_site_label
 _atom_site_symmetry_multiplicity
 _atom_site_fract_x
 _atom_site_fract_y
 _atom_site_fract_z
 _atom_site_occupancy
  C  C0  1  0.50000000  0.00000000  0.50000000  1
  C  C1  1  0.00000000  0.50000000  0.00000000  1
  C  C2  1  0.50000000  0.50000000  0.50000000  1
  C  C3  1  0.00000000  0.00000000  0.00000000  1
  C  C4  1  0.69304100  0.25000000  0.25075600  1
  C  C5  1  0.19304100  0.25000000  0.24924400  1
  C  C6  1  0.30695900  0.75000000  0.74924400  1
  C  C7  1  0.80695900  0.75000000  0.75075600  1
  Ni  Ni8  1  0.84957300  0.75000000  0.45915500  1
  Ni  Ni9  1  0.34957300  0.75000000  0.04084500  1
  Ni  Ni10  1  0.15042700  0.25000000  0.54084500  1
  Ni  Ni11  1  0.65042700  0.25000000  0.95915500  1
  Cu  Cu12  1  0.67504500  0.25000000  0.47921700  1
  Cu  Cu13  1  0.17504500  0.25000000  0.02078300  1
  Cu  Cu14  1  0.32495500  0.75000000  0.52078300  1
  Cu  Cu15  1  0.82495500  0.75000000  0.97921700  1
  Cu  Cu16  1  0.94717700  0.06271300  0.22354900  1
  Cu  Cu17  1  0.44717700  0.43728700  0.27645100  1
  Cu  Cu18  1  0.05282300  0.56271300  0.77645100  1
  Cu  Cu19  1  0.55282300  0.93728700  0.72354900  1
  Cu  Cu20  1  0.05282300  0.93728700  0.77645100  1
  Cu  Cu21  1  0.55282300  0.56271300  0.72354900  1
  Cu  Cu22  1  0.94717700  0.43728700  0.22354900  1
  Cu  Cu23  1  0.44717700  0.06271300  0.27645100  1
