# generated using pymatgen
data_CuNiC5
_symmetry_space_group_name_H-M   'P 1'
_cell_length_a   7.79307300
_cell_length_b   5.20593700
_cell_length_c   14.40613390
_cell_angle_alpha   86.54586748
_cell_angle_beta   90.00000000
_cell_angle_gamma   90.00000000
_symmetry_Int_Tables_number   1
_chemical_formula_structural   CuNiC5
_chemical_formula_sum   'Cu4 Ni4 C20'
_cell_volume   583.39865183
_cell_formula_units_Z   4
loop_
 _symmetry_equiv_pos_site_id
 _symmetry_equiv_pos_as_xyz
  1  'x, y, z'
loop_
 _atom_site_type_symbol
 _atom_site_label
 _atom_site_symmetry_multiplicity
 _atom_site_fract_x
 _atom_site_fract_y
 _atom_site_fract_z
 _atom_site_occupancy
  Ni  Ni0  1  0.18516100  0.53380000  0.88130000  1
  Ni  Ni1  1  0.68516100  0.46620000  0.61870000  1
  Ni  Ni2  1  0.81483900  0.46620000  0.11870000  1
  Ni  Ni3  1  0.31483900  0.53380000  0.38130000  1
  Cu  Cu4  1  0.27664600  0.19460900  0.12631900  1
  Cu  Cu5  1  0.77664600  0.80539100  0.37368100  1
  Cu  Cu6  1  0.72335400  0.80539100  0.87368100  1
  Cu  Cu7  1  0.22335400  0.19460900  0.62631900  1
  C  C8  1  0.16613100  0.23260000  0.07460200  1
  C  C9  1  0.66613100  0.76740000  0.42539800  1
  C  C10  1  0.83386900  0.76740000  0.92539800  1
  C  C11  1  0.33386900  0.23260000  0.57460200  1
  C  C12  1  0.18047200  0.72380300  0.77779600  1
  C  C13  1  0.68047200  0.27619700  0.72220400  1
  C  C14  1  0.81952800  0.27619700  0.22220400  1
  C  C15  1  0.31952800  0.72380300  0.27779600  1
  C  C16  1  0.03263800  0.29246600  0.84728600  1
  C  C17  1  0.53263800  0.70753400  0.65271400  1
  C  C18  1  0.96736200  0.70753400  0.15271400  1
  C  C19  1  0.46736200  0.29246600  0.34728600  1
  C  C20  1  0.37304500  0.36073600  0.86627500  1
  C  C21  1  0.87304500  0.63926400  0.63372500  1
  C  C22  1  0.62695500  0.63926400  0.13372500  1
  C  C23  1  0.12695500  0.36073600  0.36627500  1
  C  C24  1  0.27626000  0.76311400  0.95825600  1
  C  C25  1  0.77626000  0.23688600  0.54174400  1
  C  C26  1  0.72374000  0.23688600  0.04174400  1
  C  C27  1  0.22374000  0.76311400  0.45825600  1
