# generated using pymatgen
data_CuNiC11
_symmetry_space_group_name_H-M   'P 1'
_cell_length_a   6.38258187
_cell_length_b   6.38258187
_cell_length_c   10.40487600
_cell_angle_alpha   90.00000000
_cell_angle_beta   90.00000000
_cell_angle_gamma   119.99999862
_symmetry_Int_Tables_number   1
_chemical_formula_structural   CuNiC11
_chemical_formula_sum   'Cu2 Ni2 C22'
_cell_volume   367.07967176
_cell_formula_units_Z   2
loop_
 _symmetry_equiv_pos_site_id
 _symmetry_equiv_pos_as_xyz
  1  'x, y, z'
loop_
 _atom_site_type_symbol
 _atom_site_label
 _atom_site_symmetry_multiplicity
 _atom_site_fract_x
 _atom_site_fract_y
 _atom_site_fract_z
 _atom_site_occupancy
  Ni  Ni0  1  0.33333300  0.66666700  0.97725100  1
  Ni  Ni1  1  0.66666700  0.33333300  0.47725100  1
  Cu  Cu2  1  0.33333300  0.66666700  0.37351700  1
  Cu  Cu3  1  0.66666700  0.33333300  0.87351700  1
  C  C4  1  0.83047500  0.16952500  0.18370100  1
  C  C5  1  0.66094900  0.83047500  0.68370100  1
  C  C6  1  0.16952500  0.33905100  0.68370100  1
  C  C7  1  0.83047500  0.66094900  0.18370100  1
  C  C8  1  0.33905100  0.16952500  0.18370100  1
  C  C9  1  0.16952500  0.83047500  0.68370100  1
  C  C10  1  0.00000000  0.00000000  0.93885800  1
  C  C11  1  0.00000000  0.00000000  0.43885800  1
  C  C12  1  0.83219800  0.16780200  0.99914300  1
  C  C13  1  0.66439600  0.83219800  0.49914300  1
  C  C14  1  0.16780200  0.33560400  0.49914300  1
  C  C15  1  0.83219800  0.66439600  0.99914300  1
  C  C16  1  0.33560400  0.16780200  0.99914300  1
  C  C17  1  0.16780200  0.83219800  0.49914300  1
  C  C18  1  0.00000000  0.00000000  0.74038900  1
  C  C19  1  0.00000000  0.00000000  0.24038900  1
  C  C20  1  0.50798500  0.49201500  0.25648400  1
  C  C21  1  0.01596900  0.50798500  0.75648400  1
  C  C22  1  0.49201500  0.98403100  0.75648400  1
  C  C23  1  0.50798500  0.01596900  0.25648400  1
  C  C24  1  0.49201500  0.50798500  0.75648400  1
  C  C25  1  0.98403100  0.49201500  0.25648400  1
