# generated using pymatgen
data_Cu15Ni7C
_symmetry_space_group_name_H-M   'P 1'
_cell_length_a   11.34557150
_cell_length_b   11.34557150
_cell_length_c   9.48534700
_cell_angle_alpha   90.00000000
_cell_angle_beta   90.00000000
_cell_angle_gamma   119.99999711
_symmetry_Int_Tables_number   1
_chemical_formula_structural   Cu15Ni7C
_chemical_formula_sum   'Cu45 Ni21 C3'
_cell_volume   1057.39346508
_cell_formula_units_Z   3
loop_
 _symmetry_equiv_pos_site_id
 _symmetry_equiv_pos_as_xyz
  1  'x, y, z'
loop_
 _atom_site_type_symbol
 _atom_site_label
 _atom_site_symmetry_multiplicity
 _atom_site_fract_x
 _atom_site_fract_y
 _atom_site_fract_z
 _atom_site_occupancy
  C  C0  1  0.33094700  0.00000000  0.33333300  1
  C  C1  1  0.00000000  0.33094700  0.66666700  1
  C  C2  1  0.66905300  0.66905300  0.00000000  1
  Ni  Ni3  1  0.10015000  0.36095000  0.37535000  1
  Ni  Ni4  1  0.63905000  0.73920000  0.70868300  1
  Ni  Ni5  1  0.26080000  0.89985000  0.04201600  1
  Ni  Ni6  1  0.08210600  0.00000000  0.33333300  1
  Ni  Ni7  1  0.00000000  0.08210600  0.66666700  1
  Ni  Ni8  1  0.91789400  0.91789400  0.00000000  1
  Ni  Ni9  1  0.24890200  0.58179900  0.72683700  1
  Ni  Ni10  1  0.41820100  0.66710300  0.06017000  1
  Ni  Ni11  1  0.33289700  0.75109800  0.39350300  1
  Ni  Ni12  1  0.45283700  0.45283700  0.50000000  1
  Ni  Ni13  1  0.54716300  0.00000000  0.83333300  1
  Ni  Ni14  1  0.00000000  0.54716300  0.16666700  1
  Ni  Ni15  1  0.58179900  0.24890200  0.27316300  1
  Ni  Ni16  1  0.75109800  0.33289700  0.60649700  1
  Ni  Ni17  1  0.66710300  0.41820100  0.93983000  1
  Ni  Ni18  1  0.36095000  0.10015000  0.62465000  1
  Ni  Ni19  1  0.89985000  0.26080000  0.95798400  1
  Ni  Ni20  1  0.73920000  0.63905000  0.29131700  1
  Ni  Ni21  1  0.72753900  0.00000000  0.33333300  1
  Ni  Ni22  1  0.00000000  0.72753900  0.66666700  1
  Ni  Ni23  1  0.27246100  0.27246100  0.00000000  1
  Cu  Cu24  1  0.33523500  0.15625300  0.52164000  1
  Cu  Cu25  1  0.84374700  0.17898200  0.85497400  1
  Cu  Cu26  1  0.82101800  0.66476500  0.18830700  1
  Cu  Cu27  1  0.37311700  0.13884900  0.74612900  1
  Cu  Cu28  1  0.86115100  0.23426700  0.07946200  1
  Cu  Cu29  1  0.76573300  0.62688300  0.41279600  1
  Cu  Cu30  1  0.57512200  0.13837900  0.31297500  1
  Cu  Cu31  1  0.86162100  0.43674300  0.64630800  1
  Cu  Cu32  1  0.56325700  0.42487800  0.97964200  1
  Cu  Cu33  1  0.00248800  0.37686000  0.92195700  1
  Cu  Cu34  1  0.62314000  0.62562800  0.25529100  1
  Cu  Cu35  1  0.37437200  0.99751200  0.58862400  1
  Cu  Cu36  1  0.46805100  0.24447000  0.25475600  1
  Cu  Cu37  1  0.75553000  0.22358100  0.58808900  1
  Cu  Cu38  1  0.77641900  0.53194900  0.92142200  1
  Cu  Cu39  1  0.08537500  0.18373400  0.73697300  1
  Cu  Cu40  1  0.81626600  0.90164100  0.07030700  1
  Cu  Cu41  1  0.09835900  0.91462500  0.40364000  1
  Cu  Cu42  1  0.13884900  0.37311700  0.25387100  1
  Cu  Cu43  1  0.62688300  0.76573300  0.58720400  1
  Cu  Cu44  1  0.23426700  0.86115100  0.92053800  1
  Cu  Cu45  1  0.15625300  0.33523500  0.47836000  1
  Cu  Cu46  1  0.66476500  0.82101800  0.81169300  1
  Cu  Cu47  1  0.17898200  0.84374700  0.14502600  1
  Cu  Cu48  1  0.64627100  0.33789200  0.58192700  1
  Cu  Cu49  1  0.66210800  0.30838000  0.91526000  1
  Cu  Cu50  1  0.69162000  0.35372900  0.24859400  1
  Cu  Cu51  1  0.13837900  0.57512200  0.68702500  1
  Cu  Cu52  1  0.42487800  0.56325700  0.02035800  1
  Cu  Cu53  1  0.43674300  0.86162100  0.35369200  1
  Cu  Cu54  1  0.02563400  0.02563400  0.00000000  1
  Cu  Cu55  1  0.97436600  0.00000000  0.33333300  1
  Cu  Cu56  1  0.00000000  0.97436600  0.66666700  1
  Cu  Cu57  1  0.99751200  0.37437200  0.41137600  1
  Cu  Cu58  1  0.62562800  0.62314000  0.74470900  1
  Cu  Cu59  1  0.37686000  0.00248800  0.07804300  1
  Cu  Cu60  1  0.33789200  0.64627100  0.41807300  1
  Cu  Cu61  1  0.35372900  0.69162000  0.75140600  1
  Cu  Cu62  1  0.30838000  0.66210800  0.08474000  1
  Cu  Cu63  1  0.18373400  0.08537500  0.26302700  1
  Cu  Cu64  1  0.91462500  0.09835900  0.59636000  1
  Cu  Cu65  1  0.90164100  0.81626600  0.92969300  1
  Cu  Cu66  1  0.24447000  0.46805100  0.74524400  1
  Cu  Cu67  1  0.53194900  0.77641900  0.07857800  1
  Cu  Cu68  1  0.22358100  0.75553000  0.41191100  1
