# generated using pymatgen
data_Cu(NiC4)3
_symmetry_space_group_name_H-M   'P 1'
_cell_length_a   13.36400835
_cell_length_b   13.36400835
_cell_length_c   13.36400905
_cell_angle_alpha   17.35456304
_cell_angle_beta   17.35456304
_cell_angle_gamma   17.35456579
_symmetry_Int_Tables_number   1
_chemical_formula_structural   Cu(NiC4)3
_chemical_formula_sum   'Cu1 Ni3 C12'
_cell_volume   185.31387579
_cell_formula_units_Z   1
loop_
 _symmetry_equiv_pos_site_id
 _symmetry_equiv_pos_as_xyz
  1  'x, y, z'
loop_
 _atom_site_type_symbol
 _atom_site_label
 _atom_site_symmetry_multiplicity
 _atom_site_fract_x
 _atom_site_fract_y
 _atom_site_fract_z
 _atom_site_occupancy
  Ni  Ni0  1  0.75067800  0.75067800  0.75067800  1
  Ni  Ni1  1  0.00000000  0.00000000  0.00000000  1
  Ni  Ni2  1  0.24932200  0.24932200  0.24932200  1
  C  C3  1  0.62470600  0.62470600  0.62470600  1
  C  C4  1  0.37529400  0.37529400  0.37529400  1
  C  C5  1  0.87510800  0.87510800  0.87510800  1
  C  C6  1  0.12489200  0.12489200  0.12489200  1
  C  C7  1  0.93715300  0.93715300  0.93715300  1
  C  C8  1  0.68772200  0.68772200  0.68772200  1
  C  C9  1  0.18595800  0.18595800  0.18595800  1
  C  C10  1  0.43967100  0.43967100  0.43967100  1
  C  C11  1  0.56032900  0.56032900  0.56032900  1
  C  C12  1  0.31227800  0.31227800  0.31227800  1
  C  C13  1  0.81404200  0.81404200  0.81404200  1
  C  C14  1  0.06284700  0.06284700  0.06284700  1
  Cu  Cu15  1  0.50000000  0.50000000  0.50000000  1
