# generated using pymatgen
data_Cu2NiC4
_symmetry_space_group_name_H-M   'P 1'
_cell_length_a   5.97812688
_cell_length_b   5.97812688
_cell_length_c   14.60671300
_cell_angle_alpha   90.00000000
_cell_angle_beta   90.00000000
_cell_angle_gamma   120.00000975
_symmetry_Int_Tables_number   1
_chemical_formula_structural   Cu2NiC4
_chemical_formula_sum   'Cu12 Ni6 C24'
_cell_volume   452.07796759
_cell_formula_units_Z   6
loop_
 _symmetry_equiv_pos_site_id
 _symmetry_equiv_pos_as_xyz
  1  'x, y, z'
loop_
 _atom_site_type_symbol
 _atom_site_label
 _atom_site_symmetry_multiplicity
 _atom_site_fract_x
 _atom_site_fract_y
 _atom_site_fract_z
 _atom_site_occupancy
  Ni  Ni0  1  0.66666700  0.33333300  0.95589800  1
  Ni  Ni1  1  0.33333300  0.66666700  0.62429600  1
  Ni  Ni2  1  0.33333300  0.66666700  0.99892800  1
  Ni  Ni3  1  0.00000000  0.00000000  0.29101800  1
  Ni  Ni4  1  0.66666700  0.33333300  0.70991100  1
  Ni  Ni5  1  0.33333300  0.66666700  0.37520200  1
  Cu  Cu6  1  0.16795700  0.83204300  0.83366400  1
  Cu  Cu7  1  0.16795700  0.33591500  0.83366400  1
  Cu  Cu8  1  0.83322100  0.16677900  0.50010500  1
  Cu  Cu9  1  0.66408500  0.83204300  0.83366400  1
  Cu  Cu10  1  0.00000000  0.00000000  0.66704700  1
  Cu  Cu11  1  0.83322100  0.66644200  0.50010500  1
  Cu  Cu12  1  0.50052100  0.49947900  0.16679000  1
  Cu  Cu13  1  0.33355800  0.16677900  0.50010500  1
  Cu  Cu14  1  0.99895700  0.49947900  0.16679000  1
  Cu  Cu15  1  0.66666700  0.33333300  0.33316500  1
  Cu  Cu16  1  0.50052100  0.00104300  0.16679000  1
  Cu  Cu17  1  0.00000000  0.00000000  0.04458300  1
  C  C18  1  0.48902300  0.97804700  0.90647300  1
  C  C19  1  0.33333300  0.66666700  0.75878800  1
  C  C20  1  0.02195300  0.51097700  0.90647300  1
  C  C21  1  0.48902300  0.51097700  0.90647300  1
  C  C22  1  0.84883400  0.15116600  0.75323300  1
  C  C23  1  0.15437000  0.30874100  0.57746300  1
  C  C24  1  0.30233100  0.15116600  0.75323300  1
  C  C25  1  0.00000000  0.00000000  0.90932300  1
  C  C26  1  0.69125900  0.84563000  0.57746300  1
  C  C27  1  0.00000000  0.00000000  0.42609100  1
  C  C28  1  0.84883400  0.69766900  0.75323300  1
  C  C29  1  0.15437000  0.84563000  0.57746300  1
  C  C30  1  0.51262200  0.48737800  0.42144600  1
  C  C31  1  0.81887500  0.63775100  0.24868200  1
  C  C32  1  0.97475500  0.48737800  0.42144600  1
  C  C33  1  0.66666700  0.33333300  0.57444600  1
  C  C34  1  0.66666700  0.33333300  0.09199600  1
  C  C35  1  0.36224900  0.18112500  0.24868200  1
  C  C36  1  0.51262200  0.02524500  0.42144600  1
  C  C37  1  0.81887500  0.18112500  0.24868200  1
  C  C38  1  0.17587500  0.82412500  0.09110100  1
  C  C39  1  0.33333300  0.66666700  0.24055000  1
  C  C40  1  0.64824900  0.82412500  0.09110100  1
  C  C41  1  0.17587500  0.35175100  0.09110100  1
