# generated using pymatgen
data_Cu2NiC9
_symmetry_space_group_name_H-M   'P 1'
_cell_length_a   10.14363418
_cell_length_b   6.08351500
_cell_length_c   4.98758857
_cell_angle_alpha   90.00000000
_cell_angle_beta   90.13102609
_cell_angle_gamma   90.00000000
_symmetry_Int_Tables_number   1
_chemical_formula_structural   Cu2NiC9
_chemical_formula_sum   'Cu4 Ni2 C18'
_cell_volume   307.77805255
_cell_formula_units_Z   2
loop_
 _symmetry_equiv_pos_site_id
 _symmetry_equiv_pos_as_xyz
  1  'x, y, z'
loop_
 _atom_site_type_symbol
 _atom_site_label
 _atom_site_symmetry_multiplicity
 _atom_site_fract_x
 _atom_site_fract_y
 _atom_site_fract_z
 _atom_site_occupancy
  C  C0  1  0.27615000  0.25000000  0.94664800  1
  C  C1  1  0.72385000  0.75000000  0.05335200  1
  Ni  Ni2  1  0.22146000  0.75000000  0.46800400  1
  Ni  Ni3  1  0.77854000  0.25000000  0.53199600  1
  Cu  Cu4  1  0.09519400  0.25000000  0.41950900  1
  Cu  Cu5  1  0.40310900  0.75000000  0.90740200  1
  Cu  Cu6  1  0.59689100  0.25000000  0.09259800  1
  Cu  Cu7  1  0.90480600  0.75000000  0.58049100  1
  C  C8  1  0.05063800  0.75000000  0.67940000  1
  C  C9  1  0.10489200  0.25000000  0.72083300  1
  C  C10  1  0.16803700  0.04893300  0.28136900  1
  C  C11  1  0.16803700  0.45106700  0.28136900  1
  C  C12  1  0.32616500  0.94528400  0.76276600  1
  C  C13  1  0.32616500  0.55471600  0.76276600  1
  C  C14  1  0.37791700  0.75000000  0.21375200  1
  C  C15  1  0.45174900  0.25000000  0.14939900  1
  C  C16  1  0.54825100  0.75000000  0.85060100  1
  C  C17  1  0.62208300  0.25000000  0.78624900  1
  C  C18  1  0.67383500  0.05471600  0.23723400  1
  C  C19  1  0.67383500  0.44528400  0.23723400  1
  C  C20  1  0.83196300  0.54893300  0.71863100  1
  C  C21  1  0.83196300  0.95106700  0.71863100  1
  C  C22  1  0.89510800  0.75000000  0.27916700  1
  C  C23  1  0.94936200  0.25000000  0.32060000  1
