# generated using pymatgen
data_CuNiC8
_symmetry_space_group_name_H-M   'P 1'
_cell_length_a   8.53590290
_cell_length_b   8.54157365
_cell_length_c   8.61920581
_cell_angle_alpha   90.00000000
_cell_angle_beta   90.00000000
_cell_angle_gamma   90.00000000
_symmetry_Int_Tables_number   1
_chemical_formula_structural   CuNiC8
_chemical_formula_sum   'Cu4 Ni4 C32'
_cell_volume   628.42666873
_cell_formula_units_Z   4
loop_
 _symmetry_equiv_pos_site_id
 _symmetry_equiv_pos_as_xyz
  1  'x, y, z'
loop_
 _atom_site_type_symbol
 _atom_site_label
 _atom_site_symmetry_multiplicity
 _atom_site_fract_x
 _atom_site_fract_y
 _atom_site_fract_z
 _atom_site_occupancy
  Ni  Ni0  1  0.50000000  -0.00000000  0.50000000  1
  Ni  Ni1  1  0.50000000  0.50000000  -0.00000000  1
  Ni  Ni2  1  0.00000000  0.50000000  -0.00000000  1
  Ni  Ni3  1  -0.00000000  -0.00000000  0.50000000  1
  Cu  Cu4  1  0.00000000  0.50000000  0.50000000  1
  Cu  Cu5  1  0.50000000  0.00000000  -0.00000000  1
  Cu  Cu6  1  0.00000000  -0.00000000  -0.00000000  1
  Cu  Cu7  1  0.50000000  0.50000000  0.50000000  1
  C  C8  1  0.25000000  0.25000000  0.25000000  1
  C  C9  1  0.75000000  0.75000000  0.25000000  1
  C  C10  1  0.75000000  0.25000000  0.75000000  1
  C  C11  1  0.25000000  0.75000000  0.75000000  1
  C  C12  1  0.75000000  0.75000000  0.75000000  1
  C  C13  1  0.25000000  0.25000000  0.75000000  1
  C  C14  1  0.25000000  0.75000000  0.25000000  1
  C  C15  1  0.75000000  0.25000000  0.25000000  1
  C  C16  1  0.99257066  0.21685053  0.27246282  1
  C  C17  1  0.00742934  0.78314947  0.27246282  1
  C  C18  1  0.00742934  0.21685053  0.72753718  1
  C  C19  1  0.99257066  0.78314947  0.72753718  1
  C  C20  1  0.28315598  0.99214502  0.19510969  1
  C  C21  1  0.28315598  0.00785498  0.80489031  1
  C  C22  1  0.71684402  0.00785498  0.19510969  1
  C  C23  1  0.71684402  0.99214502  0.80489031  1
  C  C24  1  0.21515233  0.26538376  0.99263339  1
  C  C25  1  0.78484767  0.26538376  0.00736661  1
  C  C26  1  0.21515233  0.73461624  0.00736661  1
  C  C27  1  0.78484767  0.73461624  0.99263339  1
  C  C28  1  0.50742934  0.28314947  0.22753718  1
  C  C29  1  0.49257066  0.71685053  0.22753718  1
  C  C30  1  0.49257066  0.28314947  0.77246282  1
  C  C31  1  0.50742934  0.71685053  0.77246282  1
  C  C32  1  0.21684402  0.50785498  0.30489031  1
  C  C33  1  0.21684402  0.49214502  0.69510969  1
  C  C34  1  0.78315598  0.49214502  0.30489031  1
  C  C35  1  0.78315598  0.50785498  0.69510969  1
  C  C36  1  0.28484767  0.23461624  0.50736661  1
  C  C37  1  0.71515233  0.23461624  0.49263339  1
  C  C38  1  0.28484767  0.76538376  0.49263339  1
  C  C39  1  0.71515233  0.76538376  0.50736661  1
