# generated using pymatgen
data_CuNi2C3
_symmetry_space_group_name_H-M   'P 1'
_cell_length_a   7.50401026
_cell_length_b   7.50401026
_cell_length_c   7.50400965
_cell_angle_alpha   33.60413676
_cell_angle_beta   33.60413676
_cell_angle_gamma   33.60413833
_symmetry_Int_Tables_number   1
_chemical_formula_structural   CuNi2C3
_chemical_formula_sum   'Cu1 Ni2 C3'
_cell_volume   115.29648261
_cell_formula_units_Z   1
loop_
 _symmetry_equiv_pos_site_id
 _symmetry_equiv_pos_as_xyz
  1  'x, y, z'
loop_
 _atom_site_type_symbol
 _atom_site_label
 _atom_site_symmetry_multiplicity
 _atom_site_fract_x
 _atom_site_fract_y
 _atom_site_fract_z
 _atom_site_occupancy
  Ni  Ni0  1  0.99897200  0.99897200  0.99897200  1
  Ni  Ni1  1  0.50065700  0.50065700  0.50065700  1
  Cu  Cu2  1  0.75037900  0.75037900  0.75037900  1
  C  C3  1  0.12161200  0.12161200  0.12161200  1
  C  C4  1  0.62906200  0.62906200  0.62906200  1
  C  C5  1  0.24931800  0.24931800  0.24931800  1
