# generated using pymatgen
data_Cu2Ni4C9
_symmetry_space_group_name_H-M   'P 1'
_cell_length_a   4.99071400
_cell_length_b   10.89703100
_cell_length_c   12.13460600
_cell_angle_alpha   90.00000000
_cell_angle_beta   90.00000000
_cell_angle_gamma   90.00000000
_symmetry_Int_Tables_number   1
_chemical_formula_structural   Cu2Ni4C9
_chemical_formula_sum   'Cu8 Ni16 C36'
_cell_volume   659.92799006
_cell_formula_units_Z   4
loop_
 _symmetry_equiv_pos_site_id
 _symmetry_equiv_pos_as_xyz
  1  'x, y, z'
loop_
 _atom_site_type_symbol
 _atom_site_label
 _atom_site_symmetry_multiplicity
 _atom_site_fract_x
 _atom_site_fract_y
 _atom_site_fract_z
 _atom_site_occupancy
  Ni  Ni0  1  0.87781000  0.02630400  0.35983600  1
  Ni  Ni1  1  0.37781000  0.47369600  0.64016400  1
  Ni  Ni2  1  0.12219000  0.52630400  0.14016400  1
  Ni  Ni3  1  0.62219000  0.97369600  0.85983600  1
  Ni  Ni4  1  0.12219000  0.97369600  0.64016400  1
  Ni  Ni5  1  0.62219000  0.52630400  0.35983600  1
  Ni  Ni6  1  0.87781000  0.47369600  0.85983600  1
  Ni  Ni7  1  0.37781000  0.02630400  0.14016400  1
  Ni  Ni8  1  0.68326600  0.14562300  0.34789800  1
  Ni  Ni9  1  0.18326600  0.35437700  0.65210200  1
  Ni  Ni10  1  0.31673400  0.64562300  0.15210200  1
  Ni  Ni11  1  0.81673400  0.85437700  0.84789800  1
  Ni  Ni12  1  0.31673400  0.85437700  0.65210200  1
  Ni  Ni13  1  0.81673400  0.64562300  0.34789800  1
  Ni  Ni14  1  0.68326600  0.35437700  0.84789800  1
  Ni  Ni15  1  0.18326600  0.14562300  0.15210200  1
  C  C16  1  0.50000000  0.00000000  0.50000000  1
  C  C17  1  0.00000000  0.50000000  0.50000000  1
  C  C18  1  0.50000000  0.50000000  0.00000000  1
  C  C19  1  0.00000000  0.00000000  0.00000000  1
  Cu  Cu20  1  0.84627800  0.17400200  0.61456900  1
  Cu  Cu21  1  0.34627800  0.32599800  0.38543100  1
  Cu  Cu22  1  0.15372200  0.67400200  0.88543100  1
  Cu  Cu23  1  0.65372200  0.82599800  0.11456900  1
  Cu  Cu24  1  0.15372200  0.82599800  0.38543100  1
  Cu  Cu25  1  0.65372200  0.67400200  0.61456900  1
  Cu  Cu26  1  0.84627800  0.32599800  0.11456900  1
  Cu  Cu27  1  0.34627800  0.17400200  0.88543100  1
  C  C28  1  0.68952500  0.05483900  0.35666200  1
  C  C29  1  0.18952500  0.44516100  0.64333800  1
  C  C30  1  0.31047500  0.55483900  0.14333800  1
  C  C31  1  0.81047500  0.94516100  0.85666200  1
  C  C32  1  0.31047500  0.94516100  0.64333800  1
  C  C33  1  0.81047500  0.55483900  0.35666200  1
  C  C34  1  0.68952500  0.44516100  0.85666200  1
  C  C35  1  0.18952500  0.05483900  0.14333800  1
  C  C36  1  0.81392500  0.05356800  0.59480800  1
  C  C37  1  0.31392500  0.44643200  0.40519200  1
  C  C38  1  0.18607500  0.55356800  0.90519200  1
  C  C39  1  0.68607500  0.94643200  0.09480800  1
  C  C40  1  0.18607500  0.94643200  0.40519200  1
  C  C41  1  0.68607500  0.55356800  0.59480800  1
  C  C42  1  0.81392500  0.44643200  0.09480800  1
  C  C43  1  0.31392500  0.05356800  0.90519200  1
  C  C44  1  0.67924200  0.24765600  0.58085300  1
  C  C45  1  0.17924200  0.25234400  0.41914700  1
  C  C46  1  0.32075800  0.74765600  0.91914700  1
  C  C47  1  0.82075800  0.75234400  0.08085300  1
  C  C48  1  0.32075800  0.75234400  0.41914700  1
  C  C49  1  0.82075800  0.74765600  0.58085300  1
  C  C50  1  0.67924200  0.25234400  0.08085300  1
  C  C51  1  0.17924200  0.24765600  0.91914700  1
  C  C52  1  0.05396600  0.19997300  0.66697300  1
  C  C53  1  0.55396600  0.30002700  0.33302700  1
  C  C54  1  0.94603400  0.69997300  0.83302700  1
  C  C55  1  0.44603400  0.80002700  0.16697300  1
  C  C56  1  0.94603400  0.80002700  0.33302700  1
  C  C57  1  0.44603400  0.69997300  0.66697300  1
  C  C58  1  0.05396600  0.30002700  0.16697300  1
  C  C59  1  0.55396600  0.19997300  0.83302700  1
