# generated using pymatgen
data_Cu(NiC3)3
_symmetry_space_group_name_H-M   'P 1'
_cell_length_a   7.39639494
_cell_length_b   7.39639494
_cell_length_c   10.27587441
_cell_angle_alpha   46.45436380
_cell_angle_beta   46.45436380
_cell_angle_gamma   23.55698981
_symmetry_Int_Tables_number   1
_chemical_formula_structural   Cu(NiC3)3
_chemical_formula_sum   'Cu1 Ni3 C9'
_cell_volume   159.61832719
_cell_formula_units_Z   1
loop_
 _symmetry_equiv_pos_site_id
 _symmetry_equiv_pos_as_xyz
  1  'x, y, z'
loop_
 _atom_site_type_symbol
 _atom_site_label
 _atom_site_symmetry_multiplicity
 _atom_site_fract_x
 _atom_site_fract_y
 _atom_site_fract_z
 _atom_site_occupancy
  C  C0  1  0.00093700  0.00093700  0.99990900  1
  Ni  Ni1  1  0.84447100  0.84447100  0.82486800  1
  Ni  Ni2  1  0.66397000  0.66397000  0.48138200  1
  Ni  Ni3  1  0.33354800  0.33354800  0.51644700  1
  Cu  Cu4  1  0.14894100  0.14894100  0.18575000  1
  C  C5  1  0.33450900  0.33450900  0.70561700  1
  C  C6  1  0.66689900  0.66689900  0.29689500  1
  C  C7  1  0.95536500  0.95536500  0.37871800  1
  C  C8  1  0.04144800  0.04144800  0.62517800  1
  C  C9  1  0.35068300  0.35068300  0.94192300  1
  C  C10  1  0.65976400  0.65976400  0.04057000  1
  C  C11  1  0.70589800  0.70589800  0.63949000  1
  C  C12  1  0.29356600  0.29356600  0.36325500  1
