# generated using pymatgen
data_Cu5Ni4C11
_symmetry_space_group_name_H-M   'P 1'
_cell_length_a   8.33169440
_cell_length_b   8.33169440
_cell_length_c   9.10472359
_cell_angle_alpha   78.94053971
_cell_angle_beta   78.94053971
_cell_angle_gamma   77.13352526
_symmetry_Int_Tables_number   1
_chemical_formula_structural   Cu5Ni4C11
_chemical_formula_sum   'Cu10 Ni8 C22'
_cell_volume   597.32312560
_cell_formula_units_Z   2
loop_
 _symmetry_equiv_pos_site_id
 _symmetry_equiv_pos_as_xyz
  1  'x, y, z'
loop_
 _atom_site_type_symbol
 _atom_site_label
 _atom_site_symmetry_multiplicity
 _atom_site_fract_x
 _atom_site_fract_y
 _atom_site_fract_z
 _atom_site_occupancy
  C  C0  1  0.26299500  0.73700500  0.75000000  1
  C  C1  1  0.73700500  0.26299500  0.25000000  1
  C  C2  1  0.32044600  0.47524700  0.00071200  1
  C  C3  1  0.52475300  0.67955400  0.49928800  1
  C  C4  1  0.67955400  0.52475300  0.99928800  1
  C  C5  1  0.47524700  0.32044600  0.50071200  1
  C  C6  1  0.39121800  0.39511800  0.83783600  1
  C  C7  1  0.60488200  0.60878200  0.66216400  1
  C  C8  1  0.60878200  0.60488200  0.16216400  1
  C  C9  1  0.39511800  0.39121800  0.33783600  1
  C  C10  1  0.21570900  0.59520100  0.21364100  1
  C  C11  1  0.40479900  0.78429100  0.28635900  1
  C  C12  1  0.78429100  0.40479900  0.78635900  1
  C  C13  1  0.59520100  0.21570900  0.71364100  1
  C  C14  1  0.15449400  0.42723400  0.22434900  1
  C  C15  1  0.57276600  0.84550600  0.27565100  1
  C  C16  1  0.84550600  0.57276600  0.77565100  1
  C  C17  1  0.42723400  0.15449400  0.72434900  1
  C  C18  1  0.15891200  0.89234200  0.16355500  1
  C  C19  1  0.10765800  0.84108800  0.33644500  1
  C  C20  1  0.84108800  0.10765800  0.83644500  1
  C  C21  1  0.89234200  0.15891200  0.66355500  1
  Ni  Ni22  1  0.13715700  0.57757300  0.59848600  1
  Ni  Ni23  1  0.42242700  0.86284300  0.90151400  1
  Ni  Ni24  1  0.86284300  0.42242700  0.40151400  1
  Ni  Ni25  1  0.57757300  0.13715700  0.09848600  1
  Ni  Ni26  1  0.98473400  0.78372500  0.93608900  1
  Ni  Ni27  1  0.21627500  0.01526600  0.56391100  1
  Ni  Ni28  1  0.01526600  0.21627500  0.06391100  1
  Ni  Ni29  1  0.78372500  0.98473400  0.43608900  1
  Cu  Cu30  1  0.34732300  0.49661600  0.88726800  1
  Cu  Cu31  1  0.50338400  0.65267700  0.61273200  1
  Cu  Cu32  1  0.65267700  0.50338400  0.11273200  1
  Cu  Cu33  1  0.49661600  0.34732300  0.38726800  1
  Cu  Cu34  1  0.25511200  0.47602200  0.19959200  1
  Cu  Cu35  1  0.52397800  0.74488800  0.30040800  1
  Cu  Cu36  1  0.74488800  0.52397800  0.80040800  1
  Cu  Cu37  1  0.47602200  0.25511200  0.69959200  1
  Cu  Cu38  1  0.19083300  0.80916700  0.25000000  1
  Cu  Cu39  1  0.80916700  0.19083300  0.75000000  1
