# generated using pymatgen
data_Cu7Ni5C7
_symmetry_space_group_name_H-M   'P 1'
_cell_length_a   7.96268563
_cell_length_b   6.29833862
_cell_length_c   5.96630483
_cell_angle_alpha   73.35960007
_cell_angle_beta   70.36790234
_cell_angle_gamma   64.09961433
_symmetry_Int_Tables_number   1
_chemical_formula_structural   Cu7Ni5C7
_chemical_formula_sum   'Cu7 Ni5 C7'
_cell_volume   250.05312479
_cell_formula_units_Z   1
loop_
 _symmetry_equiv_pos_site_id
 _symmetry_equiv_pos_as_xyz
  1  'x, y, z'
loop_
 _atom_site_type_symbol
 _atom_site_label
 _atom_site_symmetry_multiplicity
 _atom_site_fract_x
 _atom_site_fract_y
 _atom_site_fract_z
 _atom_site_occupancy
  C  C0  1  0.33674400  0.16548900  0.68311500  1
  C  C1  1  0.86927900  0.71343800  0.68471600  1
  C  C2  1  0.66084600  0.33862300  0.29726500  1
  C  C3  1  0.31859200  0.69528100  0.64102800  1
  C  C4  1  0.13633500  0.30035600  0.28326800  1
  C  C5  1  0.62804000  0.85295500  0.26498800  1
  C  C6  1  0.98510100  0.02221000  0.99736100  1
  Ni  Ni7  1  0.59435500  0.55386100  0.51430600  1
  Ni  Ni8  1  0.93836900  0.21323700  0.22909100  1
  Ni  Ni9  1  0.71270600  0.12712000  0.08179800  1
  Ni  Ni10  1  0.04282400  0.82756900  0.76184900  1
  Ni  Ni11  1  0.33259400  0.99257200  0.43853600  1
  Cu  Cu12  1  0.62303200  0.02160700  0.59710600  1
  Cu  Cu13  1  0.30468200  0.38454400  0.89122700  1
  Cu  Cu14  1  0.26980600  0.91835000  0.94347300  1
  Cu  Cu15  1  0.36482100  0.42681700  0.39227300  1
  Cu  Cu16  1  0.67302200  0.65253700  0.00468100  1
  Cu  Cu17  1  0.04695800  0.33479100  0.69427200  1
  Cu  Cu18  1  0.95818700  0.67739300  0.30797700  1
