# generated using pymatgen
data_Cu4Ni10C51
_symmetry_space_group_name_H-M   'P 1'
_cell_length_a   3.85408800
_cell_length_b   11.87431800
_cell_length_c   19.62205800
_cell_angle_alpha   90.00000000
_cell_angle_beta   90.00000000
_cell_angle_gamma   90.00000000
_symmetry_Int_Tables_number   1
_chemical_formula_structural   Cu4Ni10C51
_chemical_formula_sum   'Cu4 Ni10 C51'
_cell_volume   897.99694065
_cell_formula_units_Z   1
loop_
 _symmetry_equiv_pos_site_id
 _symmetry_equiv_pos_as_xyz
  1  'x, y, z'
loop_
 _atom_site_type_symbol
 _atom_site_label
 _atom_site_symmetry_multiplicity
 _atom_site_fract_x
 _atom_site_fract_y
 _atom_site_fract_z
 _atom_site_occupancy
  Ni  Ni0  1  0.50000000  0.18006400  0.70024500  1
  Ni  Ni1  1  0.50000000  0.17879300  0.50000000  1
  Ni  Ni2  1  0.50000000  0.18006400  0.29975500  1
  Ni  Ni3  1  0.50000000  0.18007100  0.10003300  1
  Ni  Ni4  1  0.50000000  0.18007100  0.89996700  1
  Ni  Ni5  1  0.50000000  0.81993600  0.70024500  1
  Ni  Ni6  1  0.50000000  0.82120700  0.50000000  1
  Ni  Ni7  1  0.50000000  0.81993600  0.29975500  1
  Ni  Ni8  1  0.50000000  0.81992900  0.10003300  1
  Ni  Ni9  1  0.50000000  0.81992900  0.89996700  1
  C  C10  1  0.50000000  0.50000000  0.50000000  1
  Cu  Cu11  1  0.50000000  0.50000000  0.70085600  1
  Cu  Cu12  1  0.50000000  0.50000000  0.29914400  1
  Cu  Cu13  1  0.50000000  0.50000000  0.09992100  1
  Cu  Cu14  1  0.50000000  0.50000000  0.90007900  1
  C  C15  1  0.00000000  0.35044300  0.80028700  1
  C  C16  1  0.00000000  0.34762900  0.60135000  1
  C  C17  1  0.00000000  0.34762900  0.39865000  1
  C  C18  1  0.00000000  0.35044300  0.19971300  1
  C  C19  1  0.00000000  0.35034600  0.00000000  1
  C  C20  1  0.00000000  0.64955700  0.80028700  1
  C  C21  1  0.00000000  0.65237100  0.60135000  1
  C  C22  1  0.00000000  0.65237100  0.39865000  1
  C  C23  1  0.00000000  0.64955700  0.19971300  1
  C  C24  1  0.00000000  0.64965400  0.00000000  1
  C  C25  1  0.00000000  0.00000000  0.80008200  1
  C  C26  1  0.00000000  0.00000000  0.60011400  1
  C  C27  1  0.00000000  0.00000000  0.39988600  1
  C  C28  1  0.00000000  0.00000000  0.19991800  1
  C  C29  1  0.00000000  0.00000000  0.00000000  1
  C  C30  1  0.00000000  0.15830600  0.80001800  1
  C  C31  1  0.00000000  0.15781800  0.60033500  1
  C  C32  1  0.00000000  0.15781800  0.39966500  1
  C  C33  1  0.00000000  0.15830600  0.19998200  1
  C  C34  1  0.00000000  0.15837100  0.00000000  1
  C  C35  1  0.00000000  0.84169400  0.80001800  1
  C  C36  1  0.00000000  0.84218200  0.60033500  1
  C  C37  1  0.00000000  0.84218200  0.39966500  1
  C  C38  1  0.00000000  0.84169400  0.19998200  1
  C  C39  1  0.00000000  0.84162900  0.00000000  1
  C  C40  1  0.00000000  0.37874700  0.70097200  1
  C  C41  1  0.00000000  0.36881200  0.50000000  1
  C  C42  1  0.00000000  0.37874700  0.29902800  1
  C  C43  1  0.00000000  0.37838000  0.09990600  1
  C  C44  1  0.00000000  0.37838000  0.90009400  1
  C  C45  1  0.00000000  0.62125300  0.70097200  1
  C  C46  1  0.00000000  0.63118800  0.50000000  1
  C  C47  1  0.00000000  0.62125300  0.29902800  1
  C  C48  1  0.00000000  0.62162000  0.09990600  1
  C  C49  1  0.00000000  0.62162000  0.90009400  1
  C  C50  1  0.00000000  0.00000000  0.70016900  1
  C  C51  1  0.00000000  0.00000000  0.50000000  1
  C  C52  1  0.00000000  0.00000000  0.29983100  1
  C  C53  1  0.00000000  0.00000000  0.09997600  1
  C  C54  1  0.00000000  0.00000000  0.90002400  1
  C  C55  1  0.50000000  0.37884500  0.80038900  1
  C  C56  1  0.50000000  0.37489100  0.60362900  1
  C  C57  1  0.50000000  0.37489100  0.39637100  1
  C  C58  1  0.50000000  0.37884500  0.19961100  1
  C  C59  1  0.50000000  0.37887500  0.00000000  1
  C  C60  1  0.50000000  0.62115500  0.80038900  1
  C  C61  1  0.50000000  0.62510900  0.60362900  1
  C  C62  1  0.50000000  0.62510900  0.39637100  1
  C  C63  1  0.50000000  0.62115500  0.19961100  1
  C  C64  1  0.50000000  0.62112500  0.00000000  1
