# generated using pymatgen
data_Cu4Ni4C7
_symmetry_space_group_name_H-M   'P 1'
_cell_length_a   9.24821574
_cell_length_b   9.24821574
_cell_length_c   9.24821574
_cell_angle_alpha   94.19738585
_cell_angle_beta   94.19738585
_cell_angle_gamma   148.60701845
_symmetry_Int_Tables_number   1
_chemical_formula_structural   Cu4Ni4C7
_chemical_formula_sum   'Cu8 Ni8 C14'
_cell_volume   396.66800034
_cell_formula_units_Z   2
loop_
 _symmetry_equiv_pos_site_id
 _symmetry_equiv_pos_as_xyz
  1  'x, y, z'
loop_
 _atom_site_type_symbol
 _atom_site_label
 _atom_site_symmetry_multiplicity
 _atom_site_fract_x
 _atom_site_fract_y
 _atom_site_fract_z
 _atom_site_occupancy
  Ni  Ni0  1  0.13512300  0.13512300  0.27024500  1
  Ni  Ni1  1  0.86487700  0.86487700  0.72975500  1
  Ni  Ni2  1  0.86487700  0.13512300  0.00000000  1
  Ni  Ni3  1  0.13512300  0.86487700  0.00000000  1
  Ni  Ni4  1  0.50000000  0.69220200  0.19220200  1
  Ni  Ni5  1  0.50000000  0.30779800  0.80779800  1
  Ni  Ni6  1  0.30779800  0.50000000  0.80779800  1
  Ni  Ni7  1  0.69220200  0.50000000  0.19220200  1
  Cu  Cu8  1  0.39947900  0.89947900  0.79895800  1
  Cu  Cu9  1  0.10052100  0.60052100  0.20104200  1
  Cu  Cu10  1  0.10052100  0.89947900  0.50000000  1
  Cu  Cu11  1  0.39947900  0.60052100  0.50000000  1
  Cu  Cu12  1  0.60052100  0.39947900  0.50000000  1
  Cu  Cu13  1  0.89947900  0.10052100  0.50000000  1
  Cu  Cu14  1  0.89947900  0.39947900  0.79895800  1
  Cu  Cu15  1  0.60052100  0.10052100  0.20104200  1
  C  C16  1  0.29084900  0.29084900  0.58169900  1
  C  C17  1  0.70915100  0.70915100  0.41830100  1
  C  C18  1  0.70915100  0.29084900  0.00000000  1
  C  C19  1  0.29084900  0.70915100  0.00000000  1
  C  C20  1  0.00000000  0.29708600  0.29708600  1
  C  C21  1  0.00000000  0.70291400  0.70291400  1
  C  C22  1  0.70291400  0.00000000  0.70291400  1
  C  C23  1  0.29708600  0.00000000  0.29708600  1
  C  C24  1  0.50000000  0.90572000  0.40572000  1
  C  C25  1  0.50000000  0.09428000  0.59428000  1
  C  C26  1  0.09428000  0.50000000  0.59428000  1
  C  C27  1  0.90572000  0.50000000  0.40572000  1
  C  C28  1  0.75064100  0.75064100  0.00000000  1
  C  C29  1  0.24935900  0.24935900  0.00000000  1
