# generated using pymatgen
data_Cu3NiC9
_symmetry_space_group_name_H-M   'P 1'
_cell_length_a   12.06083962
_cell_length_b   12.06083962
_cell_length_c   12.06083962
_cell_angle_alpha   109.47122063
_cell_angle_beta   109.47122063
_cell_angle_gamma   109.47122063
_symmetry_Int_Tables_number   1
_chemical_formula_structural   Cu3NiC9
_chemical_formula_sum   'Cu24 Ni8 C72'
_cell_volume   1350.55021477
_cell_formula_units_Z   8
loop_
 _symmetry_equiv_pos_site_id
 _symmetry_equiv_pos_as_xyz
  1  'x, y, z'
loop_
 _atom_site_type_symbol
 _atom_site_label
 _atom_site_symmetry_multiplicity
 _atom_site_fract_x
 _atom_site_fract_y
 _atom_site_fract_z
 _atom_site_occupancy
  Ni  Ni0  1  0.50000000  0.00000000  0.21167400  1
  Ni  Ni1  1  0.71167400  0.50000000  0.00000000  1
  Ni  Ni2  1  0.00000000  0.71167400  0.50000000  1
  Ni  Ni3  1  0.78832600  0.78832600  0.78832600  1
  Ni  Ni4  1  0.00000000  0.21167400  0.50000000  1
  Ni  Ni5  1  0.28832600  0.28832600  0.28832600  1
  Ni  Ni6  1  0.21167400  0.50000000  0.00000000  1
  Ni  Ni7  1  0.50000000  0.00000000  0.71167400  1
  Cu  Cu8  1  0.04892600  0.33137000  0.11963600  1
  Cu  Cu9  1  0.21755600  0.78826600  0.16863000  1
  Cu  Cu10  1  0.57071000  0.28244400  0.45107400  1
  Cu  Cu11  1  0.92929000  0.38036400  0.71173400  1
  Cu  Cu12  1  0.38036400  0.71173400  0.92929000  1
  Cu  Cu13  1  0.16863000  0.21755600  0.78826600  1
  Cu  Cu14  1  0.11963600  0.04892600  0.33137000  1
  Cu  Cu15  1  0.33137000  0.11963600  0.04892600  1
  Cu  Cu16  1  0.28244400  0.45107400  0.57071000  1
  Cu  Cu17  1  0.61963600  0.83137000  0.54892600  1
  Cu  Cu18  1  0.71755600  0.66863000  0.28826600  1
  Cu  Cu19  1  0.95107400  0.78244400  0.07071000  1
  Cu  Cu20  1  0.54892600  0.61963600  0.83137000  1
  Cu  Cu21  1  0.07071000  0.95107400  0.78244400  1
  Cu  Cu22  1  0.66863000  0.28826600  0.71755600  1
  Cu  Cu23  1  0.71173400  0.92929000  0.38036400  1
  Cu  Cu24  1  0.78826600  0.16863000  0.21755600  1
  Cu  Cu25  1  0.45107400  0.57071000  0.28244400  1
  Cu  Cu26  1  0.42929000  0.21173400  0.88036400  1
  Cu  Cu27  1  0.28826600  0.71755600  0.66863000  1
  Cu  Cu28  1  0.78244400  0.07071000  0.95107400  1
  Cu  Cu29  1  0.83137000  0.54892600  0.61963600  1
  Cu  Cu30  1  0.21173400  0.88036400  0.42929000  1
  Cu  Cu31  1  0.88036400  0.42929000  0.21173400  1
  C  C32  1  0.69793200  0.58054200  0.15514700  1
  C  C33  1  0.15514700  0.69793200  0.58054200  1
  C  C34  1  0.95721500  0.88261000  0.80206800  1
  C  C35  1  0.57460500  0.91945800  0.61739000  1
  C  C36  1  0.34485300  0.92539500  0.54278500  1
  C  C37  1  0.58054200  0.15514700  0.69793200  1
  C  C38  1  0.11739000  0.41945800  0.07460500  1
  C  C39  1  0.84485300  0.04278500  0.42539500  1
  C  C40  1  0.38261000  0.45721500  0.30206800  1
  C  C41  1  0.42539500  0.84485300  0.04278500  1
  C  C42  1  0.41945800  0.07460500  0.11739000  1
  C  C43  1  0.08054200  0.19793200  0.65514700  1
  C  C44  1  0.19793200  0.65514700  0.08054200  1
  C  C45  1  0.04278500  0.42539500  0.84485300  1
  C  C46  1  0.30206800  0.38261000  0.45721500  1
  C  C47  1  0.45721500  0.30206800  0.38261000  1
  C  C48  1  0.07460500  0.11739000  0.41945800  1
  C  C49  1  0.80206800  0.95721500  0.88261000  1
  C  C50  1  0.92539500  0.54278500  0.34485300  1
  C  C51  1  0.61739000  0.57460500  0.91945800  1
  C  C52  1  0.88261000  0.80206800  0.95721500  1
  C  C53  1  0.91945800  0.61739000  0.57460500  1
  C  C54  1  0.54278500  0.34485300  0.92539500  1
  C  C55  1  0.65514700  0.08054200  0.19793200  1
  C  C56  1  0.72481200  0.41617500  0.84511400  1
  C  C57  1  0.19136300  0.12030100  0.27518800  1
  C  C58  1  0.84511400  0.72481200  0.41617500  1
  C  C59  1  0.42893800  0.08382500  0.80863700  1
  C  C60  1  0.65488600  0.07106200  0.87969900  1
  C  C61  1  0.41617500  0.84511400  0.72481200  1
  C  C62  1  0.30863700  0.58382500  0.92893800  1
  C  C63  1  0.15488600  0.37969900  0.57106200  1
  C  C64  1  0.77859700  0.28892800  0.19366400  1
  C  C65  1  0.41506700  0.22140300  0.01033200  1
  C  C66  1  0.71107200  0.40473500  0.48966800  1
  C  C67  1  0.09526500  0.80633600  0.08493300  1
  C  C68  1  0.40473500  0.48966800  0.71107200  1
  C  C69  1  0.01033200  0.41506700  0.22140300  1
  C  C70  1  0.80633600  0.08493300  0.09526500  1
  C  C71  1  0.98966800  0.90473500  0.21107200  1
  C  C72  1  0.58493300  0.30633600  0.59526500  1
  C  C73  1  0.30633600  0.59526500  0.58493300  1
  C  C74  1  0.91506700  0.51033200  0.72140300  1
  C  C75  1  0.19366400  0.77859700  0.28892800  1
  C  C76  1  0.28892800  0.19366400  0.77859700  1
  C  C77  1  0.21107200  0.98966800  0.90473500  1
  C  C78  1  0.51033200  0.72140300  0.91506700  1
  C  C79  1  0.59526500  0.58493300  0.30633600  1
  C  C80  1  0.72140300  0.91506700  0.51033200  1
  C  C81  1  0.90473500  0.21107200  0.98966800  1
  C  C82  1  0.78892800  0.27859700  0.69366400  1
  C  C83  1  0.22140300  0.01033200  0.41506700  1
  C  C84  1  0.48966800  0.71107200  0.40473500  1
  C  C85  1  0.08493300  0.09526500  0.80633600  1
  C  C86  1  0.27859700  0.69366400  0.78892800  1
  C  C87  1  0.69366400  0.78892800  0.27859700  1
  C  C88  1  0.34511400  0.91617500  0.22481200  1
  C  C89  1  0.87969900  0.65488600  0.07106200  1
  C  C90  1  0.08382500  0.80863700  0.42893800  1
  C  C91  1  0.69136300  0.77518800  0.62030100  1
  C  C92  1  0.80863700  0.42893800  0.08382500  1
  C  C93  1  0.07106200  0.87969900  0.65488600  1
  C  C94  1  0.77518800  0.62030100  0.69136300  1
  C  C95  1  0.92893800  0.30863700  0.58382500  1
  C  C96  1  0.12030100  0.27518800  0.19136300  1
  C  C97  1  0.27518800  0.19136300  0.12030100  1
  C  C98  1  0.37969900  0.57106200  0.15488600  1
  C  C99  1  0.22481200  0.34511400  0.91617500  1
  C  C100  1  0.91617500  0.22481200  0.34511400  1
  C  C101  1  0.58382500  0.92893800  0.30863700  1
  C  C102  1  0.57106200  0.15488600  0.37969900  1
  C  C103  1  0.62030100  0.69136300  0.77518800  1
