# generated using pymatgen
data_Cu2Ni3C16
_symmetry_space_group_name_H-M   'P 1'
_cell_length_a   10.13782145
_cell_length_b   10.13782145
_cell_length_c   8.28029800
_cell_angle_alpha   66.50495960
_cell_angle_beta   66.50495960
_cell_angle_gamma   33.32929849
_symmetry_Int_Tables_number   1
_chemical_formula_structural   Cu2Ni3C16
_chemical_formula_sum   'Cu4 Ni6 C32'
_cell_volume   425.17647306
_cell_formula_units_Z   2
loop_
 _symmetry_equiv_pos_site_id
 _symmetry_equiv_pos_as_xyz
  1  'x, y, z'
loop_
 _atom_site_type_symbol
 _atom_site_label
 _atom_site_symmetry_multiplicity
 _atom_site_fract_x
 _atom_site_fract_y
 _atom_site_fract_z
 _atom_site_occupancy
  C  C0  1  0.66697900  0.66697900  0.83337500  1
  C  C1  1  0.33302100  0.33302100  0.16662500  1
  C  C2  1  0.16665500  0.66477500  0.33258400  1
  C  C3  1  0.83334500  0.33522500  0.66741600  1
  C  C4  1  0.50000000  0.00000000  0.00000000  1
  C  C5  1  0.66477500  0.16665500  0.33258400  1
  C  C6  1  0.33522500  0.83334500  0.66741600  1
  C  C7  1  0.00000000  0.50000000  0.00000000  1
  Ni  Ni8  1  0.41589800  0.41589800  0.71246000  1
  Ni  Ni9  1  0.08347300  0.08347300  0.04101500  1
  Ni  Ni10  1  0.74931500  0.74931500  0.37639300  1
  Ni  Ni11  1  0.91652700  0.91652700  0.95898500  1
  Ni  Ni12  1  0.58410200  0.58410200  0.28754000  1
  Ni  Ni13  1  0.25068500  0.25068500  0.62360700  1
  Cu  Cu14  1  0.83238800  0.83238800  0.66679700  1
  Cu  Cu15  1  0.50000000  0.50000000  0.00000000  1
  Cu  Cu16  1  0.16761200  0.16761200  0.33320300  1
  Cu  Cu17  1  0.00000000  0.00000000  0.50000000  1
  C  C18  1  0.98912900  0.98912900  0.26652400  1
  C  C19  1  0.65802000  0.65802000  0.60753800  1
  C  C20  1  0.32385900  0.32385900  0.94032800  1
  C  C21  1  0.84412300  0.84412300  0.41287100  1
  C  C22  1  0.51142300  0.51142300  0.74621200  1
  C  C23  1  0.17783000  0.17783000  0.08011400  1
  C  C24  1  0.68344000  0.14912700  0.56363700  1
  C  C25  1  0.36216600  0.81140200  0.89691800  1
  C  C26  1  0.02729700  0.47921800  0.22952900  1
  C  C27  1  0.14912700  0.68344000  0.56363700  1
  C  C28  1  0.81140200  0.36216600  0.89691800  1
  C  C29  1  0.47921800  0.02729700  0.22952900  1
  C  C30  1  0.34198000  0.34198000  0.39246200  1
  C  C31  1  0.01087100  0.01087100  0.73347600  1
  C  C32  1  0.67614100  0.67614100  0.05967200  1
  C  C33  1  0.48857700  0.48857700  0.25378800  1
  C  C34  1  0.15587700  0.15587700  0.58712900  1
  C  C35  1  0.82217000  0.82217000  0.91988600  1
  C  C36  1  0.63783400  0.18859800  0.10308200  1
  C  C37  1  0.31656000  0.85087300  0.43636300  1
  C  C38  1  0.97270300  0.52078200  0.77047100  1
  C  C39  1  0.18859800  0.63783400  0.10308200  1
  C  C40  1  0.85087300  0.31656000  0.43636300  1
  C  C41  1  0.52078200  0.97270300  0.77047100  1
