# generated using pymatgen
data_CuNiC2
_symmetry_space_group_name_H-M   'P 1'
_cell_length_a   5.08421700
_cell_length_b   6.15837400
_cell_length_c   4.94680400
_cell_angle_alpha   90.00000000
_cell_angle_beta   90.00000000
_cell_angle_gamma   90.00000000
_symmetry_Int_Tables_number   1
_chemical_formula_structural   CuNiC2
_chemical_formula_sum   'Cu4 Ni4 C8'
_cell_volume   154.88695504
_cell_formula_units_Z   4
loop_
 _symmetry_equiv_pos_site_id
 _symmetry_equiv_pos_as_xyz
  1  'x, y, z'
loop_
 _atom_site_type_symbol
 _atom_site_label
 _atom_site_symmetry_multiplicity
 _atom_site_fract_x
 _atom_site_fract_y
 _atom_site_fract_z
 _atom_site_occupancy
  Ni  Ni0  1  0.56952800  0.88578300  0.94465300  1
  Ni  Ni1  1  0.43047200  0.11421700  0.44465300  1
  Ni  Ni2  1  0.93047200  0.38578300  0.44465300  1
  Ni  Ni3  1  0.06952800  0.61421700  0.94465300  1
  Cu  Cu4  1  0.59349400  0.35447500  0.03510400  1
  Cu  Cu5  1  0.40650600  0.64552500  0.53510400  1
  Cu  Cu6  1  0.90650600  0.85447500  0.53510400  1
  Cu  Cu7  1  0.09349400  0.14552500  0.03510400  1
  C  C8  1  0.58604600  0.85854000  0.33364800  1
  C  C9  1  0.41395400  0.14146000  0.83364800  1
  C  C10  1  0.91395400  0.35854000  0.83364800  1
  C  C11  1  0.08604600  0.64146000  0.33364800  1
  C  C12  1  0.57100800  0.39334200  0.40859500  1
  C  C13  1  0.42899200  0.60665800  0.90859500  1
  C  C14  1  0.92899200  0.89334200  0.90859500  1
  C  C15  1  0.07100800  0.10665800  0.40859500  1
