# generated using pymatgen
data_CuNiC6
_symmetry_space_group_name_H-M   'P 1'
_cell_length_a   6.28548006
_cell_length_b   6.45938628
_cell_length_c   11.85447600
_cell_angle_alpha   90.00000000
_cell_angle_beta   90.00000000
_cell_angle_gamma   114.02306457
_symmetry_Int_Tables_number   1
_chemical_formula_structural   CuNiC6
_chemical_formula_sum   'Cu4 Ni4 C24'
_cell_volume   439.60675214
_cell_formula_units_Z   4
loop_
 _symmetry_equiv_pos_site_id
 _symmetry_equiv_pos_as_xyz
  1  'x, y, z'
loop_
 _atom_site_type_symbol
 _atom_site_label
 _atom_site_symmetry_multiplicity
 _atom_site_fract_x
 _atom_site_fract_y
 _atom_site_fract_z
 _atom_site_occupancy
  C  C0  1  0.54324800  0.05947400  0.35000700  1
  C  C1  1  0.95675200  0.94052600  0.85000700  1
  C  C2  1  0.45675200  0.94052600  0.64999300  1
  C  C3  1  0.04324800  0.05947400  0.14999300  1
  Ni  Ni4  1  0.96388900  0.56366400  0.24671400  1
  Ni  Ni5  1  0.53611100  0.43633600  0.74671400  1
  Ni  Ni6  1  0.03611100  0.43633600  0.75328600  1
  Ni  Ni7  1  0.46388900  0.56366400  0.25328600  1
  Cu  Cu8  1  0.82014800  0.68210300  0.49806100  1
  Cu  Cu9  1  0.67985200  0.31789700  0.99806100  1
  Cu  Cu10  1  0.17985200  0.31789700  0.50193900  1
  Cu  Cu11  1  0.32014800  0.68210300  0.00193900  1
  C  C12  1  0.45326000  0.66412200  0.47103500  1
  C  C13  1  0.04674000  0.33587800  0.97103500  1
  C  C14  1  0.54674000  0.33587800  0.52896500  1
  C  C15  1  0.95326000  0.66412200  0.02896500  1
  C  C16  1  0.82938400  0.04487700  0.50976700  1
  C  C17  1  0.67061600  0.95512300  0.00976700  1
  C  C18  1  0.17061600  0.95512300  0.49023300  1
  C  C19  1  0.32938400  0.04487700  0.99023300  1
  C  C20  1  0.28072100  0.72669700  0.19162900  1
  C  C21  1  0.21927900  0.27330300  0.69162900  1
  C  C22  1  0.71927900  0.27330300  0.80837100  1
  C  C23  1  0.78072100  0.72669700  0.30837100  1
  C  C24  1  0.96424700  0.46482400  0.39713200  1
  C  C25  1  0.53575300  0.53517600  0.89713200  1
  C  C26  1  0.03575300  0.53517600  0.60286800  1
  C  C27  1  0.46424700  0.46482400  0.10286800  1
  C  C28  1  0.77634600  0.29383900  0.17212300  1
  C  C29  1  0.72365400  0.70616100  0.67212300  1
  C  C30  1  0.22365400  0.70616100  0.82787700  1
  C  C31  1  0.27634600  0.29383900  0.32787700  1
