# generated using pymatgen
data_Cu10NiC6
_symmetry_space_group_name_H-M   'P 1'
_cell_length_a   3.94326100
_cell_length_b   3.94326100
_cell_length_c   15.78642300
_cell_angle_alpha   90.00000000
_cell_angle_beta   90.00000000
_cell_angle_gamma   90.00000000
_symmetry_Int_Tables_number   1
_chemical_formula_structural   Cu10NiC6
_chemical_formula_sum   'Cu10 Ni1 C6'
_cell_volume   245.46794262
_cell_formula_units_Z   1
loop_
 _symmetry_equiv_pos_site_id
 _symmetry_equiv_pos_as_xyz
  1  'x, y, z'
loop_
 _atom_site_type_symbol
 _atom_site_label
 _atom_site_symmetry_multiplicity
 _atom_site_fract_x
 _atom_site_fract_y
 _atom_site_fract_z
 _atom_site_occupancy
  C  C0  1  0.50000000  0.50000000  0.85539500  1
  C  C1  1  0.50000000  0.50000000  0.14460500  1
  C  C2  1  0.00000000  0.00000000  0.00000000  1
  C  C3  1  0.00000000  0.00000000  0.73176700  1
  C  C4  1  0.00000000  0.00000000  0.26823300  1
  C  C5  1  0.00000000  0.00000000  0.50000000  1
  Ni  Ni6  1  0.50000000  0.50000000  0.50000000  1
  Cu  Cu7  1  0.50000000  0.00000000  0.00000000  1
  Cu  Cu8  1  0.00000000  0.50000000  0.00000000  1
  Cu  Cu9  1  0.00000000  0.00000000  0.87531200  1
  Cu  Cu10  1  0.00000000  0.00000000  0.12468800  1
  Cu  Cu11  1  0.50000000  0.00000000  0.75872400  1
  Cu  Cu12  1  0.00000000  0.50000000  0.75872400  1
  Cu  Cu13  1  0.50000000  0.00000000  0.24127600  1
  Cu  Cu14  1  0.00000000  0.50000000  0.24127600  1
  Cu  Cu15  1  0.00000000  0.00000000  0.61797000  1
  Cu  Cu16  1  0.00000000  0.00000000  0.38203000  1
