# generated using pymatgen
data_Cu3NiC
_symmetry_space_group_name_H-M   'P 1'
_cell_length_a   6.38206554
_cell_length_b   6.38206554
_cell_length_c   6.92534607
_cell_angle_alpha   76.21786764
_cell_angle_beta   76.21786764
_cell_angle_gamma   96.16591255
_symmetry_Int_Tables_number   1
_chemical_formula_structural   Cu3NiC
_chemical_formula_sum   'Cu12 Ni4 C4'
_cell_volume   262.00530361
_cell_formula_units_Z   4
loop_
 _symmetry_equiv_pos_site_id
 _symmetry_equiv_pos_as_xyz
  1  'x, y, z'
loop_
 _atom_site_type_symbol
 _atom_site_label
 _atom_site_symmetry_multiplicity
 _atom_site_fract_x
 _atom_site_fract_y
 _atom_site_fract_z
 _atom_site_occupancy
  C  C0  1  0.62026800  0.37973200  0.75000000  1
  C  C1  1  0.37973200  0.62026800  0.25000000  1
  C  C2  1  0.09590200  0.90409800  0.75000000  1
  C  C3  1  0.90409800  0.09590200  0.25000000  1
  Ni  Ni4  1  0.64529000  0.89001600  0.75713500  1
  Ni  Ni5  1  0.35471000  0.10998400  0.24286500  1
  Ni  Ni6  1  0.10998400  0.35471000  0.74286500  1
  Ni  Ni7  1  0.89001600  0.64529000  0.25713500  1
  Cu  Cu8  1  0.44196600  0.89537700  0.77940800  1
  Cu  Cu9  1  0.55803400  0.10462300  0.22059200  1
  Cu  Cu10  1  0.10462300  0.55803400  0.72059200  1
  Cu  Cu11  1  0.89537700  0.44196600  0.27940800  1
  Cu  Cu12  1  0.71655900  0.74954300  0.88345300  1
  Cu  Cu13  1  0.28344100  0.25045700  0.11654700  1
  Cu  Cu14  1  0.25045700  0.28344100  0.61654700  1
  Cu  Cu15  1  0.74954300  0.71655900  0.38345300  1
  Cu  Cu16  1  0.79776900  0.03373700  0.60658300  1
  Cu  Cu17  1  0.20223100  0.96626300  0.39341700  1
  Cu  Cu18  1  0.96626300  0.20223100  0.89341700  1
  Cu  Cu19  1  0.03373700  0.79776900  0.10658300  1
