# generated using pymatgen
data_Cu4NiC6
_symmetry_space_group_name_H-M   'P 1'
_cell_length_a   6.56640600
_cell_length_b   6.56640600
_cell_length_c   4.89734700
_cell_angle_alpha   90.00000000
_cell_angle_beta   90.00000000
_cell_angle_gamma   90.00000000
_symmetry_Int_Tables_number   1
_chemical_formula_structural   Cu4NiC6
_chemical_formula_sum   'Cu8 Ni2 C12'
_cell_volume   211.16227878
_cell_formula_units_Z   2
loop_
 _symmetry_equiv_pos_site_id
 _symmetry_equiv_pos_as_xyz
  1  'x, y, z'
loop_
 _atom_site_type_symbol
 _atom_site_label
 _atom_site_symmetry_multiplicity
 _atom_site_fract_x
 _atom_site_fract_y
 _atom_site_fract_z
 _atom_site_occupancy
  C  C0  1  0.00000000  0.50000000  0.60795800  1
  C  C1  1  0.50000000  0.00000000  0.89204200  1
  C  C2  1  0.50000000  0.00000000  0.39204200  1
  C  C3  1  0.00000000  0.50000000  0.10795800  1
  C  C4  1  0.21292000  0.21292000  0.50000000  1
  C  C5  1  0.78708000  0.78708000  0.50000000  1
  C  C6  1  0.71292000  0.71292000  0.00000000  1
  C  C7  1  0.28708000  0.28708000  0.00000000  1
  C  C8  1  0.78708000  0.21292000  0.50000000  1
  C  C9  1  0.21292000  0.78708000  0.50000000  1
  C  C10  1  0.28708000  0.71292000  0.00000000  1
  C  C11  1  0.71292000  0.28708000  0.00000000  1
  Ni  Ni12  1  0.50000000  0.50000000  0.50000000  1
  Ni  Ni13  1  0.00000000  0.00000000  0.00000000  1
  Cu  Cu14  1  0.26474600  0.50000000  0.31139400  1
  Cu  Cu15  1  0.73525400  0.50000000  0.31139400  1
  Cu  Cu16  1  0.76474600  0.00000000  0.18860600  1
  Cu  Cu17  1  0.23525400  0.00000000  0.18860600  1
  Cu  Cu18  1  0.50000000  0.26474600  0.68860600  1
  Cu  Cu19  1  0.50000000  0.73525400  0.68860600  1
  Cu  Cu20  1  0.00000000  0.76474600  0.81139400  1
  Cu  Cu21  1  0.00000000  0.23525400  0.81139400  1
