# generated using pymatgen
data_Cu15Ni12C35
_symmetry_space_group_name_H-M   'P 1'
_cell_length_a   10.33725334
_cell_length_b   10.33725334
_cell_length_c   10.33725334
_cell_angle_alpha   109.47122063
_cell_angle_beta   109.47122063
_cell_angle_gamma   109.47122063
_symmetry_Int_Tables_number   1
_chemical_formula_structural   Cu15Ni12C35
_chemical_formula_sum   'Cu15 Ni12 C35'
_cell_volume   850.34191960
_cell_formula_units_Z   1
loop_
 _symmetry_equiv_pos_site_id
 _symmetry_equiv_pos_as_xyz
  1  'x, y, z'
loop_
 _atom_site_type_symbol
 _atom_site_label
 _atom_site_symmetry_multiplicity
 _atom_site_fract_x
 _atom_site_fract_y
 _atom_site_fract_z
 _atom_site_occupancy
  C  C0  1  0.00000000  0.00000000  0.50000000  1
  C  C1  1  0.50000000  0.00000000  0.00000000  1
  C  C2  1  0.00000000  0.50000000  0.00000000  1
  C  C3  1  0.50000000  0.50000000  0.50000000  1
  Ni  Ni4  1  0.67914600  0.78693200  0.46607700  1
  Ni  Ni5  1  0.67914600  0.21306800  0.89221400  1
  Ni  Ni6  1  0.32085400  0.78693200  0.10778600  1
  Ni  Ni7  1  0.32085400  0.21306800  0.53392300  1
  Ni  Ni8  1  0.78693200  0.46607700  0.67914600  1
  Ni  Ni9  1  0.21306800  0.89221400  0.67914600  1
  Ni  Ni10  1  0.78693200  0.10778600  0.32085400  1
  Ni  Ni11  1  0.21306800  0.53392300  0.32085400  1
  Ni  Ni12  1  0.46607700  0.67914600  0.78693200  1
  Ni  Ni13  1  0.89221400  0.67914600  0.21306800  1
  Ni  Ni14  1  0.10778600  0.32085400  0.78693200  1
  Ni  Ni15  1  0.53392300  0.32085400  0.21306800  1
  Cu  Cu16  1  0.75690300  0.73728900  0.49419200  1
  Cu  Cu17  1  0.75690300  0.26271100  0.01961400  1
  Cu  Cu18  1  0.24309700  0.73728900  0.98038600  1
  Cu  Cu19  1  0.24309700  0.26271100  0.50580800  1
  Cu  Cu20  1  0.73728900  0.49419200  0.75690300  1
  Cu  Cu21  1  0.26271100  0.01961400  0.75690300  1
  Cu  Cu22  1  0.73728900  0.98038600  0.24309700  1
  Cu  Cu23  1  0.26271100  0.50580800  0.24309700  1
  Cu  Cu24  1  0.49419200  0.75690300  0.73728900  1
  Cu  Cu25  1  0.01961400  0.75690300  0.26271100  1
  Cu  Cu26  1  0.98038600  0.24309700  0.73728900  1
  Cu  Cu27  1  0.50580800  0.24309700  0.26271100  1
  Cu  Cu28  1  0.50000000  0.00000000  0.50000000  1
  Cu  Cu29  1  0.00000000  0.50000000  0.50000000  1
  Cu  Cu30  1  0.50000000  0.50000000  0.00000000  1
  C  C31  1  0.89377000  0.80261900  0.51026900  1
  C  C32  1  0.70765000  0.19738100  0.09115100  1
  C  C33  1  0.10623000  0.61649900  0.90884900  1
  C  C34  1  0.29235000  0.38350100  0.48973100  1
  C  C35  1  0.80261900  0.51026900  0.89377000  1
  C  C36  1  0.19738100  0.09115100  0.70765000  1
  C  C37  1  0.61649900  0.90884900  0.10623000  1
  C  C38  1  0.38350100  0.48973100  0.29235000  1
  C  C39  1  0.51026900  0.89377000  0.80261900  1
  C  C40  1  0.09115100  0.70765000  0.19738100  1
  C  C41  1  0.90884900  0.10623000  0.61649900  1
  C  C42  1  0.48973100  0.29235000  0.38350100  1
  C  C43  1  0.10623000  0.19738100  0.48973100  1
  C  C44  1  0.29235000  0.80261900  0.90884900  1
  C  C45  1  0.89377000  0.38350100  0.09115100  1
  C  C46  1  0.70765000  0.61649900  0.51026900  1
  C  C47  1  0.19738100  0.48973100  0.10623000  1
  C  C48  1  0.80261900  0.90884900  0.29235000  1
  C  C49  1  0.38350100  0.09115100  0.89377000  1
  C  C50  1  0.61649900  0.51026900  0.70765000  1
  C  C51  1  0.48973100  0.10623000  0.19738100  1
  C  C52  1  0.90884900  0.29235000  0.80261900  1
  C  C53  1  0.09115100  0.89377000  0.38350100  1
  C  C54  1  0.51026900  0.70765000  0.61649900  1
  C  C55  1  0.50000000  0.90141300  0.40141300  1
  C  C56  1  0.50000000  0.09858700  0.59858700  1
  C  C57  1  0.90141300  0.40141300  0.50000000  1
  C  C58  1  0.09858700  0.59858700  0.50000000  1
  C  C59  1  0.40141300  0.50000000  0.90141300  1
  C  C60  1  0.59858700  0.50000000  0.09858700  1
  C  C61  1  0.00000000  0.00000000  0.00000000  1
