# generated using pymatgen
data_Cu3Ni3C
_symmetry_space_group_name_H-M   'P 1'
_cell_length_a   8.86844100
_cell_length_b   8.86844100
_cell_length_c   8.86844100
_cell_angle_alpha   90.00000000
_cell_angle_beta   90.00000000
_cell_angle_gamma   90.00000000
_symmetry_Int_Tables_number   1
_chemical_formula_structural   Cu3Ni3C
_chemical_formula_sum   'Cu24 Ni24 C8'
_cell_volume   697.49619581
_cell_formula_units_Z   8
loop_
 _symmetry_equiv_pos_site_id
 _symmetry_equiv_pos_as_xyz
  1  'x, y, z'
loop_
 _atom_site_type_symbol
 _atom_site_label
 _atom_site_symmetry_multiplicity
 _atom_site_fract_x
 _atom_site_fract_y
 _atom_site_fract_z
 _atom_site_occupancy
  C  C0  1  0.50000000  0.50000000  0.50000000  1
  C  C1  1  0.00000000  0.50000000  0.00000000  1
  C  C2  1  0.50000000  0.00000000  0.00000000  1
  C  C3  1  0.00000000  0.00000000  0.50000000  1
  C  C4  1  0.00000000  0.00000000  0.00000000  1
  C  C5  1  0.50000000  0.00000000  0.50000000  1
  C  C6  1  0.00000000  0.50000000  0.50000000  1
  C  C7  1  0.50000000  0.50000000  0.00000000  1
  Ni  Ni8  1  0.17603400  0.38671400  0.43153700  1
  Ni  Ni9  1  0.82396600  0.61328600  0.56846300  1
  Ni  Ni10  1  0.32396600  0.61328600  0.93153700  1
  Ni  Ni11  1  0.82396600  0.88671400  0.06846300  1
  Ni  Ni12  1  0.43153700  0.17603400  0.38671400  1
  Ni  Ni13  1  0.67603400  0.38671400  0.06846300  1
  Ni  Ni14  1  0.17603400  0.11328600  0.93153700  1
  Ni  Ni15  1  0.56846300  0.82396600  0.61328600  1
  Ni  Ni16  1  0.67603400  0.11328600  0.56846300  1
  Ni  Ni17  1  0.93153700  0.32396600  0.61328600  1
  Ni  Ni18  1  0.32396600  0.88671400  0.43153700  1
  Ni  Ni19  1  0.06846300  0.67603400  0.38671400  1
  Ni  Ni20  1  0.06846300  0.82396600  0.88671400  1
  Ni  Ni21  1  0.93153700  0.17603400  0.11328600  1
  Ni  Ni22  1  0.56846300  0.67603400  0.11328600  1
  Ni  Ni23  1  0.43153700  0.32396600  0.88671400  1
  Ni  Ni24  1  0.38671400  0.43153700  0.17603400  1
  Ni  Ni25  1  0.61328600  0.56846300  0.82396600  1
  Ni  Ni26  1  0.88671400  0.06846300  0.82396600  1
  Ni  Ni27  1  0.11328600  0.93153700  0.17603400  1
  Ni  Ni28  1  0.11328600  0.56846300  0.67603400  1
  Ni  Ni29  1  0.88671400  0.43153700  0.32396600  1
  Ni  Ni30  1  0.61328600  0.93153700  0.32396600  1
  Ni  Ni31  1  0.38671400  0.06846300  0.67603400  1
  Cu  Cu32  1  0.05008200  0.30463400  0.11116000  1
  Cu  Cu33  1  0.94991800  0.69536600  0.88884000  1
  Cu  Cu34  1  0.44991800  0.69536600  0.61116000  1
  Cu  Cu35  1  0.94991800  0.80463400  0.38884000  1
  Cu  Cu36  1  0.11116000  0.05008200  0.30463400  1
  Cu  Cu37  1  0.55008200  0.30463400  0.38884000  1
  Cu  Cu38  1  0.05008200  0.19536600  0.61116000  1
  Cu  Cu39  1  0.88884000  0.94991800  0.69536600  1
  Cu  Cu40  1  0.55008200  0.19536600  0.88884000  1
  Cu  Cu41  1  0.61116000  0.44991800  0.69536600  1
  Cu  Cu42  1  0.44991800  0.80463400  0.11116000  1
  Cu  Cu43  1  0.38884000  0.55008200  0.30463400  1
  Cu  Cu44  1  0.38884000  0.94991800  0.80463400  1
  Cu  Cu45  1  0.61116000  0.05008200  0.19536600  1
  Cu  Cu46  1  0.88884000  0.55008200  0.19536600  1
  Cu  Cu47  1  0.11116000  0.44991800  0.80463400  1
  Cu  Cu48  1  0.30463400  0.11116000  0.05008200  1
  Cu  Cu49  1  0.69536600  0.88884000  0.94991800  1
  Cu  Cu50  1  0.80463400  0.38884000  0.94991800  1
  Cu  Cu51  1  0.19536600  0.61116000  0.05008200  1
  Cu  Cu52  1  0.19536600  0.88884000  0.55008200  1
  Cu  Cu53  1  0.80463400  0.11116000  0.44991800  1
  Cu  Cu54  1  0.69536600  0.61116000  0.44991800  1
  Cu  Cu55  1  0.30463400  0.38884000  0.55008200  1
