# generated using pymatgen
data_Cu3NiC3
_symmetry_space_group_name_H-M   'P 1'
_cell_length_a   7.45973451
_cell_length_b   7.45973451
_cell_length_c   7.40890926
_cell_angle_alpha   70.51296191
_cell_angle_beta   70.51296191
_cell_angle_gamma   109.71352466
_symmetry_Int_Tables_number   1
_chemical_formula_structural   Cu3NiC3
_chemical_formula_sum   'Cu6 Ni2 C6'
_cell_volume   316.30091344
_cell_formula_units_Z   2
loop_
 _symmetry_equiv_pos_site_id
 _symmetry_equiv_pos_as_xyz
  1  'x, y, z'
loop_
 _atom_site_type_symbol
 _atom_site_label
 _atom_site_symmetry_multiplicity
 _atom_site_fract_x
 _atom_site_fract_y
 _atom_site_fract_z
 _atom_site_occupancy
  C  C0  1  0.12587900  0.37010200  0.24963600  1
  C  C1  1  0.37010200  0.12587900  0.74963600  1
  C  C2  1  0.25278200  0.87998300  0.37692600  1
  C  C3  1  0.74985800  0.62371900  0.12318100  1
  C  C4  1  0.62371900  0.74985800  0.62318100  1
  C  C5  1  0.87998300  0.25278200  0.87692600  1
  Ni  Ni6  1  0.49984400  0.84586500  0.00008300  1
  Ni  Ni7  1  0.84586500  0.49984400  0.50008300  1
  Cu  Cu8  1  0.34964100  0.50025900  0.50100400  1
  Cu  Cu9  1  0.14945100  0.65053000  0.84967500  1
  Cu  Cu10  1  0.00073300  0.00135300  0.64949400  1
  Cu  Cu11  1  0.50025900  0.34964100  0.00100400  1
  Cu  Cu12  1  0.65053000  0.14945100  0.34967500  1
  Cu  Cu13  1  0.00135300  0.00073300  0.14949400  1
