# generated using pymatgen
data_Cu8NiC16
_symmetry_space_group_name_H-M   'P 1'
_cell_length_a   6.63758372
_cell_length_b   5.86495616
_cell_length_c   7.04040305
_cell_angle_alpha   84.91358839
_cell_angle_beta   93.85197762
_cell_angle_gamma   89.90465979
_symmetry_Int_Tables_number   1
_chemical_formula_structural   Cu8NiC16
_chemical_formula_sum   'Cu8 Ni1 C16'
_cell_volume   272.37281151
_cell_formula_units_Z   1
loop_
 _symmetry_equiv_pos_site_id
 _symmetry_equiv_pos_as_xyz
  1  'x, y, z'
loop_
 _atom_site_type_symbol
 _atom_site_label
 _atom_site_symmetry_multiplicity
 _atom_site_fract_x
 _atom_site_fract_y
 _atom_site_fract_z
 _atom_site_occupancy
  Ni  Ni0  1  0.11663800  0.10506800  0.39206800  1
  Cu  Cu1  1  0.36998100  0.36079300  0.10966300  1
  Cu  Cu2  1  0.13195300  0.65693000  0.36807800  1
  Cu  Cu3  1  0.84602600  0.14688100  0.09067800  1
  Cu  Cu4  1  0.41477700  0.15666800  0.67214100  1
  Cu  Cu5  1  0.14042200  0.83916100  0.87273800  1
  Cu  Cu6  1  0.61661400  0.86527600  0.37582500  1
  Cu  Cu7  1  0.61640300  0.63364700  0.86876300  1
  Cu  Cu8  1  0.87139700  0.37844800  0.64023800  1
  C  C9  1  0.14362200  0.14273400  0.09799000  1
  C  C10  1  0.17512600  0.61614100  0.09835400  1
  C  C11  1  0.57858300  0.58357700  0.13243000  1
  C  C12  1  0.07274200  0.61343700  0.63156800  1
  C  C13  1  0.33896900  0.87633000  0.43102000  1
  C  C14  1  0.11248400  0.12099800  0.67923400  1
  C  C15  1  0.57276500  0.11565800  0.16446000  1
  C  C16  1  0.42205600  0.87476300  0.83923300  1
  C  C17  1  0.67626900  0.14042100  0.59808200  1
  C  C18  1  0.89359500  0.90161900  0.30682500  1
  C  C19  1  0.41604100  0.40605900  0.84975400  1
  C  C20  1  0.66477400  0.61579300  0.59526000  1
  C  C21  1  0.82696400  0.39978700  0.89595700  1
  C  C22  1  0.33081100  0.35287700  0.40045600  1
  C  C23  1  0.92929900  0.37906700  0.36051100  1
  C  C24  1  0.84169400  0.86072400  0.90867500  1
