# generated using pymatgen
data_Cu2Ni8C17
_symmetry_space_group_name_H-M   'P 1'
_cell_length_a   6.43646900
_cell_length_b   13.09198690
_cell_length_c   17.23392589
_cell_angle_alpha   72.74327107
_cell_angle_beta   82.77853174
_cell_angle_gamma   78.26527889
_symmetry_Int_Tables_number   1
_chemical_formula_structural   Cu2Ni8C17
_chemical_formula_sum   'Cu4 Ni16 C34'
_cell_volume   1354.55608865
_cell_formula_units_Z   2
loop_
 _symmetry_equiv_pos_site_id
 _symmetry_equiv_pos_as_xyz
  1  'x, y, z'
loop_
 _atom_site_type_symbol
 _atom_site_label
 _atom_site_symmetry_multiplicity
 _atom_site_fract_x
 _atom_site_fract_y
 _atom_site_fract_z
 _atom_site_occupancy
  C  C0  1  0.16773600  0.81030200  0.26073900  1
  C  C1  1  0.83226400  0.18969800  0.73926100  1
  C  C2  1  0.06073100  0.98049400  0.38550300  1
  C  C3  1  0.93926900  0.01950600  0.61449700  1
  C  C4  1  0.74447500  0.58428700  0.35692100  1
  C  C5  1  0.25552500  0.41571300  0.64307900  1
  C  C6  1  0.56497600  0.69367700  0.09812900  1
  C  C7  1  0.43502400  0.30632300  0.90187100  1
  C  C8  1  0.84031600  0.06205700  0.09904700  1
  C  C9  1  0.15968400  0.93794300  0.90095300  1
  C  C10  1  0.36024800  0.95771600  0.27069400  1
  C  C11  1  0.63975200  0.04228400  0.72930600  1
  C  C12  1  0.38024900  0.52205400  0.37862600  1
  C  C13  1  0.61975100  0.47794600  0.62137400  1
  C  C14  1  0.16969300  0.70974200  0.16194300  1
  C  C15  1  0.83030700  0.29025800  0.83805700  1
  C  C16  1  0.20565400  0.10670600  0.09632000  1
  C  C17  1  0.79434600  0.89329400  0.90368000  1
  Ni  Ni18  1  0.88672600  0.98173100  0.41743300  1
  Ni  Ni19  1  0.11327400  0.01826900  0.58256700  1
  Ni  Ni20  1  0.25656100  0.97822100  0.35392200  1
  Ni  Ni21  1  0.74343900  0.02177900  0.64607800  1
  Ni  Ni22  1  0.91492000  0.59494900  0.32517700  1
  Ni  Ni23  1  0.08508000  0.40505100  0.67482300  1
  Ni  Ni24  1  0.55632000  0.57714800  0.39568100  1
  Ni  Ni25  1  0.44368000  0.42285200  0.60431900  1
  Ni  Ni26  1  0.74537100  0.70418800  0.08708000  1
  Ni  Ni27  1  0.25462900  0.29581200  0.91292000  1
  Ni  Ni28  1  0.36874400  0.68115600  0.10490500  1
  Ni  Ni29  1  0.63125600  0.31884400  0.89509500  1
  Ni  Ni30  1  0.95599400  0.13492600  0.09685400  1
  Ni  Ni31  1  0.04400600  0.86507400  0.90314600  1
  Ni  Ni32  1  0.72338900  0.00219500  0.10199200  1
  Ni  Ni33  1  0.27661100  0.99780500  0.89800800  1
  Cu  Cu34  1  0.56884400  0.76761500  0.55412700  1
  Cu  Cu35  1  0.43115600  0.23238500  0.44587300  1
  Cu  Cu36  1  0.08847700  0.37912800  0.15937700  1
  Cu  Cu37  1  0.91152300  0.62087200  0.84062300  1
  C  C38  1  0.75825500  0.71250100  0.51412100  1
  C  C39  1  0.24174500  0.28749900  0.48587900  1
  C  C40  1  0.57146300  0.53124800  0.68612500  1
  C  C41  1  0.42853700  0.46875200  0.31387500  1
  C  C42  1  0.61161100  0.85903100  0.57853100  1
  C  C43  1  0.38838900  0.14096900  0.42146900  1
  C  C44  1  0.37944000  0.79445500  0.50645200  1
  C  C45  1  0.62056000  0.20554500  0.49354800  1
  C  C46  1  0.86622200  0.37715000  0.19164200  1
  C  C47  1  0.13377800  0.62285000  0.80835800  1
  C  C48  1  0.12169300  0.48245000  0.10014600  1
  C  C49  1  0.87830700  0.51755000  0.89985400  1
  C  C50  1  0.29205400  0.20102300  0.09681800  1
  C  C51  1  0.70794600  0.79897700  0.90318200  1
  C  C52  1  0.24235900  0.33819400  0.22236300  1
  C  C53  1  0.75764100  0.66180600  0.77763700  1
