# generated using pymatgen
data_CuNiC15
_symmetry_space_group_name_H-M   'P 1'
_cell_length_a   8.75199100
_cell_length_b   8.75199100
_cell_length_c   12.06694600
_cell_angle_alpha   90.00000000
_cell_angle_beta   90.00000000
_cell_angle_gamma   90.00000000
_symmetry_Int_Tables_number   1
_chemical_formula_structural   CuNiC15
_chemical_formula_sum   'Cu4 Ni4 C60'
_cell_volume   924.29604353
_cell_formula_units_Z   4
loop_
 _symmetry_equiv_pos_site_id
 _symmetry_equiv_pos_as_xyz
  1  'x, y, z'
loop_
 _atom_site_type_symbol
 _atom_site_label
 _atom_site_symmetry_multiplicity
 _atom_site_fract_x
 _atom_site_fract_y
 _atom_site_fract_z
 _atom_site_occupancy
  Ni  Ni0  1  0.64394800  0.64394800  0.50000000  1
  Ni  Ni1  1  0.35605200  0.35605200  0.50000000  1
  Ni  Ni2  1  0.85605200  0.14394800  0.00000000  1
  Ni  Ni3  1  0.14394800  0.85605200  0.00000000  1
  Cu  Cu4  1  0.23359700  0.76640300  0.50000000  1
  Cu  Cu5  1  0.76640300  0.23359700  0.50000000  1
  Cu  Cu6  1  0.26640300  0.26640300  0.00000000  1
  Cu  Cu7  1  0.73359700  0.73359700  0.00000000  1
  C  C8  1  0.18246500  0.81753500  0.25319400  1
  C  C9  1  0.81753500  0.18246500  0.25319400  1
  C  C10  1  0.31753500  0.31753500  0.75319400  1
  C  C11  1  0.68246500  0.68246500  0.75319400  1
  C  C12  1  0.81753500  0.18246500  0.74680600  1
  C  C13  1  0.18246500  0.81753500  0.74680600  1
  C  C14  1  0.68246500  0.68246500  0.24680600  1
  C  C15  1  0.31753500  0.31753500  0.24680600  1
  C  C16  1  0.40299000  0.59701000  0.29711800  1
  C  C17  1  0.59701000  0.40299000  0.29711800  1
  C  C18  1  0.09701000  0.09701000  0.79711800  1
  C  C19  1  0.90299000  0.90299000  0.79711800  1
  C  C20  1  0.59701000  0.40299000  0.70288200  1
  C  C21  1  0.40299000  0.59701000  0.70288200  1
  C  C22  1  0.90299000  0.90299000  0.20288200  1
  C  C23  1  0.09701000  0.09701000  0.20288200  1
  C  C24  1  0.14041900  0.53629300  0.32398800  1
  C  C25  1  0.85958100  0.46370700  0.32398800  1
  C  C26  1  0.35958100  0.03629300  0.82398800  1
  C  C27  1  0.64041900  0.96370700  0.82398800  1
  C  C28  1  0.85958100  0.46370700  0.67601200  1
  C  C29  1  0.14041900  0.53629300  0.67601200  1
  C  C30  1  0.64041900  0.96370700  0.17601200  1
  C  C31  1  0.35958100  0.03629300  0.17601200  1
  C  C32  1  0.53629300  0.14041900  0.32398800  1
  C  C33  1  0.46370700  0.85958100  0.32398800  1
  C  C34  1  0.03629300  0.35958100  0.82398800  1
  C  C35  1  0.96370700  0.64041900  0.82398800  1
  C  C36  1  0.46370700  0.85958100  0.67601200  1
  C  C37  1  0.53629300  0.14041900  0.67601200  1
  C  C38  1  0.96370700  0.64041900  0.17601200  1
  C  C39  1  0.03629300  0.35958100  0.17601200  1
  C  C40  1  0.50000000  0.50000000  0.11431300  1
  C  C41  1  0.00000000  0.00000000  0.61431300  1
  C  C42  1  0.50000000  0.50000000  0.88568700  1
  C  C43  1  0.00000000  0.00000000  0.38568700  1
  C  C44  1  0.93207800  0.72428000  0.37286100  1
  C  C45  1  0.06792200  0.27572000  0.37286100  1
  C  C46  1  0.56792200  0.22428000  0.87286100  1
  C  C47  1  0.43207800  0.77572000  0.87286100  1
  C  C48  1  0.06792200  0.27572000  0.62713900  1
  C  C49  1  0.93207800  0.72428000  0.62713900  1
  C  C50  1  0.43207800  0.77572000  0.12713900  1
  C  C51  1  0.56792200  0.22428000  0.12713900  1
  C  C52  1  0.72428000  0.93207800  0.37286100  1
  C  C53  1  0.27572000  0.06792200  0.37286100  1
  C  C54  1  0.22428000  0.56792200  0.87286100  1
  C  C55  1  0.77572000  0.43207800  0.87286100  1
  C  C56  1  0.27572000  0.06792200  0.62713900  1
  C  C57  1  0.72428000  0.93207800  0.62713900  1
  C  C58  1  0.77572000  0.43207800  0.12713900  1
  C  C59  1  0.22428000  0.56792200  0.12713900  1
  C  C60  1  0.00000000  0.50000000  0.50000000  1
  C  C61  1  0.50000000  0.00000000  0.00000000  1
  C  C62  1  0.50000000  0.00000000  0.50000000  1
  C  C63  1  0.00000000  0.50000000  0.00000000  1
  C  C64  1  0.87400600  0.87400600  0.50000000  1
  C  C65  1  0.12599400  0.12599400  0.50000000  1
  C  C66  1  0.62599400  0.37400600  0.00000000  1
  C  C67  1  0.37400600  0.62599400  0.00000000  1
