# generated using pymatgen
data_CuNiC14
_symmetry_space_group_name_H-M   'P 1'
_cell_length_a   6.23583698
_cell_length_b   6.23583650
_cell_length_c   10.29544603
_cell_angle_alpha   90.00000000
_cell_angle_beta   90.00000000
_cell_angle_gamma   120.00000257
_symmetry_Int_Tables_number   1
_chemical_formula_structural   CuNiC14
_chemical_formula_sum   'Cu1 Ni1 C14'
_cell_volume   346.70911497
_cell_formula_units_Z   1
loop_
 _symmetry_equiv_pos_site_id
 _symmetry_equiv_pos_as_xyz
  1  'x, y, z'
loop_
 _atom_site_type_symbol
 _atom_site_label
 _atom_site_symmetry_multiplicity
 _atom_site_fract_x
 _atom_site_fract_y
 _atom_site_fract_z
 _atom_site_occupancy
  C  C0  1  0.16121814  0.83060857  0.12500000  1
  C  C1  1  0.16702042  0.83350971  0.62500000  1
  C  C2  1  0.66939143  0.33878186  0.12500000  1
  C  C3  1  0.66649029  0.33297958  0.62500000  1
  C  C4  1  0.66939143  0.83060857  0.12500000  1
  C  C5  1  0.66649029  0.83350971  0.62500000  1
  C  C6  1  0.32834436  0.17165564  0.35852854  1
  C  C7  1  0.32834436  0.17165564  0.89147146  1
  C  C8  1  0.32834436  0.65668972  0.35852854  1
  C  C9  1  0.32834436  0.65668972  0.89147146  1
  C  C10  1  0.84331028  0.17165564  0.35852854  1
  C  C11  1  0.84331028  0.17165564  0.89147146  1
  C  C12  1  0.83333300  0.66666700  0.37386960  1
  C  C13  1  0.83333300  0.66666700  0.87613040  1
  Ni  Ni14  1  0.16666700  0.33333300  0.12500000  1
  Cu  Cu15  1  0.16666700  0.33333300  0.62500000  1
