# generated using pymatgen
data_CuNi2C13
_symmetry_space_group_name_H-M   'P 1'
_cell_length_a   2.88855039
_cell_length_b   10.10042897
_cell_length_c   9.76570791
_cell_angle_alpha   79.29769579
_cell_angle_beta   90.60989055
_cell_angle_gamma   90.47653442
_symmetry_Int_Tables_number   1
_chemical_formula_structural   CuNi2C13
_chemical_formula_sum   'Cu2 Ni4 C26'
_cell_volume   279.94258275
_cell_formula_units_Z   2
loop_
 _symmetry_equiv_pos_site_id
 _symmetry_equiv_pos_as_xyz
  1  'x, y, z'
loop_
 _atom_site_type_symbol
 _atom_site_label
 _atom_site_symmetry_multiplicity
 _atom_site_fract_x
 _atom_site_fract_y
 _atom_site_fract_z
 _atom_site_occupancy
  C  C0  1  0.50000200  0.75000200  0.00000000  1
  C  C1  1  0.00000000  0.74999700  0.50000100  1
  C  C2  1  0.99708500  0.12495800  0.25486100  1
  C  C3  1  0.50394900  0.12513000  0.75138600  1
  C  C4  1  0.49605100  0.37487100  0.24861300  1
  C  C5  1  0.00291800  0.37503900  0.74514000  1
  C  C6  1  0.99352600  0.64040500  0.24606200  1
  C  C7  1  0.49099900  0.63958600  0.74604600  1
  C  C8  1  0.50900500  0.86041700  0.25395600  1
  C  C9  1  0.00647700  0.85959700  0.75393700  1
  Ni  Ni10  1  0.49836100  0.99467400  0.50550600  1
  Ni  Ni11  1  0.50163300  0.50531700  0.49449400  1
  Ni  Ni12  1  0.00646500  0.98973200  0.00654900  1
  Ni  Ni13  1  0.99352100  0.51028400  0.99344000  1
  Cu  Cu14  1  0.00000000  0.24999700  0.50000000  1
  Cu  Cu15  1  0.50000200  0.25000200  0.00000000  1
  C  C16  1  0.51081500  0.05875400  0.11373200  1
  C  C17  1  0.00259200  0.06870700  0.60932400  1
  C  C18  1  0.99740700  0.43128700  0.39067800  1
  C  C19  1  0.48918600  0.44125000  0.88626800  1
  C  C20  1  0.97811000  0.31504500  0.11277000  1
  C  C21  1  0.50486200  0.31171600  0.60697300  1
  C  C22  1  0.49513800  0.18827700  0.39302700  1
  C  C23  1  0.02189400  0.18496000  0.88723000  1
  C  C24  1  0.49771900  0.55318500  0.10807400  1
  C  C25  1  0.00663100  0.55058100  0.60780100  1
  C  C26  1  0.99336700  0.94941400  0.39220100  1
  C  C27  1  0.50228100  0.94681900  0.89192600  1
  C  C28  1  0.00414800  0.82671700  0.12086600  1
  C  C29  1  0.50059500  0.83109900  0.62062800  1
  C  C30  1  0.49940600  0.66889600  0.37937400  1
  C  C31  1  0.99585600  0.67328600  0.87913600  1
