# generated using pymatgen
data_Cu(NiC3)2
_symmetry_space_group_name_H-M   'P 1'
_cell_length_a   8.90508470
_cell_length_b   8.90508470
_cell_length_c   8.90508470
_cell_angle_alpha   143.78616278
_cell_angle_beta   142.59994344
_cell_angle_gamma   53.04183909
_symmetry_Int_Tables_number   1
_chemical_formula_structural   Cu(NiC3)2
_chemical_formula_sum   'Cu2 Ni4 C12'
_cell_volume   251.84695911
_cell_formula_units_Z   2
loop_
 _symmetry_equiv_pos_site_id
 _symmetry_equiv_pos_as_xyz
  1  'x, y, z'
loop_
 _atom_site_type_symbol
 _atom_site_label
 _atom_site_symmetry_multiplicity
 _atom_site_fract_x
 _atom_site_fract_y
 _atom_site_fract_z
 _atom_site_occupancy
  Ni  Ni0  1  0.37219800  0.89071100  0.46034400  1
  Ni  Ni1  1  0.06963300  0.58814500  0.46034400  1
  Ni  Ni2  1  0.62780200  0.08814500  0.51851300  1
  Ni  Ni3  1  0.93036700  0.39071100  0.51851300  1
  Cu  Cu4  1  0.70491800  0.70581300  0.91073100  1
  Cu  Cu5  1  0.29508200  0.20581300  0.00089500  1
  C  C6  1  0.50000000  0.51250300  0.01250300  1
  C  C7  1  0.00000000  0.01250300  0.01250300  1
  C  C8  1  0.66621300  0.30862700  0.47484000  1
  C  C9  1  0.33378700  0.80862700  0.64241400  1
  C  C10  1  0.28964200  0.42571300  0.97428600  1
  C  C11  1  0.71035800  0.68464500  0.13607100  1
  C  C12  1  0.95142700  0.92571300  0.13607100  1
  C  C13  1  0.04857300  0.18464500  0.97428600  1
  C  C14  1  0.26199900  0.78173500  0.00787600  1
  C  C15  1  0.73800100  0.74587600  0.51973600  1
  C  C16  1  0.72614000  0.24587600  0.00787600  1
  C  C17  1  0.27386000  0.28173500  0.51973600  1
