# generated using pymatgen
data_Cu(NiC)2
_symmetry_space_group_name_H-M   'P 1'
_cell_length_a   8.86510800
_cell_length_b   8.87993602
_cell_length_c   8.88031519
_cell_angle_alpha   109.49253680
_cell_angle_beta   109.35391917
_cell_angle_gamma   109.51957377
_symmetry_Int_Tables_number   1
_chemical_formula_structural   Cu(NiC)2
_chemical_formula_sum   'Cu8 Ni16 C16'
_cell_volume   538.46144133
_cell_formula_units_Z   8
loop_
 _symmetry_equiv_pos_site_id
 _symmetry_equiv_pos_as_xyz
  1  'x, y, z'
loop_
 _atom_site_type_symbol
 _atom_site_label
 _atom_site_symmetry_multiplicity
 _atom_site_fract_x
 _atom_site_fract_y
 _atom_site_fract_z
 _atom_site_occupancy
  C  C0  1  0.00353700  0.00139000  0.49892600  1
  C  C1  1  0.75245600  0.78318400  0.95582300  1
  C  C2  1  0.96815300  0.24648400  0.78009300  1
  C  C3  1  0.53157300  0.74768800  0.70839600  1
  C  C4  1  0.71214400  0.45997100  0.75685000  1
  C  C5  1  0.21992400  0.96837000  0.75014100  1
  C  C6  1  0.74958800  0.28805900  0.46445900  1
  C  C7  1  0.00106200  0.48987400  0.01042500  1
  C  C8  1  0.49413300  0.49791300  0.49074900  1
  C  C9  1  0.49462200  0.01105200  0.99797500  1
  C  C10  1  0.25796100  0.71353900  0.53221200  1
  C  C11  1  0.28175900  0.53400000  0.25458900  1
  C  C12  1  0.78579200  0.03659900  0.24629500  1
  C  C13  1  0.04594900  0.75691000  0.21339300  1
  C  C14  1  0.46920400  0.25846000  0.28211200  1
  C  C15  1  0.23824500  0.20703600  0.04644200  1
  Ni  Ni16  1  0.76955500  0.72546600  0.74036000  1
  Ni  Ni17  1  0.98433500  0.95066300  0.27828800  1
  Ni  Ni18  1  0.27317700  0.73951900  0.77379500  1
  Ni  Ni19  1  0.53603600  0.77244000  0.45592900  1
  Ni  Ni20  1  0.74130500  0.22659300  0.72630000  1
  Ni  Ni21  1  0.54944300  0.53819100  0.22550900  1
  Ni  Ni22  1  0.26437000  0.77748100  0.27234200  1
  Ni  Ni23  1  0.04796300  0.27571500  0.98322400  1
  Ni  Ni24  1  0.27003500  0.00671400  0.95760200  1
  Ni  Ni25  1  0.46502400  0.22840300  0.54509000  1
  Ni  Ni26  1  0.22746100  0.45679600  0.53438500  1
  Ni  Ni27  1  0.72807800  0.25754700  0.22778400  1
  Ni  Ni28  1  0.51389400  0.24247600  0.02976700  1
  Ni  Ni29  1  0.01113200  0.04221800  0.73012000  1
  Ni  Ni30  1  0.03112000  0.49138200  0.23851000  1
  Ni  Ni31  1  0.22392500  0.26982400  0.26596400  1
  Cu  Cu32  1  0.96481500  0.51460800  0.76043400  1
  Cu  Cu33  1  0.49304900  0.76485000  0.96475800  1
  Cu  Cu34  1  0.76925400  0.54303200  0.46970500  1
  Cu  Cu35  1  0.72488300  0.98456300  0.04754900  1
  Cu  Cu36  1  0.23532500  0.96417900  0.48898300  1
  Cu  Cu37  1  0.95120300  0.72521800  0.01183200  1
  Cu  Cu38  1  0.45780100  0.46810100  0.77021000  1
  Cu  Cu39  1  0.76071200  0.03349200  0.51268000  1
