# generated using pymatgen
data_Cu2Ni2C9
_symmetry_space_group_name_H-M   'P 1'
_cell_length_a   9.12161500
_cell_length_b   6.69058400
_cell_length_c   12.72305921
_cell_angle_alpha   87.72556387
_cell_angle_beta   90.00000000
_cell_angle_gamma   90.00000000
_symmetry_Int_Tables_number   1
_chemical_formula_structural   Cu2Ni2C9
_chemical_formula_sum   'Cu8 Ni8 C36'
_cell_volume   775.86300159
_cell_formula_units_Z   4
loop_
 _symmetry_equiv_pos_site_id
 _symmetry_equiv_pos_as_xyz
  1  'x, y, z'
loop_
 _atom_site_type_symbol
 _atom_site_label
 _atom_site_symmetry_multiplicity
 _atom_site_fract_x
 _atom_site_fract_y
 _atom_site_fract_z
 _atom_site_occupancy
  C  C0  1  0.16581100  0.12486800  0.03489800  1
  C  C1  1  0.83418900  0.87513200  0.96510200  1
  C  C2  1  0.66581100  0.87513200  0.46510200  1
  C  C3  1  0.33418900  0.12486800  0.53489800  1
  Ni  Ni4  1  0.18083100  0.75723800  0.84890200  1
  Ni  Ni5  1  0.05570000  0.39226800  0.62901200  1
  Ni  Ni6  1  0.94430000  0.60773200  0.37098800  1
  Ni  Ni7  1  0.81916900  0.24276200  0.15109800  1
  Ni  Ni8  1  0.31916900  0.75723800  0.34890200  1
  Ni  Ni9  1  0.44430000  0.39226800  0.12901200  1
  Ni  Ni10  1  0.68083100  0.24276200  0.65109800  1
  Ni  Ni11  1  0.55570000  0.60773200  0.87098800  1
  Cu  Cu12  1  0.45882800  0.09125600  0.83896900  1
  Cu  Cu13  1  0.04117200  0.09125600  0.33896900  1
  Cu  Cu14  1  0.08535000  0.59903800  0.14237400  1
  Cu  Cu15  1  0.95882800  0.90874400  0.66103100  1
  Cu  Cu16  1  0.91465000  0.40096200  0.85762600  1
  Cu  Cu17  1  0.58535000  0.40096200  0.35762600  1
  Cu  Cu18  1  0.41465000  0.59903800  0.64237400  1
  Cu  Cu19  1  0.54117200  0.90874400  0.16103100  1
  C  C20  1  0.23804400  0.01652000  0.37675900  1
  C  C21  1  0.00460700  0.66604900  0.59415200  1
  C  C22  1  0.57389300  0.19411900  0.46388800  1
  C  C23  1  0.07389300  0.80588100  0.03611200  1
  C  C24  1  0.26195600  0.01652000  0.87675900  1
  C  C25  1  0.76195600  0.98348000  0.62324100  1
  C  C26  1  0.09727100  0.10595400  0.60994800  1
  C  C27  1  0.88571100  0.51116300  0.14452400  1
  C  C28  1  0.61428900  0.51116300  0.64452400  1
  C  C29  1  0.87938800  0.31226600  0.71456800  1
  C  C30  1  0.37938800  0.68773400  0.78543200  1
  C  C31  1  0.11428900  0.48883700  0.85547600  1
  C  C32  1  0.90272900  0.89404600  0.39005200  1
  C  C33  1  0.51975500  0.86379000  0.30981900  1
  C  C34  1  0.26359500  0.42831400  0.59586300  1
  C  C35  1  0.23640500  0.42831400  0.09586300  1
  C  C36  1  0.01975500  0.13621000  0.19018100  1
  C  C37  1  0.38571100  0.48883700  0.35547600  1
  C  C38  1  0.48024500  0.13621000  0.69018100  1
  C  C39  1  0.42610700  0.80588100  0.53611200  1
  C  C40  1  0.49539300  0.66604900  0.09415200  1
  C  C41  1  0.12061200  0.68773400  0.28543200  1
  C  C42  1  0.73804400  0.98348000  0.12324100  1
  C  C43  1  0.40272900  0.10595400  0.10994800  1
  C  C44  1  0.92610700  0.19411900  0.96388800  1
  C  C45  1  0.76359500  0.57168600  0.90413700  1
  C  C46  1  0.99539300  0.33395100  0.40584800  1
  C  C47  1  0.50460700  0.33395100  0.90584800  1
  C  C48  1  0.59727100  0.89404600  0.89005200  1
  C  C49  1  0.73640500  0.57168600  0.40413700  1
  C  C50  1  0.62061200  0.31226600  0.21456800  1
  C  C51  1  0.98024500  0.86379000  0.80981900  1
