# generated using pymatgen
data_CuNi2C7
_symmetry_space_group_name_H-M   'P 1'
_cell_length_a   6.11553194
_cell_length_b   6.11553194
_cell_length_c   6.21433298
_cell_angle_alpha   60.30952835
_cell_angle_beta   60.30952835
_cell_angle_gamma   60.09459647
_symmetry_Int_Tables_number   1
_chemical_formula_structural   CuNi2C7
_chemical_formula_sum   'Cu1 Ni2 C7'
_cell_volume   165.22527617
_cell_formula_units_Z   1
loop_
 _symmetry_equiv_pos_site_id
 _symmetry_equiv_pos_as_xyz
  1  'x, y, z'
loop_
 _atom_site_type_symbol
 _atom_site_label
 _atom_site_symmetry_multiplicity
 _atom_site_fract_x
 _atom_site_fract_y
 _atom_site_fract_z
 _atom_site_occupancy
  Ni  Ni0  1  0.75263500  0.75263500  0.23907500  1
  Ni  Ni1  1  0.24736500  0.24736500  0.76092500  1
  Cu  Cu2  1  0.00000000  0.00000000  0.50000000  1
  C  C3  1  0.50000000  0.50000000  0.00000000  1
  C  C4  1  0.31532100  0.76757100  0.17683300  1
  C  C5  1  0.23242900  0.68467900  0.82316700  1
  C  C6  1  0.68467900  0.23242900  0.82316700  1
  C  C7  1  0.76757100  0.31532100  0.17683300  1
  C  C8  1  0.28085800  0.28085800  0.29322200  1
  C  C9  1  0.71914200  0.71914200  0.70677800  1
