# generated using pymatgen
data_Cu3Ni3C2
_symmetry_space_group_name_H-M   'P 1'
_cell_length_a   10.09456172
_cell_length_b   9.29698070
_cell_length_c   10.90820778
_cell_angle_alpha   82.33363093
_cell_angle_beta   96.34345215
_cell_angle_gamma   100.48054038
_symmetry_Int_Tables_number   1
_chemical_formula_structural   Cu3Ni3C2
_chemical_formula_sum   'Cu6 Ni6 C4'
_cell_volume   993.73463341
_cell_formula_units_Z   2
loop_
 _symmetry_equiv_pos_site_id
 _symmetry_equiv_pos_as_xyz
  1  'x, y, z'
loop_
 _atom_site_type_symbol
 _atom_site_label
 _atom_site_symmetry_multiplicity
 _atom_site_fract_x
 _atom_site_fract_y
 _atom_site_fract_z
 _atom_site_occupancy
  C  C0  1  -0.00000000  -0.00000000  -0.00000000  1
  C  C1  1  -0.00000000  -0.00000000  0.50000000  1
  C  C2  1  0.50000000  0.50000000  -0.00000000  1
  C  C3  1  -0.00000000  0.50000000  -0.00000000  1
  Ni  Ni4  1  0.77562318  0.96624540  0.57717933  1
  Ni  Ni5  1  0.22437682  0.03375460  0.42282067  1
  Ni  Ni6  1  0.49664418  0.70348284  0.83085980  1
  Ni  Ni7  1  0.50335582  0.29651716  0.16914020  1
  Ni  Ni8  1  0.90444118  0.28946625  0.86509218  1
  Ni  Ni9  1  0.09555882  0.71053375  0.13490782  1
  Cu  Cu10  1  0.99973932  0.16625908  0.86462187  1
  Cu  Cu11  1  0.00026068  0.83374092  0.13537813  1
  Cu  Cu12  1  0.85184836  0.85972092  0.88503453  1
  Cu  Cu13  1  0.14815164  0.14027908  0.11496547  1
  Cu  Cu14  1  0.78487736  0.91951846  0.95366087  1
  Cu  Cu15  1  0.21512264  0.08048154  0.04633913  1
