# generated using pymatgen
data_Cu7Ni4C23
_symmetry_space_group_name_H-M   'P 1'
_cell_length_a   9.86456327
_cell_length_b   9.86456327
_cell_length_c   22.13411585
_cell_angle_alpha   90.00000000
_cell_angle_beta   90.00000000
_cell_angle_gamma   120.00000573
_symmetry_Int_Tables_number   1
_chemical_formula_structural   Cu7Ni4C23
_chemical_formula_sum   'Cu14 Ni8 C46'
_cell_volume   1865.29923051
_cell_formula_units_Z   2
loop_
 _symmetry_equiv_pos_site_id
 _symmetry_equiv_pos_as_xyz
  1  'x, y, z'
loop_
 _atom_site_type_symbol
 _atom_site_label
 _atom_site_symmetry_multiplicity
 _atom_site_fract_x
 _atom_site_fract_y
 _atom_site_fract_z
 _atom_site_occupancy
  C  C0  1  0.20504025  0.41008049  0.71893142  1
  C  C1  1  0.20504025  0.79495975  0.71893142  1
  C  C2  1  0.79495975  0.58991951  0.21893142  1
  C  C3  1  0.58991951  0.79495975  0.71893142  1
  C  C4  1  0.79495975  0.20504025  0.21893142  1
  C  C5  1  0.41008049  0.20504025  0.21893142  1
  C  C6  1  0.79513601  0.59027202  0.94608437  1
  C  C7  1  0.79513601  0.20486399  0.94608437  1
  C  C8  1  0.20486399  0.40972798  0.44608437  1
  C  C9  1  0.40972798  0.20486399  0.94608437  1
  C  C10  1  0.20486399  0.79513601  0.44608437  1
  C  C11  1  0.59027202  0.79513601  0.44608437  1
  C  C12  1  0.21032999  0.42065998  0.99172709  1
  C  C13  1  0.21032999  0.78967001  0.99172709  1
  C  C14  1  0.78967001  0.57934002  0.49172709  1
  C  C15  1  0.57934002  0.78967001  0.99172709  1
  C  C16  1  0.78967001  0.21032999  0.49172709  1
  C  C17  1  0.42065998  0.21032999  0.49172709  1
  C  C18  1  0.86865592  0.73731185  0.63682752  1
  C  C19  1  0.86865592  0.13134408  0.63682752  1
  C  C20  1  0.13134408  0.26268815  0.13682752  1
  C  C21  1  0.26268815  0.13134408  0.63682752  1
  C  C22  1  0.13134408  0.86865592  0.13682752  1
  C  C23  1  0.73731185  0.86865592  0.13682752  1
  C  C24  1  0.45760493  0.91520985  0.85686202  1
  C  C25  1  0.45760493  0.54239507  0.85686202  1
  C  C26  1  0.54239507  0.08479015  0.35686202  1
  C  C27  1  0.08479015  0.54239507  0.85686202  1
  C  C28  1  0.54239507  0.45760493  0.35686202  1
  C  C29  1  0.91520985  0.45760493  0.35686202  1
  C  C30  1  0.00000000  -0.00000000  0.99685394  1
  C  C31  1  0.00000000  -0.00000000  0.49685394  1
  C  C32  1  0.46165372  0.92330744  0.58438834  1
  C  C33  1  0.46165372  0.53834628  0.58438834  1
  C  C34  1  0.53834628  0.07669256  0.08438834  1
  C  C35  1  0.07669256  0.53834628  0.58438834  1
  C  C36  1  0.53834628  0.46165372  0.08438834  1
  C  C37  1  0.92330744  0.46165372  0.08438834  1
  C  C38  1  0.79804337  0.59608674  0.78307252  1
  C  C39  1  0.79804337  0.20195663  0.78307252  1
  C  C40  1  0.20195663  0.40391326  0.28307252  1
  C  C41  1  0.40391326  0.20195663  0.78307252  1
  C  C42  1  0.20195663  0.79804337  0.28307252  1
  C  C43  1  0.59608674  0.79804337  0.28307252  1
  C  C44  1  0.66666700  0.33333300  0.63926839  1
  C  C45  1  0.33333300  0.66666700  0.13926839  1
  Ni  Ni46  1  0.00000000  -0.00000000  0.74868240  1
  Ni  Ni47  1  0.00000000  -0.00000000  0.24868240  1
  Ni  Ni48  1  0.10652139  0.21304278  0.86314804  1
  Ni  Ni49  1  0.10652139  0.89347861  0.86314804  1
  Ni  Ni50  1  0.89347861  0.78695722  0.36314804  1
  Ni  Ni51  1  0.78695722  0.89347861  0.86314804  1
  Ni  Ni52  1  0.89347861  0.10652139  0.36314804  1
  Ni  Ni53  1  0.21304278  0.10652139  0.36314804  1
  Cu  Cu54  1  0.51929645  0.03859289  0.71042923  1
  Cu  Cu55  1  0.51929645  0.48070355  0.71042923  1
  Cu  Cu56  1  0.48070355  0.96140711  0.21042923  1
  Cu  Cu57  1  0.96140711  0.48070355  0.71042923  1
  Cu  Cu58  1  0.48070355  0.51929645  0.21042923  1
  Cu  Cu59  1  0.03859289  0.51929645  0.21042923  1
  Cu  Cu60  1  0.66666700  0.33333300  0.86536473  1
  Cu  Cu61  1  0.33333300  0.66666700  0.36536473  1
  Cu  Cu62  1  0.14481100  0.28962199  0.56404630  1
  Cu  Cu63  1  0.14481100  0.85518900  0.56404630  1
  Cu  Cu64  1  0.85518900  0.71037801  0.06404630  1
  Cu  Cu65  1  0.71037801  0.85518900  0.56404630  1
  Cu  Cu66  1  0.85518900  0.14481100  0.06404630  1
  Cu  Cu67  1  0.28962199  0.14481100  0.06404630  1
