# generated using pymatgen
data_CuNiC6
_symmetry_space_group_name_H-M   'P 1'
_cell_length_a   5.46477200
_cell_length_b   7.83791300
_cell_length_c   12.35411000
_cell_angle_alpha   90.00000000
_cell_angle_beta   90.00000000
_cell_angle_gamma   90.00000000
_symmetry_Int_Tables_number   1
_chemical_formula_structural   CuNiC6
_chemical_formula_sum   'Cu2 Ni2 C12'
_cell_volume   529.15627383
_cell_formula_units_Z   2
loop_
 _symmetry_equiv_pos_site_id
 _symmetry_equiv_pos_as_xyz
  1  'x, y, z'
loop_
 _atom_site_type_symbol
 _atom_site_label
 _atom_site_symmetry_multiplicity
 _atom_site_fract_x
 _atom_site_fract_y
 _atom_site_fract_z
 _atom_site_occupancy
  Ni  Ni0  1  0.50000000  0.50000000  0.17254500  1
  Ni  Ni1  1  0.50000000  0.00000000  0.67254500  1
  Cu  Cu2  1  0.00000000  0.50000000  0.33657800  1
  Cu  Cu3  1  0.00000000  0.00000000  0.83657800  1
  C  C4  1  0.00000000  0.79748700  0.07924800  1
  C  C5  1  0.00000000  0.20251300  0.07924800  1
  C  C6  1  0.00000000  0.50000000  0.83140600  1
  C  C7  1  0.50000000  0.70181600  0.91845200  1
  C  C8  1  0.50000000  0.29818400  0.91845200  1
  C  C9  1  0.50000000  0.50000000  0.66407100  1
  C  C10  1  0.00000000  0.29748700  0.57924800  1
  C  C11  1  0.00000000  0.70251300  0.57924800  1
  C  C12  1  0.00000000  0.00000000  0.33140600  1
  C  C13  1  0.50000000  0.20181600  0.41845200  1
  C  C14  1  0.50000000  0.79818400  0.41845200  1
  C  C15  1  0.50000000  0.00000000  0.16407100  1
