# generated using pymatgen
data_Cu11Ni15C2
_symmetry_space_group_name_H-M   'P 1'
_cell_length_a   13.74279600
_cell_length_b   13.74279600
_cell_length_c   7.42897300
_cell_angle_alpha   90.00000000
_cell_angle_beta   90.00000000
_cell_angle_gamma   90.00000000
_symmetry_Int_Tables_number   1
_chemical_formula_structural   Cu11Ni15C2
_chemical_formula_sum   'Cu22 Ni30 C4'
_cell_volume   1403.06883952
_cell_formula_units_Z   2
loop_
 _symmetry_equiv_pos_site_id
 _symmetry_equiv_pos_as_xyz
  1  'x, y, z'
loop_
 _atom_site_type_symbol
 _atom_site_label
 _atom_site_symmetry_multiplicity
 _atom_site_fract_x
 _atom_site_fract_y
 _atom_site_fract_z
 _atom_site_occupancy
  C  C0  1  0.71664000  0.28336000  0.59498500  1
  C  C1  1  0.28336000  0.71664000  0.59498500  1
  C  C2  1  0.78336000  0.78336000  0.09498500  1
  C  C3  1  0.21664000  0.21664000  0.09498500  1
  Ni  Ni4  1  0.73093200  0.41989600  0.50740600  1
  Ni  Ni5  1  0.26906800  0.58010400  0.50740600  1
  Ni  Ni6  1  0.76906800  0.91989600  0.00740600  1
  Ni  Ni7  1  0.23093200  0.08010400  0.00740600  1
  Ni  Ni8  1  0.58010400  0.26906800  0.50740600  1
  Ni  Ni9  1  0.41989600  0.73093200  0.50740600  1
  Ni  Ni10  1  0.91989600  0.76906800  0.00740600  1
  Ni  Ni11  1  0.08010400  0.23093200  0.00740600  1
  Ni  Ni12  1  0.50936900  0.25696400  0.43696000  1
  Ni  Ni13  1  0.49063100  0.74303600  0.43696000  1
  Ni  Ni14  1  0.99063100  0.75696400  0.93696000  1
  Ni  Ni15  1  0.00936900  0.24303600  0.93696000  1
  Ni  Ni16  1  0.74303600  0.49063100  0.43696000  1
  Ni  Ni17  1  0.25696400  0.50936900  0.43696000  1
  Ni  Ni18  1  0.75696400  0.99063100  0.93696000  1
  Ni  Ni19  1  0.24303600  0.00936900  0.93696000  1
  Ni  Ni20  1  0.77566900  0.22433100  0.40346500  1
  Ni  Ni21  1  0.22433100  0.77566900  0.40346500  1
  Ni  Ni22  1  0.72433100  0.72433100  0.90346500  1
  Ni  Ni23  1  0.27566900  0.27566900  0.90346500  1
  Ni  Ni24  1  0.00000000  0.00000000  0.53251600  1
  Ni  Ni25  1  0.50000000  0.50000000  0.03251600  1
  Ni  Ni26  1  0.74766100  0.25233900  0.98292900  1
  Ni  Ni27  1  0.25233900  0.74766100  0.98292900  1
  Ni  Ni28  1  0.75233900  0.75233900  0.48292900  1
  Ni  Ni29  1  0.24766100  0.24766100  0.48292900  1
  Ni  Ni30  1  0.00000000  0.50000000  0.50029800  1
  Ni  Ni31  1  0.50000000  0.00000000  0.00029800  1
  Ni  Ni32  1  0.50000000  0.00000000  0.50029800  1
  Ni  Ni33  1  0.00000000  0.50000000  0.00029800  1
  Cu  Cu34  1  0.96836300  0.03163700  0.06983300  1
  Cu  Cu35  1  0.03163700  0.96836300  0.06983300  1
  Cu  Cu36  1  0.53163700  0.53163700  0.56983300  1
  Cu  Cu37  1  0.46836300  0.46836300  0.56983300  1
  Cu  Cu38  1  0.00000000  0.00000000  0.70187900  1
  Cu  Cu39  1  0.50000000  0.50000000  0.20187900  1
  Cu  Cu40  1  0.94378200  0.05621800  0.44804500  1
  Cu  Cu41  1  0.05621800  0.94378200  0.44804500  1
  Cu  Cu42  1  0.55621800  0.55621800  0.94804500  1
  Cu  Cu43  1  0.44378200  0.44378200  0.94804500  1
  Cu  Cu44  1  0.68547300  0.31452700  0.01047900  1
  Cu  Cu45  1  0.31452700  0.68547300  0.01047900  1
  Cu  Cu46  1  0.81452700  0.81452700  0.51047900  1
  Cu  Cu47  1  0.18547300  0.18547300  0.51047900  1
  Cu  Cu48  1  0.76881200  0.23118800  0.81445600  1
  Cu  Cu49  1  0.23118800  0.76881200  0.81445600  1
  Cu  Cu50  1  0.73118800  0.73118800  0.31445600  1
  Cu  Cu51  1  0.26881200  0.26881200  0.31445600  1
  Cu  Cu52  1  0.81946400  0.18053600  0.29658100  1
  Cu  Cu53  1  0.18053600  0.81946400  0.29658100  1
  Cu  Cu54  1  0.68053600  0.68053600  0.79658100  1
  Cu  Cu55  1  0.31946400  0.31946400  0.79658100  1
