# generated using pymatgen
data_Cu3Ni8C17
_symmetry_space_group_name_H-M   'P 1'
_cell_length_a   12.43778616
_cell_length_b   12.43778616
_cell_length_c   12.43778658
_cell_angle_alpha   33.58326536
_cell_angle_beta   33.58326536
_cell_angle_gamma   33.58326739
_symmetry_Int_Tables_number   1
_chemical_formula_structural   Cu3Ni8C17
_chemical_formula_sum   'Cu3 Ni8 C17'
_cell_volume   524.41348382
_cell_formula_units_Z   1
loop_
 _symmetry_equiv_pos_site_id
 _symmetry_equiv_pos_as_xyz
  1  'x, y, z'
loop_
 _atom_site_type_symbol
 _atom_site_label
 _atom_site_symmetry_multiplicity
 _atom_site_fract_x
 _atom_site_fract_y
 _atom_site_fract_z
 _atom_site_occupancy
  Ni  Ni0  1  0.24986100  0.24986100  0.24986100  1
  Ni  Ni1  1  0.75011300  0.75011300  0.75011300  1
  Ni  Ni2  1  0.50020900  0.50020900  0.00109900  1
  Ni  Ni3  1  0.99988600  0.99988600  0.49872700  1
  Ni  Ni4  1  0.50020900  0.00109900  0.50020900  1
  Ni  Ni5  1  0.99988600  0.49872700  0.99988600  1
  Ni  Ni6  1  0.00109900  0.50020900  0.50020900  1
  Ni  Ni7  1  0.49872700  0.99988600  0.99988600  1
  Cu  Cu8  1  0.43733300  0.43733300  0.43733300  1
  Cu  Cu9  1  0.56249800  0.56249800  0.56249800  1
  Cu  Cu10  1  0.06250600  0.06250600  0.06250600  1
  C  C11  1  0.93757200  0.93757200  0.93757200  1
  C  C12  1  0.86697100  0.86697100  0.86697100  1
  C  C13  1  0.37080200  0.37080200  0.37080200  1
  C  C14  1  0.14741200  0.14741200  0.58824900  1
  C  C15  1  0.63915100  0.63915100  0.10095900  1
  C  C16  1  0.14741200  0.58824900  0.14741200  1
  C  C17  1  0.63915100  0.10095900  0.63915100  1
  C  C18  1  0.58824900  0.14741200  0.14741200  1
  C  C19  1  0.10095900  0.63915100  0.63915100  1
  C  C20  1  0.62998100  0.62998100  0.62998100  1
  C  C21  1  0.12998200  0.12998200  0.12998200  1
  C  C22  1  0.36004000  0.36004000  0.90007200  1
  C  C23  1  0.86006000  0.86006000  0.39975800  1
  C  C24  1  0.36004000  0.90007200  0.36004000  1
  C  C25  1  0.86006000  0.39975800  0.86006000  1
  C  C26  1  0.90007200  0.36004000  0.36004000  1
  C  C27  1  0.39975800  0.86006000  0.86006000  1
