# generated using pymatgen
data_Cu2Ni14C9
_symmetry_space_group_name_H-M   'P 1'
_cell_length_a   7.96246641
_cell_length_b   7.31516004
_cell_length_c   5.74581125
_cell_angle_alpha   108.75839782
_cell_angle_beta   114.09512057
_cell_angle_gamma   83.78428821
_symmetry_Int_Tables_number   1
_chemical_formula_structural   Cu2Ni14C9
_chemical_formula_sum   'Cu2 Ni14 C9'
_cell_volume   289.18354752
_cell_formula_units_Z   1
loop_
 _symmetry_equiv_pos_site_id
 _symmetry_equiv_pos_as_xyz
  1  'x, y, z'
loop_
 _atom_site_type_symbol
 _atom_site_label
 _atom_site_symmetry_multiplicity
 _atom_site_fract_x
 _atom_site_fract_y
 _atom_site_fract_z
 _atom_site_occupancy
  C  C0  1  0.87426200  0.36901400  0.24410300  1
  C  C1  1  0.69956200  0.25570300  0.54939400  1
  C  C2  1  0.53930300  0.99674500  0.97596300  1
  C  C3  1  0.25864500  0.24406300  0.51610000  1
  C  C4  1  0.73746900  0.77872200  0.49082800  1
  C  C5  1  0.49857800  0.52220600  0.00750500  1
  C  C6  1  0.00613400  0.97874400  0.01081200  1
  C  C7  1  0.20236400  0.76747800  0.52979300  1
  C  C8  1  0.06995800  0.48011500  0.99137700  1
  Ni  Ni9  1  0.01316300  0.14972500  0.35412900  1
  Ni  Ni10  1  0.90616500  0.25897700  0.88612800  1
  Ni  Ni11  1  0.61595900  0.26651000  0.16320000  1
  Ni  Ni12  1  0.33682900  0.01715500  0.65520500  1
  Ni  Ni13  1  0.50920100  0.35195700  0.67396300  1
  Ni  Ni14  1  0.74523000  0.60788200  0.16449800  1
  Ni  Ni15  1  0.73498800  0.91142800  0.82924800  1
  Ni  Ni16  1  0.26052300  0.41769100  0.86754500  1
  Ni  Ni17  1  0.50660000  0.65812200  0.34637800  1
  Ni  Ni18  1  0.65307600  0.99002300  0.33697900  1
  Ni  Ni19  1  0.14698100  0.48409000  0.36900300  1
  Ni  Ni20  1  0.41027100  0.75104600  0.84923900  1
  Ni  Ni21  1  0.09075000  0.75792600  0.15829800  1
  Ni  Ni22  1  0.99624400  0.83606400  0.64944600  1
  Cu  Cu23  1  0.85976200  0.49549100  0.62149900  1
  Cu  Cu24  1  0.26316800  0.09756500  0.15222600  1
