# generated using pymatgen
data_Cu3Ni6C5
_symmetry_space_group_name_H-M   'P 1'
_cell_length_a   7.27766090
_cell_length_b   7.27766090
_cell_length_c   8.40479178
_cell_angle_alpha   84.22841807
_cell_angle_beta   84.22841807
_cell_angle_gamma   52.11103219
_symmetry_Int_Tables_number   1
_chemical_formula_structural   Cu3Ni6C5
_chemical_formula_sum   'Cu6 Ni12 C10'
_cell_volume   349.10882195
_cell_formula_units_Z   2
loop_
 _symmetry_equiv_pos_site_id
 _symmetry_equiv_pos_as_xyz
  1  'x, y, z'
loop_
 _atom_site_type_symbol
 _atom_site_label
 _atom_site_symmetry_multiplicity
 _atom_site_fract_x
 _atom_site_fract_y
 _atom_site_fract_z
 _atom_site_occupancy
  C  C0  1  0.28106500  0.06214700  0.81976200  1
  C  C1  1  0.71893500  0.93785300  0.18023800  1
  C  C2  1  0.93785300  0.71893500  0.68023800  1
  C  C3  1  0.06214700  0.28106500  0.31976200  1
  C  C4  1  0.60644700  0.39355300  0.75000000  1
  C  C5  1  0.39355300  0.60644700  0.25000000  1
  C  C6  1  0.40059600  0.23345000  0.52041600  1
  C  C7  1  0.59940400  0.76655000  0.47958400  1
  C  C8  1  0.76655000  0.59940400  0.97958400  1
  C  C9  1  0.23345000  0.40059600  0.02041600  1
  Ni  Ni10  1  0.56220900  0.74293300  0.64204400  1
  Ni  Ni11  1  0.43779100  0.25706700  0.35795600  1
  Ni  Ni12  1  0.25706700  0.43779100  0.85795600  1
  Ni  Ni13  1  0.74293300  0.56220900  0.14204400  1
  Ni  Ni14  1  0.70299800  0.81791000  0.92378500  1
  Ni  Ni15  1  0.29700200  0.18209000  0.07621500  1
  Ni  Ni16  1  0.18209000  0.29700200  0.57621500  1
  Ni  Ni17  1  0.81791000  0.70299800  0.42378500  1
  Ni  Ni18  1  0.57396300  0.12280400  0.62815200  1
  Ni  Ni19  1  0.42603700  0.87719600  0.37184800  1
  Ni  Ni20  1  0.87719600  0.42603700  0.87184800  1
  Ni  Ni21  1  0.12280400  0.57396300  0.12815200  1
  Cu  Cu22  1  0.97998000  0.02002000  0.75000000  1
  Cu  Cu23  1  0.02002000  0.97998000  0.25000000  1
  Cu  Cu24  1  0.27169200  0.62480800  0.54201600  1
  Cu  Cu25  1  0.72830800  0.37519200  0.45798400  1
  Cu  Cu26  1  0.37519200  0.72830800  0.95798400  1
  Cu  Cu27  1  0.62480800  0.27169200  0.04201600  1
