# generated using pymatgen
data_CuNi3C10
_symmetry_space_group_name_H-M   'P 1'
_cell_length_a   14.96922265
_cell_length_b   14.96922265
_cell_length_c   14.35106633
_cell_angle_alpha   88.67717158
_cell_angle_beta   88.67717158
_cell_angle_gamma   21.70842375
_symmetry_Int_Tables_number   1
_chemical_formula_structural   CuNi3C10
_chemical_formula_sum   'Cu6 Ni18 C60'
_cell_volume   1189.12481273
_cell_formula_units_Z   6
loop_
 _symmetry_equiv_pos_site_id
 _symmetry_equiv_pos_as_xyz
  1  'x, y, z'
loop_
 _atom_site_type_symbol
 _atom_site_label
 _atom_site_symmetry_multiplicity
 _atom_site_fract_x
 _atom_site_fract_y
 _atom_site_fract_z
 _atom_site_occupancy
  Ni  Ni0  1  0.29189900  0.28750800  0.41728600  1
  Ni  Ni1  1  0.28750800  0.29189900  0.91728600  1
  Ni  Ni2  1  0.17911100  0.14573600  0.32761300  1
  Ni  Ni3  1  0.14573600  0.17911100  0.82761300  1
  Ni  Ni4  1  0.33369000  0.44530100  0.07534300  1
  Ni  Ni5  1  0.44530100  0.33369000  0.57534400  1
  Ni  Ni6  1  0.54377800  0.44992400  0.23518800  1
  Ni  Ni7  1  0.44992400  0.54377800  0.73518800  1
  Ni  Ni8  1  0.05314400  0.06881000  0.00860700  1
  Ni  Ni9  1  0.06881000  0.05314400  0.50860700  1
  Ni  Ni10  1  0.60752100  0.58871000  0.39092700  1
  Ni  Ni11  1  0.58871000  0.60752100  0.89092700  1
  Ni  Ni12  1  0.93344700  0.94945100  0.15405400  1
  Ni  Ni13  1  0.94945100  0.93344700  0.65405400  1
  Ni  Ni14  1  0.71560900  0.72772500  0.47424400  1
  Ni  Ni15  1  0.72772500  0.71560900  0.97424400  1
  Ni  Ni16  1  0.80723300  0.83443400  0.29498400  1
  Ni  Ni17  1  0.83443400  0.80723300  0.79498400  1
  Cu  Cu18  1  0.57880400  0.66069600  0.63522700  1
  Cu  Cu19  1  0.66069600  0.57880400  0.13522700  1
  Cu  Cu20  1  0.04227500  0.84257200  0.40065400  1
  Cu  Cu21  1  0.84257200  0.04227500  0.90065400  1
  Cu  Cu22  1  0.22861800  0.30532800  0.16958000  1
  Cu  Cu23  1  0.30532800  0.22861800  0.66958000  1
  C  C24  1  0.70054800  0.72816300  0.25226600  1
  C  C25  1  0.72816300  0.70054800  0.75226600  1
  C  C26  1  0.08543400  0.02397200  0.25795500  1
  C  C27  1  0.02397200  0.08543400  0.75795500  1
  C  C28  1  0.18079600  0.16564300  0.04913000  1
  C  C29  1  0.16564300  0.18079600  0.54913000  1
  C  C30  1  0.80018500  0.86383100  0.04824900  1
  C  C31  1  0.86383100  0.80018500  0.54824900  1
  C  C32  1  0.42960800  0.34124500  0.30785700  1
  C  C33  1  0.34124500  0.42960800  0.80785700  1
  C  C34  1  0.45133300  0.54922600  0.00220100  1
  C  C35  1  0.54922600  0.45133300  0.50220100  1
  C  C36  1  0.92907600  0.21362300  0.16157500  1
  C  C37  1  0.21362300  0.92907600  0.66157500  1
  C  C38  1  0.42035300  0.87494900  0.01805700  1
  C  C39  1  0.87494900  0.42035300  0.51805700  1
  C  C40  1  0.40924900  0.58397200  0.39372800  1
  C  C41  1  0.58397200  0.40924900  0.89372800  1
  C  C42  1  0.45972800  0.01744400  0.28943200  1
  C  C43  1  0.01744400  0.45972800  0.78943200  1
  C  C44  1  0.31448900  0.46620800  0.41856300  1
  C  C45  1  0.46620800  0.31448900  0.91856300  1
  C  C46  1  0.01684600  0.15000100  0.35382100  1
  C  C47  1  0.15000100  0.01684600  0.85382100  1
  C  C48  1  0.13261100  0.21068100  0.16787700  1
  C  C49  1  0.21068100  0.13261100  0.66787700  1
  C  C50  1  0.58463300  0.34672200  0.07526900  1
  C  C51  1  0.34672200  0.58463300  0.57526900  1
  C  C52  1  0.87285100  0.90750800  0.52636900  1
  C  C53  1  0.90750800  0.87285100  0.02636900  1
  C  C54  1  0.35452400  0.30305300  0.27612900  1
  C  C55  1  0.30305300  0.35452400  0.77612900  1
  C  C56  1  0.66703200  0.96609800  0.64258700  1
  C  C57  1  0.96609800  0.66703200  0.14258700  1
  C  C58  1  0.74762700  0.05458700  0.30371500  1
  C  C59  1  0.05458700  0.74762700  0.80371500  1
  C  C60  1  0.49164500  0.14938200  0.07755000  1
  C  C61  1  0.14938200  0.49164500  0.57755000  1
  C  C62  1  0.72989900  0.70385400  0.13315400  1
  C  C63  1  0.70385400  0.72989900  0.63315400  1
  C  C64  1  0.96298700  0.52595700  0.30141000  1
  C  C65  1  0.52595700  0.96298700  0.80141000  1
  C  C66  1  0.23279500  0.22934500  0.01918000  1
  C  C67  1  0.22934500  0.23279500  0.51918000  1
  C  C68  1  0.52005100  0.59405800  0.03458100  1
  C  C69  1  0.59405800  0.52005100  0.53458100  1
  C  C70  1  0.39721400  0.74009400  0.23523200  1
  C  C71  1  0.74009400  0.39721400  0.73523200  1
  C  C72  1  0.74916600  0.85307000  0.45332100  1
  C  C73  1  0.85307000  0.74916600  0.95332100  1
  C  C74  1  0.37089900  0.91791600  0.49651600  1
  C  C75  1  0.91791600  0.37089900  0.99651600  1
  C  C76  1  0.98287200  0.00922400  0.27542200  1
  C  C77  1  0.00922400  0.98287200  0.77542200  1
  C  C78  1  0.28532700  0.55597700  0.23999700  1
  C  C79  1  0.55597700  0.28532700  0.73999700  1
  C  C80  1  0.83449500  0.13350600  0.49881100  1
  C  C81  1  0.13350600  0.83449500  0.99881100  1
  C  C82  1  0.66037100  0.65286300  0.78314000  1
  C  C83  1  0.65286300  0.66037100  0.28314000  1
