# generated using pymatgen
data_Cu2Ni5C9
_symmetry_space_group_name_H-M   'P 1'
_cell_length_a   6.74366300
_cell_length_b   7.11246800
_cell_length_c   17.14561700
_cell_angle_alpha   90.00000000
_cell_angle_beta   90.00000000
_cell_angle_gamma   90.00000000
_symmetry_Int_Tables_number   1
_chemical_formula_structural   Cu2Ni5C9
_chemical_formula_sum   'Cu8 Ni20 C36'
_cell_volume   822.37387043
_cell_formula_units_Z   4
loop_
 _symmetry_equiv_pos_site_id
 _symmetry_equiv_pos_as_xyz
  1  'x, y, z'
loop_
 _atom_site_type_symbol
 _atom_site_label
 _atom_site_symmetry_multiplicity
 _atom_site_fract_x
 _atom_site_fract_y
 _atom_site_fract_z
 _atom_site_occupancy
  C  C0  1  0.87170600  0.88523800  0.28357300  1
  C  C1  1  0.62829400  0.11476200  0.78357300  1
  C  C2  1  0.37170600  0.61476200  0.71642700  1
  C  C3  1  0.12829400  0.38523800  0.21642700  1
  Ni  Ni4  1  0.05609300  0.78524500  0.99518700  1
  Ni  Ni5  1  0.44390700  0.21475500  0.49518700  1
  Ni  Ni6  1  0.55609300  0.71475500  0.00481300  1
  Ni  Ni7  1  0.94390700  0.28524500  0.50481300  1
  Ni  Ni8  1  0.96909000  0.57786000  0.39338300  1
  Ni  Ni9  1  0.53091000  0.42214000  0.89338300  1
  Ni  Ni10  1  0.46909000  0.92214000  0.60661700  1
  Ni  Ni11  1  0.03091000  0.07786000  0.10661700  1
  Ni  Ni12  1  0.88282400  0.73347700  0.45282100  1
  Ni  Ni13  1  0.61717600  0.26652300  0.95282100  1
  Ni  Ni14  1  0.38282400  0.76652300  0.54717900  1
  Ni  Ni15  1  0.11717600  0.23347700  0.04717900  1
  Ni  Ni16  1  0.42287200  0.75231600  0.39911100  1
  Ni  Ni17  1  0.07712800  0.24768400  0.89911100  1
  Ni  Ni18  1  0.92287200  0.74768400  0.60088900  1
  Ni  Ni19  1  0.57712800  0.25231600  0.10088900  1
  Ni  Ni20  1  0.30036800  0.58430800  0.43056400  1
  Ni  Ni21  1  0.19963200  0.41569200  0.93056400  1
  Ni  Ni22  1  0.80036800  0.91569200  0.56943600  1
  Ni  Ni23  1  0.69963200  0.08430800  0.06943600  1
  Cu  Cu24  1  0.65935100  0.38098600  0.27101300  1
  Cu  Cu25  1  0.84064900  0.61901400  0.77101300  1
  Cu  Cu26  1  0.15935100  0.11901400  0.72898700  1
  Cu  Cu27  1  0.34064900  0.88098600  0.22898700  1
  Cu  Cu28  1  0.85994000  0.68019400  0.09341100  1
  Cu  Cu29  1  0.64006000  0.31980600  0.59341100  1
  Cu  Cu30  1  0.35994000  0.81980600  0.90658900  1
  Cu  Cu31  1  0.14006000  0.18019400  0.40658900  1
  C  C32  1  0.47172500  0.38304200  0.20327600  1
  C  C33  1  0.02827500  0.61695800  0.70327600  1
  C  C34  1  0.97172500  0.11695800  0.79672400  1
  C  C35  1  0.52827500  0.88304200  0.29672400  1
  C  C36  1  0.81666300  0.20769000  0.23606300  1
  C  C37  1  0.68333700  0.79231000  0.73606300  1
  C  C38  1  0.31666300  0.29231000  0.76393700  1
  C  C39  1  0.18333700  0.70769000  0.26393700  1
  C  C40  1  0.81494500  0.56341500  0.23957100  1
  C  C41  1  0.68505500  0.43658500  0.73957100  1
  C  C42  1  0.31494500  0.93658500  0.76042900  1
  C  C43  1  0.18505500  0.06341500  0.26042900  1
  C  C44  1  0.08089500  0.57733100  0.10917600  1
  C  C45  1  0.41910500  0.42266900  0.60917600  1
  C  C46  1  0.58089500  0.92266900  0.89082400  1
  C  C47  1  0.91910500  0.07733100  0.39082400  1
  C  C48  1  0.86549100  0.88837900  0.14491300  1
  C  C49  1  0.63450900  0.11162100  0.64491300  1
  C  C50  1  0.36549100  0.61162100  0.85508700  1
  C  C51  1  0.13450900  0.38837900  0.35508700  1
  C  C52  1  0.91092600  0.77892300  0.99729600  1
  C  C53  1  0.58907400  0.22107700  0.49729600  1
  C  C54  1  0.41092600  0.72107700  0.00270400  1
  C  C55  1  0.08907400  0.27892300  0.50270400  1
  C  C56  1  0.88215400  0.68918900  0.39771700  1
  C  C57  1  0.61784600  0.31081100  0.89771700  1
  C  C58  1  0.38215400  0.81081100  0.60228300  1
  C  C59  1  0.11784600  0.18918900  0.10228300  1
  C  C60  1  0.38022200  0.69186700  0.44757200  1
  C  C61  1  0.11977800  0.30813300  0.94757200  1
  C  C62  1  0.88022200  0.80813300  0.55242800  1
  C  C63  1  0.61977800  0.19186700  0.05242800  1
