# generated using pymatgen
data_Cu(NiC4)3
_symmetry_space_group_name_H-M   'P 1'
_cell_length_a   6.05868509
_cell_length_b   6.09120388
_cell_length_c   8.54489920
_cell_angle_alpha   90.00214494
_cell_angle_beta   90.38290192
_cell_angle_gamma   89.98954974
_symmetry_Int_Tables_number   1
_chemical_formula_structural   Cu(NiC4)3
_chemical_formula_sum   'Cu2 Ni6 C24'
_cell_volume   315.33977618
_cell_formula_units_Z   2
loop_
 _symmetry_equiv_pos_site_id
 _symmetry_equiv_pos_as_xyz
  1  'x, y, z'
loop_
 _atom_site_type_symbol
 _atom_site_label
 _atom_site_symmetry_multiplicity
 _atom_site_fract_x
 _atom_site_fract_y
 _atom_site_fract_z
 _atom_site_occupancy
  C  C0  1  0.99995600  0.00186600  0.49999800  1
  C  C1  1  0.49988300  0.49809500  0.99998900  1
  C  C2  1  0.25262300  0.24766300  0.24979000  1
  C  C3  1  0.74991700  0.75036300  0.74927600  1
  C  C4  1  0.25013200  0.75045700  0.25071300  1
  C  C5  1  0.74785400  0.24827100  0.75021600  1
  C  C6  1  0.99995300  0.50262800  0.50010300  1
  C  C7  1  0.49996100  0.99883200  0.00000900  1
  Ni  Ni8  1  0.50010800  0.99852800  0.50005500  1
  Ni  Ni9  1  0.24965700  0.74988800  0.75007900  1
  Ni  Ni10  1  0.75026800  0.74995500  0.24992400  1
  Ni  Ni11  1  0.99994600  0.50173000  0.99989400  1
  Ni  Ni12  1  0.75096600  0.25037600  0.25035500  1
  Ni  Ni13  1  0.24958100  0.24956800  0.74964000  1
  Cu  Cu14  1  0.99994900  0.00320900  0.00000100  1
  Cu  Cu15  1  0.49994100  0.49745900  0.49997800  1
  C  C16  1  0.02959300  0.51800200  0.75566000  1
  C  C17  1  0.52993000  0.98221600  0.25649200  1
  C  C18  1  0.97031500  0.51802400  0.24434000  1
  C  C19  1  0.46996200  0.98210300  0.74352800  1
  C  C20  1  0.25497600  0.75022300  0.51251000  1
  C  C21  1  0.75547000  0.25259700  0.00049700  1
  C  C22  1  0.25614000  0.24711400  0.49991900  1
  C  C23  1  0.75437000  0.75081600  0.01297500  1
  C  C24  1  0.00117700  0.00102000  0.75142900  1
  C  C25  1  0.50209600  0.49873200  0.25135300  1
  C  C26  1  0.99871100  0.00091700  0.24855900  1
  C  C27  1  0.49786400  0.49871500  0.74863300  1
  C  C28  1  0.74498200  0.75014300  0.48749600  1
  C  C29  1  0.24433600  0.25259500  0.99947600  1
  C  C30  1  0.74389500  0.24712300  0.50010100  1
  C  C31  1  0.24548700  0.75077100  0.98701000  1
