# generated using pymatgen
data_Cu15(NiC)2
_symmetry_space_group_name_H-M   'P 1'
_cell_length_a   6.48915721
_cell_length_b   6.48915721
_cell_length_c   6.48915726
_cell_angle_alpha   82.26606573
_cell_angle_beta   82.26606573
_cell_angle_gamma   82.26606931
_symmetry_Int_Tables_number   1
_chemical_formula_structural   Cu15(NiC)2
_chemical_formula_sum   'Cu15 Ni2 C2'
_cell_volume   266.41036250
_cell_formula_units_Z   1
loop_
 _symmetry_equiv_pos_site_id
 _symmetry_equiv_pos_as_xyz
  1  'x, y, z'
loop_
 _atom_site_type_symbol
 _atom_site_label
 _atom_site_symmetry_multiplicity
 _atom_site_fract_x
 _atom_site_fract_y
 _atom_site_fract_z
 _atom_site_occupancy
  C  C0  1  0.65176100  0.65176100  0.65176100  1
  C  C1  1  0.34823900  0.34823900  0.34823900  1
  Ni  Ni2  1  0.89832300  0.89832300  0.89832300  1
  Ni  Ni3  1  0.10167700  0.10167700  0.10167700  1
  Cu  Cu4  1  0.00000000  0.00000000  0.50000000  1
  Cu  Cu5  1  0.50000000  0.00000000  0.00000000  1
  Cu  Cu6  1  0.00000000  0.50000000  0.00000000  1
  Cu  Cu7  1  0.71254000  0.28746000  0.00000000  1
  Cu  Cu8  1  0.00000000  0.71254000  0.28746000  1
  Cu  Cu9  1  0.28746000  0.00000000  0.71254000  1
  Cu  Cu10  1  0.00000000  0.28746000  0.71254000  1
  Cu  Cu11  1  0.71254000  0.00000000  0.28746000  1
  Cu  Cu12  1  0.28746000  0.71254000  0.00000000  1
  Cu  Cu13  1  0.33995000  0.33995000  0.84460800  1
  Cu  Cu14  1  0.84460800  0.33995000  0.33995000  1
  Cu  Cu15  1  0.33995000  0.84460800  0.33995000  1
  Cu  Cu16  1  0.66005000  0.66005000  0.15539200  1
  Cu  Cu17  1  0.15539200  0.66005000  0.66005000  1
  Cu  Cu18  1  0.66005000  0.15539200  0.66005000  1
