# generated using pymatgen
data_Cu(Ni2C3)4
_symmetry_space_group_name_H-M   'P 1'
_cell_length_a   5.49100776
_cell_length_b   5.47178662
_cell_length_c   10.66563833
_cell_angle_alpha   90.78655658
_cell_angle_beta   76.60930870
_cell_angle_gamma   59.06750196
_symmetry_Int_Tables_number   1
_chemical_formula_structural   Cu(Ni2C3)4
_chemical_formula_sum   'Cu1 Ni8 C12'
_cell_volume   263.99888275
_cell_formula_units_Z   1
loop_
 _symmetry_equiv_pos_site_id
 _symmetry_equiv_pos_as_xyz
  1  'x, y, z'
loop_
 _atom_site_type_symbol
 _atom_site_label
 _atom_site_symmetry_multiplicity
 _atom_site_fract_x
 _atom_site_fract_y
 _atom_site_fract_z
 _atom_site_occupancy
  Ni  Ni0  1  0.15552500  0.41095400  0.24555900  1
  Ni  Ni1  1  0.12116800  0.91815800  0.77774700  1
  Ni  Ni2  1  0.35662200  0.35088000  0.96041600  1
  Ni  Ni3  1  0.64815500  0.19710600  0.53833500  1
  Ni  Ni4  1  0.36933500  0.82479000  0.46304400  1
  Ni  Ni5  1  0.81582500  0.08948400  0.22655300  1
  Ni  Ni6  1  0.63133600  0.68641700  0.03946700  1
  Ni  Ni7  1  0.82530000  0.58437900  0.75469800  1
  Cu  Cu8  1  0.02657600  0.48759900  0.50027400  1
  C  C9  1  0.44331900  0.13309700  0.37746300  1
  C  C10  1  0.55053100  0.36858400  0.12061300  1
  C  C11  1  0.24591100  0.56919400  0.62627700  1
  C  C12  1  0.77522100  0.41513000  0.38551800  1
  C  C13  1  0.43651600  0.64461900  0.87711800  1
  C  C14  1  0.94331900  0.68702900  0.12141700  1
  C  C15  1  0.97535000  0.18610600  0.62004500  1
  C  C16  1  0.74461000  0.93932200  0.88110400  1
  C  C17  1  0.23080400  0.05797100  0.12979700  1
  C  C18  1  0.07185600  0.78367700  0.38228600  1
  C  C19  1  0.04622700  0.31441200  0.88216500  1
  C  C20  1  0.60788100  0.84623600  0.60912500  1
