# generated using pymatgen
data_Cu(NiC6)2
_symmetry_space_group_name_H-M   'P 1'
_cell_length_a   6.20374159
_cell_length_b   6.20374159
_cell_length_c   15.24168410
_cell_angle_alpha   89.61340255
_cell_angle_beta   89.61340255
_cell_angle_gamma   59.89040412
_symmetry_Int_Tables_number   1
_chemical_formula_structural   Cu(NiC6)2
_chemical_formula_sum   'Cu2 Ni4 C24'
_cell_volume   507.43117045
_cell_formula_units_Z   2
loop_
 _symmetry_equiv_pos_site_id
 _symmetry_equiv_pos_as_xyz
  1  'x, y, z'
loop_
 _atom_site_type_symbol
 _atom_site_label
 _atom_site_symmetry_multiplicity
 _atom_site_fract_x
 _atom_site_fract_y
 _atom_site_fract_z
 _atom_site_occupancy
  C  C0  1  0.66697900  0.66697900  0.91620300  1
  C  C1  1  0.00033000  0.00033000  0.25122100  1
  C  C2  1  0.33358100  0.33358100  0.58346000  1
  C  C3  1  0.99967000  0.99967000  0.74877900  1
  C  C4  1  0.33302100  0.33302100  0.08379700  1
  C  C5  1  0.66641900  0.66641900  0.41654000  1
  Ni  Ni6  1  0.66685300  0.66685300  0.16744500  1
  Ni  Ni7  1  0.00000000  0.00000000  0.50000000  1
  Ni  Ni8  1  0.33314700  0.33314700  0.83255500  1
  Ni  Ni9  1  0.00000000  0.00000000  0.00000000  1
  Cu  Cu10  1  0.33344300  0.33344300  0.33371700  1
  Cu  Cu11  1  0.66655700  0.66655700  0.66628300  1
  C  C12  1  0.51846200  0.51846200  0.76922900  1
  C  C13  1  0.85116600  0.85116600  0.10258000  1
  C  C14  1  0.18463700  0.18463700  0.43559500  1
  C  C15  1  0.14883400  0.14883400  0.89742000  1
  C  C16  1  0.48153800  0.48153800  0.23077100  1
  C  C17  1  0.81536300  0.81536300  0.56440500  1
  C  C18  1  0.48006900  0.97956100  0.25962400  1
  C  C19  1  0.81414400  0.31217700  0.59279000  1
  C  C20  1  0.14788600  0.64493400  0.92582700  1
  C  C21  1  0.35506600  0.85211400  0.07417300  1
  C  C22  1  0.68782300  0.18585600  0.40721000  1
  C  C23  1  0.02043900  0.51993100  0.74037600  1
  C  C24  1  0.97956100  0.48006900  0.25962400  1
  C  C25  1  0.31217700  0.81414400  0.59279000  1
  C  C26  1  0.64493400  0.14788600  0.92582700  1
  C  C27  1  0.85211400  0.35506600  0.07417300  1
  C  C28  1  0.18585600  0.68782300  0.40721000  1
  C  C29  1  0.51993100  0.02043900  0.74037600  1
