# generated using pymatgen
data_CuNi6C
_symmetry_space_group_name_H-M   'P 1'
_cell_length_a   6.66515427
_cell_length_b   6.66515427
_cell_length_c   5.21052900
_cell_angle_alpha   90.00000000
_cell_angle_beta   90.00000000
_cell_angle_gamma   120.00000272
_symmetry_Int_Tables_number   1
_chemical_formula_structural   CuNi6C
_chemical_formula_sum   'Cu1 Ni6 C1'
_cell_volume   200.46236490
_cell_formula_units_Z   1
loop_
 _symmetry_equiv_pos_site_id
 _symmetry_equiv_pos_as_xyz
  1  'x, y, z'
loop_
 _atom_site_type_symbol
 _atom_site_label
 _atom_site_symmetry_multiplicity
 _atom_site_fract_x
 _atom_site_fract_y
 _atom_site_fract_z
 _atom_site_occupancy
  C  C0  1  0.00000000  0.00000000  0.50000000  1
  Ni  Ni1  1  0.64535100  0.82267500  0.00000000  1
  Ni  Ni2  1  0.17732500  0.35464900  0.00000000  1
  Ni  Ni3  1  0.17732500  0.82267500  0.00000000  1
  Ni  Ni4  1  0.97908000  0.48954000  0.50000000  1
  Ni  Ni5  1  0.51046000  0.02092000  0.50000000  1
  Ni  Ni6  1  0.51046000  0.48954000  0.50000000  1
  Cu  Cu7  1  0.66666700  0.33333300  0.00000000  1
