# generated using pymatgen
data_Cu3NiC18
_symmetry_space_group_name_H-M   'P 1'
_cell_length_a   7.39684662
_cell_length_b   7.39684662
_cell_length_c   7.39684669
_cell_angle_alpha   60.90686544
_cell_angle_beta   60.90686544
_cell_angle_gamma   60.90686114
_symmetry_Int_Tables_number   1
_chemical_formula_structural   Cu3NiC18
_chemical_formula_sum   'Cu3 Ni1 C18'
_cell_volume   292.01976728
_cell_formula_units_Z   1
loop_
 _symmetry_equiv_pos_site_id
 _symmetry_equiv_pos_as_xyz
  1  'x, y, z'
loop_
 _atom_site_type_symbol
 _atom_site_label
 _atom_site_symmetry_multiplicity
 _atom_site_fract_x
 _atom_site_fract_y
 _atom_site_fract_z
 _atom_site_occupancy
  Ni  Ni0  1  0.50000000  0.50000000  0.50000000  1
  Cu  Cu1  1  0.00000000  0.50000000  0.50000000  1
  Cu  Cu2  1  0.50000000  0.50000000  0.00000000  1
  Cu  Cu3  1  0.50000000  0.00000000  0.50000000  1
  C  C4  1  0.00000000  0.00000000  0.00000000  1
  C  C5  1  0.50000000  0.00000000  0.00000000  1
  C  C6  1  0.00000000  0.00000000  0.50000000  1
  C  C7  1  0.00000000  0.50000000  0.00000000  1
  C  C8  1  0.91627000  0.33222900  0.33222900  1
  C  C9  1  0.34722200  0.90881100  0.90881100  1
  C  C10  1  0.33222900  0.33222900  0.91627000  1
  C  C11  1  0.90881100  0.90881100  0.34722200  1
  C  C12  1  0.90881100  0.34722200  0.90881100  1
  C  C13  1  0.33222900  0.91627000  0.33222900  1
  C  C14  1  0.08373000  0.66777100  0.66777100  1
  C  C15  1  0.65277800  0.09118900  0.09118900  1
  C  C16  1  0.66777100  0.66777100  0.08373000  1
  C  C17  1  0.09118900  0.09118900  0.65277800  1
  C  C18  1  0.09118900  0.65277800  0.09118900  1
  C  C19  1  0.66777100  0.08373000  0.66777100  1
  C  C20  1  0.37060100  0.37060100  0.37060100  1
  C  C21  1  0.62939900  0.62939900  0.62939900  1
