# generated using pymatgen
data_Cu2Ni3C8
_symmetry_space_group_name_H-M   'P 1'
_cell_length_a   8.66666100
_cell_length_b   5.33991200
_cell_length_c   9.03674073
_cell_angle_alpha   60.83263073
_cell_angle_beta   90.00000000
_cell_angle_gamma   90.00000000
_symmetry_Int_Tables_number   1
_chemical_formula_structural   Cu2Ni3C8
_chemical_formula_sum   'Cu4 Ni6 C16'
_cell_volume   365.18366951
_cell_formula_units_Z   2
loop_
 _symmetry_equiv_pos_site_id
 _symmetry_equiv_pos_as_xyz
  1  'x, y, z'
loop_
 _atom_site_type_symbol
 _atom_site_label
 _atom_site_symmetry_multiplicity
 _atom_site_fract_x
 _atom_site_fract_y
 _atom_site_fract_z
 _atom_site_occupancy
  Ni  Ni0  1  0.14045000  0.47907300  0.10950600  1
  Ni  Ni1  1  0.64045000  0.52092700  0.39049400  1
  Ni  Ni2  1  0.85955000  0.52092700  0.89049400  1
  Ni  Ni3  1  0.35955000  0.47907300  0.60950600  1
  Ni  Ni4  1  0.00000000  0.50000000  0.50000000  1
  Ni  Ni5  1  0.50000000  0.50000000  0.00000000  1
  Cu  Cu6  1  0.30889000  0.84777500  0.19389700  1
  Cu  Cu7  1  0.80889000  0.15222500  0.30610300  1
  Cu  Cu8  1  0.69111000  0.15222500  0.80610300  1
  Cu  Cu9  1  0.19111000  0.84777500  0.69389700  1
  C  C10  1  0.06626300  0.70597200  0.86444800  1
  C  C11  1  0.56626300  0.29402800  0.63555200  1
  C  C12  1  0.93373700  0.29402800  0.13555200  1
  C  C13  1  0.43373700  0.70597200  0.36444800  1
  C  C14  1  0.19567800  0.21228200  0.61845500  1
  C  C15  1  0.69567800  0.78771800  0.88154500  1
  C  C16  1  0.80432200  0.78771800  0.38154500  1
  C  C17  1  0.30432200  0.21228200  0.11845500  1
  C  C18  1  0.13669300  0.77626500  0.53546500  1
  C  C19  1  0.63669300  0.22373500  0.96453500  1
  C  C20  1  0.13178700  0.67258100  0.25344200  1
  C  C21  1  0.63178700  0.32741900  0.24655800  1
  C  C22  1  0.86821300  0.32741900  0.74655800  1
  C  C23  1  0.36821300  0.67258100  0.75344200  1
  C  C24  1  0.36330700  0.77626500  0.03546500  1
  C  C25  1  0.86330700  0.22373500  0.46453500  1
