# generated using pymatgen
data_CuNi4C7
_symmetry_space_group_name_H-M   'P 1'
_cell_length_a   18.16778600
_cell_length_b   6.10037600
_cell_length_c   10.62192234
_cell_angle_alpha   79.77100213
_cell_angle_beta   90.00000000
_cell_angle_gamma   90.00000000
_symmetry_Int_Tables_number   1
_chemical_formula_structural   CuNi4C7
_chemical_formula_sum   'Cu4 Ni16 C28'
_cell_volume   1158.52003412
_cell_formula_units_Z   4
loop_
 _symmetry_equiv_pos_site_id
 _symmetry_equiv_pos_as_xyz
  1  'x, y, z'
loop_
 _atom_site_type_symbol
 _atom_site_label
 _atom_site_symmetry_multiplicity
 _atom_site_fract_x
 _atom_site_fract_y
 _atom_site_fract_z
 _atom_site_occupancy
  C  C0  1  0.53665000  0.32246400  0.40739400  1
  C  C1  1  0.03665000  0.67753600  0.09260600  1
  C  C2  1  0.46335000  0.67753600  0.59260600  1
  C  C3  1  0.96335000  0.32246400  0.90739400  1
  C  C4  1  0.59323800  0.88089800  0.30515600  1
  C  C5  1  0.09323800  0.11910200  0.19484400  1
  C  C6  1  0.40676200  0.11910200  0.69484400  1
  C  C7  1  0.90676200  0.88089800  0.80515600  1
  Ni  Ni8  1  0.68992200  0.53606200  0.84751600  1
  Ni  Ni9  1  0.18992200  0.46393800  0.65248400  1
  Ni  Ni10  1  0.31007800  0.46393800  0.15248400  1
  Ni  Ni11  1  0.81007800  0.53606200  0.34751600  1
  Ni  Ni12  1  0.69083900  0.40451400  0.96835500  1
  Ni  Ni13  1  0.19083900  0.59548600  0.53164500  1
  Ni  Ni14  1  0.30916100  0.59548600  0.03164500  1
  Ni  Ni15  1  0.80916100  0.40451400  0.46835500  1
  Ni  Ni16  1  0.65600800  0.34373300  0.82004400  1
  Ni  Ni17  1  0.15600800  0.65626700  0.67995600  1
  Ni  Ni18  1  0.34399200  0.65626700  0.17995600  1
  Ni  Ni19  1  0.84399200  0.34373300  0.32004400  1
  Ni  Ni20  1  0.62023300  0.24957500  0.93507600  1
  Ni  Ni21  1  0.12023300  0.75042500  0.56492400  1
  Ni  Ni22  1  0.37976700  0.75042500  0.06492400  1
  Ni  Ni23  1  0.87976700  0.24957500  0.43507600  1
  Cu  Cu24  1  0.65623100  0.23522800  0.04785900  1
  Cu  Cu25  1  0.15623100  0.76477200  0.45214100  1
  Cu  Cu26  1  0.34376900  0.76477200  0.95214100  1
  Cu  Cu27  1  0.84376900  0.23522800  0.54785900  1
  C  C28  1  0.56492600  0.62488300  0.19934100  1
  C  C29  1  0.06492600  0.37511700  0.30065900  1
  C  C30  1  0.43507400  0.37511700  0.80065900  1
  C  C31  1  0.93507400  0.62488300  0.69934100  1
  C  C32  1  0.64798900  0.12797600  0.40086800  1
  C  C33  1  0.14798900  0.87202400  0.09913200  1
  C  C34  1  0.35201100  0.87202400  0.59913200  1
  C  C35  1  0.85201100  0.12797600  0.90086800  1
  C  C36  1  0.75805700  0.74085300  0.26794200  1
  C  C37  1  0.25805700  0.25914700  0.23205800  1
  C  C38  1  0.24194300  0.25914700  0.73205800  1
  C  C39  1  0.74194300  0.74085300  0.76794200  1
  C  C40  1  0.48466500  0.05967400  0.30943500  1
  C  C41  1  0.98466500  0.94032600  0.19056500  1
  C  C42  1  0.51533500  0.94032600  0.69056500  1
  C  C43  1  0.01533500  0.05967400  0.80943500  1
  C  C44  1  0.58027400  0.55032800  0.53998000  1
  C  C45  1  0.08027400  0.44967200  0.96002000  1
  C  C46  1  0.41972600  0.44967200  0.46002000  1
  C  C47  1  0.91972600  0.55032800  0.03998000  1
