# generated using pymatgen
data_Cu2Ni4C3
_symmetry_space_group_name_H-M   'P 1'
_cell_length_a   3.42421510
_cell_length_b   3.42421510
_cell_length_c   31.59260600
_cell_angle_alpha   90.00000000
_cell_angle_beta   90.00000000
_cell_angle_gamma   119.99998253
_symmetry_Int_Tables_number   1
_chemical_formula_structural   Cu2Ni4C3
_chemical_formula_sum   'Cu2 Ni4 C3'
_cell_volume   320.80286232
_cell_formula_units_Z   1
loop_
 _symmetry_equiv_pos_site_id
 _symmetry_equiv_pos_as_xyz
  1  'x, y, z'
loop_
 _atom_site_type_symbol
 _atom_site_label
 _atom_site_symmetry_multiplicity
 _atom_site_fract_x
 _atom_site_fract_y
 _atom_site_fract_z
 _atom_site_occupancy
  Ni  Ni0  1  0.33333300  0.66666700  0.70980800  1
  Ni  Ni1  1  0.33333300  0.66666700  0.17241500  1
  Ni  Ni2  1  0.33333300  0.66666700  0.82758500  1
  Ni  Ni3  1  0.33333300  0.66666700  0.29019200  1
  C  C4  1  0.00000000  0.00000000  0.76867300  1
  C  C5  1  0.00000000  0.00000000  0.23132700  1
  C  C6  1  0.33333300  0.66666700  0.00000000  1
  Cu  Cu7  1  0.00000000  0.00000000  0.04734000  1
  Cu  Cu8  1  0.00000000  0.00000000  0.95266000  1
