# generated using pymatgen
data_Cu9NiC6
_symmetry_space_group_name_H-M   'P 1'
_cell_length_a   8.72631100
_cell_length_b   6.64205500
_cell_length_c   15.48223401
_cell_angle_alpha   66.69498752
_cell_angle_beta   90.00000000
_cell_angle_gamma   90.00000000
_symmetry_Int_Tables_number   1
_chemical_formula_structural   Cu9NiC6
_chemical_formula_sum   'Cu36 Ni4 C24'
_cell_volume   824.14613157
_cell_formula_units_Z   4
loop_
 _symmetry_equiv_pos_site_id
 _symmetry_equiv_pos_as_xyz
  1  'x, y, z'
loop_
 _atom_site_type_symbol
 _atom_site_label
 _atom_site_symmetry_multiplicity
 _atom_site_fract_x
 _atom_site_fract_y
 _atom_site_fract_z
 _atom_site_occupancy
  C  C0  1  0.73459700  0.33121400  0.41674800  1
  C  C1  1  0.76540300  0.33121400  0.91674800  1
  C  C2  1  0.26540300  0.66878600  0.58325200  1
  C  C3  1  0.23459700  0.66878600  0.08325200  1
  C  C4  1  0.89477100  0.19566700  0.59650400  1
  C  C5  1  0.60522900  0.19566700  0.09650400  1
  C  C6  1  0.10522900  0.80433300  0.40349600  1
  C  C7  1  0.39477100  0.80433300  0.90349600  1
  C  C8  1  0.03733400  0.24888900  0.53112300  1
  C  C9  1  0.46266600  0.24888900  0.03112300  1
  C  C10  1  0.96266600  0.75111100  0.46887700  1
  C  C11  1  0.53733400  0.75111100  0.96887700  1
  C  C12  1  0.02513800  0.61379000  0.27297300  1
  C  C13  1  0.47486200  0.61379000  0.77297300  1
  C  C14  1  0.97486200  0.38621000  0.72702700  1
  C  C15  1  0.52513800  0.38621000  0.22702700  1
  C  C16  1  0.02004900  0.33872400  0.26397400  1
  C  C17  1  0.47995100  0.33872400  0.76397400  1
  C  C18  1  0.97995100  0.66127600  0.73602600  1
  C  C19  1  0.52004900  0.66127600  0.23602600  1
  C  C20  1  0.33407300  0.26769100  0.47292800  1
  C  C21  1  0.16592700  0.26769100  0.97292800  1
  C  C22  1  0.66592700  0.73230900  0.52707200  1
  C  C23  1  0.83407300  0.73230900  0.02707200  1
  Ni  Ni24  1  0.82985100  0.05155300  0.18118300  1
  Ni  Ni25  1  0.67014900  0.05155300  0.68118300  1
  Ni  Ni26  1  0.17014900  0.94844700  0.81881700  1
  Ni  Ni27  1  0.32985100  0.94844700  0.31881700  1
  Cu  Cu28  1  0.50438000  0.27673100  0.48331600  1
  Cu  Cu29  1  0.99562000  0.27673100  0.98331600  1
  Cu  Cu30  1  0.49562000  0.72326900  0.51668400  1
  Cu  Cu31  1  0.00438000  0.72326900  0.01668400  1
  Cu  Cu32  1  0.25940400  0.41489500  0.51325700  1
  Cu  Cu33  1  0.24059600  0.41489500  0.01325700  1
  Cu  Cu34  1  0.74059600  0.58510500  0.48674300  1
  Cu  Cu35  1  0.75940400  0.58510500  0.98674300  1
  Cu  Cu36  1  0.29139800  0.33551800  0.37415900  1
  Cu  Cu37  1  0.20860200  0.33551800  0.87415900  1
  Cu  Cu38  1  0.70860200  0.66448200  0.62584100  1
  Cu  Cu39  1  0.79139800  0.66448200  0.12584100  1
  Cu  Cu40  1  0.28005800  0.04115600  0.53088800  1
  Cu  Cu41  1  0.21994200  0.04115600  0.03088800  1
  Cu  Cu42  1  0.71994200  0.95884400  0.46911200  1
  Cu  Cu43  1  0.78005800  0.95884400  0.96911200  1
  Cu  Cu44  1  0.93930200  0.61085200  0.33644600  1
  Cu  Cu45  1  0.56069800  0.61085200  0.83644600  1
  Cu  Cu46  1  0.06069800  0.38914800  0.66355400  1
  Cu  Cu47  1  0.43930200  0.38914800  0.16355400  1
  Cu  Cu48  1  0.93296000  0.21879900  0.32415900  1
  Cu  Cu49  1  0.56704000  0.21879900  0.82415900  1
  Cu  Cu50  1  0.06704000  0.78120100  0.67584100  1
  Cu  Cu51  1  0.43296000  0.78120100  0.17584100  1
  Cu  Cu52  1  0.10470000  0.34347400  0.20010300  1
  Cu  Cu53  1  0.39530000  0.34347400  0.70010300  1
  Cu  Cu54  1  0.89530000  0.65652600  0.79989700  1
  Cu  Cu55  1  0.60470000  0.65652600  0.29989700  1
  Cu  Cu56  1  0.11409000  0.73538200  0.21476500  1
  Cu  Cu57  1  0.38591000  0.73538200  0.71476500  1
  Cu  Cu58  1  0.88591000  0.26461800  0.78523500  1
  Cu  Cu59  1  0.61409000  0.26461800  0.28523500  1
  Cu  Cu60  1  0.92818200  0.21068600  0.53417800  1
  Cu  Cu61  1  0.57181800  0.21068600  0.03417800  1
  Cu  Cu62  1  0.07181800  0.78931400  0.46582200  1
  Cu  Cu63  1  0.42818200  0.78931400  0.96582200  1
