# generated using pymatgen
data_CuNiC5
_symmetry_space_group_name_H-M   'P 1'
_cell_length_a   5.46102100
_cell_length_b   6.11542200
_cell_length_c   20.68776101
_cell_angle_alpha   90.00000000
_cell_angle_beta   101.36848333
_cell_angle_gamma   90.00000000
_symmetry_Int_Tables_number   1
_chemical_formula_structural   CuNiC5
_chemical_formula_sum   'Cu8 Ni8 C40'
_cell_volume   677.34214893
_cell_formula_units_Z   8
loop_
 _symmetry_equiv_pos_site_id
 _symmetry_equiv_pos_as_xyz
  1  'x, y, z'
loop_
 _atom_site_type_symbol
 _atom_site_label
 _atom_site_symmetry_multiplicity
 _atom_site_fract_x
 _atom_site_fract_y
 _atom_site_fract_z
 _atom_site_occupancy
  C  C0  1  0.35945000  0.93110700  0.85590700  1
  C  C1  1  0.35945000  0.56889300  0.35590700  1
  C  C2  1  0.64055000  0.06889300  0.14409300  1
  C  C3  1  0.64055000  0.43110700  0.64409300  1
  Ni  Ni4  1  0.72231600  0.25589000  0.92875900  1
  Ni  Ni5  1  0.72231600  0.24411000  0.42875900  1
  Ni  Ni6  1  0.27768400  0.74411000  0.07124100  1
  Ni  Ni7  1  0.27768400  0.75589000  0.57124100  1
  Ni  Ni8  1  0.76711800  0.57575800  0.80810900  1
  Ni  Ni9  1  0.76711800  0.92424200  0.30810900  1
  Ni  Ni10  1  0.23288200  0.42424200  0.19189100  1
  Ni  Ni11  1  0.23288200  0.07575800  0.69189100  1
  Cu  Cu12  1  0.18293100  0.58714600  0.73034900  1
  Cu  Cu13  1  0.18293100  0.91285400  0.23034900  1
  Cu  Cu14  1  0.81706900  0.41285400  0.26965100  1
  Cu  Cu15  1  0.81706900  0.08714600  0.76965100  1
  Cu  Cu16  1  0.90033700  0.76303000  0.94568300  1
  Cu  Cu17  1  0.90033700  0.73697000  0.44568300  1
  Cu  Cu18  1  0.09966300  0.23697000  0.05431700  1
  Cu  Cu19  1  0.09966300  0.26303000  0.55431700  1
  C  C20  1  0.29685100  0.63570500  0.80311900  1
  C  C21  1  0.29685100  0.86429500  0.30311900  1
  C  C22  1  0.70314900  0.36429500  0.19688100  1
  C  C23  1  0.70314900  0.13570500  0.69688100  1
  C  C24  1  0.30828100  0.38640300  0.70396100  1
  C  C25  1  0.30828100  0.11359700  0.20396100  1
  C  C26  1  0.69171900  0.61359700  0.29603900  1
  C  C27  1  0.69171900  0.88640300  0.79603900  1
  C  C28  1  0.21334600  0.76999700  0.68112900  1
  C  C29  1  0.21334600  0.73000300  0.18112900  1
  C  C30  1  0.78665400  0.23000300  0.31887100  1
  C  C31  1  0.78665400  0.26999700  0.81887100  1
  C  C32  1  0.89420800  0.54470700  0.72511800  1
  C  C33  1  0.89420800  0.95529300  0.22511800  1
  C  C34  1  0.10579200  0.45529300  0.27488200  1
  C  C35  1  0.10579200  0.04470700  0.77488200  1
  C  C36  1  0.95430300  0.71949900  0.02056400  1
  C  C37  1  0.95430300  0.78050100  0.52056400  1
  C  C38  1  0.04569700  0.28050100  0.97943600  1
  C  C39  1  0.04569700  0.21949900  0.47943600  1
  C  C40  1  0.74140300  0.56877600  0.90652800  1
  C  C41  1  0.74140300  0.93122400  0.40652800  1
  C  C42  1  0.25859700  0.43122400  0.09347200  1
  C  C43  1  0.25859700  0.06877600  0.59347200  1
  C  C44  1  0.12972000  0.81704000  0.91841800  1
  C  C45  1  0.12972000  0.68296000  0.41841800  1
  C  C46  1  0.87028000  0.18296000  0.08158200  1
  C  C47  1  0.87028000  0.31704000  0.58158200  1
  C  C48  1  0.68750100  0.94535300  0.93288000  1
  C  C49  1  0.68750100  0.55464700  0.43288000  1
  C  C50  1  0.31249900  0.05464700  0.06712000  1
  C  C51  1  0.31249900  0.44535300  0.56712000  1
  C  C52  1  0.59805000  0.71914700  0.61460100  1
  C  C53  1  0.59805000  0.78085300  0.11460100  1
  C  C54  1  0.40195000  0.28085300  0.38539900  1
  C  C55  1  0.40195000  0.21914700  0.88539900  1
