# generated using pymatgen
data_Cu(NiC)2
_symmetry_space_group_name_H-M   'P 1'
_cell_length_a   5.79712465
_cell_length_b   5.79712465
_cell_length_c   10.10649628
_cell_angle_alpha   64.04983078
_cell_angle_beta   64.04983078
_cell_angle_gamma   43.51758686
_symmetry_Int_Tables_number   1
_chemical_formula_structural   Cu(NiC)2
_chemical_formula_sum   'Cu2 Ni4 C4'
_cell_volume   206.28666315
_cell_formula_units_Z   2
loop_
 _symmetry_equiv_pos_site_id
 _symmetry_equiv_pos_as_xyz
  1  'x, y, z'
loop_
 _atom_site_type_symbol
 _atom_site_label
 _atom_site_symmetry_multiplicity
 _atom_site_fract_x
 _atom_site_fract_y
 _atom_site_fract_z
 _atom_site_occupancy
  C  C0  1  0.18364900  0.18364900  0.88494400  1
  C  C1  1  0.99590300  0.99590300  0.67478400  1
  C  C2  1  0.81635100  0.81635100  0.11505600  1
  C  C3  1  0.00409700  0.00409700  0.32521600  1
  Ni  Ni4  1  0.51277300  0.51277300  0.12468500  1
  Ni  Ni5  1  0.64244100  0.64244100  0.43829400  1
  Ni  Ni6  1  0.48722700  0.48722700  0.87531500  1
  Ni  Ni7  1  0.35755900  0.35755900  0.56170600  1
  Cu  Cu8  1  0.27005300  0.27005300  0.36797300  1
  Cu  Cu9  1  0.72994700  0.72994700  0.63202700  1
