# generated using pymatgen
data_Cu(NiC4)3
_symmetry_space_group_name_H-M   'P 1'
_cell_length_a   5.93657518
_cell_length_b   5.93657518
_cell_length_c   5.93657505
_cell_angle_alpha   59.81710894
_cell_angle_beta   59.81710894
_cell_angle_gamma   59.81710251
_symmetry_Int_Tables_number   1
_chemical_formula_structural   Cu(NiC4)3
_chemical_formula_sum   'Cu1 Ni3 C12'
_cell_volume   147.32831775
_cell_formula_units_Z   1
loop_
 _symmetry_equiv_pos_site_id
 _symmetry_equiv_pos_as_xyz
  1  'x, y, z'
loop_
 _atom_site_type_symbol
 _atom_site_label
 _atom_site_symmetry_multiplicity
 _atom_site_fract_x
 _atom_site_fract_y
 _atom_site_fract_z
 _atom_site_occupancy
  C  C0  1  0.50000000  0.00000000  0.50000000  1
  C  C1  1  0.50000000  0.50000000  0.00000000  1
  C  C2  1  0.00000000  0.00000000  0.00000000  1
  C  C3  1  0.00000000  0.50000000  0.50000000  1
  Ni  Ni4  1  0.50000000  0.00000000  0.00000000  1
  Ni  Ni5  1  0.00000000  0.50000000  0.00000000  1
  Ni  Ni6  1  0.00000000  0.00000000  0.50000000  1
  Cu  Cu7  1  0.50000000  0.50000000  0.50000000  1
  C  C8  1  0.25825200  0.25825200  0.75614100  1
  C  C9  1  0.25825200  0.75614100  0.25825200  1
  C  C10  1  0.24162900  0.24162900  0.24162900  1
  C  C11  1  0.75614100  0.25825200  0.25825200  1
  C  C12  1  0.24385900  0.74174800  0.74174800  1
  C  C13  1  0.74174800  0.24385900  0.74174800  1
  C  C14  1  0.75837100  0.75837100  0.75837100  1
  C  C15  1  0.74174800  0.74174800  0.24385900  1
