# generated using pymatgen
data_Cu3Ni3C22
_symmetry_space_group_name_H-M   'P 1'
_cell_length_a   5.93637000
_cell_length_b   6.06861172
_cell_length_c   9.79082321
_cell_angle_alpha   91.67736130
_cell_angle_beta   89.93457476
_cell_angle_gamma   119.28604489
_symmetry_Int_Tables_number   1
_chemical_formula_structural   Cu3Ni3C22
_chemical_formula_sum   'Cu3 Ni3 C22'
_cell_volume   307.47096110
_cell_formula_units_Z   1
loop_
 _symmetry_equiv_pos_site_id
 _symmetry_equiv_pos_as_xyz
  1  'x, y, z'
loop_
 _atom_site_type_symbol
 _atom_site_label
 _atom_site_symmetry_multiplicity
 _atom_site_fract_x
 _atom_site_fract_y
 _atom_site_fract_z
 _atom_site_occupancy
  C  C0  1  0.34099900  0.31930200  0.90224000  1
  C  C1  1  0.99491800  0.00541600  0.98903200  1
  C  C2  1  0.99255500  0.01305100  0.48775400  1
  C  C3  1  0.67068300  0.66221300  0.40304000  1
  Ni  Ni4  1  0.16598700  0.66714300  0.21012100  1
  Ni  Ni5  1  0.33845600  0.82921900  0.71196300  1
  Ni  Ni6  1  0.83224700  0.82892000  0.71197300  1
  Cu  Cu7  1  0.17175900  0.17445900  0.21355400  1
  Cu  Cu8  1  0.64972900  0.17455500  0.21746100  1
  Cu  Cu9  1  0.82922200  0.34107200  0.71717500  1
  C  C10  1  0.33118500  0.33737700  0.48823300  1
  C  C11  1  0.66764100  0.66185700  0.98808700  1
  C  C12  1  0.15965500  0.17910400  0.59230900  1
  C  C13  1  0.49136000  0.03439600  0.34490100  1
  C  C14  1  0.36167400  0.30772500  0.10631500  1
  C  C15  1  0.97624400  0.02796300  0.30025800  1
  C  C16  1  0.00036200  0.99886300  0.79959000  1
  C  C17  1  0.66026400  0.18083000  0.59332100  1
  C  C18  1  0.04027800  0.46661900  0.34864600  1
  C  C19  1  0.49575100  0.46603800  0.34929000  1
  C  C20  1  0.82654700  0.33835200  0.09844000  1
  C  C21  1  0.15989500  0.67972900  0.59024100  1
  C  C22  1  0.52658400  0.50136300  0.85227800  1
  C  C23  1  0.97205400  0.49939600  0.85343700  1
  C  C24  1  0.66808600  0.66373900  0.61511600  1
  C  C25  1  0.32887900  0.84692500  0.08969700  1
  C  C26  1  0.52559600  0.94929200  0.84266600  1
  C  C27  1  0.82108800  0.84508200  0.09070100  1
