# generated using pymatgen
data_Cu9(NiC3)2
_symmetry_space_group_name_H-M   'P 1'
_cell_length_a   6.91765534
_cell_length_b   6.91765534
_cell_length_c   6.91765534
_cell_angle_alpha   60.00000000
_cell_angle_beta   60.00000000
_cell_angle_gamma   60.00000000
_symmetry_Int_Tables_number   1
_chemical_formula_structural   Cu9(NiC3)2
_chemical_formula_sum   'Cu9 Ni2 C6'
_cell_volume   234.07862771
_cell_formula_units_Z   1
loop_
 _symmetry_equiv_pos_site_id
 _symmetry_equiv_pos_as_xyz
  1  'x, y, z'
loop_
 _atom_site_type_symbol
 _atom_site_label
 _atom_site_symmetry_multiplicity
 _atom_site_fract_x
 _atom_site_fract_y
 _atom_site_fract_z
 _atom_site_occupancy
  C  C0  1  0.76429600  0.23570400  0.23570400  1
  C  C1  1  0.23570400  0.76429600  0.23570400  1
  C  C2  1  0.76429600  0.23570400  0.76429600  1
  C  C3  1  0.23570400  0.23570400  0.76429600  1
  C  C4  1  0.76429600  0.76429600  0.23570400  1
  C  C5  1  0.23570400  0.76429600  0.76429600  1
  Ni  Ni6  1  0.25000000  0.25000000  0.25000000  1
  Ni  Ni7  1  0.75000000  0.75000000  0.75000000  1
  Cu  Cu8  1  0.00000000  0.00000000  0.00000000  1
  Cu  Cu9  1  0.33820800  0.33820800  0.98537600  1
  Cu  Cu10  1  0.66179200  0.01462400  0.66179200  1
  Cu  Cu11  1  0.66179200  0.66179200  0.66179200  1
  Cu  Cu12  1  0.01462400  0.66179200  0.66179200  1
  Cu  Cu13  1  0.98537600  0.33820800  0.33820800  1
  Cu  Cu14  1  0.33820800  0.98537600  0.33820800  1
  Cu  Cu15  1  0.33820800  0.33820800  0.33820800  1
  Cu  Cu16  1  0.66179200  0.66179200  0.01462400  1
