# generated using pymatgen
data_Cu3NiC16
_symmetry_space_group_name_H-M   'P 1'
_cell_length_a   8.79821677
_cell_length_b   8.79821677
_cell_length_c   8.79821677
_cell_angle_alpha   143.18928863
_cell_angle_beta   143.18928863
_cell_angle_gamma   53.04133249
_symmetry_Int_Tables_number   1
_chemical_formula_structural   Cu3NiC16
_chemical_formula_sum   'Cu3 Ni1 C16'
_cell_volume   243.00207319
_cell_formula_units_Z   1
loop_
 _symmetry_equiv_pos_site_id
 _symmetry_equiv_pos_as_xyz
  1  'x, y, z'
loop_
 _atom_site_type_symbol
 _atom_site_label
 _atom_site_symmetry_multiplicity
 _atom_site_fract_x
 _atom_site_fract_y
 _atom_site_fract_z
 _atom_site_occupancy
  Ni  Ni0  1  0.50000000  0.50000000  0.00000000  1
  Cu  Cu1  1  0.74846800  0.74846800  0.00000000  1
  Cu  Cu2  1  0.25153200  0.25153200  0.00000000  1
  Cu  Cu3  1  0.00000000  0.00000000  0.00000000  1
  C  C4  1  0.87739900  0.37739900  0.50000000  1
  C  C5  1  0.37739900  0.87739900  0.50000000  1
  C  C6  1  0.12260100  0.62260100  0.50000000  1
  C  C7  1  0.62260100  0.12260100  0.50000000  1
  C  C8  1  0.00000000  0.50000000  0.50000000  1
  C  C9  1  0.50000000  0.00000000  0.50000000  1
  C  C10  1  0.62684400  0.11728100  0.00000000  1
  C  C11  1  0.11728100  0.62684400  0.00000000  1
  C  C12  1  0.88271900  0.37315600  0.00000000  1
  C  C13  1  0.37315600  0.88271900  0.00000000  1
  C  C14  1  0.11728100  0.11728100  0.49043700  1
  C  C15  1  0.62684400  0.62684400  0.50956300  1
  C  C16  1  0.37315600  0.37315600  0.49043700  1
  C  C17  1  0.88271900  0.88271900  0.50956300  1
  C  C18  1  0.75000000  0.25000000  0.50000000  1
  C  C19  1  0.25000000  0.75000000  0.50000000  1
