# generated using pymatgen
data_Cu16Ni4C7
_symmetry_space_group_name_H-M   'P 1'
_cell_length_a   8.36672128
_cell_length_b   9.28197900
_cell_length_c   9.93384870
_cell_angle_alpha   90.00000000
_cell_angle_beta   113.95570314
_cell_angle_gamma   90.00000000
_symmetry_Int_Tables_number   1
_chemical_formula_structural   Cu16Ni4C7
_chemical_formula_sum   'Cu32 Ni8 C14'
_cell_volume   705.00617869
_cell_formula_units_Z   2
loop_
 _symmetry_equiv_pos_site_id
 _symmetry_equiv_pos_as_xyz
  1  'x, y, z'
loop_
 _atom_site_type_symbol
 _atom_site_label
 _atom_site_symmetry_multiplicity
 _atom_site_fract_x
 _atom_site_fract_y
 _atom_site_fract_z
 _atom_site_occupancy
  C  C0  1  0.91028300  0.84869500  0.55359600  1
  C  C1  1  0.08971700  0.15130500  0.44640400  1
  C  C2  1  0.58971700  0.34869500  0.44640400  1
  C  C3  1  0.41028300  0.65130500  0.55359600  1
  C  C4  1  0.53268300  0.98465700  0.68932200  1
  C  C5  1  0.46731700  0.01534300  0.31067800  1
  C  C6  1  0.96731700  0.48465700  0.31067800  1
  C  C7  1  0.03268300  0.51534300  0.68932200  1
  C  C8  1  0.81599500  0.36224300  0.88960900  1
  C  C9  1  0.18400500  0.63775700  0.11039100  1
  C  C10  1  0.68400500  0.86224300  0.11039100  1
  C  C11  1  0.31599500  0.13775700  0.88960900  1
  C  C12  1  0.00000000  0.00000000  0.00000000  1
  C  C13  1  0.50000000  0.50000000  0.00000000  1
  Ni  Ni14  1  0.77539900  0.69481700  0.86031300  1
  Ni  Ni15  1  0.22460100  0.30518300  0.13968700  1
  Ni  Ni16  1  0.72460100  0.19481700  0.13968700  1
  Ni  Ni17  1  0.27539900  0.80518300  0.86031300  1
  Ni  Ni18  1  0.65217000  0.64688800  0.33683100  1
  Ni  Ni19  1  0.34783000  0.35311200  0.66316900  1
  Ni  Ni20  1  0.84783000  0.14688800  0.66316900  1
  Ni  Ni21  1  0.15217000  0.85311200  0.33683100  1
  Cu  Cu22  1  0.84515000  0.81614800  0.96973100  1
  Cu  Cu23  1  0.15485000  0.18385200  0.03026900  1
  Cu  Cu24  1  0.65485000  0.31614800  0.03026900  1
  Cu  Cu25  1  0.34515000  0.68385200  0.96973100  1
  Cu  Cu26  1  0.92309800  0.60350600  0.86468100  1
  Cu  Cu27  1  0.07690200  0.39649400  0.13531900  1
  Cu  Cu28  1  0.57690200  0.10350600  0.13531900  1
  Cu  Cu29  1  0.42309800  0.89649400  0.86468100  1
  Cu  Cu30  1  0.99896300  0.91573700  0.35320100  1
  Cu  Cu31  1  0.00103700  0.08426300  0.64679900  1
  Cu  Cu32  1  0.50103700  0.41573700  0.64679900  1
  Cu  Cu33  1  0.49896300  0.58426300  0.35320100  1
  Cu  Cu34  1  0.67852000  0.75533400  0.71126900  1
  Cu  Cu35  1  0.32148000  0.24466600  0.28873100  1
  Cu  Cu36  1  0.82148000  0.25533400  0.28873100  1
  Cu  Cu37  1  0.17852000  0.74466600  0.71126900  1
  Cu  Cu38  1  0.65863400  0.60600400  0.90638700  1
  Cu  Cu39  1  0.34136600  0.39399600  0.09361300  1
  Cu  Cu40  1  0.84136600  0.10600400  0.09361300  1
  Cu  Cu41  1  0.15863400  0.89399600  0.90638700  1
  Cu  Cu42  1  0.81732100  0.60289700  0.46147100  1
  Cu  Cu43  1  0.18267900  0.39710300  0.53852900  1
  Cu  Cu44  1  0.68267900  0.10289700  0.53852900  1
  Cu  Cu45  1  0.31732100  0.89710300  0.46147100  1
  Cu  Cu46  1  0.33481700  0.40688400  0.80214300  1
  Cu  Cu47  1  0.66518300  0.59311600  0.19785700  1
  Cu  Cu48  1  0.16518300  0.90688400  0.19785700  1
  Cu  Cu49  1  0.83481700  0.09311600  0.80214300  1
  Cu  Cu50  1  0.85938300  0.30686200  0.67000300  1
  Cu  Cu51  1  0.14061700  0.69313800  0.32999700  1
  Cu  Cu52  1  0.64061700  0.80686200  0.32999700  1
  Cu  Cu53  1  0.35938300  0.19313800  0.67000300  1
