# generated using pymatgen
data_CuNiC4
_symmetry_space_group_name_H-M   'P 1'
_cell_length_a   6.79769946
_cell_length_b   6.79769946
_cell_length_c   10.03607200
_cell_angle_alpha   90.00000000
_cell_angle_beta   90.00000000
_cell_angle_gamma   146.66209468
_symmetry_Int_Tables_number   1
_chemical_formula_structural   CuNiC4
_chemical_formula_sum   'Cu2 Ni2 C8'
_cell_volume   254.86791490
_cell_formula_units_Z   2
loop_
 _symmetry_equiv_pos_site_id
 _symmetry_equiv_pos_as_xyz
  1  'x, y, z'
loop_
 _atom_site_type_symbol
 _atom_site_label
 _atom_site_symmetry_multiplicity
 _atom_site_fract_x
 _atom_site_fract_y
 _atom_site_fract_z
 _atom_site_occupancy
  Ni  Ni0  1  0.74889700  0.25110300  0.75000000  1
  Ni  Ni1  1  0.25110300  0.74889700  0.25000000  1
  Cu  Cu2  1  0.00000000  0.00000000  0.00000000  1
  Cu  Cu3  1  0.00000000  0.00000000  0.50000000  1
  C  C4  1  0.52796000  0.47204000  0.25000000  1
  C  C5  1  0.47204000  0.52796000  0.75000000  1
  C  C6  1  0.07533100  0.92466900  0.75000000  1
  C  C7  1  0.92466900  0.07533100  0.25000000  1
  C  C8  1  0.63476100  0.36523900  0.06441900  1
  C  C9  1  0.63476100  0.36523900  0.43558100  1
  C  C10  1  0.36523900  0.63476100  0.56441900  1
  C  C11  1  0.36523900  0.63476100  0.93558100  1
