# generated using pymatgen
data_Cu2NiC5
_symmetry_space_group_name_H-M   'P 1'
_cell_length_a   5.62159600
_cell_length_b   8.45431889
_cell_length_c   8.45431889
_cell_angle_alpha   83.65381074
_cell_angle_beta   70.58130436
_cell_angle_gamma   70.58130436
_symmetry_Int_Tables_number   1
_chemical_formula_structural   Cu2NiC5
_chemical_formula_sum   'Cu4 Ni2 C10'
_cell_volume   357.39252961
_cell_formula_units_Z   2
loop_
 _symmetry_equiv_pos_site_id
 _symmetry_equiv_pos_as_xyz
  1  'x, y, z'
loop_
 _atom_site_type_symbol
 _atom_site_label
 _atom_site_symmetry_multiplicity
 _atom_site_fract_x
 _atom_site_fract_y
 _atom_site_fract_z
 _atom_site_occupancy
  C  C0  1  0.25000000  0.50000000  0.50000000  1
  C  C1  1  0.75000000  0.50000000  0.50000000  1
  C  C2  1  0.07793000  0.14681800  0.69732200  1
  C  C3  1  0.92207000  0.85318200  0.30267800  1
  C  C4  1  0.77525200  0.30267800  0.14681800  1
  C  C5  1  0.42207000  0.30267800  0.85318200  1
  C  C6  1  0.22474800  0.69732200  0.85318200  1
  C  C7  1  0.57793000  0.69732200  0.14681800  1
  C  C8  1  0.72474800  0.85318200  0.69732200  1
  C  C9  1  0.27525200  0.14681800  0.30267800  1
  Ni  Ni10  1  0.25000000  0.00000000  0.00000000  1
  Ni  Ni11  1  0.75000000  0.00000000  0.00000000  1
  Cu  Cu12  1  0.16386500  0.50000000  0.17227000  1
  Cu  Cu13  1  0.83613500  0.50000000  0.82773000  1
  Cu  Cu14  1  0.33613500  0.82773000  0.50000000  1
  Cu  Cu15  1  0.66386500  0.17227000  0.50000000  1
