# generated using pymatgen
data_Cu2NiC9
_symmetry_space_group_name_H-M   'P 1'
_cell_length_a   3.92305300
_cell_length_b   3.97830600
_cell_length_c   12.27314287
_cell_angle_alpha   88.43025460
_cell_angle_beta   90.00000000
_cell_angle_gamma   90.00000000
_symmetry_Int_Tables_number   1
_chemical_formula_structural   Cu2NiC9
_chemical_formula_sum   'Cu2 Ni1 C9'
_cell_volume   191.47634869
_cell_formula_units_Z   1
loop_
 _symmetry_equiv_pos_site_id
 _symmetry_equiv_pos_as_xyz
  1  'x, y, z'
loop_
 _atom_site_type_symbol
 _atom_site_label
 _atom_site_symmetry_multiplicity
 _atom_site_fract_x
 _atom_site_fract_y
 _atom_site_fract_z
 _atom_site_occupancy
  C  C0  1  0.00000000  0.01713300  0.35716100  1
  C  C1  1  0.00000000  0.98286700  0.64283900  1
  C  C2  1  0.50000000  0.50000000  0.50000000  1
  Ni  Ni3  1  0.00000000  0.00000000  0.00000000  1
  Cu  Cu4  1  0.50000000  0.50207500  0.14322700  1
  Cu  Cu5  1  0.50000000  0.49792500  0.85677300  1
  C  C6  1  0.50000000  0.51758700  0.32115400  1
  C  C7  1  0.50000000  0.48241300  0.67884600  1
  C  C8  1  0.00000000  0.50000000  0.50000000  1
  C  C9  1  0.50000000  0.00000000  0.50000000  1
  C  C10  1  0.00000000  0.12319400  0.14407600  1
  C  C11  1  0.00000000  0.87680600  0.85592400  1
