# generated using pymatgen
data_Cu11Ni2C9
_symmetry_space_group_name_H-M   'P 1'
_cell_length_a   3.93205303
_cell_length_b   7.63747509
_cell_length_c   9.64098210
_cell_angle_alpha   81.72964368
_cell_angle_beta   90.00343171
_cell_angle_gamma   75.08937437
_symmetry_Int_Tables_number   1
_chemical_formula_structural   Cu11Ni2C9
_chemical_formula_sum   'Cu11 Ni2 C9'
_cell_volume   276.66130183
_cell_formula_units_Z   1
loop_
 _symmetry_equiv_pos_site_id
 _symmetry_equiv_pos_as_xyz
  1  'x, y, z'
loop_
 _atom_site_type_symbol
 _atom_site_label
 _atom_site_symmetry_multiplicity
 _atom_site_fract_x
 _atom_site_fract_y
 _atom_site_fract_z
 _atom_site_occupancy
  C  C0  1  0.53360200  0.92892000  0.84070600  1
  C  C1  1  0.51233600  0.97656000  0.48068900  1
  C  C2  1  0.94461600  0.11323900  0.19354100  1
  C  C3  1  0.13094700  0.73495500  0.07491700  1
  C  C4  1  0.17808700  0.64183600  0.40975100  1
  C  C5  1  0.23114300  0.53456300  0.73644200  1
  C  C6  1  0.75092100  0.49512500  0.22444200  1
  C  C7  1  0.83121500  0.33574200  0.55893800  1
  C  C8  1  0.86207900  0.27248700  0.91035600  1
  Ni  Ni9  1  0.22731000  0.54238000  0.23570400  1
  Ni  Ni10  1  0.81854200  0.36020500  0.07317400  1
  Cu  Cu11  1  0.05578800  0.88723100  0.31949400  1
  Cu  Cu12  1  0.12548800  0.74546300  0.60325600  1
  Cu  Cu13  1  0.15781000  0.68108800  0.89171100  1
  Cu  Cu14  1  0.62356400  0.74976300  0.09555600  1
  Cu  Cu15  1  0.69090900  0.61592300  0.42763400  1
  Cu  Cu16  1  0.75888000  0.47905900  0.74171000  1
  Cu  Cu17  1  0.30330200  0.39136100  0.54787200  1
  Cu  Cu18  1  0.36232200  0.27212500  0.85737200  1
  Cu  Cu19  1  0.87357700  0.25111000  0.36869300  1
  Cu  Cu20  1  0.94368700  0.11098600  0.66189200  1
  Cu  Cu21  1  0.99120200  0.01489200  0.00084700  1
