# generated using pymatgen
data_Cu8Ni18C17
_symmetry_space_group_name_H-M   'P 1'
_cell_length_a   7.80879300
_cell_length_b   12.92692300
_cell_length_c   13.96918296
_cell_angle_alpha   89.60619560
_cell_angle_beta   90.00000000
_cell_angle_gamma   90.00000000
_symmetry_Int_Tables_number   1
_chemical_formula_structural   Cu8Ni18C17
_chemical_formula_sum   'Cu16 Ni36 C34'
_cell_volume   1410.06722932
_cell_formula_units_Z   2
loop_
 _symmetry_equiv_pos_site_id
 _symmetry_equiv_pos_as_xyz
  1  'x, y, z'
loop_
 _atom_site_type_symbol
 _atom_site_label
 _atom_site_symmetry_multiplicity
 _atom_site_fract_x
 _atom_site_fract_y
 _atom_site_fract_z
 _atom_site_occupancy
  C  C0  1  0.19378200  0.07669300  0.89613800  1
  C  C1  1  0.69270500  0.92400000  0.60375800  1
  C  C2  1  0.30729500  0.92400000  0.10375800  1
  C  C3  1  0.80621800  0.07669300  0.39613800  1
  C  C4  1  0.67185500  0.18682000  0.81129000  1
  C  C5  1  0.17296000  0.81330800  0.68774200  1
  C  C6  1  0.82704000  0.81330800  0.18774200  1
  C  C7  1  0.32814500  0.18682000  0.31129000  1
  C  C8  1  0.87999000  0.49972300  0.68376600  1
  C  C9  1  0.38342400  0.49932200  0.82346600  1
  C  C10  1  0.61657600  0.49932200  0.32346600  1
  C  C11  1  0.12001000  0.49972300  0.18376600  1
  C  C12  1  0.24737600  0.24343700  0.64591000  1
  C  C13  1  0.74598800  0.75739100  0.85518200  1
  C  C14  1  0.25401200  0.75739100  0.35518200  1
  C  C15  1  0.75262400  0.24343700  0.14591000  1
  Ni  Ni16  1  0.33321600  0.19187900  0.10365600  1
  Ni  Ni17  1  0.83237200  0.80874400  0.39605900  1
  Ni  Ni18  1  0.16762800  0.80874400  0.89605900  1
  Ni  Ni19  1  0.66678400  0.19187900  0.60365600  1
  Ni  Ni20  1  0.42038400  0.30695300  0.97532700  1
  Ni  Ni21  1  0.91850700  0.69633100  0.52420800  1
  Ni  Ni22  1  0.08149300  0.69633100  0.02420800  1
  Ni  Ni23  1  0.57961600  0.30695300  0.47532700  1
  Ni  Ni24  1  0.57486900  0.06045400  0.01627500  1
  Ni  Ni25  1  0.07470800  0.93966700  0.48349200  1
  Ni  Ni26  1  0.92529200  0.93966700  0.98349200  1
  Ni  Ni27  1  0.42513100  0.06045400  0.51627500  1
  Ni  Ni28  1  0.29470900  0.29762000  0.88517000  1
  Ni  Ni29  1  0.79295100  0.70395700  0.61494800  1
  Ni  Ni30  1  0.20704900  0.70395700  0.11494800  1
  Ni  Ni31  1  0.70529100  0.29762000  0.38517000  1
  Ni  Ni32  1  0.25116400  0.59974700  0.58026700  1
  Ni  Ni33  1  0.74613800  0.40061900  0.92071400  1
  Ni  Ni34  1  0.25386200  0.40061900  0.42071400  1
  Ni  Ni35  1  0.74883600  0.59974700  0.08026700  1
  Ni  Ni36  1  0.61164900  0.99236200  0.92575200  1
  Ni  Ni37  1  0.11148100  0.00690200  0.57470800  1
  Ni  Ni38  1  0.88851900  0.00690200  0.07470800  1
  Ni  Ni39  1  0.38835100  0.99236200  0.42575200  1
  Ni  Ni40  1  0.30499300  0.48878400  0.61069300  1
  Ni  Ni41  1  0.79826300  0.51218200  0.89023500  1
  Ni  Ni42  1  0.20173700  0.51218200  0.39023500  1
  Ni  Ni43  1  0.69500700  0.48878400  0.11069300  1
  Ni  Ni44  1  0.13748000  0.17545100  0.08723000  1
  Ni  Ni45  1  0.63664200  0.82407800  0.41330400  1
  Ni  Ni46  1  0.36335800  0.82407800  0.91330400  1
  Ni  Ni47  1  0.86252000  0.17545100  0.58723000  1
  Ni  Ni48  1  0.92943000  0.40042800  0.49114700  1
  Ni  Ni49  1  0.07057000  0.40042800  0.99114700  1
  Ni  Ni50  1  0.92454100  0.51745100  0.46073900  1
  Ni  Ni51  1  0.07545900  0.51745100  0.96073900  1
  Cu  Cu52  1  0.09164300  0.25470000  0.50115300  1
  Cu  Cu53  1  0.59050700  0.74351400  0.99791100  1
  Cu  Cu54  1  0.40949300  0.74351400  0.49791100  1
  Cu  Cu55  1  0.90835700  0.25470000  0.00115300  1
  Cu  Cu56  1  0.07945300  0.29872700  0.77590700  1
  Cu  Cu57  1  0.58241100  0.69914600  0.72421600  1
  Cu  Cu58  1  0.41758900  0.69914600  0.22421600  1
  Cu  Cu59  1  0.92054700  0.29872700  0.27590700  1
  Cu  Cu60  1  0.33271300  0.06970600  0.67213900  1
  Cu  Cu61  1  0.83655700  0.92946700  0.82625400  1
  Cu  Cu62  1  0.16344300  0.92946700  0.32625400  1
  Cu  Cu63  1  0.66728700  0.06970600  0.17213900  1
  Cu  Cu64  1  0.49907900  0.34482200  0.63312400  1
  Cu  Cu65  1  0.00221100  0.65639000  0.86568500  1
  Cu  Cu66  1  0.99778900  0.65639000  0.36568500  1
  Cu  Cu67  1  0.50092100  0.34482200  0.13312400  1
  C  C68  1  0.24340100  0.13849000  0.10646300  1
  C  C69  1  0.74196100  0.86168200  0.39377700  1
  C  C70  1  0.25803900  0.86168200  0.89377700  1
  C  C71  1  0.75659900  0.13849000  0.60646300  1
  C  C72  1  0.52779000  0.04118200  0.95296000  1
  C  C73  1  0.02689500  0.95896300  0.54657700  1
  C  C74  1  0.97310500  0.95896300  0.04657700  1
  C  C75  1  0.47221000  0.04118200  0.45296000  1
  C  C76  1  0.21864300  0.54244700  0.62340300  1
  C  C77  1  0.71692600  0.45662400  0.87546500  1
  C  C78  1  0.28307400  0.45662400  0.37546500  1
  C  C79  1  0.78135700  0.54244700  0.12340300  1
  C  C80  1  0.41234000  0.28360000  0.90833400  1
  C  C81  1  0.91217100  0.71455500  0.59250200  1
  C  C82  1  0.08782900  0.71455500  0.09250200  1
  C  C83  1  0.58766000  0.28360000  0.40833400  1
  C  C84  1  0.85294900  0.46178400  0.48805600  1
  C  C85  1  0.14705100  0.46178400  0.98805600  1
