# generated using pymatgen
data_Cu5NiC14
_symmetry_space_group_name_H-M   'P 1'
_cell_length_a   13.62208400
_cell_length_b   13.89255900
_cell_length_c   14.12549600
_cell_angle_alpha   90.00000000
_cell_angle_beta   90.00000000
_cell_angle_gamma   90.00000000
_symmetry_Int_Tables_number   1
_chemical_formula_structural   Cu5NiC14
_chemical_formula_sum   'Cu40 Ni8 C112'
_cell_volume   2673.18804595
_cell_formula_units_Z   8
loop_
 _symmetry_equiv_pos_site_id
 _symmetry_equiv_pos_as_xyz
  1  'x, y, z'
loop_
 _atom_site_type_symbol
 _atom_site_label
 _atom_site_symmetry_multiplicity
 _atom_site_fract_x
 _atom_site_fract_y
 _atom_site_fract_z
 _atom_site_occupancy
  C  C0  1  0.12494000  0.12787800  0.14519100  1
  C  C1  1  0.62494000  0.37212200  0.85480900  1
  C  C2  1  0.87506000  0.62787800  0.35480900  1
  C  C3  1  0.37506000  0.87212200  0.64519100  1
  C  C4  1  0.87506000  0.87212200  0.85480900  1
  C  C5  1  0.37506000  0.62787800  0.14519100  1
  C  C6  1  0.12494000  0.37212200  0.64519100  1
  C  C7  1  0.62494000  0.12787800  0.35480900  1
  C  C8  1  0.86620100  0.37747900  0.12143000  1
  C  C9  1  0.36620100  0.12252100  0.87857000  1
  C  C10  1  0.13379900  0.87747900  0.37857000  1
  C  C11  1  0.63379900  0.62252100  0.62143000  1
  C  C12  1  0.13379900  0.62252100  0.87857000  1
  C  C13  1  0.63379900  0.87747900  0.12143000  1
  C  C14  1  0.86620100  0.12252100  0.62143000  1
  C  C15  1  0.36620100  0.37747900  0.37857000  1
  Ni  Ni16  1  0.38706700  0.83794800  0.93929700  1
  Ni  Ni17  1  0.88706700  0.66205200  0.06070300  1
  Ni  Ni18  1  0.61293300  0.33794800  0.56070300  1
  Ni  Ni19  1  0.11293300  0.16205200  0.43929700  1
  Ni  Ni20  1  0.61293300  0.16205200  0.06070300  1
  Ni  Ni21  1  0.11293300  0.33794800  0.93929700  1
  Ni  Ni22  1  0.38706700  0.66205200  0.43929700  1
  Ni  Ni23  1  0.88706700  0.83794800  0.56070300  1
  Cu  Cu24  1  0.34252500  0.91310000  0.16038500  1
  Cu  Cu25  1  0.84252500  0.58690000  0.83961500  1
  Cu  Cu26  1  0.65747500  0.41310000  0.33961500  1
  Cu  Cu27  1  0.15747500  0.08690000  0.66038500  1
  Cu  Cu28  1  0.65747500  0.08690000  0.83961500  1
  Cu  Cu29  1  0.15747500  0.41310000  0.16038500  1
  Cu  Cu30  1  0.34252500  0.58690000  0.66038500  1
  Cu  Cu31  1  0.84252500  0.91310000  0.33961500  1
  Cu  Cu32  1  0.40210800  0.37186600  0.68994700  1
  Cu  Cu33  1  0.90210800  0.12813400  0.31005300  1
  Cu  Cu34  1  0.59789200  0.87186600  0.81005300  1
  Cu  Cu35  1  0.09789200  0.62813400  0.18994700  1
  Cu  Cu36  1  0.59789200  0.62813400  0.31005300  1
  Cu  Cu37  1  0.09789200  0.87186600  0.68994700  1
  Cu  Cu38  1  0.40210800  0.12813400  0.18994700  1
  Cu  Cu39  1  0.90210800  0.37186600  0.81005300  1
  Cu  Cu40  1  0.15798900  0.59416700  0.39394500  1
  Cu  Cu41  1  0.65798900  0.90583300  0.60605500  1
  Cu  Cu42  1  0.84201100  0.09416700  0.10605500  1
  Cu  Cu43  1  0.34201100  0.40583300  0.89394500  1
  Cu  Cu44  1  0.84201100  0.40583300  0.60605500  1
  Cu  Cu45  1  0.34201100  0.09416700  0.39394500  1
  Cu  Cu46  1  0.15798900  0.90583300  0.89394500  1
  Cu  Cu47  1  0.65798900  0.59416700  0.10605500  1
  Cu  Cu48  1  0.08041400  0.11274800  0.86963700  1
  Cu  Cu49  1  0.58041400  0.38725200  0.13036300  1
  Cu  Cu50  1  0.91958600  0.61274800  0.63036300  1
  Cu  Cu51  1  0.41958600  0.88725200  0.36963700  1
  Cu  Cu52  1  0.91958600  0.88725200  0.13036300  1
  Cu  Cu53  1  0.41958600  0.61274800  0.86963700  1
  Cu  Cu54  1  0.08041400  0.38725200  0.36963700  1
  Cu  Cu55  1  0.58041400  0.11274800  0.63036300  1
  Cu  Cu56  1  0.63500000  0.67579000  0.90299600  1
  Cu  Cu57  1  0.13500000  0.82421000  0.09700400  1
  Cu  Cu58  1  0.36500000  0.17579000  0.59700400  1
  Cu  Cu59  1  0.86500000  0.32421000  0.40299600  1
  Cu  Cu60  1  0.36500000  0.32421000  0.09700400  1
  Cu  Cu61  1  0.86500000  0.17579000  0.90299600  1
  Cu  Cu62  1  0.63500000  0.82421000  0.40299600  1
  Cu  Cu63  1  0.13500000  0.67579000  0.59700400  1
  C  C64  1  0.37295500  0.15932700  0.29997100  1
  C  C65  1  0.87295500  0.34067300  0.70002900  1
  C  C66  1  0.62704500  0.65932700  0.20002900  1
  C  C67  1  0.12704500  0.84067300  0.79997100  1
  C  C68  1  0.62704500  0.84067300  0.70002900  1
  C  C69  1  0.12704500  0.65932700  0.29997100  1
  C  C70  1  0.37295500  0.34067300  0.79997100  1
  C  C71  1  0.87295500  0.15932700  0.20002900  1
  C  C72  1  0.62848600  0.18013400  0.55106000  1
  C  C73  1  0.12848600  0.31986600  0.44894000  1
  C  C74  1  0.37151400  0.68013400  0.94894000  1
  C  C75  1  0.87151400  0.81986600  0.05106000  1
  C  C76  1  0.37151400  0.81986600  0.44894000  1
  C  C77  1  0.87151400  0.68013400  0.55106000  1
  C  C78  1  0.62848600  0.31986600  0.05106000  1
  C  C79  1  0.12848600  0.18013400  0.94894000  1
  C  C80  1  0.72663600  0.88548900  0.36175100  1
  C  C81  1  0.22663600  0.61451100  0.63824900  1
  C  C82  1  0.27336400  0.38548900  0.13824900  1
  C  C83  1  0.77336400  0.11451100  0.86175100  1
  C  C84  1  0.27336400  0.11451100  0.63824900  1
  C  C85  1  0.77336400  0.38548900  0.36175100  1
  C  C86  1  0.72663600  0.61451100  0.86175100  1
  C  C87  1  0.22663600  0.88548900  0.13824900  1
  C  C88  1  0.42032200  0.63262100  0.58860700  1
  C  C89  1  0.92032200  0.86737900  0.41139300  1
  C  C90  1  0.57967800  0.13262100  0.91139300  1
  C  C91  1  0.07967800  0.36737900  0.08860700  1
  C  C92  1  0.57967800  0.36737900  0.41139300  1
  C  C93  1  0.07967800  0.13262100  0.58860700  1
  C  C94  1  0.42032200  0.86737900  0.08860700  1
  C  C95  1  0.92032200  0.63262100  0.91139300  1
  C  C96  1  0.16178300  0.96846500  0.66278600  1
  C  C97  1  0.66178300  0.53153500  0.33721400  1
  C  C98  1  0.83821700  0.46846500  0.83721400  1
  C  C99  1  0.33821700  0.03153500  0.16278600  1
  C  C100  1  0.83821700  0.03153500  0.33721400  1
  C  C101  1  0.33821700  0.46846500  0.66278600  1
  C  C102  1  0.16178300  0.53153500  0.16278600  1
  C  C103  1  0.22970700  0.43792100  0.89640800  1
  C  C104  1  0.66178300  0.96846500  0.83721400  1
  C  C105  1  0.98221100  0.61763800  0.17740600  1
  C  C106  1  0.51778900  0.38236200  0.67740600  1
  C  C107  1  0.01778900  0.11763800  0.32259400  1
  C  C108  1  0.51778900  0.11763800  0.17740600  1
  C  C109  1  0.01778900  0.38236200  0.82259400  1
  C  C110  1  0.48221100  0.61763800  0.32259400  1
  C  C111  1  0.98221100  0.88236200  0.67740600  1
  C  C112  1  0.86140700  0.62661000  0.73134300  1
  C  C113  1  0.36140700  0.87339000  0.26865700  1
  C  C114  1  0.13859300  0.12661000  0.76865700  1
  C  C115  1  0.63859300  0.37339000  0.23134300  1
  C  C116  1  0.13859300  0.37339000  0.26865700  1
  C  C117  1  0.63859300  0.12661000  0.73134300  1
  C  C118  1  0.86140700  0.87339000  0.23134300  1
  C  C119  1  0.36140700  0.62661000  0.76865700  1
  C  C120  1  0.14987400  0.70994700  0.12029300  1
  C  C121  1  0.64987400  0.79005300  0.87970700  1
  C  C122  1  0.85012600  0.20994700  0.37970700  1
  C  C123  1  0.35012600  0.29005300  0.62029300  1
  C  C124  1  0.85012600  0.29005300  0.87970700  1
  C  C125  1  0.35012600  0.20994700  0.12029300  1
  C  C126  1  0.14987400  0.79005300  0.62029300  1
  C  C127  1  0.64987400  0.70994700  0.37970700  1
  C  C128  1  0.46235400  0.36512800  0.15107400  1
  C  C129  1  0.96235400  0.13487200  0.84892600  1
  C  C130  1  0.53764600  0.86512800  0.34892600  1
  C  C131  1  0.03764600  0.63487200  0.65107400  1
  C  C132  1  0.53764600  0.63487200  0.84892600  1
  C  C133  1  0.03764600  0.86512800  0.15107400  1
  C  C134  1  0.46235400  0.13487200  0.65107400  1
  C  C135  1  0.96235400  0.36512800  0.34892600  1
  C  C136  1  0.08108400  0.50251300  0.39876600  1
  C  C137  1  0.58108400  0.99748700  0.60123400  1
  C  C138  1  0.91891600  0.00251300  0.10123400  1
  C  C139  1  0.41891600  0.49748700  0.89876600  1
  C  C140  1  0.91891600  0.49748700  0.60123400  1
  C  C141  1  0.41891600  0.00251300  0.39876600  1
  C  C142  1  0.08108400  0.99748700  0.89876600  1
  C  C143  1  0.58108400  0.50251300  0.10123400  1
  C  C144  1  0.37336000  0.16731000  0.48208300  1
  C  C145  1  0.87336000  0.33269000  0.51791700  1
  C  C146  1  0.62664000  0.66731000  0.01791700  1
  C  C147  1  0.12664000  0.83269000  0.98208300  1
  C  C148  1  0.62664000  0.83269000  0.51791700  1
  C  C149  1  0.12664000  0.66731000  0.48208300  1
  C  C150  1  0.37336000  0.33269000  0.98208300  1
  C  C151  1  0.87336000  0.16731000  0.01791700  1
  C  C152  1  0.72970700  0.43792100  0.60359200  1
  C  C153  1  0.22970700  0.06207900  0.39640800  1
  C  C154  1  0.27029300  0.93792100  0.89640800  1
  C  C155  1  0.77029300  0.56207900  0.10359200  1
  C  C156  1  0.27029300  0.56207900  0.39640800  1
  C  C157  1  0.77029300  0.93792100  0.60359200  1
  C  C158  1  0.72970700  0.06207900  0.10359200  1
  C  C159  1  0.48221100  0.88236200  0.82259400  1
