# generated using pymatgen
data_CuNiC6
_symmetry_space_group_name_H-M   'P 1'
_cell_length_a   5.47619300
_cell_length_b   10.89349200
_cell_length_c   16.42524500
_cell_angle_alpha   90.00000000
_cell_angle_beta   90.00000000
_cell_angle_gamma   90.00000000
_symmetry_Int_Tables_number   1
_chemical_formula_structural   CuNiC6
_chemical_formula_sum   'Cu8 Ni8 C48'
_cell_volume   979.84576709
_cell_formula_units_Z   8
loop_
 _symmetry_equiv_pos_site_id
 _symmetry_equiv_pos_as_xyz
  1  'x, y, z'
loop_
 _atom_site_type_symbol
 _atom_site_label
 _atom_site_symmetry_multiplicity
 _atom_site_fract_x
 _atom_site_fract_y
 _atom_site_fract_z
 _atom_site_occupancy
  Ni  Ni0  1  0.46252100  0.37402600  0.53951100  1
  Ni  Ni1  1  0.96252100  0.12597400  0.53951100  1
  Ni  Ni2  1  0.96252100  0.62597400  0.96048900  1
  Ni  Ni3  1  0.03747900  0.37402600  0.03951100  1
  Ni  Ni4  1  0.53747900  0.12597400  0.03951100  1
  Ni  Ni5  1  0.03747900  0.87402600  0.46048900  1
  Ni  Ni6  1  0.53747900  0.62597400  0.46048900  1
  Ni  Ni7  1  0.46252100  0.87402600  0.96048900  1
  Cu  Cu8  1  0.03365900  0.85716400  0.79154600  1
  Cu  Cu9  1  0.96634100  0.14283600  0.20845400  1
  Cu  Cu10  1  0.46634100  0.35716400  0.20845400  1
  Cu  Cu11  1  0.96634100  0.64283600  0.29154600  1
  Cu  Cu12  1  0.53365900  0.14283600  0.70845400  1
  Cu  Cu13  1  0.53365900  0.64283600  0.79154600  1
  Cu  Cu14  1  0.46634100  0.85716400  0.29154600  1
  Cu  Cu15  1  0.03365900  0.35716400  0.70845400  1
  C  C16  1  0.93151300  0.35852200  0.40675600  1
  C  C17  1  0.56848700  0.85852200  0.59324400  1
  C  C18  1  0.06848700  0.64147800  0.59324400  1
  C  C19  1  0.43151300  0.14147800  0.40675600  1
  C  C20  1  0.06848700  0.14147800  0.90675600  1
  C  C21  1  0.93151300  0.85852200  0.09324400  1
  C  C22  1  0.56848700  0.35852200  0.90675600  1
  C  C23  1  0.43151300  0.64147800  0.09324400  1
  C  C24  1  0.80744000  0.31036100  0.30690900  1
  C  C25  1  0.29888400  0.04222600  0.96403400  1
  C  C26  1  0.20111600  0.54222600  0.03596600  1
  C  C27  1  0.37262700  0.79780600  0.85505400  1
  C  C28  1  0.12737300  0.29780600  0.14494600  1
  C  C29  1  0.80744000  0.81036100  0.19309100  1
  C  C30  1  0.12737300  0.79780600  0.35505400  1
  C  C31  1  0.69256000  0.81036100  0.69309100  1
  C  C32  1  0.29888400  0.54222600  0.53596600  1
  C  C33  1  0.19256000  0.68963900  0.69309100  1
  C  C34  1  0.69256000  0.31036100  0.80690900  1
  C  C35  1  0.70656400  0.21567800  0.46747200  1
  C  C36  1  0.79888400  0.95777400  0.53596600  1
  C  C37  1  0.62737300  0.70219400  0.35505400  1
  C  C38  1  0.12689700  0.99605500  0.13323200  1
  C  C39  1  0.79888400  0.45777400  0.96403400  1
  C  C40  1  0.19256000  0.18963900  0.80690900  1
  C  C41  1  0.87262700  0.20219400  0.64494600  1
  C  C42  1  0.20656400  0.78432200  0.03252800  1
  C  C43  1  0.20111600  0.04222600  0.46403400  1
  C  C44  1  0.29343600  0.78432200  0.53252800  1
  C  C45  1  0.87310300  0.00394500  0.86676800  1
  C  C46  1  0.62737300  0.20219400  0.14494600  1
  C  C47  1  0.62689700  0.00394500  0.36676800  1
  C  C48  1  0.29343600  0.28432200  0.96747200  1
  C  C49  1  0.20656400  0.28432200  0.46747200  1
  C  C50  1  0.70111600  0.45777400  0.46403400  1
  C  C51  1  0.70111600  0.95777400  0.03596600  1
  C  C52  1  0.62689700  0.50394500  0.13323200  1
  C  C53  1  0.79343600  0.71567800  0.53252800  1
  C  C54  1  0.79343600  0.21567800  0.96747200  1
  C  C55  1  0.70656400  0.71567800  0.03252800  1
  C  C56  1  0.87310300  0.50394500  0.63323200  1
  C  C57  1  0.87262700  0.70219400  0.85505400  1
  C  C58  1  0.37262700  0.29780600  0.64494600  1
  C  C59  1  0.12689700  0.49605500  0.36676800  1
  C  C60  1  0.37310300  0.49605500  0.86676800  1
  C  C61  1  0.30744000  0.18963900  0.30690900  1
  C  C62  1  0.37310300  0.99605500  0.63323200  1
  C  C63  1  0.30744000  0.68963900  0.19309100  1
