# generated using pymatgen
data_Cu6NiC7
_symmetry_space_group_name_H-M   'P 1'
_cell_length_a   10.96229440
_cell_length_b   10.96229440
_cell_length_c   10.96229440
_cell_angle_alpha   90.00000000
_cell_angle_beta   90.00000000
_cell_angle_gamma   90.00000000
_symmetry_Int_Tables_number   1
_chemical_formula_structural   Cu6NiC7
_chemical_formula_sum   'Cu24 Ni4 C28'
_cell_volume   1317.35973010
_cell_formula_units_Z   4
loop_
 _symmetry_equiv_pos_site_id
 _symmetry_equiv_pos_as_xyz
  1  'x, y, z'
loop_
 _atom_site_type_symbol
 _atom_site_label
 _atom_site_symmetry_multiplicity
 _atom_site_fract_x
 _atom_site_fract_y
 _atom_site_fract_z
 _atom_site_occupancy
  C  C0  1  0.00000000  0.00000000  0.50000000  1
  C  C1  1  0.00000000  0.50000000  0.00000000  1
  C  C2  1  0.50000000  0.00000000  0.00000000  1
  C  C3  1  0.50000000  0.50000000  0.50000000  1
  Ni  Ni4  1  0.50000000  0.50000000  0.00000000  1
  Ni  Ni5  1  0.50000000  0.00000000  0.50000000  1
  Ni  Ni6  1  0.00000000  0.50000000  0.50000000  1
  Ni  Ni7  1  0.00000000  0.00000000  0.00000000  1
  Cu  Cu8  1  0.53048245  0.72494316  0.15206684  1
  Cu  Cu9  1  0.46951755  0.22494316  0.34793316  1
  Cu  Cu10  1  0.96951755  0.27505684  0.65206684  1
  Cu  Cu11  1  0.03048245  0.77505684  0.84793316  1
  Cu  Cu12  1  0.15206684  0.53048245  0.72494316  1
  Cu  Cu13  1  0.34793316  0.46951755  0.22494316  1
  Cu  Cu14  1  0.65206684  0.96951755  0.27505684  1
  Cu  Cu15  1  0.84793316  0.03048245  0.77505684  1
  Cu  Cu16  1  0.72494316  0.15206684  0.53048245  1
  Cu  Cu17  1  0.22494316  0.34793316  0.46951755  1
  Cu  Cu18  1  0.27505684  0.65206684  0.96951755  1
  Cu  Cu19  1  0.77505684  0.84793316  0.03048245  1
  Cu  Cu20  1  0.46951755  0.27505684  0.84793316  1
  Cu  Cu21  1  0.53048245  0.77505684  0.65206684  1
  Cu  Cu22  1  0.03048245  0.72494316  0.34793316  1
  Cu  Cu23  1  0.96951755  0.22494316  0.15206684  1
  Cu  Cu24  1  0.84793316  0.46951755  0.27505684  1
  Cu  Cu25  1  0.65206684  0.53048245  0.77505684  1
  Cu  Cu26  1  0.34793316  0.03048245  0.72494316  1
  Cu  Cu27  1  0.15206684  0.96951755  0.22494316  1
  Cu  Cu28  1  0.27505684  0.84793316  0.46951755  1
  Cu  Cu29  1  0.77505684  0.65206684  0.53048245  1
  Cu  Cu30  1  0.72494316  0.34793316  0.03048245  1
  Cu  Cu31  1  0.22494316  0.15206684  0.96951755  1
  C  C32  1  0.43795863  0.65475755  0.60073513  1
  C  C33  1  0.56204137  0.15475755  0.89926487  1
  C  C34  1  0.06204137  0.34524245  0.10073513  1
  C  C35  1  0.93795863  0.84524245  0.39926487  1
  C  C36  1  0.60073513  0.43795863  0.65475755  1
  C  C37  1  0.89926487  0.56204137  0.15475755  1
  C  C38  1  0.10073513  0.06204137  0.34524245  1
  C  C39  1  0.39926487  0.93795863  0.84524245  1
  C  C40  1  0.65475755  0.60073513  0.43795863  1
  C  C41  1  0.15475755  0.89926487  0.56204137  1
  C  C42  1  0.34524245  0.10073513  0.06204137  1
  C  C43  1  0.84524245  0.39926487  0.93795863  1
  C  C44  1  0.56204137  0.34524245  0.39926487  1
  C  C45  1  0.43795863  0.84524245  0.10073513  1
  C  C46  1  0.93795863  0.65475755  0.89926487  1
  C  C47  1  0.06204137  0.15475755  0.60073513  1
  C  C48  1  0.39926487  0.56204137  0.34524245  1
  C  C49  1  0.10073513  0.43795863  0.84524245  1
  C  C50  1  0.89926487  0.93795863  0.65475755  1
  C  C51  1  0.60073513  0.06204137  0.15475755  1
  C  C52  1  0.34524245  0.39926487  0.56204137  1
  C  C53  1  0.84524245  0.10073513  0.43795863  1
  C  C54  1  0.65475755  0.89926487  0.93795863  1
  C  C55  1  0.15475755  0.60073513  0.06204137  1
