# generated using pymatgen
data_CuNiC2
_symmetry_space_group_name_H-M   'P 1'
_cell_length_a   5.53473300
_cell_length_b   5.96613300
_cell_length_c   6.93989000
_cell_angle_alpha   90.00000000
_cell_angle_beta   90.00000000
_cell_angle_gamma   90.00000000
_symmetry_Int_Tables_number   1
_chemical_formula_structural   CuNiC2
_chemical_formula_sum   'Cu4 Ni4 C8'
_cell_volume   229.16178289
_cell_formula_units_Z   4
loop_
 _symmetry_equiv_pos_site_id
 _symmetry_equiv_pos_as_xyz
  1  'x, y, z'
loop_
 _atom_site_type_symbol
 _atom_site_label
 _atom_site_symmetry_multiplicity
 _atom_site_fract_x
 _atom_site_fract_y
 _atom_site_fract_z
 _atom_site_occupancy
  Ni  Ni0  1  0.99327900  0.58332500  0.87539000  1
  Ni  Ni1  1  0.49327900  0.41667500  0.12461000  1
  Ni  Ni2  1  0.49327900  0.91667500  0.37539000  1
  Ni  Ni3  1  0.99327900  0.08332500  0.62461000  1
  Cu  Cu4  1  0.99588000  0.58342000  0.37437100  1
  Cu  Cu5  1  0.49588000  0.41658000  0.62562900  1
  Cu  Cu6  1  0.49588000  0.91658000  0.87437100  1
  Cu  Cu7  1  0.99588000  0.08342000  0.12562900  1
  C  C8  1  0.37531200  0.57916300  0.37726200  1
  C  C9  1  0.87531200  0.42083700  0.62273800  1
  C  C10  1  0.87531200  0.92083700  0.87726200  1
  C  C11  1  0.37531200  0.07916300  0.12273800  1
  C  C12  1  0.37653000  0.58467100  0.87313000  1
  C  C13  1  0.87653000  0.41532900  0.12687000  1
  C  C14  1  0.87653000  0.91532900  0.37313000  1
  C  C15  1  0.37653000  0.08467100  0.62687000  1
