# generated using pymatgen
data_CuNiC9
_symmetry_space_group_name_H-M   'P 1'
_cell_length_a   10.34835515
_cell_length_b   10.34835515
_cell_length_c   10.34835515
_cell_angle_alpha   158.42905446
_cell_angle_beta   158.42905446
_cell_angle_gamma   30.69171565
_symmetry_Int_Tables_number   1
_chemical_formula_structural   CuNiC9
_chemical_formula_sum   'Cu1 Ni1 C9'
_cell_volume   149.69389796
_cell_formula_units_Z   1
loop_
 _symmetry_equiv_pos_site_id
 _symmetry_equiv_pos_as_xyz
  1  'x, y, z'
loop_
 _atom_site_type_symbol
 _atom_site_label
 _atom_site_symmetry_multiplicity
 _atom_site_fract_x
 _atom_site_fract_y
 _atom_site_fract_z
 _atom_site_occupancy
  Ni  Ni0  1  0.82090000  0.82090000  0.00000000  1
  C  C1  1  0.18217700  0.18217700  0.00000000  1
  Cu  Cu2  1  0.99941000  0.99941000  0.00000000  1
  C  C3  1  0.40966000  0.40966000  0.00000000  1
  C  C4  1  0.58849000  0.58849000  0.00000000  1
  C  C5  1  0.29307900  0.29307900  0.00000000  1
  C  C6  1  0.69897400  0.69897400  0.00000000  1
  C  C7  1  0.92345700  0.42345700  0.50000000  1
  C  C8  1  0.42345700  0.92345700  0.50000000  1
  C  C9  1  0.08019800  0.58019800  0.50000000  1
  C  C10  1  0.58019800  0.08019800  0.50000000  1
