# generated using pymatgen
data_Cu14NiC16
_symmetry_space_group_name_H-M   'P 1'
_cell_length_a   8.61095483
_cell_length_b   8.65011898
_cell_length_c   4.32994133
_cell_angle_alpha   90.00000000
_cell_angle_beta   90.00000000
_cell_angle_gamma   90.00000000
_symmetry_Int_Tables_number   1
_chemical_formula_structural   Cu14NiC16
_chemical_formula_sum   'Cu14 Ni1 C16'
_cell_volume   322.51907382
_cell_formula_units_Z   1
loop_
 _symmetry_equiv_pos_site_id
 _symmetry_equiv_pos_as_xyz
  1  'x, y, z'
loop_
 _atom_site_type_symbol
 _atom_site_label
 _atom_site_symmetry_multiplicity
 _atom_site_fract_x
 _atom_site_fract_y
 _atom_site_fract_z
 _atom_site_occupancy
  C  C0  1  -0.00006814  0.00000000  -0.00000000  1
  Ni  Ni1  1  0.00759080  0.50000000  -0.00000000  1
  Cu  Cu2  1  0.50030544  0.00000000  -0.00000000  1
  Cu  Cu3  1  0.50067498  0.50000000  -0.00000000  1
  Cu  Cu4  1  0.00080680  0.23572748  0.50000000  1
  Cu  Cu5  1  0.00080680  0.76427252  0.50000000  1
  Cu  Cu6  1  0.49932310  0.24759905  0.50000000  1
  Cu  Cu7  1  0.49932310  0.75240095  0.50000000  1
  Cu  Cu8  1  0.24887618  0.00000000  0.50000000  1
  Cu  Cu9  1  0.25332903  0.50000000  0.50000000  1
  Cu  Cu10  1  0.75137521  0.00000000  0.50000000  1
  Cu  Cu11  1  0.74417985  0.50000000  0.50000000  1
  Cu  Cu12  1  0.25582494  0.24008450  -0.00000000  1
  Cu  Cu13  1  0.25582494  0.75991550  0.00000000  1
  Cu  Cu14  1  0.74484372  0.24287910  -0.00000000  1
  Cu  Cu15  1  0.74484372  0.75712090  -0.00000000  1
  C  C16  1  0.26486595  0.00000000  -0.00000000  1
  C  C17  1  0.73544490  0.00000000  -0.00000000  1
  C  C18  1  0.74575343  0.50000000  -0.00000000  1
  C  C19  1  0.24958174  0.24555001  0.50000000  1
  C  C20  1  0.24958174  0.75444999  0.50000000  1
  C  C21  1  0.75134762  0.25091815  0.50000000  1
  C  C22  1  0.75134762  0.74908185  0.50000000  1
  C  C23  1  0.99921034  0.00000000  0.50000000  1
  C  C24  1  0.99465952  0.50000000  0.50000000  1
  C  C25  1  0.50107124  0.00000000  0.50000000  1
  C  C26  1  0.50018897  0.50000000  0.50000000  1
  C  C27  1  0.99932754  0.26296563  -0.00000000  1
  C  C28  1  0.99932754  0.73703437  -0.00000000  1
  C  C29  1  0.50021568  0.25392645  -0.00000000  1
  C  C30  1  0.50021568  0.74607355  -0.00000000  1
