# generated using pymatgen
data_Cu4Ni2C
_symmetry_space_group_name_H-M   'P 1'
_cell_length_a   7.00526300
_cell_length_b   12.83227700
_cell_length_c   14.93923000
_cell_angle_alpha   90.00000000
_cell_angle_beta   90.00000000
_cell_angle_gamma   90.00000000
_symmetry_Int_Tables_number   1
_chemical_formula_structural   Cu4Ni2C
_chemical_formula_sum   'Cu32 Ni16 C8'
_cell_volume   1342.93930262
_cell_formula_units_Z   8
loop_
 _symmetry_equiv_pos_site_id
 _symmetry_equiv_pos_as_xyz
  1  'x, y, z'
loop_
 _atom_site_type_symbol
 _atom_site_label
 _atom_site_symmetry_multiplicity
 _atom_site_fract_x
 _atom_site_fract_y
 _atom_site_fract_z
 _atom_site_occupancy
  C  C0  1  0.24818800  0.98534500  0.00378700  1
  C  C1  1  0.25181200  0.01465500  0.50378700  1
  C  C2  1  0.75181200  0.48534500  0.49621300  1
  C  C3  1  0.74818800  0.51465500  0.99621300  1
  C  C4  1  0.25623700  0.00992300  0.25197300  1
  C  C5  1  0.24376300  0.99007700  0.75197300  1
  C  C6  1  0.74376300  0.50992300  0.24802700  1
  C  C7  1  0.75623700  0.49007700  0.74802700  1
  Ni  Ni8  1  0.02568500  0.05697900  0.12821400  1
  Ni  Ni9  1  0.47431500  0.94302100  0.62821400  1
  Ni  Ni10  1  0.97431500  0.55697900  0.37178600  1
  Ni  Ni11  1  0.52568500  0.44302100  0.87178600  1
  Ni  Ni12  1  0.51505000  0.46134500  0.12393000  1
  Ni  Ni13  1  0.98495000  0.53865500  0.62393000  1
  Ni  Ni14  1  0.48495000  0.96134500  0.37607000  1
  Ni  Ni15  1  0.01505000  0.03865500  0.87607000  1
  Ni  Ni16  1  0.00705600  0.02878200  0.37576000  1
  Ni  Ni17  1  0.49294400  0.97121800  0.87576000  1
  Ni  Ni18  1  0.99294400  0.52878200  0.12424000  1
  Ni  Ni19  1  0.50705600  0.47121800  0.62424000  1
  Ni  Ni20  1  0.49564700  0.49219700  0.37237700  1
  Ni  Ni21  1  0.00435300  0.50780300  0.87237700  1
  Ni  Ni22  1  0.50435300  0.99219700  0.12762300  1
  Ni  Ni23  1  0.99564700  0.00780300  0.62762300  1
  Cu  Cu24  1  0.33013100  0.20054400  0.71820000  1
  Cu  Cu25  1  0.16986900  0.79945600  0.21820000  1
  Cu  Cu26  1  0.66986900  0.70054400  0.78180000  1
  Cu  Cu27  1  0.83013100  0.29945600  0.28180000  1
  Cu  Cu28  1  0.25853000  0.71657900  0.22219100  1
  Cu  Cu29  1  0.24147000  0.28342100  0.72219100  1
  Cu  Cu30  1  0.74147000  0.21657900  0.27780900  1
  Cu  Cu31  1  0.75853000  0.78342100  0.77780900  1
  Cu  Cu32  1  0.23273900  0.29671600  0.27853400  1
  Cu  Cu33  1  0.26726100  0.70328400  0.77853400  1
  Cu  Cu34  1  0.76726100  0.79671600  0.22146600  1
  Cu  Cu35  1  0.73273900  0.20328400  0.72146600  1
  Cu  Cu36  1  0.18899600  0.32395500  0.49990600  1
  Cu  Cu37  1  0.31100400  0.67604500  0.99990600  1
  Cu  Cu38  1  0.81100400  0.82395500  0.00009400  1
  Cu  Cu39  1  0.68899600  0.17604500  0.50009400  1
  Cu  Cu40  1  0.84123700  0.27887000  0.01247800  1
  Cu  Cu41  1  0.65876300  0.72113000  0.51247800  1
  Cu  Cu42  1  0.15876300  0.77887000  0.48752200  1
  Cu  Cu43  1  0.34123700  0.22113000  0.98752200  1
  Cu  Cu44  1  0.33991700  0.22077300  0.27367600  1
  Cu  Cu45  1  0.16008300  0.77922700  0.77367600  1
  Cu  Cu46  1  0.66008300  0.72077300  0.22632400  1
  Cu  Cu47  1  0.83991700  0.27922700  0.72632400  1
  Cu  Cu48  1  0.23949200  0.29572500  0.00652200  1
  Cu  Cu49  1  0.26050800  0.70427500  0.50652200  1
  Cu  Cu50  1  0.76050800  0.79572500  0.49347800  1
  Cu  Cu51  1  0.73949200  0.20427500  0.99347800  1
  Cu  Cu52  1  0.36272800  0.18593000  0.50795300  1
  Cu  Cu53  1  0.13727200  0.81407000  0.00795300  1
  Cu  Cu54  1  0.63727200  0.68593000  0.99204700  1
  Cu  Cu55  1  0.86272800  0.31407000  0.49204700  1
