# generated using pymatgen
data_Cu4NiC4
_symmetry_space_group_name_H-M   'P 1'
_cell_length_a   7.13347100
_cell_length_b   7.72763500
_cell_length_c   14.68628800
_cell_angle_alpha   90.00000000
_cell_angle_beta   90.00000000
_cell_angle_gamma   90.00000000
_symmetry_Int_Tables_number   1
_chemical_formula_structural   Cu4NiC4
_chemical_formula_sum   'Cu16 Ni4 C16'
_cell_volume   809.57957243
_cell_formula_units_Z   4
loop_
 _symmetry_equiv_pos_site_id
 _symmetry_equiv_pos_as_xyz
  1  'x, y, z'
loop_
 _atom_site_type_symbol
 _atom_site_label
 _atom_site_symmetry_multiplicity
 _atom_site_fract_x
 _atom_site_fract_y
 _atom_site_fract_z
 _atom_site_occupancy
  Ni  Ni0  1  0.65864100  0.97334100  0.75000000  1
  Ni  Ni1  1  0.15864100  0.52665900  0.75000000  1
  Ni  Ni2  1  0.34135900  0.02665900  0.25000000  1
  Ni  Ni3  1  0.84135900  0.47334100  0.25000000  1
  Cu  Cu4  1  0.51508500  0.31345600  0.09751100  1
  Cu  Cu5  1  0.01508500  0.18654400  0.40248900  1
  Cu  Cu6  1  0.48491500  0.68654400  0.59751100  1
  Cu  Cu7  1  0.98491500  0.81345600  0.90248900  1
  Cu  Cu8  1  0.48491500  0.68654400  0.90248900  1
  Cu  Cu9  1  0.98491500  0.81345600  0.59751100  1
  Cu  Cu10  1  0.51508500  0.31345600  0.40248900  1
  Cu  Cu11  1  0.01508500  0.18654400  0.09751100  1
  Cu  Cu12  1  0.82880900  0.32348500  0.62799300  1
  Cu  Cu13  1  0.32880900  0.17651500  0.87200700  1
  Cu  Cu14  1  0.17119100  0.67651500  0.12799300  1
  Cu  Cu15  1  0.67119100  0.82348500  0.37200700  1
  Cu  Cu16  1  0.17119100  0.67651500  0.37200700  1
  Cu  Cu17  1  0.67119100  0.82348500  0.12799300  1
  Cu  Cu18  1  0.82880900  0.32348500  0.87200700  1
  Cu  Cu19  1  0.32880900  0.17651500  0.62799300  1
  C  C20  1  0.66724400  0.03425900  0.53652200  1
  C  C21  1  0.16724400  0.46574100  0.96347800  1
  C  C22  1  0.33275600  0.96574100  0.03652200  1
  C  C23  1  0.83275600  0.53425900  0.46347800  1
  C  C24  1  0.33275600  0.96574100  0.46347800  1
  C  C25  1  0.83275600  0.53425900  0.03652200  1
  C  C26  1  0.66724400  0.03425900  0.96347800  1
  C  C27  1  0.16724400  0.46574100  0.53652200  1
  C  C28  1  0.51753400  0.41393900  0.75000000  1
  C  C29  1  0.01753400  0.08606100  0.75000000  1
  C  C30  1  0.48246600  0.58606100  0.25000000  1
  C  C31  1  0.98246600  0.91393900  0.25000000  1
  C  C32  1  0.78348300  0.63623900  0.75000000  1
  C  C33  1  0.28348300  0.86376100  0.75000000  1
  C  C34  1  0.21651700  0.36376100  0.25000000  1
  C  C35  1  0.71651700  0.13623900  0.25000000  1
