# generated using pymatgen
data_Cu11(NiC7)2
_symmetry_space_group_name_H-M   'P 1'
_cell_length_a   8.86676502
_cell_length_b   8.86676502
_cell_length_c   15.17393900
_cell_angle_alpha   90.00000000
_cell_angle_beta   90.00000000
_cell_angle_gamma   118.66977374
_symmetry_Int_Tables_number   1
_chemical_formula_structural   Cu11(NiC7)2
_chemical_formula_sum   'Cu22 Ni4 C28'
_cell_volume   1046.70923815
_cell_formula_units_Z   2
loop_
 _symmetry_equiv_pos_site_id
 _symmetry_equiv_pos_as_xyz
  1  'x, y, z'
loop_
 _atom_site_type_symbol
 _atom_site_label
 _atom_site_symmetry_multiplicity
 _atom_site_fract_x
 _atom_site_fract_y
 _atom_site_fract_z
 _atom_site_occupancy
  C  C0  1  0.61673100  0.61673100  0.64625400  1
  C  C1  1  0.38326900  0.38326900  0.14625400  1
  C  C2  1  0.52297200  0.19583900  0.94204400  1
  C  C3  1  0.19583900  0.52297200  0.94204400  1
  C  C4  1  0.47702800  0.80416100  0.44204400  1
  C  C5  1  0.80416100  0.47702800  0.44204400  1
  C  C6  1  0.15354900  0.67896300  0.65256700  1
  C  C7  1  0.67896300  0.15354900  0.65256700  1
  C  C8  1  0.84645100  0.32103700  0.15256700  1
  C  C9  1  0.32103700  0.84645100  0.15256700  1
  C  C10  1  0.05881100  0.05881100  0.99870100  1
  C  C11  1  0.94118900  0.94118900  0.49870100  1
  C  C12  1  0.67428600  0.86028600  0.98616200  1
  C  C13  1  0.86028600  0.67428600  0.98616200  1
  C  C14  1  0.32571400  0.13971400  0.48616200  1
  C  C15  1  0.13971400  0.32571400  0.48616200  1
  C  C16  1  0.47399000  0.85528800  0.81782300  1
  C  C17  1  0.85528800  0.47399000  0.81782300  1
  C  C18  1  0.52601000  0.14471200  0.31782300  1
  C  C19  1  0.14471200  0.52601000  0.31782300  1
  C  C20  1  0.85445700  0.85445700  0.10289900  1
  C  C21  1  0.14554300  0.14554300  0.60289900  1
  C  C22  1  0.65582700  0.65582700  0.88493100  1
  C  C23  1  0.34417300  0.34417300  0.38493100  1
  C  C24  1  0.87185200  0.09992900  0.90278700  1
  C  C25  1  0.09992900  0.87185200  0.90278700  1
  C  C26  1  0.12814800  0.90007100  0.40278700  1
  C  C27  1  0.90007100  0.12814800  0.40278700  1
  Ni  Ni28  1  0.31339600  0.39447500  0.76732900  1
  Ni  Ni29  1  0.39447500  0.31339600  0.76732900  1
  Ni  Ni30  1  0.68660400  0.60552500  0.26732900  1
  Ni  Ni31  1  0.60552500  0.68660400  0.26732900  1
  Cu  Cu32  1  0.26990000  0.26990000  0.94390400  1
  Cu  Cu33  1  0.73010000  0.73010000  0.44390400  1
  Cu  Cu34  1  0.74643700  0.92568900  0.58140600  1
  Cu  Cu35  1  0.92568900  0.74643700  0.58140600  1
  Cu  Cu36  1  0.25356300  0.07431100  0.08140600  1
  Cu  Cu37  1  0.07431100  0.25356300  0.08140600  1
  Cu  Cu38  1  0.61885500  0.02626300  0.06024500  1
  Cu  Cu39  1  0.02626300  0.61885500  0.06024500  1
  Cu  Cu40  1  0.38114500  0.97373700  0.56024500  1
  Cu  Cu41  1  0.97373700  0.38114500  0.56024500  1
  Cu  Cu42  1  0.45756100  0.68194400  0.05570300  1
  Cu  Cu43  1  0.68194400  0.45756100  0.05570300  1
  Cu  Cu44  1  0.54243900  0.31805600  0.55570300  1
  Cu  Cu45  1  0.31805600  0.54243900  0.55570300  1
  Cu  Cu46  1  0.47391200  0.87194700  0.90388200  1
  Cu  Cu47  1  0.87194700  0.47391200  0.90388200  1
  Cu  Cu48  1  0.52608800  0.12805300  0.40388200  1
  Cu  Cu49  1  0.12805300  0.52608800  0.40388200  1
  Cu  Cu50  1  0.46630100  0.84137900  0.74970300  1
  Cu  Cu51  1  0.84137900  0.46630100  0.74970300  1
  Cu  Cu52  1  0.53369900  0.15862100  0.24970300  1
  Cu  Cu53  1  0.15862100  0.53369900  0.24970300  1
