# generated using pymatgen
data_Cu4Ni12C17
_symmetry_space_group_name_H-M   'P 1'
_cell_length_a   6.87707000
_cell_length_b   8.73684853
_cell_length_c   12.48502021
_cell_angle_alpha   102.21355921
_cell_angle_beta   90.00000000
_cell_angle_gamma   90.00000000
_symmetry_Int_Tables_number   1
_chemical_formula_structural   Cu4Ni12C17
_chemical_formula_sum   'Cu8 Ni24 C34'
_cell_volume   733.16996323
_cell_formula_units_Z   2
loop_
 _symmetry_equiv_pos_site_id
 _symmetry_equiv_pos_as_xyz
  1  'x, y, z'
loop_
 _atom_site_type_symbol
 _atom_site_label
 _atom_site_symmetry_multiplicity
 _atom_site_fract_x
 _atom_site_fract_y
 _atom_site_fract_z
 _atom_site_occupancy
  C  C0  1  0.65133600  0.56279300  0.88709700  1
  C  C1  1  0.84866400  0.06279300  0.38709700  1
  C  C2  1  0.34866400  0.43720700  0.11290300  1
  C  C3  1  0.15133600  0.93720700  0.61290300  1
  C  C4  1  0.00000000  0.00000000  0.00000000  1
  C  C5  1  0.50000000  0.50000000  0.50000000  1
  Ni  Ni6  1  0.58062300  0.90166200  0.84083500  1
  Ni  Ni7  1  0.91937700  0.40166200  0.34083500  1
  Ni  Ni8  1  0.41937700  0.09833800  0.15916500  1
  Ni  Ni9  1  0.08062300  0.59833800  0.65916500  1
  Ni  Ni10  1  0.51327800  0.78907600  0.73117700  1
  Ni  Ni11  1  0.98672200  0.28907600  0.23117700  1
  Ni  Ni12  1  0.48672200  0.21092400  0.26882300  1
  Ni  Ni13  1  0.01327800  0.71092400  0.76882300  1
  Ni  Ni14  1  0.98855900  0.67909700  0.26423100  1
  Ni  Ni15  1  0.51144100  0.17909700  0.76423100  1
  Ni  Ni16  1  0.01144100  0.32090300  0.73576900  1
  Ni  Ni17  1  0.48855900  0.82090300  0.23576900  1
  Ni  Ni18  1  0.91556800  0.57632200  0.15058200  1
  Ni  Ni19  1  0.58443200  0.07632200  0.65058200  1
  Ni  Ni20  1  0.08443200  0.42367800  0.84941800  1
  Ni  Ni21  1  0.41556800  0.92367800  0.34941800  1
  Ni  Ni22  1  0.28505500  0.07017100  0.87584700  1
  Ni  Ni23  1  0.21494500  0.57017100  0.37584700  1
  Ni  Ni24  1  0.71494500  0.92982900  0.12415300  1
  Ni  Ni25  1  0.78505500  0.42982900  0.62415300  1
  Ni  Ni26  1  0.10129700  0.16617800  0.84937000  1
  Ni  Ni27  1  0.39870300  0.66617800  0.34937000  1
  Ni  Ni28  1  0.89870300  0.83382200  0.15063000  1
  Ni  Ni29  1  0.60129700  0.33382200  0.65063000  1
  Cu  Cu30  1  0.31598100  0.81501300  0.04345400  1
  Cu  Cu31  1  0.18401900  0.31501300  0.54345400  1
  Cu  Cu32  1  0.68401900  0.18498700  0.95654600  1
  Cu  Cu33  1  0.81598100  0.68498700  0.45654600  1
  Cu  Cu34  1  0.18354500  0.70328800  0.95953900  1
  Cu  Cu35  1  0.31645500  0.20328800  0.45953900  1
  Cu  Cu36  1  0.81645500  0.29671200  0.04046100  1
  Cu  Cu37  1  0.68354500  0.79671200  0.54046100  1
  C  C38  1  0.26233100  0.95846200  0.06846000  1
  C  C39  1  0.23766900  0.45846200  0.56846000  1
  C  C40  1  0.73766900  0.04153800  0.93154000  1
  C  C41  1  0.76233100  0.54153800  0.43154000  1
  C  C42  1  0.02886400  0.76413900  0.92885400  1
  C  C43  1  0.47113600  0.26413900  0.42885400  1
  C  C44  1  0.97113600  0.23586100  0.07114600  1
  C  C45  1  0.52886400  0.73586100  0.57114600  1
  C  C46  1  0.46327100  0.75933400  0.08123800  1
  C  C47  1  0.03672900  0.25933400  0.58123800  1
  C  C48  1  0.53672900  0.24066600  0.91876200  1
  C  C49  1  0.96327100  0.74066600  0.41876200  1
  C  C50  1  0.23434100  0.56290800  0.92897900  1
  C  C51  1  0.26565900  0.06290800  0.42897900  1
  C  C52  1  0.76565900  0.43709200  0.07102100  1
  C  C53  1  0.73434100  0.93709200  0.57102100  1
  C  C54  1  0.49225900  0.81397800  0.81071400  1
  C  C55  1  0.00774100  0.31397800  0.31071400  1
  C  C56  1  0.50774100  0.18602200  0.18928600  1
  C  C57  1  0.99225900  0.68602200  0.68928600  1
  C  C58  1  0.00225000  0.66553700  0.18405500  1
  C  C59  1  0.49775000  0.16553700  0.68405500  1
  C  C60  1  0.99775000  0.33446300  0.81594500  1
  C  C61  1  0.50225000  0.83446300  0.31594500  1
  C  C62  1  0.14533900  0.06108400  0.86023300  1
  C  C63  1  0.35466100  0.56108400  0.36023300  1
  C  C64  1  0.85466100  0.93891600  0.13976700  1
  C  C65  1  0.64533900  0.43891600  0.63976700  1
