# generated using pymatgen
data_CuNiC15
_symmetry_space_group_name_H-M   'P 1'
_cell_length_a   8.81873440
_cell_length_b   8.81873420
_cell_length_c   8.81873457
_cell_angle_alpha   59.00998105
_cell_angle_beta   59.00998498
_cell_angle_gamma   59.00998571
_symmetry_Int_Tables_number   1
_chemical_formula_structural   CuNiC15
_chemical_formula_sum   'Cu2 Ni2 C30'
_cell_volume   474.00659229
_cell_formula_units_Z   2
loop_
 _symmetry_equiv_pos_site_id
 _symmetry_equiv_pos_as_xyz
  1  'x, y, z'
loop_
 _atom_site_type_symbol
 _atom_site_label
 _atom_site_symmetry_multiplicity
 _atom_site_fract_x
 _atom_site_fract_y
 _atom_site_fract_z
 _atom_site_occupancy
  Ni  Ni0  1  0.13867000  0.13867000  0.13867000  1
  Ni  Ni1  1  0.63867000  0.63867000  0.63867000  1
  Cu  Cu2  1  0.35869900  0.35869900  0.35869900  1
  Cu  Cu3  1  0.85869900  0.85869900  0.85869900  1
  C  C4  1  0.03330500  0.46781900  0.74632400  1
  C  C5  1  0.46781900  0.74632400  0.03330500  1
  C  C6  1  0.74632400  0.03330500  0.46781900  1
  C  C7  1  0.24632500  0.96781900  0.53330500  1
  C  C8  1  0.53330500  0.24632500  0.96781900  1
  C  C9  1  0.96781900  0.53330500  0.24632500  1
  C  C10  1  0.13903700  0.50835100  0.27712300  1
  C  C11  1  0.27712300  0.13903700  0.50835100  1
  C  C12  1  0.06371300  0.28970400  0.91651500  1
  C  C13  1  0.50835100  0.27712300  0.13903700  1
  C  C14  1  0.00835100  0.63903700  0.77712300  1
  C  C15  1  0.21632100  0.44556700  0.57350400  1
  C  C16  1  0.28970400  0.91651500  0.06371300  1
  C  C17  1  0.44556700  0.57350400  0.21632100  1
  C  C18  1  0.20667400  0.00374600  0.36667200  1
  C  C19  1  0.57350400  0.21632100  0.44556700  1
  C  C20  1  0.07350400  0.94556700  0.71632100  1
  C  C21  1  0.36667200  0.20667400  0.00374600  1
  C  C22  1  0.63903700  0.77712300  0.00835100  1
  C  C23  1  0.91651500  0.06371300  0.28970400  1
  C  C24  1  0.41651500  0.78970400  0.56371300  1
  C  C25  1  0.77712300  0.00835100  0.63903700  1
  C  C26  1  0.56371300  0.41651500  0.78970400  1
  C  C27  1  0.71632100  0.07350400  0.94556700  1
  C  C28  1  0.78970400  0.56371300  0.41651500  1
  C  C29  1  0.00374600  0.36667200  0.20667400  1
  C  C30  1  0.50374600  0.70667400  0.86667200  1
  C  C31  1  0.94556700  0.71632100  0.07350400  1
  C  C32  1  0.70667400  0.86667200  0.50374600  1
  C  C33  1  0.86667200  0.50374600  0.70667400  1
