# generated using pymatgen
data_Cu6NiC30
_symmetry_space_group_name_H-M   'P 1'
_cell_length_a   13.32657118
_cell_length_b   13.32657118
_cell_length_c   13.76308150
_cell_angle_alpha   82.44884492
_cell_angle_beta   82.44884492
_cell_angle_gamma   33.44361976
_symmetry_Int_Tables_number   1
_chemical_formula_structural   Cu6NiC30
_chemical_formula_sum   'Cu12 Ni2 C60'
_cell_volume   1334.34562035
_cell_formula_units_Z   2
loop_
 _symmetry_equiv_pos_site_id
 _symmetry_equiv_pos_as_xyz
  1  'x, y, z'
loop_
 _atom_site_type_symbol
 _atom_site_label
 _atom_site_symmetry_multiplicity
 _atom_site_fract_x
 _atom_site_fract_y
 _atom_site_fract_z
 _atom_site_occupancy
  C  C0  1  0.09880800  0.47586700  0.28966700  1
  C  C1  1  0.52413300  0.90119200  0.21033300  1
  C  C2  1  0.90119200  0.52413300  0.71033300  1
  C  C3  1  0.47586700  0.09880800  0.78966700  1
  Ni  Ni4  1  0.11280800  0.88719200  0.25000000  1
  Ni  Ni5  1  0.88719200  0.11280800  0.75000000  1
  Cu  Cu6  1  0.98906000  0.37519700  0.15419600  1
  Cu  Cu7  1  0.62480300  0.01094000  0.34580400  1
  Cu  Cu8  1  0.01094000  0.62480300  0.84580400  1
  Cu  Cu9  1  0.37519700  0.98906000  0.65419600  1
  Cu  Cu10  1  0.93341800  0.86700600  0.38640700  1
  Cu  Cu11  1  0.13299400  0.06658200  0.11359300  1
  Cu  Cu12  1  0.06658200  0.13299400  0.61359300  1
  Cu  Cu13  1  0.86700600  0.93341800  0.88640700  1
  Cu  Cu14  1  0.02093200  0.30742300  0.94897000  1
  Cu  Cu15  1  0.69257700  0.97906800  0.55103000  1
  Cu  Cu16  1  0.97906800  0.69257700  0.05103000  1
  Cu  Cu17  1  0.30742300  0.02093200  0.44897000  1
  C  C18  1  0.06710500  0.15408900  0.00491500  1
  C  C19  1  0.84591100  0.93289500  0.49508500  1
  C  C20  1  0.93289500  0.84591100  0.99508500  1
  C  C21  1  0.15408900  0.06710500  0.50491500  1
  C  C22  1  0.92951300  0.43443900  0.04168600  1
  C  C23  1  0.56556100  0.07048700  0.45831400  1
  C  C24  1  0.07048700  0.56556100  0.95831400  1
  C  C25  1  0.43443900  0.92951300  0.54168600  1
  C  C26  1  0.00269500  0.24011900  0.17957300  1
  C  C27  1  0.75988100  0.99730500  0.32042700  1
  C  C28  1  0.99730500  0.75988100  0.82042700  1
  C  C29  1  0.24011900  0.00269500  0.67957300  1
  C  C30  1  0.83675300  0.53773700  0.21633400  1
  C  C31  1  0.46226300  0.16324700  0.28366600  1
  C  C32  1  0.16324700  0.46226300  0.78366600  1
  C  C33  1  0.53773700  0.83675300  0.71633400  1
  C  C34  1  0.17397200  0.26714700  0.16321600  1
  C  C35  1  0.73285300  0.82602800  0.33678400  1
  C  C36  1  0.82602800  0.73285300  0.83678400  1
  C  C37  1  0.26714700  0.17397200  0.66321600  1
  C  C38  1  0.07948700  0.67038600  0.37255900  1
  C  C39  1  0.32961400  0.92051300  0.12744100  1
  C  C40  1  0.92051300  0.32961400  0.62744100  1
  C  C41  1  0.67038600  0.07948700  0.87255900  1
  C  C42  1  0.98669600  0.93520000  0.36119600  1
  C  C43  1  0.06480000  0.01330400  0.13880400  1
  C  C44  1  0.01330400  0.06480000  0.63880400  1
  C  C45  1  0.93520000  0.98669600  0.86119600  1
  C  C46  1  0.12558300  0.58237200  0.12084300  1
  C  C47  1  0.41762800  0.87441700  0.37915700  1
  C  C48  1  0.87441700  0.41762800  0.87915700  1
  C  C49  1  0.58237200  0.12558300  0.62084300  1
  C  C50  1  0.80707900  0.78248500  0.08931000  1
  C  C51  1  0.21751500  0.19292100  0.41069000  1
  C  C52  1  0.19292100  0.21751500  0.91069000  1
  C  C53  1  0.78248500  0.80707900  0.58931000  1
  C  C54  1  0.94389000  0.51491800  0.49058300  1
  C  C55  1  0.48508200  0.05611000  0.00941700  1
  C  C56  1  0.05611000  0.48508200  0.50941700  1
  C  C57  1  0.51491800  0.94389000  0.99058300  1
  C  C58  1  0.45420600  0.52380900  0.35953800  1
  C  C59  1  0.47619100  0.54579400  0.14046200  1
  C  C60  1  0.54579400  0.47619100  0.64046200  1
  C  C61  1  0.52380900  0.45420600  0.85953800  1
  C  C62  1  0.66134500  0.49110800  0.40312200  1
  C  C63  1  0.50889200  0.33865500  0.09687800  1
  C  C64  1  0.33865500  0.50889200  0.59687800  1
  C  C65  1  0.49110800  0.66134500  0.90312200  1
  C  C66  1  0.33592500  0.60928400  0.15525400  1
  C  C67  1  0.39071600  0.66407500  0.34474600  1
  C  C68  1  0.66407500  0.39071600  0.84474600  1
  C  C69  1  0.60928400  0.33592500  0.65525400  1
  C  C70  1  0.63555600  0.29336700  0.08826300  1
  C  C71  1  0.70663300  0.36444400  0.41173700  1
  C  C72  1  0.36444400  0.70663300  0.91173700  1
  C  C73  1  0.29336700  0.63555600  0.58826300  1
