# generated using pymatgen
data_Cu(NiC3)2
_symmetry_space_group_name_H-M   'P 1'
_cell_length_a   6.85739518
_cell_length_b   6.85739518
_cell_length_c   7.48949711
_cell_angle_alpha   62.65812147
_cell_angle_beta   62.65812147
_cell_angle_gamma   89.81248967
_symmetry_Int_Tables_number   1
_chemical_formula_structural   Cu(NiC3)2
_chemical_formula_sum   'Cu2 Ni4 C12'
_cell_volume   268.09109136
_cell_formula_units_Z   2
loop_
 _symmetry_equiv_pos_site_id
 _symmetry_equiv_pos_as_xyz
  1  'x, y, z'
loop_
 _atom_site_type_symbol
 _atom_site_label
 _atom_site_symmetry_multiplicity
 _atom_site_fract_x
 _atom_site_fract_y
 _atom_site_fract_z
 _atom_site_occupancy
  Ni  Ni0  1  0.25000000  0.25000000  0.50000000  1
  Ni  Ni1  1  0.75000000  0.75000000  0.50000000  1
  Ni  Ni2  1  0.82554900  0.67445100  0.00000000  1
  Ni  Ni3  1  0.17445100  0.32554900  0.00000000  1
  Cu  Cu4  1  0.67889000  0.17889000  0.00000000  1
  Cu  Cu5  1  0.32111000  0.82111000  0.00000000  1
  C  C6  1  0.75229700  0.25229700  0.49540600  1
  C  C7  1  0.24770300  0.74770300  0.50459400  1
  C  C8  1  0.50000000  0.50000000  0.00000000  1
  C  C9  1  0.00000000  0.00000000  0.00000000  1
  C  C10  1  0.21715800  0.99856400  0.28427800  1
  C  C11  1  0.49856400  0.71715800  0.28427800  1
  C  C12  1  0.00392000  0.50392000  0.28972300  1
  C  C13  1  0.70635600  0.20635600  0.28972300  1
  C  C14  1  0.78284200  0.00143600  0.71572200  1
  C  C15  1  0.50143600  0.28284200  0.71572200  1
  C  C16  1  0.99608000  0.49608000  0.71027700  1
  C  C17  1  0.29364400  0.79364400  0.71027700  1
