# generated using pymatgen
data_Cu(NiC3)2
_symmetry_space_group_name_H-M   'P 1'
_cell_length_a   5.02859003
_cell_length_b   5.02859003
_cell_length_c   6.73244601
_cell_angle_alpha   70.13849721
_cell_angle_beta   70.13849721
_cell_angle_gamma   41.22289924
_symmetry_Int_Tables_number   1
_chemical_formula_structural   Cu(NiC3)2
_chemical_formula_sum   'Cu1 Ni2 C6'
_cell_volume   104.53580527
_cell_formula_units_Z   1
loop_
 _symmetry_equiv_pos_site_id
 _symmetry_equiv_pos_as_xyz
  1  'x, y, z'
loop_
 _atom_site_type_symbol
 _atom_site_label
 _atom_site_symmetry_multiplicity
 _atom_site_fract_x
 _atom_site_fract_y
 _atom_site_fract_z
 _atom_site_occupancy
  Ni  Ni0  1  0.79308700  0.81986900  0.65577800  1
  Ni  Ni1  1  0.18013100  0.20691300  0.34422200  1
  Cu  Cu2  1  0.99931400  0.00068600  0.00000000  1
  C  C3  1  0.67982100  0.70578400  0.43508700  1
  C  C4  1  0.02240800  0.04880800  0.27542500  1
  C  C5  1  0.95119200  0.97759200  0.72457500  1
  C  C6  1  0.29421600  0.32017900  0.56491300  1
  C  C7  1  0.33039400  0.36356300  0.11092100  1
  C  C8  1  0.63643700  0.66960600  0.88907900  1
