# generated using pymatgen
data_Cu6Ni2C15
_symmetry_space_group_name_H-M   'P 1'
_cell_length_a   7.98808800
_cell_length_b   13.70395700
_cell_length_c   8.55339300
_cell_angle_alpha   90.00000000
_cell_angle_beta   90.00000000
_cell_angle_gamma   90.00000000
_symmetry_Int_Tables_number   1
_chemical_formula_structural   Cu6Ni2C15
_chemical_formula_sum   'Cu24 Ni8 C60'
_cell_volume   936.32637000
_cell_formula_units_Z   4
loop_
 _symmetry_equiv_pos_site_id
 _symmetry_equiv_pos_as_xyz
  1  'x, y, z'
loop_
 _atom_site_type_symbol
 _atom_site_label
 _atom_site_symmetry_multiplicity
 _atom_site_fract_x
 _atom_site_fract_y
 _atom_site_fract_z
 _atom_site_occupancy
  C  C0  1  0.50000000  0.00000000  0.50000000  1
  C  C1  1  0.50000000  0.50000000  0.00000000  1
  C  C2  1  0.00000000  0.00000000  0.00000000  1
  C  C3  1  0.00000000  0.50000000  0.50000000  1
  C  C4  1  0.25544400  0.82444100  0.42191300  1
  C  C5  1  0.74455600  0.32444100  0.07808700  1
  C  C6  1  0.24455600  0.17555900  0.92191300  1
  C  C7  1  0.75544400  0.67555900  0.57808700  1
  C  C8  1  0.74455600  0.17555900  0.57808700  1
  C  C9  1  0.25544400  0.67555900  0.92191300  1
  C  C10  1  0.75544400  0.82444100  0.07808700  1
  C  C11  1  0.24455600  0.32444100  0.42191300  1
  Ni  Ni12  1  0.59152600  0.79589000  0.36770500  1
  Ni  Ni13  1  0.40847400  0.29589000  0.13229500  1
  Ni  Ni14  1  0.90847400  0.20411000  0.86770500  1
  Ni  Ni15  1  0.09152600  0.70411000  0.63229500  1
  Ni  Ni16  1  0.40847400  0.20411000  0.63229500  1
  Ni  Ni17  1  0.59152600  0.70411000  0.86770500  1
  Ni  Ni18  1  0.09152600  0.79589000  0.13229500  1
  Ni  Ni19  1  0.90847400  0.29589000  0.36770500  1
  Cu  Cu20  1  0.20880500  0.97138200  0.37794300  1
  Cu  Cu21  1  0.79119500  0.47138200  0.12205700  1
  Cu  Cu22  1  0.29119500  0.02861800  0.87794300  1
  Cu  Cu23  1  0.70880500  0.52861800  0.62205700  1
  Cu  Cu24  1  0.79119500  0.02861800  0.62205700  1
  Cu  Cu25  1  0.20880500  0.52861800  0.87794300  1
  Cu  Cu26  1  0.70880500  0.97138200  0.12205700  1
  Cu  Cu27  1  0.29119500  0.47138200  0.37794300  1
  Cu  Cu28  1  0.37344900  0.88541100  0.79155000  1
  Cu  Cu29  1  0.62655100  0.38541100  0.70845000  1
  Cu  Cu30  1  0.12655100  0.11458900  0.29155000  1
  Cu  Cu31  1  0.87344900  0.61458900  0.20845000  1
  Cu  Cu32  1  0.62655100  0.11458900  0.20845000  1
  Cu  Cu33  1  0.37344900  0.61458900  0.29155000  1
  Cu  Cu34  1  0.87344900  0.88541100  0.70845000  1
  Cu  Cu35  1  0.12655100  0.38541100  0.79155000  1
  Cu  Cu36  1  0.53087600  0.94136500  0.84411600  1
  Cu  Cu37  1  0.46912400  0.44136500  0.65588400  1
  Cu  Cu38  1  0.96912400  0.05863500  0.34411600  1
  Cu  Cu39  1  0.03087600  0.55863500  0.15588400  1
  Cu  Cu40  1  0.46912400  0.05863500  0.15588400  1
  Cu  Cu41  1  0.53087600  0.55863500  0.34411600  1
  Cu  Cu42  1  0.03087600  0.94136500  0.65588400  1
  Cu  Cu43  1  0.96912400  0.44136500  0.84411600  1
  C  C44  1  0.63595100  0.88554400  0.46306400  1
  C  C45  1  0.36404900  0.38554400  0.03693600  1
  C  C46  1  0.86404900  0.11445600  0.96306400  1
  C  C47  1  0.13595100  0.61445600  0.53693600  1
  C  C48  1  0.36404900  0.11445600  0.53693600  1
  C  C49  1  0.63595100  0.61445600  0.96306400  1
  C  C50  1  0.13595100  0.88554400  0.03693600  1
  C  C51  1  0.86404900  0.38554400  0.46306400  1
  C  C52  1  0.40372500  0.76515800  0.38205300  1
  C  C53  1  0.59627500  0.26515800  0.11794700  1
  C  C54  1  0.09627500  0.23484200  0.88205300  1
  C  C55  1  0.90372500  0.73484200  0.61794700  1
  C  C56  1  0.59627500  0.23484200  0.61794700  1
  C  C57  1  0.40372500  0.73484200  0.88205300  1
  C  C58  1  0.90372500  0.76515800  0.11794700  1
  C  C59  1  0.09627500  0.26515800  0.38205300  1
  C  C60  1  0.61768600  0.80676000  0.18851100  1
  C  C61  1  0.38231400  0.30676000  0.31148900  1
  C  C62  1  0.88231400  0.19324000  0.68851100  1
  C  C63  1  0.11768600  0.69324000  0.81148900  1
  C  C64  1  0.38231400  0.19324000  0.81148900  1
  C  C65  1  0.61768600  0.69324000  0.68851100  1
  C  C66  1  0.11768600  0.80676000  0.31148900  1
  C  C67  1  0.88231400  0.30676000  0.18851100  1
  C  C68  1  0.69734300  0.70597400  0.41874600  1
  C  C69  1  0.30265700  0.20597400  0.08125400  1
  C  C70  1  0.80265700  0.29402600  0.91874600  1
  C  C71  1  0.19734300  0.79402600  0.58125400  1
  C  C72  1  0.30265700  0.29402600  0.58125400  1
  C  C73  1  0.69734300  0.79402600  0.91874600  1
  C  C74  1  0.19734300  0.70597400  0.08125400  1
  C  C75  1  0.80265700  0.20597400  0.41874600  1
  C  C76  1  0.29409400  0.92850900  0.42911900  1
  C  C77  1  0.70590600  0.42850900  0.07088100  1
  C  C78  1  0.20590600  0.07149100  0.92911900  1
  C  C79  1  0.79409400  0.57149100  0.57088100  1
  C  C80  1  0.70590600  0.07149100  0.57088100  1
  C  C81  1  0.29409400  0.57149100  0.92911900  1
  C  C82  1  0.79409400  0.92850900  0.07088100  1
  C  C83  1  0.20590600  0.42850900  0.42911900  1
  C  C84  1  0.42474300  0.95033400  0.78911400  1
  C  C85  1  0.57525700  0.45033400  0.71088600  1
  C  C86  1  0.07525700  0.04966600  0.28911400  1
  C  C87  1  0.92474300  0.54966600  0.21088600  1
  C  C88  1  0.57525700  0.04966600  0.21088600  1
  C  C89  1  0.42474300  0.54966600  0.28911400  1
  C  C90  1  0.92474300  0.95033400  0.71088600  1
  C  C91  1  0.07525700  0.45033400  0.78911400  1
