# generated using pymatgen
data_CuNi4C21
_symmetry_space_group_name_H-M   'P 1'
_cell_length_a   11.10149329
_cell_length_b   11.10149329
_cell_length_c   5.99472900
_cell_angle_alpha   90.00000000
_cell_angle_beta   90.00000000
_cell_angle_gamma   119.99999575
_symmetry_Int_Tables_number   1
_chemical_formula_structural   CuNi4C21
_chemical_formula_sum   'Cu2 Ni8 C42'
_cell_volume   639.82765364
_cell_formula_units_Z   2
loop_
 _symmetry_equiv_pos_site_id
 _symmetry_equiv_pos_as_xyz
  1  'x, y, z'
loop_
 _atom_site_type_symbol
 _atom_site_label
 _atom_site_symmetry_multiplicity
 _atom_site_fract_x
 _atom_site_fract_y
 _atom_site_fract_z
 _atom_site_occupancy
  Ni  Ni0  1  0.16238500  0.28611700  0.75000000  1
  Ni  Ni1  1  0.83761500  0.71388300  0.25000000  1
  Ni  Ni2  1  0.71388300  0.87626800  0.75000000  1
  Ni  Ni3  1  0.28611700  0.12373200  0.25000000  1
  Ni  Ni4  1  0.12373200  0.83761500  0.75000000  1
  Ni  Ni5  1  0.87626800  0.16238500  0.25000000  1
  Ni  Ni6  1  0.00000000  0.00000000  0.50000000  1
  Ni  Ni7  1  0.00000000  0.00000000  0.00000000  1
  Cu  Cu8  1  0.33333300  0.66666700  0.75000000  1
  Cu  Cu9  1  0.66666700  0.33333300  0.25000000  1
  C  C10  1  0.38785500  0.17352000  0.75000000  1
  C  C11  1  0.61214500  0.82648000  0.25000000  1
  C  C12  1  0.82648000  0.21433500  0.75000000  1
  C  C13  1  0.17352000  0.78566500  0.25000000  1
  C  C14  1  0.78566500  0.61214500  0.75000000  1
  C  C15  1  0.21433500  0.38785500  0.25000000  1
  C  C16  1  0.50000000  0.00000000  0.50000000  1
  C  C17  1  0.00000000  0.50000000  0.50000000  1
  C  C18  1  0.50000000  0.00000000  0.00000000  1
  C  C19  1  0.50000000  0.50000000  0.50000000  1
  C  C20  1  0.00000000  0.50000000  0.00000000  1
  C  C21  1  0.50000000  0.50000000  0.00000000  1
  C  C22  1  0.07882600  0.46094200  0.75000000  1
  C  C23  1  0.92117400  0.53905800  0.25000000  1
  C  C24  1  0.53905800  0.61788400  0.75000000  1
  C  C25  1  0.46094200  0.38211600  0.25000000  1
  C  C26  1  0.38211600  0.92117400  0.75000000  1
  C  C27  1  0.61788400  0.07882600  0.25000000  1
  C  C28  1  0.20621100  0.08484300  0.75000000  1
  C  C29  1  0.79378900  0.91515700  0.25000000  1
  C  C30  1  0.91515700  0.12136700  0.75000000  1
  C  C31  1  0.08484300  0.87863300  0.25000000  1
  C  C32  1  0.87863300  0.79378900  0.75000000  1
  C  C33  1  0.12136700  0.20621100  0.25000000  1
  C  C34  1  0.46686000  0.15302000  0.50426300  1
  C  C35  1  0.53314000  0.84698000  0.49573700  1
  C  C36  1  0.84698000  0.31384000  0.50426300  1
  C  C37  1  0.53314000  0.84698000  0.00426300  1
  C  C38  1  0.15302000  0.68616000  0.49573700  1
  C  C39  1  0.46686000  0.15302000  0.99573700  1
  C  C40  1  0.68616000  0.53314000  0.50426300  1
  C  C41  1  0.15302000  0.68616000  0.00426300  1
  C  C42  1  0.31384000  0.46686000  0.49573700  1
  C  C43  1  0.84698000  0.31384000  0.99573700  1
  C  C44  1  0.31384000  0.46686000  0.00426300  1
  C  C45  1  0.68616000  0.53314000  0.99573700  1
  C  C46  1  0.44603500  0.35925800  0.75000000  1
  C  C47  1  0.55396500  0.64074200  0.25000000  1
  C  C48  1  0.64074200  0.08677700  0.75000000  1
  C  C49  1  0.35925800  0.91322300  0.25000000  1
  C  C50  1  0.91322300  0.55396500  0.75000000  1
  C  C51  1  0.08677700  0.44603500  0.25000000  1
