# generated using pymatgen
data_CuNi4C9
_symmetry_space_group_name_H-M   'P 1'
_cell_length_a   7.30975066
_cell_length_b   7.30975066
_cell_length_c   7.30975065
_cell_angle_alpha   58.45928399
_cell_angle_beta   58.45928399
_cell_angle_gamma   58.45928187
_symmetry_Int_Tables_number   1
_chemical_formula_structural   CuNi4C9
_chemical_formula_sum   'Cu1 Ni4 C9'
_cell_volume   266.44404038
_cell_formula_units_Z   1
loop_
 _symmetry_equiv_pos_site_id
 _symmetry_equiv_pos_as_xyz
  1  'x, y, z'
loop_
 _atom_site_type_symbol
 _atom_site_label
 _atom_site_symmetry_multiplicity
 _atom_site_fract_x
 _atom_site_fract_y
 _atom_site_fract_z
 _atom_site_occupancy
  C  C0  1  0.37437400  0.37437400  0.37437400  1
  Ni  Ni1  1  0.48813900  0.00388500  0.00388500  1
  Ni  Ni2  1  0.00388500  0.00388500  0.48813900  1
  Ni  Ni3  1  0.00388500  0.48813900  0.00388500  1
  Ni  Ni4  1  0.62727700  0.62727700  0.62727700  1
  Cu  Cu5  1  0.00330600  0.00330600  0.00330600  1
  C  C6  1  0.23055000  0.74483300  0.74483300  1
  C  C7  1  0.74483300  0.74483300  0.23055000  1
  C  C8  1  0.74483300  0.23055000  0.74483300  1
  C  C9  1  0.75913200  0.75913200  0.75913200  1
  C  C10  1  0.77470300  0.25411400  0.25411400  1
  C  C11  1  0.25411400  0.25411400  0.77470300  1
  C  C12  1  0.25411400  0.77470300  0.25411400  1
  C  C13  1  0.23685500  0.23685500  0.23685500  1
