# generated using pymatgen
data_CuNiC8
_symmetry_space_group_name_H-M   'P 1'
_cell_length_a   5.85898100
_cell_length_b   5.55976500
_cell_length_c   9.33088236
_cell_angle_alpha   54.94422689
_cell_angle_beta   90.00000000
_cell_angle_gamma   90.00000000
_symmetry_Int_Tables_number   1
_chemical_formula_structural   CuNiC8
_chemical_formula_sum   'Cu2 Ni2 C16'
_cell_volume   248.81091994
_cell_formula_units_Z   2
loop_
 _symmetry_equiv_pos_site_id
 _symmetry_equiv_pos_as_xyz
  1  'x, y, z'
loop_
 _atom_site_type_symbol
 _atom_site_label
 _atom_site_symmetry_multiplicity
 _atom_site_fract_x
 _atom_site_fract_y
 _atom_site_fract_z
 _atom_site_occupancy
  C  C0  1  0.56800100  0.73004500  0.75040300  1
  C  C1  1  0.06800100  0.26995500  0.74959700  1
  C  C2  1  0.43199900  0.26995500  0.24959700  1
  C  C3  1  0.93199900  0.73004500  0.25040300  1
  Ni  Ni4  1  0.50000000  0.00000000  0.00000000  1
  Ni  Ni5  1  0.00000000  0.00000000  0.50000000  1
  Cu  Cu6  1  0.50000000  0.50000000  0.50000000  1
  Cu  Cu7  1  0.00000000  0.50000000  0.00000000  1
  C  C8  1  0.96670400  0.85917500  0.74385400  1
  C  C9  1  0.46670400  0.14082500  0.75614600  1
  C  C10  1  0.03329600  0.14082500  0.25614600  1
  C  C11  1  0.53329600  0.85917500  0.24385400  1
  C  C12  1  0.80037400  0.24759900  0.94760800  1
  C  C13  1  0.30037400  0.75240100  0.55239200  1
  C  C14  1  0.19979800  0.35678600  0.45031400  1
  C  C15  1  0.69979800  0.64321400  0.04968600  1
  C  C16  1  0.19962600  0.75240100  0.05239200  1
  C  C17  1  0.69962600  0.24759900  0.44760800  1
  C  C18  1  0.80020200  0.64321400  0.54968600  1
  C  C19  1  0.30020200  0.35678600  0.95031400  1
