# generated using pymatgen
data_Cu6NiC17
_symmetry_space_group_name_H-M   'P 1'
_cell_length_a   15.59536800
_cell_length_b   8.41926800
_cell_length_c   12.03051808
_cell_angle_alpha   47.54214912
_cell_angle_beta   90.00000000
_cell_angle_gamma   90.00000000
_symmetry_Int_Tables_number   1
_chemical_formula_structural   Cu6NiC17
_chemical_formula_sum   'Cu24 Ni4 C68'
_cell_volume   1165.40724469
_cell_formula_units_Z   4
loop_
 _symmetry_equiv_pos_site_id
 _symmetry_equiv_pos_as_xyz
  1  'x, y, z'
loop_
 _atom_site_type_symbol
 _atom_site_label
 _atom_site_symmetry_multiplicity
 _atom_site_fract_x
 _atom_site_fract_y
 _atom_site_fract_z
 _atom_site_occupancy
  Ni  Ni0  1  0.60387000  0.88010000  0.43955000  1
  Ni  Ni1  1  0.39613000  0.11990000  0.56045000  1
  Ni  Ni2  1  0.10387000  0.11990000  0.06045000  1
  Ni  Ni3  1  0.89613000  0.88010000  0.93955000  1
  Cu  Cu4  1  0.82206800  0.55069300  0.30693500  1
  Cu  Cu5  1  0.17793200  0.44930700  0.69306500  1
  Cu  Cu6  1  0.32206800  0.44930700  0.19306500  1
  Cu  Cu7  1  0.67793200  0.55069300  0.80693500  1
  Cu  Cu8  1  0.32566100  0.98483400  0.05510800  1
  Cu  Cu9  1  0.67433900  0.01516600  0.94489200  1
  Cu  Cu10  1  0.82566100  0.01516600  0.44489200  1
  Cu  Cu11  1  0.17433900  0.98483400  0.55510800  1
  Cu  Cu12  1  0.35612400  0.84828400  0.42438300  1
  Cu  Cu13  1  0.64387600  0.15171600  0.57561700  1
  Cu  Cu14  1  0.85612400  0.15171600  0.07561700  1
  Cu  Cu15  1  0.14387600  0.84828400  0.92438300  1
  Cu  Cu16  1  0.51339600  0.66556900  0.28260600  1
  Cu  Cu17  1  0.48660400  0.33443100  0.71739400  1
  Cu  Cu18  1  0.01339600  0.33443100  0.21739400  1
  Cu  Cu19  1  0.98660400  0.66556900  0.78260600  1
  Cu  Cu20  1  0.50400400  0.23859200  0.06139300  1
  Cu  Cu21  1  0.49599600  0.76140800  0.93860700  1
  Cu  Cu22  1  0.00400400  0.76140800  0.43860700  1
  Cu  Cu23  1  0.99599600  0.23859200  0.56139300  1
  Cu  Cu24  1  0.66591000  0.41226600  0.16591500  1
  Cu  Cu25  1  0.33409000  0.58773400  0.83408500  1
  Cu  Cu26  1  0.16591000  0.58773400  0.33408500  1
  Cu  Cu27  1  0.83409000  0.41226600  0.66591500  1
  C  C28  1  0.82698200  0.54412000  0.02714800  1
  C  C29  1  0.17301800  0.45588000  0.97285200  1
  C  C30  1  0.32698200  0.45588000  0.47285200  1
  C  C31  1  0.67301800  0.54412000  0.52714800  1
  C  C32  1  0.99929700  0.79107100  0.14486400  1
  C  C33  1  0.00070300  0.20892900  0.85513600  1
  C  C34  1  0.49929700  0.20892900  0.35513600  1
  C  C35  1  0.50070300  0.79107100  0.64486400  1
  C  C36  1  0.69322300  0.95829200  0.22155800  1
  C  C37  1  0.30677700  0.04170800  0.77844200  1
  C  C38  1  0.19322300  0.04170800  0.27844200  1
  C  C39  1  0.80677700  0.95829200  0.72155800  1
  C  C40  1  0.75137000  0.88262000  0.17759200  1
  C  C41  1  0.24863000  0.11738000  0.82240800  1
  C  C42  1  0.25137000  0.11738000  0.32240800  1
  C  C43  1  0.74863000  0.88262000  0.67759200  1
  C  C44  1  0.46670200  0.69649400  0.59372000  1
  C  C45  1  0.53329800  0.30350600  0.40628000  1
  C  C46  1  0.96670200  0.30350600  0.90628000  1
  C  C47  1  0.03329800  0.69649400  0.09372000  1
  C  C48  1  0.42076200  0.93480000  0.22084200  1
  C  C49  1  0.57923800  0.06520000  0.77915800  1
  C  C50  1  0.92076200  0.06520000  0.27915800  1
  C  C51  1  0.07923800  0.93480000  0.72084200  1
  C  C52  1  0.91442500  0.85341200  0.11805900  1
  C  C53  1  0.08557500  0.14658800  0.88194100  1
  C  C54  1  0.41442500  0.14658800  0.38194100  1
  C  C55  1  0.58557500  0.85341200  0.61805900  1
  C  C56  1  0.91248500  0.52481100  0.00922000  1
  C  C57  1  0.08751500  0.47518900  0.99078000  1
  C  C58  1  0.41248500  0.47518900  0.49078000  1
  C  C59  1  0.58751500  0.52481100  0.50922000  1
  C  C60  1  0.79542600  0.64137800  0.07610900  1
  C  C61  1  0.20457400  0.35862200  0.92389100  1
  C  C62  1  0.29542600  0.35862200  0.42389100  1
  C  C63  1  0.70457400  0.64137800  0.57610900  1
  C  C64  1  0.44853600  0.82223000  0.72139500  1
  C  C65  1  0.55146400  0.17777000  0.27860500  1
  C  C66  1  0.94853600  0.17777000  0.77860500  1
  C  C67  1  0.05146400  0.82223000  0.22139500  1
  C  C68  1  0.59819300  0.70196300  0.10553200  1
  C  C69  1  0.40180700  0.29803700  0.89446800  1
  C  C70  1  0.09819300  0.29803700  0.39446800  1
  C  C71  1  0.90180700  0.70196300  0.60553200  1
  C  C72  1  0.91054600  0.52731800  0.46392500  1
  C  C73  1  0.08945400  0.47268200  0.53607500  1
  C  C74  1  0.41054600  0.47268200  0.03607500  1
  C  C75  1  0.58945400  0.52731800  0.96392500  1
  C  C76  1  0.41446900  0.71379400  0.12392900  1
  C  C77  1  0.58553100  0.28620600  0.87607100  1
  C  C78  1  0.91446900  0.28620600  0.37607100  1
  C  C79  1  0.08553100  0.71379400  0.62392900  1
  C  C80  1  0.23184400  0.72374100  0.12196600  1
  C  C81  1  0.76815600  0.27625900  0.87803400  1
  C  C82  1  0.73184400  0.27625900  0.37803400  1
  C  C83  1  0.26815600  0.72374100  0.62196600  1
  C  C84  1  0.22519200  0.94621800  0.22828000  1
  C  C85  1  0.77480800  0.05378200  0.77172000  1
  C  C86  1  0.72519200  0.05378200  0.27172000  1
  C  C87  1  0.27480800  0.94621800  0.72828000  1
  C  C88  1  0.60650600  0.94784900  0.20069600  1
  C  C89  1  0.39349400  0.05215100  0.79930400  1
  C  C90  1  0.10650600  0.05215100  0.29930400  1
  C  C91  1  0.89349400  0.94784900  0.70069600  1
  C  C92  1  0.76754200  0.44706900  0.00333100  1
  C  C93  1  0.23245800  0.55293100  0.99666900  1
  C  C94  1  0.26754200  0.55293100  0.49666900  1
  C  C95  1  0.73245800  0.44706900  0.50333100  1
