# generated using pymatgen
data_Cu10Ni2C
_symmetry_space_group_name_H-M   'P 1'
_cell_length_a   6.26631376
_cell_length_b   6.26631376
_cell_length_c   6.26631376
_cell_angle_alpha   135.54168729
_cell_angle_beta   100.12257110
_cell_angle_gamma   96.34328735
_symmetry_Int_Tables_number   1
_chemical_formula_structural   Cu10Ni2C
_chemical_formula_sum   'Cu10 Ni2 C1'
_cell_volume   159.41209133
_cell_formula_units_Z   1
loop_
 _symmetry_equiv_pos_site_id
 _symmetry_equiv_pos_as_xyz
  1  'x, y, z'
loop_
 _atom_site_type_symbol
 _atom_site_label
 _atom_site_symmetry_multiplicity
 _atom_site_fract_x
 _atom_site_fract_y
 _atom_site_fract_z
 _atom_site_occupancy
  C  C0  1  0.00000000  0.00000000  0.00000000  1
  Ni  Ni1  1  0.65500200  0.65500200  0.00000000  1
  Ni  Ni2  1  0.34499800  0.34499800  0.00000000  1
  Cu  Cu3  1  0.25456200  0.50000000  0.75456200  1
  Cu  Cu4  1  0.74543800  0.50000000  0.24543800  1
  Cu  Cu5  1  0.22697500  0.72697500  0.50000000  1
  Cu  Cu6  1  0.77302500  0.27302500  0.50000000  1
  Cu  Cu7  1  0.00000000  0.00000000  0.50000000  1
  Cu  Cu8  1  0.00000000  0.50000000  0.00000000  1
  Cu  Cu9  1  0.50000000  0.50000000  0.50000000  1
  Cu  Cu10  1  0.50000000  0.00000000  0.00000000  1
  Cu  Cu11  1  0.65188400  0.00000000  0.65188400  1
  Cu  Cu12  1  0.34811600  0.00000000  0.34811600  1
