# generated using pymatgen
data_Cu2Ni3C4
_symmetry_space_group_name_H-M   'P 1'
_cell_length_a   12.75001700
_cell_length_b   8.20917200
_cell_length_c   14.96455300
_cell_angle_alpha   90.00000000
_cell_angle_beta   90.00000000
_cell_angle_gamma   90.00000000
_symmetry_Int_Tables_number   1
_chemical_formula_structural   Cu2Ni3C4
_chemical_formula_sum   'Cu32 Ni48 C64'
_cell_volume   1566.29610426
_cell_formula_units_Z   16
loop_
 _symmetry_equiv_pos_site_id
 _symmetry_equiv_pos_as_xyz
  1  'x, y, z'
loop_
 _atom_site_type_symbol
 _atom_site_label
 _atom_site_symmetry_multiplicity
 _atom_site_fract_x
 _atom_site_fract_y
 _atom_site_fract_z
 _atom_site_occupancy
  C  C0  1  0.43197100  0.51209600  0.28782800  1
  C  C1  1  0.56802900  0.48790400  0.78782800  1
  C  C2  1  0.06802900  0.51209600  0.78782800  1
  C  C3  1  0.93197100  0.48790400  0.28782800  1
  Ni  Ni4  1  0.43511500  0.88257300  0.76150500  1
  Ni  Ni5  1  0.56488500  0.11742700  0.26150500  1
  Ni  Ni6  1  0.06488500  0.88257300  0.26150500  1
  Ni  Ni7  1  0.93511500  0.11742700  0.76150500  1
  Ni  Ni8  1  0.42793300  0.98155200  0.86129000  1
  Ni  Ni9  1  0.57206700  0.01844800  0.36129000  1
  Ni  Ni10  1  0.07206700  0.98155200  0.36129000  1
  Ni  Ni11  1  0.92793300  0.01844800  0.86129000  1
  Ni  Ni12  1  0.44806600  0.08451700  0.76312600  1
  Ni  Ni13  1  0.55193400  0.91548300  0.26312600  1
  Ni  Ni14  1  0.05193400  0.08451700  0.26312600  1
  Ni  Ni15  1  0.94806600  0.91548300  0.76312600  1
  Ni  Ni16  1  0.54246300  0.96530400  0.80694800  1
  Ni  Ni17  1  0.45753700  0.03469600  0.30694800  1
  Ni  Ni18  1  0.95753700  0.96530400  0.30694800  1
  Ni  Ni19  1  0.04246300  0.03469600  0.80694800  1
  Ni  Ni20  1  0.33427100  0.31457900  0.06180500  1
  Ni  Ni21  1  0.66572900  0.68542100  0.56180500  1
  Ni  Ni22  1  0.16572900  0.31457900  0.56180500  1
  Ni  Ni23  1  0.83427100  0.68542100  0.06180500  1
  Ni  Ni24  1  0.29654100  0.19924000  0.14962500  1
  Ni  Ni25  1  0.70345900  0.80076000  0.64962500  1
  Ni  Ni26  1  0.20345900  0.19924000  0.64962500  1
  Ni  Ni27  1  0.79654100  0.80076000  0.14962500  1
  Ni  Ni28  1  0.33687800  0.10965000  0.05213600  1
  Ni  Ni29  1  0.66312200  0.89035000  0.55213600  1
  Ni  Ni30  1  0.16312200  0.10965000  0.55213600  1
  Ni  Ni31  1  0.83687800  0.89035000  0.05213600  1
  Ni  Ni32  1  0.22064600  0.21332500  0.05744000  1
  Ni  Ni33  1  0.77935400  0.78667500  0.55744000  1
  Ni  Ni34  1  0.27935400  0.21332500  0.55744000  1
  Ni  Ni35  1  0.72064600  0.78667500  0.05744000  1
  Ni  Ni36  1  0.82146800  0.16208000  0.46250000  1
  Ni  Ni37  1  0.17853200  0.83792000  0.96250000  1
  Ni  Ni38  1  0.67853200  0.16208000  0.96250000  1
  Ni  Ni39  1  0.32146800  0.83792000  0.46250000  1
  Ni  Ni40  1  0.85042900  0.34399700  0.51025200  1
  Ni  Ni41  1  0.14957100  0.65600300  0.01025200  1
  Ni  Ni42  1  0.64957100  0.34399700  0.01025200  1
  Ni  Ni43  1  0.35042900  0.65600300  0.51025200  1
  Ni  Ni44  1  0.79166600  0.19885200  0.57107500  1
  Ni  Ni45  1  0.20833400  0.80114800  0.07107500  1
  Ni  Ni46  1  0.70833400  0.19885200  0.07107500  1
  Ni  Ni47  1  0.29166600  0.80114800  0.57107500  1
  Ni  Ni48  1  0.72479300  0.29784700  0.49023700  1
  Ni  Ni49  1  0.27520700  0.70215300  0.99023700  1
  Ni  Ni50  1  0.77520700  0.29784700  0.99023700  1
  Ni  Ni51  1  0.22479300  0.70215300  0.49023700  1
  Cu  Cu52  1  0.46286800  0.97912200  0.79798300  1
  Cu  Cu53  1  0.53713200  0.02087800  0.29798300  1
  Cu  Cu54  1  0.03713200  0.97912200  0.29798300  1
  Cu  Cu55  1  0.96286800  0.02087800  0.79798300  1
  Cu  Cu56  1  0.29658900  0.20816300  0.08067500  1
  Cu  Cu57  1  0.70341100  0.79183700  0.58067500  1
  Cu  Cu58  1  0.20341100  0.20816300  0.58067500  1
  Cu  Cu59  1  0.79658900  0.79183700  0.08067500  1
  Cu  Cu60  1  0.79712700  0.24918500  0.50743300  1
  Cu  Cu61  1  0.20287300  0.75081500  0.00743300  1
  Cu  Cu62  1  0.70287300  0.24918500  0.00743300  1
  Cu  Cu63  1  0.29712700  0.75081500  0.50743300  1
  Cu  Cu64  1  0.28895600  0.28241500  0.33814400  1
  Cu  Cu65  1  0.71104400  0.71758500  0.83814400  1
  Cu  Cu66  1  0.21104400  0.28241500  0.83814400  1
  Cu  Cu67  1  0.78895600  0.71758500  0.33814400  1
  Cu  Cu68  1  0.56701300  0.53940100  0.15015700  1
  Cu  Cu69  1  0.43298700  0.46059900  0.65015700  1
  Cu  Cu70  1  0.93298700  0.53940100  0.65015700  1
  Cu  Cu71  1  0.06701300  0.46059900  0.15015700  1
  Cu  Cu72  1  0.56266700  0.49126600  0.43021800  1
  Cu  Cu73  1  0.43733300  0.50873400  0.93021800  1
  Cu  Cu74  1  0.93733300  0.49126600  0.93021800  1
  Cu  Cu75  1  0.06266700  0.50873400  0.43021800  1
  Cu  Cu76  1  0.29943900  0.75178700  0.22596000  1
  Cu  Cu77  1  0.70056100  0.24821300  0.72596000  1
  Cu  Cu78  1  0.20056100  0.75178700  0.72596000  1
  Cu  Cu79  1  0.79943900  0.24821300  0.22596000  1
  Cu  Cu80  1  0.50463800  0.96567100  0.02156100  1
  Cu  Cu81  1  0.49536200  0.03432900  0.52156100  1
  Cu  Cu82  1  0.99536200  0.96567100  0.52156100  1
  Cu  Cu83  1  0.00463800  0.03432900  0.02156100  1
  C  C84  1  0.30346000  0.41908500  0.37781000  1
  C  C85  1  0.69654000  0.58091500  0.87781000  1
  C  C86  1  0.19654000  0.41908500  0.87781000  1
  C  C87  1  0.80346000  0.58091500  0.37781000  1
  C  C88  1  0.34863900  0.25571600  0.26935800  1
  C  C89  1  0.65136100  0.74428400  0.76935800  1
  C  C90  1  0.15136100  0.25571600  0.76935800  1
  C  C91  1  0.84863900  0.74428400  0.26935800  1
  C  C92  1  0.22344700  0.18305900  0.36369400  1
  C  C93  1  0.77655300  0.81694100  0.86369400  1
  C  C94  1  0.27655300  0.18305900  0.86369400  1
  C  C95  1  0.72344700  0.81694100  0.36369400  1
  C  C96  1  0.55658100  0.65318200  0.20854100  1
  C  C97  1  0.44341900  0.34681800  0.70854100  1
  C  C98  1  0.94341900  0.65318200  0.70854100  1
  C  C99  1  0.05658100  0.34681800  0.20854100  1
  C  C100  1  0.51769500  0.40647300  0.16510300  1
  C  C101  1  0.48230500  0.59352700  0.66510300  1
  C  C102  1  0.98230500  0.40647300  0.66510300  1
  C  C103  1  0.01769500  0.59352700  0.16510300  1
  C  C104  1  0.62205200  0.55806700  0.08223100  1
  C  C105  1  0.37794800  0.44193300  0.58223100  1
  C  C106  1  0.87794800  0.55806700  0.58223100  1
  C  C107  1  0.12205200  0.44193300  0.08223100  1
  C  C108  1  0.56048100  0.38205300  0.36932000  1
  C  C109  1  0.43951900  0.61794700  0.86932000  1
  C  C110  1  0.93951900  0.38205300  0.86932000  1
  C  C111  1  0.06048100  0.61794700  0.36932000  1
  C  C112  1  0.50297000  0.61492200  0.41988500  1
  C  C113  1  0.49703000  0.38507800  0.91988500  1
  C  C114  1  0.99703000  0.61492200  0.91988500  1
  C  C115  1  0.00297000  0.38507800  0.41988500  1
  C  C116  1  0.62088400  0.47716500  0.49701300  1
  C  C117  1  0.37911600  0.52283500  0.99701300  1
  C  C118  1  0.87911600  0.47716500  0.99701300  1
  C  C119  1  0.12088400  0.52283500  0.49701300  1
  C  C120  1  0.35076800  0.77844900  0.29763700  1
  C  C121  1  0.64923200  0.22155100  0.79763700  1
  C  C122  1  0.14923200  0.77844900  0.79763700  1
  C  C123  1  0.85076800  0.22155100  0.29763700  1
  C  C124  1  0.31027000  0.61220900  0.18911400  1
  C  C125  1  0.68973000  0.38779100  0.68911400  1
  C  C126  1  0.18973000  0.61220900  0.68911400  1
  C  C127  1  0.81027000  0.38779100  0.18911400  1
  C  C128  1  0.24069400  0.85786900  0.19210300  1
  C  C129  1  0.75930600  0.14213100  0.69210300  1
  C  C130  1  0.25930600  0.85786900  0.69210300  1
  C  C131  1  0.74069400  0.14213100  0.19210300  1
  C  C132  1  0.51401400  0.99548900  0.10332000  1
  C  C133  1  0.48598600  0.00451100  0.60332000  1
  C  C134  1  0.98598600  0.99548900  0.60332000  1
  C  C135  1  0.01401400  0.00451100  0.10332000  1
  C  C136  1  0.41243200  0.96886900  0.98551100  1
  C  C137  1  0.58756800  0.03113100  0.48551100  1
  C  C138  1  0.08756800  0.96886900  0.48551100  1
  C  C139  1  0.91243200  0.03113100  0.98551100  1
  C  C140  1  0.58351000  0.93484500  0.97298200  1
  C  C141  1  0.41649000  0.06515500  0.47298200  1
  C  C142  1  0.91649000  0.93484500  0.47298200  1
  C  C143  1  0.08351000  0.06515500  0.97298200  1
