# generated using pymatgen
data_Cu5Ni3C92
_symmetry_space_group_name_H-M   'P 1'
_cell_length_a   9.70480900
_cell_length_b   11.00089559
_cell_length_c   15.78719163
_cell_angle_alpha   70.95214788
_cell_angle_beta   89.98804160
_cell_angle_gamma   89.98119810
_symmetry_Int_Tables_number   1
_chemical_formula_structural   Cu5Ni3C92
_chemical_formula_sum   'Cu5 Ni3 C92'
_cell_volume   1593.18017629
_cell_formula_units_Z   1
loop_
 _symmetry_equiv_pos_site_id
 _symmetry_equiv_pos_as_xyz
  1  'x, y, z'
loop_
 _atom_site_type_symbol
 _atom_site_label
 _atom_site_symmetry_multiplicity
 _atom_site_fract_x
 _atom_site_fract_y
 _atom_site_fract_z
 _atom_site_occupancy
  Ni  Ni0  1  0.88254600  0.83089900  0.48953700  1
  Ni  Ni1  1  0.38256300  0.66905700  0.01046400  1
  Ni  Ni2  1  0.11745500  0.16910600  0.51046100  1
  Cu  Cu3  1  0.87056400  0.40113500  0.71049200  1
  Cu  Cu4  1  0.62937700  0.90124700  0.21039600  1
  Cu  Cu5  1  0.12939000  0.59881700  0.28956300  1
  Cu  Cu6  1  0.37062400  0.09883300  0.78956900  1
  Cu  Cu7  1  0.62028100  0.33070000  0.99007100  1
  C  C8  1  0.75870400  0.02358300  0.90008900  1
  C  C9  1  0.74113900  0.52330700  0.40002900  1
  C  C10  1  0.24110600  0.97674200  0.09987700  1
  C  C11  1  0.25886700  0.47666200  0.59994000  1
  C  C12  1  0.62122700  0.69827300  0.75496200  1
  C  C13  1  0.87866900  0.19851000  0.25477700  1
  C  C14  1  0.37896700  0.30143600  0.24485000  1
  C  C15  1  0.12120400  0.80144700  0.74519900  1
  C  C16  1  0.62349600  0.18582700  0.56066800  1
  C  C17  1  0.87643000  0.68581300  0.06067200  1
  C  C18  1  0.37649300  0.81417200  0.43934000  1
  C  C19  1  0.12343200  0.31423200  0.93932300  1
  C  C20  1  0.09682100  0.42176500  0.12230400  1
  C  C21  1  0.40317900  0.92174900  0.62232600  1
  C  C22  1  0.90295100  0.57798900  0.87780800  1
  C  C23  1  0.59681400  0.07819000  0.37769500  1
  C  C24  1  0.90365800  0.10027900  0.06813100  1
  C  C25  1  0.59606200  0.59998600  0.56823200  1
  C  C26  1  0.09599700  0.90000500  0.93176900  1
  C  C27  1  0.40393500  0.39998900  0.43170100  1
  C  C28  1  0.82655100  0.96093600  0.70053000  1
  C  C29  1  0.67335900  0.46092400  0.20040300  1
  C  C30  1  0.17341800  0.03905500  0.29947700  1
  C  C31  1  0.32675800  0.53884500  0.79966000  1
  C  C32  1  0.57699500  0.75875000  0.83842600  1
  C  C33  1  0.92286100  0.25875700  0.33834900  1
  C  C34  1  0.42401800  0.24227300  0.16079000  1
  C  C35  1  0.07702200  0.74127900  0.66158700  1
  C  C36  1  0.48621000  0.54295600  0.79889100  1
  C  C37  1  0.01404300  0.04341300  0.29843200  1
  C  C38  1  0.51399400  0.45671400  0.20157000  1
  C  C39  1  0.98592600  0.95660400  0.70155800  1
  C  C40  1  0.77062800  0.57048400  0.82262100  1
  C  C41  1  0.72900900  0.07105400  0.32230300  1
  C  C42  1  0.22900800  0.42886200  0.17769900  1
  C  C43  1  0.27096100  0.92890500  0.67771700  1
  C  C44  1  0.47550500  0.79131100  0.66548400  1
  C  C45  1  0.02455000  0.29134400  0.16544800  1
  C  C46  1  0.52446500  0.20861900  0.33448700  1
  C  C47  1  0.97522600  0.70843100  0.83461200  1
  C  C48  1  0.63717300  0.06384400  0.47387000  1
  C  C49  1  0.86236200  0.56341400  0.97400900  1
  C  C50  1  0.36281400  0.93615700  0.52613000  1
  C  C51  1  0.13719500  0.43618200  0.02610500  1
  C  C52  1  0.71619700  0.30717500  0.47881400  1
  C  C53  1  0.78381100  0.80721700  0.97880800  1
  C  C54  1  0.28380300  0.69281600  0.52118900  1
  C  C55  1  0.21594800  0.19277100  0.02122900  1
  C  C56  1  0.76624800  0.98545500  0.78392200  1
  C  C57  1  0.73377700  0.48518300  0.28383600  1
  C  C58  1  0.23377200  0.01468600  0.21607400  1
  C  C59  1  0.26643100  0.51464000  0.71618600  1
  C  C60  1  0.76592200  0.83618200  0.69166600  1
  C  C61  1  0.73383200  0.33624700  0.19120900  1
  C  C62  1  0.23419400  0.16381500  0.30826600  1
  C  C63  1  0.26604700  0.66366600  0.80843100  1
  C  C64  1  0.61707000  0.24694400  0.64855800  1
  C  C65  1  0.88286800  0.74692400  0.14855100  1
  C  C66  1  0.38292300  0.75305700  0.35144900  1
  C  C67  1  0.11709300  0.25307100  0.85146100  1
  C  C68  1  0.79132200  0.07523500  0.61459900  1
  C  C69  1  0.70857300  0.57533000  0.11453900  1
  C  C70  1  0.20864800  0.92477700  0.38540400  1
  C  C71  1  0.29158800  0.42449800  0.88559700  1
  C  C72  1  0.58561300  0.98517900  0.92017600  1
  C  C73  1  0.91432300  0.48519800  0.42017500  1
  C  C74  1  0.41428700  0.01488100  0.07976200  1
  C  C75  1  0.08568200  0.51479700  0.57983700  1
  C  C76  1  0.67201200  0.62010000  0.64794500  1
  C  C77  1  0.82753300  0.12041800  0.14779900  1
  C  C78  1  0.32805100  0.37986900  0.35198300  1
  C  C79  1  0.17199200  0.87984700  0.85206900  1
  C  C80  1  0.44417800  0.26698800  0.50118500  1
  C  C81  1  0.05581000  0.76696600  0.00118800  1
  C  C82  1  0.55582700  0.73301500  0.49880600  1
  C  C83  1  0.94354000  0.23340900  0.99868100  1
  C  C84  1  0.97177000  0.98969700  0.90214300  1
  C  C85  1  0.52817100  0.48964500  0.40213900  1
  C  C86  1  0.02796500  0.01065500  0.09776900  1
  C  C87  1  0.47184900  0.51036000  0.59786200  1
  C  C88  1  0.75581500  0.18986700  0.85083800  1
  C  C89  1  0.74367100  0.68949700  0.35046300  1
  C  C90  1  0.24368700  0.81055200  0.14950000  1
  C  C91  1  0.25632200  0.31048100  0.64952700  1
  C  C92  1  0.79278900  0.03645900  0.02375400  1
  C  C93  1  0.70700000  0.53635900  0.52373400  1
  C  C94  1  0.20694400  0.96361200  0.97624200  1
  C  C95  1  0.29301600  0.46362300  0.47624000  1
  C  C96  1  0.49423600  0.03390100  0.62999400  1
  C  C97  1  0.00574800  0.53392200  0.12999700  1
  C  C98  1  0.50574400  0.96607300  0.37001000  1
  C  C99  1  0.99436000  0.46607900  0.86999200  1
