# generated using pymatgen
data_Cu4Ni2C17
_symmetry_space_group_name_H-M   'P 1'
_cell_length_a   9.30362806
_cell_length_b   9.30362806
_cell_length_c   10.13335266
_cell_angle_alpha   61.21371571
_cell_angle_beta   61.21371571
_cell_angle_gamma   48.73385904
_symmetry_Int_Tables_number   1
_chemical_formula_structural   Cu4Ni2C17
_chemical_formula_sum   'Cu8 Ni4 C34'
_cell_volume   559.63756926
_cell_formula_units_Z   2
loop_
 _symmetry_equiv_pos_site_id
 _symmetry_equiv_pos_as_xyz
  1  'x, y, z'
loop_
 _atom_site_type_symbol
 _atom_site_label
 _atom_site_symmetry_multiplicity
 _atom_site_fract_x
 _atom_site_fract_y
 _atom_site_fract_z
 _atom_site_occupancy
  C  C0  1  0.22788600  0.16292000  0.54046000  1
  C  C1  1  0.83708000  0.77211400  0.95954000  1
  C  C2  1  0.16292000  0.22788600  0.04046000  1
  C  C3  1  0.65780300  0.34219700  0.25000000  1
  C  C4  1  0.77211400  0.83708000  0.45954000  1
  C  C5  1  0.34219700  0.65780300  0.75000000  1
  Ni  Ni6  1  0.21787100  0.78212900  0.25000000  1
  Ni  Ni7  1  0.78212900  0.21787100  0.75000000  1
  Ni  Ni8  1  0.00000000  0.00000000  0.00000000  1
  Ni  Ni9  1  0.00000000  0.00000000  0.50000000  1
  Cu  Cu10  1  0.10947800  0.53475400  0.66168300  1
  Cu  Cu11  1  0.53475400  0.10947800  0.16168300  1
  Cu  Cu12  1  0.21039400  0.53728400  0.14664300  1
  Cu  Cu13  1  0.53728400  0.21039400  0.64664300  1
  Cu  Cu14  1  0.46524600  0.89052200  0.83831700  1
  Cu  Cu15  1  0.78960600  0.46271600  0.85335700  1
  Cu  Cu16  1  0.46271600  0.78960600  0.35335700  1
  Cu  Cu17  1  0.89052200  0.46524600  0.33831700  1
  C  C18  1  0.29926700  0.87809200  0.50412100  1
  C  C19  1  0.89460200  0.98414900  0.71141500  1
  C  C20  1  0.64991300  0.45164700  0.81072500  1
  C  C21  1  0.98414900  0.89460200  0.21141500  1
  C  C22  1  0.95602200  0.25833700  0.47150000  1
  C  C23  1  0.51310300  0.04851600  0.81465500  1
  C  C24  1  0.45164700  0.64991300  0.31072500  1
  C  C25  1  0.74166300  0.04397800  0.02850000  1
  C  C26  1  0.48689700  0.95148400  0.18534500  1
  C  C27  1  0.67519800  0.65572100  0.40477200  1
  C  C28  1  0.10539800  0.01585100  0.28858500  1
  C  C29  1  0.04397800  0.74166300  0.52850000  1
  C  C30  1  0.95148400  0.48689700  0.68534500  1
  C  C31  1  0.87809200  0.29926700  0.00412100  1
  C  C32  1  0.65572100  0.67519800  0.90477200  1
  C  C33  1  0.25833700  0.95602200  0.97150000  1
  C  C34  1  0.47017300  0.89246300  0.67621000  1
  C  C35  1  0.32480200  0.34427900  0.59522800  1
  C  C36  1  0.10753700  0.52982700  0.82379000  1
  C  C37  1  0.34427900  0.32480200  0.09522800  1
  C  C38  1  0.04851600  0.51310300  0.31465500  1
  C  C39  1  0.01585100  0.10539800  0.78858500  1
  C  C40  1  0.89246300  0.47017300  0.17621000  1
  C  C41  1  0.35008700  0.54835300  0.18927500  1
  C  C42  1  0.52982700  0.10753700  0.32379000  1
  C  C43  1  0.54835300  0.35008700  0.68927500  1
  C  C44  1  0.12190800  0.70073300  0.99587900  1
  C  C45  1  0.70073300  0.12190800  0.49587900  1
