# generated using pymatgen
data_Cu3Ni3C17
_symmetry_space_group_name_H-M   'P 1'
_cell_length_a   8.56042000
_cell_length_b   8.56042000
_cell_length_c   8.56042000
_cell_angle_alpha   90.00000000
_cell_angle_beta   90.00000000
_cell_angle_gamma   90.00000000
_symmetry_Int_Tables_number   1
_chemical_formula_structural   Cu3Ni3C17
_chemical_formula_sum   'Cu6 Ni6 C34'
_cell_volume   627.31434527
_cell_formula_units_Z   2
loop_
 _symmetry_equiv_pos_site_id
 _symmetry_equiv_pos_as_xyz
  1  'x, y, z'
loop_
 _atom_site_type_symbol
 _atom_site_label
 _atom_site_symmetry_multiplicity
 _atom_site_fract_x
 _atom_site_fract_y
 _atom_site_fract_z
 _atom_site_occupancy
  Ni  Ni0  1  0.25000000  0.50000000  0.00000000  1
  Ni  Ni1  1  0.50000000  0.00000000  0.75000000  1
  Ni  Ni2  1  0.50000000  0.00000000  0.25000000  1
  Ni  Ni3  1  0.00000000  0.25000000  0.50000000  1
  Ni  Ni4  1  0.00000000  0.75000000  0.50000000  1
  Ni  Ni5  1  0.75000000  0.50000000  0.00000000  1
  C  C6  1  0.32940600  0.67059400  0.32940600  1
  C  C7  1  0.67059400  0.32940600  0.32940600  1
  C  C8  1  0.82940600  0.82940600  0.17059400  1
  C  C9  1  0.17059400  0.82940600  0.82940600  1
  C  C10  1  0.82940600  0.17059400  0.82940600  1
  C  C11  1  0.67059400  0.67059400  0.67059400  1
  C  C12  1  0.17059400  0.17059400  0.17059400  1
  C  C13  1  0.32940600  0.32940600  0.67059400  1
  Cu  Cu14  1  0.75000000  0.00000000  0.50000000  1
  Cu  Cu15  1  0.50000000  0.75000000  0.00000000  1
  Cu  Cu16  1  0.50000000  0.25000000  0.00000000  1
  Cu  Cu17  1  0.25000000  0.00000000  0.50000000  1
  Cu  Cu18  1  0.00000000  0.50000000  0.25000000  1
  Cu  Cu19  1  0.00000000  0.50000000  0.75000000  1
  C  C20  1  0.00000000  0.00000000  0.00000000  1
  C  C21  1  0.50000000  0.50000000  0.50000000  1
  C  C22  1  0.85598600  0.42922600  0.85615100  1
  C  C23  1  0.85598600  0.57077400  0.14384900  1
  C  C24  1  0.42922600  0.85615100  0.85598600  1
  C  C25  1  0.57077400  0.85615100  0.14401400  1
  C  C26  1  0.85615100  0.85598600  0.42922600  1
  C  C27  1  0.14384900  0.14401400  0.42922600  1
  C  C28  1  0.35598600  0.35615100  0.92922600  1
  C  C29  1  0.14401400  0.42922600  0.14384900  1
  C  C30  1  0.14401400  0.57077400  0.85615100  1
  C  C31  1  0.57077400  0.14384900  0.85598600  1
  C  C32  1  0.42922600  0.14384900  0.14401400  1
  C  C33  1  0.85615100  0.14401400  0.57077400  1
  C  C34  1  0.14384900  0.85598600  0.57077400  1
  C  C35  1  0.92922600  0.35598600  0.35615100  1
  C  C36  1  0.35615100  0.92922600  0.35598600  1
  C  C37  1  0.64384900  0.07077400  0.35598600  1
  C  C38  1  0.92922600  0.64401400  0.64384900  1
  C  C39  1  0.64384900  0.92922600  0.64401400  1
  C  C40  1  0.07077400  0.64401400  0.35615100  1
  C  C41  1  0.07077400  0.35598600  0.64384900  1
  C  C42  1  0.35615100  0.07077400  0.64401400  1
  C  C43  1  0.35598600  0.64384900  0.07077400  1
  C  C44  1  0.64401400  0.35615100  0.07077400  1
  C  C45  1  0.64401400  0.64384900  0.92922600  1
