# generated using pymatgen
data_Cu6NiC
_symmetry_space_group_name_H-M   'P 1'
_cell_length_a   5.31116700
_cell_length_b   6.87791000
_cell_length_c   13.31721285
_cell_angle_alpha   65.51818380
_cell_angle_beta   90.00000000
_cell_angle_gamma   90.00000000
_symmetry_Int_Tables_number   1
_chemical_formula_structural   Cu6NiC
_chemical_formula_sum   'Cu24 Ni4 C4'
_cell_volume   442.73665791
_cell_formula_units_Z   4
loop_
 _symmetry_equiv_pos_site_id
 _symmetry_equiv_pos_as_xyz
  1  'x, y, z'
loop_
 _atom_site_type_symbol
 _atom_site_label
 _atom_site_symmetry_multiplicity
 _atom_site_fract_x
 _atom_site_fract_y
 _atom_site_fract_z
 _atom_site_occupancy
  C  C0  1  0.91157600  0.40126800  0.85329900  1
  C  C1  1  0.58842400  0.40126800  0.35329900  1
  C  C2  1  0.08842400  0.59873200  0.14670100  1
  C  C3  1  0.41157600  0.59873200  0.64670100  1
  Ni  Ni4  1  0.85807400  0.65251500  0.59763700  1
  Ni  Ni5  1  0.64192600  0.65251500  0.09763700  1
  Ni  Ni6  1  0.14192600  0.34748500  0.40236300  1
  Ni  Ni7  1  0.35807400  0.34748500  0.90236300  1
  Cu  Cu8  1  0.03563400  0.85477800  0.81181000  1
  Cu  Cu9  1  0.46436600  0.85477800  0.31181000  1
  Cu  Cu10  1  0.96436600  0.14522200  0.18819000  1
  Cu  Cu11  1  0.53563400  0.14522200  0.68819000  1
  Cu  Cu12  1  0.91119800  0.06487700  0.79008000  1
  Cu  Cu13  1  0.58880200  0.06487700  0.29008000  1
  Cu  Cu14  1  0.08880200  0.93512300  0.20992000  1
  Cu  Cu15  1  0.41119800  0.93512300  0.70992000  1
  Cu  Cu16  1  0.58971400  0.32042100  0.92759600  1
  Cu  Cu17  1  0.91028600  0.32042100  0.42759600  1
  Cu  Cu18  1  0.41028600  0.67957900  0.07240400  1
  Cu  Cu19  1  0.08971400  0.67957900  0.57240400  1
  Cu  Cu20  1  0.77886900  0.56654400  0.70325400  1
  Cu  Cu21  1  0.72113100  0.56654400  0.20325400  1
  Cu  Cu22  1  0.22113100  0.43345600  0.29674600  1
  Cu  Cu23  1  0.27886900  0.43345600  0.79674600  1
  Cu  Cu24  1  0.17702900  0.29744000  0.97312600  1
  Cu  Cu25  1  0.32297100  0.29744000  0.47312600  1
  Cu  Cu26  1  0.82297100  0.70256000  0.02687400  1
  Cu  Cu27  1  0.67702900  0.70256000  0.52687400  1
  Cu  Cu28  1  0.71252900  0.13235900  0.17769500  1
  Cu  Cu29  1  0.78747100  0.13235900  0.67769500  1
  Cu  Cu30  1  0.28747100  0.86764100  0.82230500  1
  Cu  Cu31  1  0.21252900  0.86764100  0.32230500  1
