# generated using pymatgen
data_CuNi3C5
_symmetry_space_group_name_H-M   'P 1'
_cell_length_a   7.98743300
_cell_length_b   8.02536600
_cell_length_c   25.01159000
_cell_angle_alpha   90.00000000
_cell_angle_beta   90.00000000
_cell_angle_gamma   90.00000000
_symmetry_Int_Tables_number   1
_chemical_formula_structural   CuNi3C5
_chemical_formula_sum   'Cu8 Ni24 C40'
_cell_volume   1603.29477367
_cell_formula_units_Z   8
loop_
 _symmetry_equiv_pos_site_id
 _symmetry_equiv_pos_as_xyz
  1  'x, y, z'
loop_
 _atom_site_type_symbol
 _atom_site_label
 _atom_site_symmetry_multiplicity
 _atom_site_fract_x
 _atom_site_fract_y
 _atom_site_fract_z
 _atom_site_occupancy
  C  C0  1  0.16599100  0.85743900  0.43682100  1
  C  C1  1  0.83400900  0.35743900  0.06317900  1
  C  C2  1  0.33400900  0.14256100  0.93682100  1
  C  C3  1  0.66599100  0.64256100  0.56317900  1
  C  C4  1  0.83400900  0.14256100  0.56317900  1
  C  C5  1  0.16599100  0.64256100  0.93682100  1
  C  C6  1  0.66599100  0.85743900  0.06317900  1
  C  C7  1  0.33400900  0.35743900  0.43682100  1
  C  C8  1  0.35744900  0.51893800  0.06120600  1
  C  C9  1  0.64255100  0.01893800  0.43879400  1
  C  C10  1  0.14255100  0.48106200  0.56120600  1
  C  C11  1  0.85744900  0.98106200  0.93879400  1
  C  C12  1  0.64255100  0.48106200  0.93879400  1
  C  C13  1  0.35744900  0.98106200  0.56120600  1
  C  C14  1  0.85744900  0.51893800  0.43879400  1
  C  C15  1  0.14255100  0.01893800  0.06120600  1
  C  C16  1  0.26335900  0.95314100  0.26645700  1
  C  C17  1  0.73664100  0.45314100  0.23354300  1
  C  C18  1  0.23664100  0.04685900  0.76645700  1
  C  C19  1  0.76335900  0.54685900  0.73354300  1
  C  C20  1  0.73664100  0.04685900  0.73354300  1
  C  C21  1  0.26335900  0.54685900  0.76645700  1
  C  C22  1  0.76335900  0.95314100  0.23354300  1
  C  C23  1  0.23664100  0.45314100  0.26645700  1
  C  C24  1  0.04053300  0.69115600  0.14972700  1
  C  C25  1  0.95946700  0.19115600  0.35027300  1
  C  C26  1  0.45946700  0.30884400  0.64972700  1
  C  C27  1  0.54053300  0.80884400  0.85027300  1
  C  C28  1  0.95946700  0.30884400  0.85027300  1
  C  C29  1  0.04053300  0.80884400  0.64972700  1
  C  C30  1  0.54053300  0.69115600  0.35027300  1
  C  C31  1  0.45946700  0.19115600  0.14972700  1
  C  C32  1  0.48437600  0.70630000  0.17145500  1
  C  C33  1  0.51562400  0.20630000  0.32854500  1
  C  C34  1  0.01562400  0.29370000  0.67145500  1
  C  C35  1  0.98437600  0.79370000  0.82854500  1
  C  C36  1  0.51562400  0.29370000  0.82854500  1
  C  C37  1  0.48437600  0.79370000  0.67145500  1
  C  C38  1  0.98437600  0.70630000  0.32854500  1
  C  C39  1  0.01562400  0.20630000  0.17145500  1
  Ni  Ni40  1  0.13882400  0.57445000  0.37233200  1
  Ni  Ni41  1  0.86117600  0.07445000  0.12766800  1
  Ni  Ni42  1  0.36117600  0.42555000  0.87233200  1
  Ni  Ni43  1  0.63882400  0.92555000  0.62766800  1
  Ni  Ni44  1  0.86117600  0.42555000  0.62766800  1
  Ni  Ni45  1  0.13882400  0.92555000  0.87233200  1
  Ni  Ni46  1  0.63882400  0.57445000  0.12766800  1
  Ni  Ni47  1  0.36117600  0.07445000  0.37233200  1
  Ni  Ni48  1  0.34885000  0.86098300  0.13194900  1
  Ni  Ni49  1  0.65115000  0.36098300  0.36805100  1
  Ni  Ni50  1  0.15115000  0.13901700  0.63194900  1
  Ni  Ni51  1  0.84885000  0.63901700  0.86805100  1
  Ni  Ni52  1  0.65115000  0.13901700  0.86805100  1
  Ni  Ni53  1  0.34885000  0.63901700  0.63194900  1
  Ni  Ni54  1  0.84885000  0.86098300  0.36805100  1
  Ni  Ni55  1  0.15115000  0.36098300  0.13194900  1
  Ni  Ni56  1  0.49123900  0.69139300  0.24721900  1
  Ni  Ni57  1  0.50876100  0.19139300  0.25278100  1
  Ni  Ni58  1  0.00876100  0.30860700  0.74721900  1
  Ni  Ni59  1  0.99123900  0.80860700  0.75278100  1
  Ni  Ni60  1  0.50876100  0.30860700  0.75278100  1
  Ni  Ni61  1  0.49123900  0.80860700  0.74721900  1
  Ni  Ni62  1  0.99123900  0.69139300  0.25278100  1
  Ni  Ni63  1  0.00876100  0.19139300  0.24721900  1
  Cu  Cu64  1  0.97432500  0.76833800  0.02533800  1
  Cu  Cu65  1  0.02567500  0.26833800  0.47466200  1
  Cu  Cu66  1  0.52567500  0.23166200  0.52533800  1
  Cu  Cu67  1  0.47432500  0.73166200  0.97466200  1
  Cu  Cu68  1  0.02567500  0.23166200  0.97466200  1
  Cu  Cu69  1  0.97432500  0.73166200  0.52533800  1
  Cu  Cu70  1  0.47432500  0.76833800  0.47466200  1
  Cu  Cu71  1  0.52567500  0.26833800  0.02533800  1
