# generated using pymatgen
data_Cu2NiC4
_symmetry_space_group_name_H-M   'P 1'
_cell_length_a   10.31650400
_cell_length_b   5.15442500
_cell_length_c   6.02597521
_cell_angle_alpha   88.12766734
_cell_angle_beta   90.00000000
_cell_angle_gamma   90.00000000
_symmetry_Int_Tables_number   1
_chemical_formula_structural   Cu2NiC4
_chemical_formula_sum   'Cu8 Ni4 C16'
_cell_volume   320.26404814
_cell_formula_units_Z   4
loop_
 _symmetry_equiv_pos_site_id
 _symmetry_equiv_pos_as_xyz
  1  'x, y, z'
loop_
 _atom_site_type_symbol
 _atom_site_label
 _atom_site_symmetry_multiplicity
 _atom_site_fract_x
 _atom_site_fract_y
 _atom_site_fract_z
 _atom_site_occupancy
  Ni  Ni0  1  0.75000000  0.14411200  0.24686200  1
  Ni  Ni1  1  0.25000000  0.85588800  0.75313800  1
  Ni  Ni2  1  0.25000000  0.51399700  0.25948100  1
  Ni  Ni3  1  0.75000000  0.48600300  0.74051900  1
  Cu  Cu4  1  0.48431300  0.48844800  0.75229800  1
  Cu  Cu5  1  0.01568700  0.48844800  0.75229800  1
  Cu  Cu6  1  0.51568700  0.51155200  0.24770200  1
  Cu  Cu7  1  0.98431300  0.51155200  0.24770200  1
  Cu  Cu8  1  0.50000000  0.00000000  0.50000000  1
  Cu  Cu9  1  0.00000000  0.00000000  0.00000000  1
  Cu  Cu10  1  0.50000000  0.00000000  0.00000000  1
  Cu  Cu11  1  0.00000000  0.00000000  0.50000000  1
  C  C12  1  0.39892600  0.14263300  0.74636300  1
  C  C13  1  0.10107400  0.14263300  0.74636300  1
  C  C14  1  0.60107400  0.85736700  0.25363700  1
  C  C15  1  0.89892600  0.85736700  0.25363700  1
  C  C16  1  0.60380900  0.76426900  0.74890300  1
  C  C17  1  0.89619100  0.76426900  0.74890300  1
  C  C18  1  0.39619100  0.23573100  0.25109700  1
  C  C19  1  0.10380900  0.23573100  0.25109700  1
  C  C20  1  0.61713000  0.31451400  0.47864300  1
  C  C21  1  0.88668800  0.30915400  0.97873800  1
  C  C22  1  0.38668800  0.69084600  0.02126200  1
  C  C23  1  0.11713000  0.68548600  0.52135700  1
  C  C24  1  0.38287000  0.68548600  0.52135700  1
  C  C25  1  0.11331200  0.69084600  0.02126200  1
  C  C26  1  0.61331200  0.30915400  0.97873800  1
  C  C27  1  0.88287000  0.31451400  0.47864300  1
