# generated using pymatgen
data_Cu14NiC17
_symmetry_space_group_name_H-M   'P 1'
_cell_length_a   8.72165392
_cell_length_b   8.73820368
_cell_length_c   4.29465641
_cell_angle_alpha   90.00000000
_cell_angle_beta   90.00000000
_cell_angle_gamma   90.00000000
_symmetry_Int_Tables_number   1
_chemical_formula_structural   Cu14NiC17
_chemical_formula_sum   'Cu14 Ni1 C17'
_cell_volume   327.30258655
_cell_formula_units_Z   1
loop_
 _symmetry_equiv_pos_site_id
 _symmetry_equiv_pos_as_xyz
  1  'x, y, z'
loop_
 _atom_site_type_symbol
 _atom_site_label
 _atom_site_symmetry_multiplicity
 _atom_site_fract_x
 _atom_site_fract_y
 _atom_site_fract_z
 _atom_site_occupancy
  Ni  Ni0  1  0.00000000  0.50000000  0.00000000  1
  Cu  Cu1  1  0.50000000  0.00000000  0.00000000  1
  Cu  Cu2  1  0.50000000  0.50000000  0.00000000  1
  Cu  Cu3  1  0.00000000  0.23649086  0.50000000  1
  Cu  Cu4  1  0.00000000  0.76350914  0.50000000  1
  Cu  Cu5  1  0.50000000  0.24813760  0.50000000  1
  Cu  Cu6  1  0.50000000  0.75186240  0.50000000  1
  Cu  Cu7  1  0.25291777  0.00000000  0.50000000  1
  Cu  Cu8  1  0.25804009  0.50000000  0.50000000  1
  Cu  Cu9  1  0.74708223  0.00000000  0.50000000  1
  Cu  Cu10  1  0.74195991  0.50000000  0.50000000  1
  Cu  Cu11  1  0.25741240  0.24238047  0.00000000  1
  Cu  Cu12  1  0.25741240  0.75761953  0.00000000  1
  Cu  Cu13  1  0.74258760  0.24238047  0.00000000  1
  Cu  Cu14  1  0.74258760  0.75761953  0.00000000  1
  C  C15  1  0.00000000  0.00000000  0.00000000  1
  C  C16  1  0.26903653  0.00000000  0.00000000  1
  C  C17  1  0.25430452  0.50000000  0.00000000  1
  C  C18  1  0.73096347  0.00000000  0.00000000  1
  C  C19  1  0.74569548  0.50000000  0.00000000  1
  C  C20  1  0.24857337  0.25049890  0.50000000  1
  C  C21  1  0.24857337  0.74950110  0.50000000  1
  C  C22  1  0.75142663  0.25049890  0.50000000  1
  C  C23  1  0.75142663  0.74950110  0.50000000  1
  C  C24  1  0.00000000  0.00000000  0.50000000  1
  C  C25  1  0.00000000  0.50000000  0.50000000  1
  C  C26  1  0.50000000  0.00000000  0.50000000  1
  C  C27  1  0.50000000  0.50000000  0.50000000  1
  C  C28  1  0.00000000  0.26578353  0.00000000  1
  C  C29  1  0.00000000  0.73421647  0.00000000  1
  C  C30  1  0.50000000  0.25471551  0.00000000  1
  C  C31  1  0.50000000  0.74528449  0.00000000  1
