# generated using pymatgen
data_CuNiC5
_symmetry_space_group_name_H-M   'P 1'
_cell_length_a   3.11364100
_cell_length_b   9.31558500
_cell_length_c   9.40029900
_cell_angle_alpha   90.00000000
_cell_angle_beta   90.00000000
_cell_angle_gamma   90.00000000
_symmetry_Int_Tables_number   1
_chemical_formula_structural   CuNiC5
_chemical_formula_sum   'Cu4 Ni4 C20'
_cell_volume   272.65931412
_cell_formula_units_Z   4
loop_
 _symmetry_equiv_pos_site_id
 _symmetry_equiv_pos_as_xyz
  1  'x, y, z'
loop_
 _atom_site_type_symbol
 _atom_site_label
 _atom_site_symmetry_multiplicity
 _atom_site_fract_x
 _atom_site_fract_y
 _atom_site_fract_z
 _atom_site_occupancy
  Ni  Ni0  1  0.25000000  0.60392600  0.18734800  1
  Ni  Ni1  1  0.75000000  0.39607400  0.81265200  1
  Ni  Ni2  1  0.75000000  0.89607400  0.68734800  1
  Ni  Ni3  1  0.25000000  0.10392600  0.31265200  1
  Cu  Cu4  1  0.25000000  0.61541700  0.57020200  1
  Cu  Cu5  1  0.75000000  0.38458300  0.42979800  1
  Cu  Cu6  1  0.75000000  0.88458300  0.07020200  1
  Cu  Cu7  1  0.25000000  0.11541700  0.92979800  1
  C  C8  1  0.25000000  0.66371000  0.87294400  1
  C  C9  1  0.75000000  0.33629000  0.12705600  1
  C  C10  1  0.75000000  0.83629000  0.37294400  1
  C  C11  1  0.25000000  0.16371000  0.62705600  1
  C  C12  1  0.25000000  0.00801800  0.11440900  1
  C  C13  1  0.75000000  0.99198200  0.88559100  1
  C  C14  1  0.75000000  0.49198200  0.61440900  1
  C  C15  1  0.25000000  0.50801800  0.38559100  1
  C  C16  1  0.25000000  0.52001200  0.87076400  1
  C  C17  1  0.75000000  0.47998800  0.12923600  1
  C  C18  1  0.75000000  0.97998800  0.37076400  1
  C  C19  1  0.25000000  0.02001200  0.62923600  1
  C  C20  1  0.25000000  0.74084000  0.00311900  1
  C  C21  1  0.75000000  0.25916000  0.99688100  1
  C  C22  1  0.75000000  0.75916000  0.50311900  1
  C  C23  1  0.25000000  0.24084000  0.49688100  1
  C  C24  1  0.25000000  0.74159200  0.74399900  1
  C  C25  1  0.75000000  0.25840800  0.25600100  1
  C  C26  1  0.75000000  0.75840800  0.24399900  1
  C  C27  1  0.25000000  0.24159200  0.75600100  1
