# generated using pymatgen
data_Cu(NiC5)2
_symmetry_space_group_name_H-M   'P 1'
_cell_length_a   5.25941074
_cell_length_b   5.25940367
_cell_length_c   25.81640081
_cell_angle_alpha   84.15255696
_cell_angle_beta   84.15309468
_cell_angle_gamma   89.99932212
_symmetry_Int_Tables_number   1
_chemical_formula_structural   Cu(NiC5)2
_chemical_formula_sum   'Cu4 Ni8 C40'
_cell_volume   706.66655727
_cell_formula_units_Z   4
loop_
 _symmetry_equiv_pos_site_id
 _symmetry_equiv_pos_as_xyz
  1  'x, y, z'
loop_
 _atom_site_type_symbol
 _atom_site_label
 _atom_site_symmetry_multiplicity
 _atom_site_fract_x
 _atom_site_fract_y
 _atom_site_fract_z
 _atom_site_occupancy
  C  C0  1  0.90361200  0.40360900  0.69278500  1
  C  C1  1  0.65362600  0.15362900  0.19275100  1
  C  C2  1  0.40360500  0.90361000  0.69278400  1
  C  C3  1  0.15362400  0.65362200  0.19275100  1
  C  C4  1  0.34637100  0.34637500  0.80725000  1
  C  C5  1  0.09638700  0.09638800  0.30721700  1
  C  C6  1  0.84637500  0.84637300  0.80725000  1
  C  C7  1  0.59638600  0.59638900  0.30721700  1
  Ni  Ni8  1  0.80203300  0.30203000  0.89594900  1
  Ni  Ni9  1  0.55203100  0.05202800  0.39593300  1
  Ni  Ni10  1  0.30203200  0.80201600  0.89595000  1
  Ni  Ni11  1  0.05203000  0.55203800  0.39593100  1
  Ni  Ni12  1  0.44795700  0.44795800  0.60407100  1
  Ni  Ni13  1  0.19797200  0.19798300  0.10404800  1
  Ni  Ni14  1  0.94795800  0.94795700  0.60406400  1
  Ni  Ni15  1  0.69797500  0.69797400  0.10405200  1
  Cu  Cu16  1  0.50005800  0.00001900  0.00000000  1
  Cu  Cu17  1  0.25020800  0.74988700  0.50000000  1
  Cu  Cu18  1  0.75003500  0.25023500  0.49999600  1
  Cu  Cu19  1  0.99991100  0.49997300  0.00000100  1
  C  C20  1  0.76655700  0.26656500  0.96688300  1
  C  C21  1  0.51652500  0.01658100  0.46684700  1
  C  C22  1  0.26655800  0.76653500  0.96686200  1
  C  C23  1  0.01653700  0.51657300  0.46686800  1
  C  C24  1  0.48338500  0.48340200  0.53311200  1
  C  C25  1  0.23342900  0.23345700  0.03313300  1
  C  C26  1  0.98334100  0.98334000  0.53317000  1
  C  C27  1  0.73347200  0.73344300  0.03312400  1
  C  C28  1  0.85677200  0.35677100  0.78646700  1
  C  C29  1  0.60679100  0.10678800  0.28643400  1
  C  C30  1  0.35677300  0.85677500  0.78646700  1
  C  C31  1  0.10678300  0.60678900  0.28643500  1
  C  C32  1  0.39320900  0.39321100  0.71356500  1
  C  C33  1  0.14322400  0.14322600  0.21353500  1
  C  C34  1  0.89320800  0.89321300  0.71356700  1
  C  C35  1  0.64322700  0.64322600  0.21353300  1
  C  C36  1  0.68781300  0.18785300  0.62434300  1
  C  C37  1  0.43784200  0.93783800  0.12431400  1
  C  C38  1  0.18785200  0.68780700  0.62434400  1
  C  C39  1  0.93783600  0.43784000  0.12431600  1
  C  C40  1  0.56216900  0.06216800  0.87568400  1
  C  C41  1  0.31218400  0.81216700  0.37565700  1
  C  C42  1  0.06214900  0.56215400  0.87568100  1
  C  C43  1  0.81218900  0.31219100  0.37565800  1
  C  C44  1  0.56295600  0.56294300  0.87408300  1
  C  C45  1  0.31295500  0.31297400  0.37405700  1
  C  C46  1  0.06294500  0.06296300  0.87408200  1
  C  C47  1  0.81297500  0.81296000  0.37405800  1
  C  C48  1  0.68701000  0.68700700  0.62594400  1
  C  C49  1  0.43704900  0.43705100  0.12591500  1
  C  C50  1  0.18705600  0.18705100  0.62594400  1
  C  C51  1  0.93704300  0.93704400  0.12591600  1
