# generated using pymatgen
data_Cu5(NiC2)2
_symmetry_space_group_name_H-M   'P 1'
_cell_length_a   3.80500800
_cell_length_b   3.80500800
_cell_length_c   11.83613164
_cell_angle_alpha   99.24967548
_cell_angle_beta   99.24967548
_cell_angle_gamma   90.00000000
_symmetry_Int_Tables_number   1
_chemical_formula_structural   Cu5(NiC2)2
_chemical_formula_sum   'Cu5 Ni2 C4'
_cell_volume   166.87837037
_cell_formula_units_Z   1
loop_
 _symmetry_equiv_pos_site_id
 _symmetry_equiv_pos_as_xyz
  1  'x, y, z'
loop_
 _atom_site_type_symbol
 _atom_site_label
 _atom_site_symmetry_multiplicity
 _atom_site_fract_x
 _atom_site_fract_y
 _atom_site_fract_z
 _atom_site_occupancy
  C  C0  1  0.83334600  0.83334600  0.66669200  1
  C  C1  1  0.16665400  0.16665400  0.33330800  1
  C  C2  1  0.42127000  0.42127000  0.84254000  1
  C  C3  1  0.57873000  0.57873000  0.15746000  1
  Ni  Ni4  1  0.29494500  0.29494500  0.58989000  1
  Ni  Ni5  1  0.70505500  0.70505500  0.41011000  1
  Cu  Cu6  1  0.40058300  0.90058300  0.80116600  1
  Cu  Cu7  1  0.90058300  0.40058300  0.80116600  1
  Cu  Cu8  1  0.59941700  0.09941700  0.19883400  1
  Cu  Cu9  1  0.09941700  0.59941700  0.19883400  1
  Cu  Cu10  1  0.50000000  0.50000000  0.00000000  1
