# generated using pymatgen
data_Cu2Ni7C
_symmetry_space_group_name_H-M   'P 1'
_cell_length_a   9.49206720
_cell_length_b   8.23145001
_cell_length_c   8.22687191
_cell_angle_alpha   70.44224911
_cell_angle_beta   54.80145073
_cell_angle_gamma   54.75630016
_symmetry_Int_Tables_number   1
_chemical_formula_structural   Cu2Ni7C
_chemical_formula_sum   'Cu4 Ni14 C2'
_cell_volume   428.98461076
_cell_formula_units_Z   2
loop_
 _symmetry_equiv_pos_site_id
 _symmetry_equiv_pos_as_xyz
  1  'x, y, z'
loop_
 _atom_site_type_symbol
 _atom_site_label
 _atom_site_symmetry_multiplicity
 _atom_site_fract_x
 _atom_site_fract_y
 _atom_site_fract_z
 _atom_site_occupancy
  Ni  Ni0  1  0.67437600  0.32562400  0.99790500  1
  Ni  Ni1  1  0.00009600  0.99990400  0.32774800  1
  Ni  Ni2  1  0.32571500  0.00205200  0.67229700  1
  Ni  Ni3  1  0.99794800  0.67428500  0.00006400  1
  Ni  Ni4  1  0.32774800  0.67225200  0.00009600  1
  Ni  Ni5  1  0.99790500  0.00209500  0.67437600  1
  Ni  Ni6  1  0.67229700  0.99993600  0.32571500  1
  Ni  Ni7  1  0.00006400  0.32770300  0.99794800  1
  Ni  Ni8  1  0.24920600  0.49810600  0.50189400  1
  Ni  Ni9  1  0.50173900  0.24918600  0.75081400  1
  Ni  Ni10  1  0.75203300  0.74796700  0.75203300  1
  Ni  Ni11  1  0.50189400  0.75079400  0.24920600  1
  Ni  Ni12  1  0.75081400  0.49826100  0.50173900  1
  Ni  Ni13  1  0.25203300  0.24796700  0.25203300  1
  Cu  Cu14  1  0.65613600  0.34386400  0.34347900  1
  Cu  Cu15  1  0.34158600  0.00012300  0.99987700  1
  Cu  Cu16  1  0.99987700  0.65841400  0.34158600  1
  Cu  Cu17  1  0.34347900  0.65652100  0.65613600  1
  C  C18  1  0.65528400  0.00023100  0.99976900  1
  C  C19  1  0.99976900  0.34471600  0.65528400  1
