# generated using pymatgen
data_CuNiC7
_symmetry_space_group_name_H-M   'P 1'
_cell_length_a   5.14043600
_cell_length_b   5.86660700
_cell_length_c   14.61277600
_cell_angle_alpha   90.00000000
_cell_angle_beta   90.00000000
_cell_angle_gamma   90.00000000
_symmetry_Int_Tables_number   1
_chemical_formula_structural   CuNiC7
_chemical_formula_sum   'Cu4 Ni4 C28'
_cell_volume   440.67628496
_cell_formula_units_Z   4
loop_
 _symmetry_equiv_pos_site_id
 _symmetry_equiv_pos_as_xyz
  1  'x, y, z'
loop_
 _atom_site_type_symbol
 _atom_site_label
 _atom_site_symmetry_multiplicity
 _atom_site_fract_x
 _atom_site_fract_y
 _atom_site_fract_z
 _atom_site_occupancy
  C  C0  1  0.01424100  0.07298000  0.16313400  1
  C  C1  1  0.51424100  0.92702000  0.33686600  1
  C  C2  1  0.48575900  0.92702000  0.66313400  1
  C  C3  1  0.98575900  0.07298000  0.83686600  1
  Ni  Ni4  1  0.00000000  0.57777200  0.00000000  1
  Ni  Ni5  1  0.50000000  0.42222800  0.50000000  1
  Ni  Ni6  1  0.50000000  0.92826700  0.00000000  1
  Ni  Ni7  1  0.00000000  0.07173300  0.50000000  1
  Cu  Cu8  1  0.48660300  0.42965600  0.83825200  1
  Cu  Cu9  1  0.98660300  0.57034400  0.66174800  1
  Cu  Cu10  1  0.01339700  0.57034400  0.33825200  1
  Cu  Cu11  1  0.51339700  0.42965600  0.16174800  1
  C  C12  1  0.65603600  0.62308500  0.74377700  1
  C  C13  1  0.15603600  0.37691500  0.75622300  1
  C  C14  1  0.84396400  0.37691500  0.24377700  1
  C  C15  1  0.34396400  0.62308500  0.25622300  1
  C  C16  1  0.83795400  0.88206700  0.25533000  1
  C  C17  1  0.33795400  0.11793300  0.24467000  1
  C  C18  1  0.66204600  0.11793300  0.75533000  1
  C  C19  1  0.16204600  0.88206700  0.74467000  1
  C  C20  1  0.34591100  0.63311700  0.91881100  1
  C  C21  1  0.84591100  0.36688300  0.58118900  1
  C  C22  1  0.15408900  0.36688300  0.41881100  1
  C  C23  1  0.65408900  0.63311700  0.08118900  1
  C  C24  1  0.15344400  0.86717800  0.08219100  1
  C  C25  1  0.65344400  0.13282200  0.41780900  1
  C  C26  1  0.34655600  0.13282200  0.58219100  1
  C  C27  1  0.84655600  0.86717800  0.91780900  1
  C  C28  1  0.80979700  0.34801200  0.90051700  1
  C  C29  1  0.30979700  0.65198800  0.59948300  1
  C  C30  1  0.69020300  0.65198800  0.40051700  1
  C  C31  1  0.19020300  0.34801200  0.09948300  1
  C  C32  1  0.69305400  0.14976000  0.09930300  1
  C  C33  1  0.19305400  0.85024000  0.40069700  1
  C  C34  1  0.80694600  0.85024000  0.59930300  1
  C  C35  1  0.30694600  0.14976000  0.90069700  1
