# generated using pymatgen
data_CuNiC5
_symmetry_space_group_name_H-M   'P 1'
_cell_length_a   7.82515902
_cell_length_b   7.82516468
_cell_length_c   12.55558500
_cell_angle_alpha   90.00011664
_cell_angle_beta   89.99998642
_cell_angle_gamma   89.60720826
_symmetry_Int_Tables_number   1
_chemical_formula_structural   CuNiC5
_chemical_formula_sum   'Cu8 Ni8 C40'
_cell_volume   768.80005295
_cell_formula_units_Z   8
loop_
 _symmetry_equiv_pos_site_id
 _symmetry_equiv_pos_as_xyz
  1  'x, y, z'
loop_
 _atom_site_type_symbol
 _atom_site_label
 _atom_site_symmetry_multiplicity
 _atom_site_fract_x
 _atom_site_fract_y
 _atom_site_fract_z
 _atom_site_occupancy
  Ni  Ni0  1  0.25000400  0.74999400  0.85587400  1
  Ni  Ni1  1  0.99999800  0.00000300  0.35586900  1
  Ni  Ni2  1  0.75000400  0.24999400  0.85586900  1
  Ni  Ni3  1  0.49999300  0.50000600  0.35587200  1
  Ni  Ni4  1  0.99999700  0.50000300  0.64283000  1
  Ni  Ni5  1  0.75000600  0.75000100  0.14282900  1
  Ni  Ni6  1  0.49999500  0.00000200  0.64283000  1
  Ni  Ni7  1  0.25000000  0.24999500  0.14283000  1
  Cu  Cu8  1  0.49999400  0.50000500  0.63696300  1
  Cu  Cu9  1  0.25000100  0.74999700  0.13696400  1
  Cu  Cu10  1  0.99999900  0.00000200  0.63696200  1
  Cu  Cu11  1  0.75000500  0.24999300  0.13696300  1
  Cu  Cu12  1  0.25000500  0.24999400  0.86135400  1
  Cu  Cu13  1  0.99999900  0.50000900  0.36135300  1
  Cu  Cu14  1  0.75000300  0.74999700  0.86135400  1
  Cu  Cu15  1  0.49999400  0.00000200  0.36135400  1
  C  C16  1  0.99999200  0.00000800  0.00228400  1
  C  C17  1  0.75001200  0.24999100  0.50228800  1
  C  C18  1  0.25000600  0.74999300  0.50228000  1
  C  C19  1  0.49999600  0.50000700  0.00227700  1
  C  C20  1  0.99999400  0.50000500  0.99715000  1
  C  C21  1  0.75000500  0.74999500  0.49715000  1
  C  C22  1  0.49999500  0.00000500  0.99715000  1
  C  C23  1  0.25000400  0.24999600  0.49715000  1
  C  C24  1  0.24999800  0.25000400  0.67894800  1
  C  C25  1  0.00000200  0.49999800  0.17895000  1
  C  C26  1  0.74999700  0.75000100  0.67895000  1
  C  C27  1  0.50000300  0.99999800  0.17895100  1
  C  C28  1  0.00000200  0.49999800  0.83225900  1
  C  C29  1  0.74999800  0.75000300  0.33225900  1
  C  C30  1  0.50000300  0.99999700  0.83226000  1
  C  C31  1  0.24999800  0.25000300  0.33226100  1
  C  C32  1  0.25000100  0.75000000  0.65794500  1
  C  C33  1  0.99999900  0.00000000  0.15792700  1
  C  C34  1  0.74999800  0.25000200  0.65794200  1
  C  C35  1  0.50000000  0.49999900  0.15794800  1
  C  C36  1  0.50000200  0.49999900  0.83046500  1
  C  C37  1  0.24999900  0.75000100  0.33046900  1
  C  C38  1  0.00000000  0.99999900  0.83047700  1
  C  C39  1  0.74999700  0.25000200  0.33046800  1
  C  C40  1  0.99081900  0.24749100  0.50098200  1
  C  C41  1  0.74083300  0.49749900  0.00098200  1
  C  C42  1  0.49081800  0.74748900  0.50098300  1
  C  C43  1  0.24081000  0.99749800  0.00098200  1
  C  C44  1  0.50917100  0.25250300  0.50098200  1
  C  C45  1  0.25917800  0.50251000  0.00098300  1
  C  C46  1  0.00917300  0.75250100  0.50098300  1
  C  C47  1  0.75920000  0.00250900  0.00098200  1
  C  C48  1  0.25251100  0.50918200  0.50098400  1
  C  C49  1  0.00250000  0.75918900  0.00098100  1
  C  C50  1  0.75250900  0.00918500  0.50098200  1
  C  C51  1  0.50250200  0.25916600  0.00098200  1
  C  C52  1  0.24749900  0.99082900  0.50098200  1
  C  C53  1  0.99749100  0.24080100  0.00098200  1
  C  C54  1  0.74749700  0.49082600  0.50098200  1
  C  C55  1  0.49748900  0.74082300  0.00098300  1
