# generated using pymatgen
data_Cu6NiC2
_symmetry_space_group_name_H-M   'P 1'
_cell_length_a   7.51531400
_cell_length_b   9.82760100
_cell_length_c   13.78757100
_cell_angle_alpha   90.00000000
_cell_angle_beta   90.00000000
_cell_angle_gamma   90.00000000
_symmetry_Int_Tables_number   1
_chemical_formula_structural   Cu6NiC2
_chemical_formula_sum   'Cu48 Ni8 C16'
_cell_volume   1018.31562691
_cell_formula_units_Z   8
loop_
 _symmetry_equiv_pos_site_id
 _symmetry_equiv_pos_as_xyz
  1  'x, y, z'
loop_
 _atom_site_type_symbol
 _atom_site_label
 _atom_site_symmetry_multiplicity
 _atom_site_fract_x
 _atom_site_fract_y
 _atom_site_fract_z
 _atom_site_occupancy
  C  C0  1  0.71158000  0.94668700  0.62869600  1
  C  C1  1  0.78842000  0.44668700  0.87130400  1
  C  C2  1  0.21158000  0.05331300  0.87130400  1
  C  C3  1  0.28842000  0.55331300  0.62869600  1
  C  C4  1  0.28842000  0.05331300  0.37130400  1
  C  C5  1  0.21158000  0.55331300  0.12869600  1
  C  C6  1  0.78842000  0.94668700  0.12869600  1
  C  C7  1  0.71158000  0.44668700  0.37130400  1
  C  C8  1  0.71747600  0.07323900  0.87238400  1
  C  C9  1  0.78252400  0.57323900  0.62761600  1
  C  C10  1  0.21747600  0.92676100  0.62761600  1
  C  C11  1  0.28252400  0.42676100  0.87238400  1
  C  C12  1  0.28252400  0.92676100  0.12761600  1
  C  C13  1  0.21747600  0.42676100  0.37238400  1
  C  C14  1  0.78252400  0.07323900  0.37238400  1
  C  C15  1  0.71747600  0.57323900  0.12761600  1
  Ni  Ni16  1  0.00000000  0.25000000  0.66613700  1
  Ni  Ni17  1  0.50000000  0.75000000  0.83386300  1
  Ni  Ni18  1  0.00000000  0.75000000  0.33386300  1
  Ni  Ni19  1  0.50000000  0.25000000  0.16613700  1
  Ni  Ni20  1  0.50000000  0.25000000  0.71175600  1
  Ni  Ni21  1  0.00000000  0.75000000  0.78824400  1
  Ni  Ni22  1  0.50000000  0.75000000  0.28824400  1
  Ni  Ni23  1  0.00000000  0.25000000  0.21175600  1
  Cu  Cu24  1  0.66569200  0.88047900  0.82189200  1
  Cu  Cu25  1  0.83430800  0.38047900  0.67810800  1
  Cu  Cu26  1  0.16569200  0.11952100  0.67810800  1
  Cu  Cu27  1  0.33430800  0.61952100  0.82189200  1
  Cu  Cu28  1  0.33430800  0.11952100  0.17810800  1
  Cu  Cu29  1  0.16569200  0.61952100  0.32189200  1
  Cu  Cu30  1  0.83430800  0.88047900  0.32189200  1
  Cu  Cu31  1  0.66569200  0.38047900  0.17810800  1
  Cu  Cu32  1  0.47393800  0.08851100  0.86724700  1
  Cu  Cu33  1  0.02606200  0.58851100  0.63275300  1
  Cu  Cu34  1  0.97393800  0.91148900  0.63275300  1
  Cu  Cu35  1  0.52606200  0.41148900  0.86724700  1
  Cu  Cu36  1  0.52606200  0.91148900  0.13275300  1
  Cu  Cu37  1  0.97393800  0.41148900  0.36724700  1
  Cu  Cu38  1  0.02606200  0.08851100  0.36724700  1
  Cu  Cu39  1  0.47393800  0.58851100  0.13275300  1
  Cu  Cu40  1  0.78308400  0.24790700  0.89954500  1
  Cu  Cu41  1  0.71691600  0.74790700  0.60045500  1
  Cu  Cu42  1  0.28308400  0.75209300  0.60045500  1
  Cu  Cu43  1  0.21691600  0.25209300  0.89954500  1
  Cu  Cu44  1  0.21691600  0.75209300  0.10045500  1
  Cu  Cu45  1  0.28308400  0.25209300  0.39954500  1
  Cu  Cu46  1  0.71691600  0.24790700  0.39954500  1
  Cu  Cu47  1  0.78308400  0.74790700  0.10045500  1
  Cu  Cu48  1  0.68996200  0.13367100  0.72711100  1
  Cu  Cu49  1  0.81003800  0.63367100  0.77288900  1
  Cu  Cu50  1  0.18996200  0.86632900  0.77288900  1
  Cu  Cu51  1  0.31003800  0.36632900  0.72711100  1
  Cu  Cu52  1  0.31003800  0.86632900  0.27288900  1
  Cu  Cu53  1  0.18996200  0.36632900  0.22711100  1
  Cu  Cu54  1  0.81003800  0.13367100  0.22711100  1
  Cu  Cu55  1  0.68996200  0.63367100  0.27288900  1
  Cu  Cu56  1  0.72900600  0.02031300  0.99911700  1
  Cu  Cu57  1  0.77099400  0.52031300  0.50088300  1
  Cu  Cu58  1  0.22900600  0.97968700  0.50088300  1
  Cu  Cu59  1  0.27099400  0.47968700  0.99911700  1
  Cu  Cu60  1  0.27099400  0.97968700  0.00088300  1
  Cu  Cu61  1  0.22900600  0.47968700  0.49911700  1
  Cu  Cu62  1  0.77099400  0.02031300  0.49911700  1
  Cu  Cu63  1  0.72900600  0.52031300  0.00088300  1
  Cu  Cu64  1  0.95182400  0.02782100  0.84721600  1
  Cu  Cu65  1  0.54817600  0.52782100  0.65278400  1
  Cu  Cu66  1  0.45182400  0.97217900  0.65278400  1
  Cu  Cu67  1  0.04817600  0.47217900  0.84721600  1
  Cu  Cu68  1  0.04817600  0.97217900  0.15278400  1
  Cu  Cu69  1  0.45182400  0.47217900  0.34721600  1
  Cu  Cu70  1  0.54817600  0.02782100  0.34721600  1
  Cu  Cu71  1  0.95182400  0.52782100  0.15278400  1
