# generated using pymatgen
data_Cu3(Ni2C3)2
_symmetry_space_group_name_H-M   'P 1'
_cell_length_a   12.75470100
_cell_length_b   13.69049000
_cell_length_c   19.42623000
_cell_angle_alpha   90.00000000
_cell_angle_beta   90.00000000
_cell_angle_gamma   90.00000000
_symmetry_Int_Tables_number   1
_chemical_formula_structural   Cu3(Ni2C3)2
_chemical_formula_sum   'Cu24 Ni32 C48'
_cell_volume   3392.17149891
_cell_formula_units_Z   8
loop_
 _symmetry_equiv_pos_site_id
 _symmetry_equiv_pos_as_xyz
  1  'x, y, z'
loop_
 _atom_site_type_symbol
 _atom_site_label
 _atom_site_symmetry_multiplicity
 _atom_site_fract_x
 _atom_site_fract_y
 _atom_site_fract_z
 _atom_site_occupancy
  C  C0  1  0.83588200  0.92702500  0.76087700  1
  C  C1  1  0.16411800  0.57297500  0.26087700  1
  C  C2  1  0.16411800  0.07297500  0.23912300  1
  C  C3  1  0.83588200  0.42702500  0.73912300  1
  C  C4  1  0.66411800  0.92702500  0.26087700  1
  C  C5  1  0.33588200  0.57297500  0.76087700  1
  C  C6  1  0.33588200  0.07297500  0.73912300  1
  C  C7  1  0.66411800  0.42702500  0.23912300  1
  Ni  Ni8  1  0.90870100  0.84297200  0.89135400  1
  Ni  Ni9  1  0.09129900  0.65702800  0.39135400  1
  Ni  Ni10  1  0.09129900  0.15702800  0.10864600  1
  Ni  Ni11  1  0.90870100  0.34297200  0.60864600  1
  Ni  Ni12  1  0.07301900  0.83006100  0.92989900  1
  Ni  Ni13  1  0.92698100  0.66993900  0.42989900  1
  Ni  Ni14  1  0.92698100  0.16993900  0.07010100  1
  Ni  Ni15  1  0.07301900  0.33006100  0.57010100  1
  Ni  Ni16  1  0.98100600  0.69487600  0.90179900  1
  Ni  Ni17  1  0.01899400  0.80512400  0.40179900  1
  Ni  Ni18  1  0.01899400  0.30512400  0.09820100  1
  Ni  Ni19  1  0.98100600  0.19487600  0.59820100  1
  Ni  Ni20  1  0.89473200  0.78011100  0.06102400  1
  Ni  Ni21  1  0.10526800  0.71988900  0.56102400  1
  Ni  Ni22  1  0.10526800  0.21988900  0.93897600  1
  Ni  Ni23  1  0.89473200  0.28011100  0.43897600  1
  Ni  Ni24  1  0.59129900  0.84297200  0.39135400  1
  Ni  Ni25  1  0.40870100  0.65702800  0.89135400  1
  Ni  Ni26  1  0.40870100  0.15702800  0.60864600  1
  Ni  Ni27  1  0.59129900  0.34297200  0.10864600  1
  Ni  Ni28  1  0.42698100  0.83006100  0.42989900  1
  Ni  Ni29  1  0.57301900  0.66993900  0.92989900  1
  Ni  Ni30  1  0.57301900  0.16993900  0.57010100  1
  Ni  Ni31  1  0.42698100  0.33006100  0.07010100  1
  Ni  Ni32  1  0.51899400  0.69487600  0.40179900  1
  Ni  Ni33  1  0.48100600  0.80512400  0.90179900  1
  Ni  Ni34  1  0.48100600  0.30512400  0.59820100  1
  Ni  Ni35  1  0.51899400  0.19487600  0.09820100  1
  Ni  Ni36  1  0.60526800  0.78011100  0.56102400  1
  Ni  Ni37  1  0.39473200  0.71988900  0.06102400  1
  Ni  Ni38  1  0.39473200  0.21988900  0.43897600  1
  Ni  Ni39  1  0.60526800  0.28011100  0.93897600  1
  Cu  Cu40  1  0.80147400  0.86627200  0.98207900  1
  Cu  Cu41  1  0.19852600  0.63372800  0.48207900  1
  Cu  Cu42  1  0.19852600  0.13372800  0.01792100  1
  Cu  Cu43  1  0.80147400  0.36627200  0.51792100  1
  Cu  Cu44  1  0.05644000  0.84763400  0.04458400  1
  Cu  Cu45  1  0.94356000  0.65236600  0.54458400  1
  Cu  Cu46  1  0.94356000  0.15236600  0.95541600  1
  Cu  Cu47  1  0.05644000  0.34763400  0.45541600  1
  Cu  Cu48  1  0.91568200  0.63762300  0.00205300  1
  Cu  Cu49  1  0.08431800  0.86237700  0.50205300  1
  Cu  Cu50  1  0.08431800  0.36237700  0.99794700  1
  Cu  Cu51  1  0.91568200  0.13762300  0.49794700  1
  Cu  Cu52  1  0.69852600  0.86627200  0.48207900  1
  Cu  Cu53  1  0.30147400  0.63372800  0.98207900  1
  Cu  Cu54  1  0.30147400  0.13372800  0.51792100  1
  Cu  Cu55  1  0.69852600  0.36627200  0.01792100  1
  Cu  Cu56  1  0.44356000  0.84763400  0.54458400  1
  Cu  Cu57  1  0.55644000  0.65236600  0.04458400  1
  Cu  Cu58  1  0.55644000  0.15236600  0.45541600  1
  Cu  Cu59  1  0.44356000  0.34763400  0.95541600  1
  Cu  Cu60  1  0.58431800  0.63762300  0.50205300  1
  Cu  Cu61  1  0.41568200  0.86237700  0.00205300  1
  Cu  Cu62  1  0.41568200  0.36237700  0.49794700  1
  Cu  Cu63  1  0.58431800  0.13762300  0.99794700  1
  C  C64  1  0.77610400  0.98778200  0.65814200  1
  C  C65  1  0.22389600  0.51221800  0.15814200  1
  C  C66  1  0.22389600  0.01221800  0.34185800  1
  C  C67  1  0.77610400  0.48778200  0.84185800  1
  C  C68  1  0.96059600  0.04773000  0.78589900  1
  C  C69  1  0.03940400  0.45227000  0.28589900  1
  C  C70  1  0.03940400  0.95227000  0.21410100  1
  C  C71  1  0.96059600  0.54773000  0.71410100  1
  C  C72  1  0.71827700  0.00835100  0.83448900  1
  C  C73  1  0.28172300  0.49164900  0.33448900  1
  C  C74  1  0.28172300  0.99164900  0.16551100  1
  C  C75  1  0.71827700  0.50835100  0.66551100  1
  C  C76  1  0.72969200  0.78750800  0.76722400  1
  C  C77  1  0.27030800  0.71249200  0.26722400  1
  C  C78  1  0.27030800  0.21249200  0.23277600  1
  C  C79  1  0.72969200  0.28750800  0.73277600  1
  C  C80  1  0.97309000  0.82825300  0.72031500  1
  C  C81  1  0.02691000  0.67174700  0.22031500  1
  C  C82  1  0.02691000  0.17174700  0.27968500  1
  C  C83  1  0.97309000  0.32825300  0.77968500  1
  C  C84  1  0.72389600  0.98778200  0.15814200  1
  C  C85  1  0.27610400  0.51221800  0.65814200  1
  C  C86  1  0.27610400  0.01221800  0.84185800  1
  C  C87  1  0.72389600  0.48778200  0.34185800  1
  C  C88  1  0.53940400  0.04773000  0.28589900  1
  C  C89  1  0.46059600  0.45227000  0.78589900  1
  C  C90  1  0.46059600  0.95227000  0.71410100  1
  C  C91  1  0.53940400  0.54773000  0.21410100  1
  C  C92  1  0.78172300  0.00835100  0.33448900  1
  C  C93  1  0.21827700  0.49164900  0.83448900  1
  C  C94  1  0.21827700  0.99164900  0.66551100  1
  C  C95  1  0.78172300  0.50835100  0.16551100  1
  C  C96  1  0.77030800  0.78750800  0.26722400  1
  C  C97  1  0.22969200  0.71249200  0.76722400  1
  C  C98  1  0.22969200  0.21249200  0.73277600  1
  C  C99  1  0.77030800  0.28750800  0.23277600  1
  C  C100  1  0.52691000  0.82825300  0.22031500  1
  C  C101  1  0.47309000  0.67174700  0.72031500  1
  C  C102  1  0.47309000  0.17174700  0.77968500  1
  C  C103  1  0.52691000  0.32825300  0.27968500  1
