# generated using pymatgen
data_Cu2Ni3C4
_symmetry_space_group_name_H-M   'P 1'
_cell_length_a   6.33803300
_cell_length_b   10.69993300
_cell_length_c   8.52387700
_cell_angle_alpha   90.00000000
_cell_angle_beta   90.00000000
_cell_angle_gamma   90.00000000
_symmetry_Int_Tables_number   1
_chemical_formula_structural   Cu2Ni3C4
_chemical_formula_sum   'Cu8 Ni12 C16'
_cell_volume   578.05974709
_cell_formula_units_Z   4
loop_
 _symmetry_equiv_pos_site_id
 _symmetry_equiv_pos_as_xyz
  1  'x, y, z'
loop_
 _atom_site_type_symbol
 _atom_site_label
 _atom_site_symmetry_multiplicity
 _atom_site_fract_x
 _atom_site_fract_y
 _atom_site_fract_z
 _atom_site_occupancy
  Ni  Ni0  1  0.82925800  0.16649200  0.37959500  1
  Ni  Ni1  1  0.67074200  0.83350800  0.37959500  1
  Ni  Ni2  1  0.82925800  0.33350800  0.12040500  1
  Ni  Ni3  1  0.67074200  0.66649200  0.12040500  1
  Ni  Ni4  1  0.17074200  0.83350800  0.62040500  1
  Ni  Ni5  1  0.32925800  0.16649200  0.62040500  1
  Ni  Ni6  1  0.17074200  0.66649200  0.87959500  1
  Ni  Ni7  1  0.32925800  0.33350800  0.87959500  1
  Ni  Ni8  1  0.75000000  0.50000000  0.43100600  1
  Ni  Ni9  1  0.75000000  0.00000000  0.06899400  1
  Ni  Ni10  1  0.25000000  0.50000000  0.56899400  1
  Ni  Ni11  1  0.25000000  0.00000000  0.93100600  1
  Cu  Cu12  1  0.75000000  0.50000000  0.77915700  1
  Cu  Cu13  1  0.75000000  0.00000000  0.72084300  1
  Cu  Cu14  1  0.25000000  0.50000000  0.22084300  1
  Cu  Cu15  1  0.25000000  0.00000000  0.27915700  1
  Cu  Cu16  1  0.83824200  0.25000000  0.75000000  1
  Cu  Cu17  1  0.66175800  0.75000000  0.75000000  1
  Cu  Cu18  1  0.16175800  0.75000000  0.25000000  1
  Cu  Cu19  1  0.33824200  0.25000000  0.25000000  1
  C  C20  1  0.93535100  0.40438200  0.63128400  1
  C  C21  1  0.56464900  0.59561800  0.63128400  1
  C  C22  1  0.93535100  0.09561800  0.86871600  1
  C  C23  1  0.56464900  0.90438200  0.86871600  1
  C  C24  1  0.06464900  0.59561800  0.36871600  1
  C  C25  1  0.43535100  0.40438200  0.36871600  1
  C  C26  1  0.06464900  0.90438200  0.13128400  1
  C  C27  1  0.43535100  0.09561800  0.13128400  1
  C  C28  1  0.67221600  0.35333300  0.90008200  1
  C  C29  1  0.82778400  0.64666700  0.90008200  1
  C  C30  1  0.67221600  0.14666700  0.59991800  1
  C  C31  1  0.82778400  0.85333300  0.59991800  1
  C  C32  1  0.32778400  0.64666700  0.09991800  1
  C  C33  1  0.17221600  0.35333300  0.09991800  1
  C  C34  1  0.32778400  0.85333300  0.40008200  1
  C  C35  1  0.17221600  0.14666700  0.40008200  1
