# generated using pymatgen
data_CuNi2C17
_symmetry_space_group_name_H-M   'P 1'
_cell_length_a   7.43684962
_cell_length_b   7.43684962
_cell_length_c   14.81924743
_cell_angle_alpha   86.94346153
_cell_angle_beta   86.94346153
_cell_angle_gamma   42.31072499
_symmetry_Int_Tables_number   1
_chemical_formula_structural   CuNi2C17
_chemical_formula_sum   'Cu2 Ni4 C34'
_cell_volume   550.81481018
_cell_formula_units_Z   2
loop_
 _symmetry_equiv_pos_site_id
 _symmetry_equiv_pos_as_xyz
  1  'x, y, z'
loop_
 _atom_site_type_symbol
 _atom_site_label
 _atom_site_symmetry_multiplicity
 _atom_site_fract_x
 _atom_site_fract_y
 _atom_site_fract_z
 _atom_site_occupancy
  C  C0  1  0.73879500  0.88555500  0.62640600  1
  C  C1  1  0.88555500  0.73879500  0.12640600  1
  C  C2  1  0.26120500  0.11444500  0.37359400  1
  C  C3  1  0.11444500  0.26120500  0.87359400  1
  Ni  Ni4  1  0.86123300  0.89995900  0.87404400  1
  Ni  Ni5  1  0.13876700  0.10004100  0.12595600  1
  Ni  Ni6  1  0.89995900  0.86123300  0.37404400  1
  Ni  Ni7  1  0.10004100  0.13876700  0.62595600  1
  Cu  Cu8  1  0.43504100  0.56495900  0.75000000  1
  Cu  Cu9  1  0.56495900  0.43504100  0.25000000  1
  C  C10  1  0.50000000  0.50000000  0.00000000  1
  C  C11  1  0.50000000  0.50000000  0.50000000  1
  C  C12  1  0.91174300  0.09649700  0.33941800  1
  C  C13  1  0.59117200  0.12780300  0.45522400  1
  C  C14  1  0.40882800  0.87219700  0.54477600  1
  C  C15  1  0.14893800  0.34687400  0.59539100  1
  C  C16  1  0.50482600  0.39770900  0.62588500  1
  C  C17  1  0.60229100  0.49517400  0.87411500  1
  C  C18  1  0.12780300  0.59117200  0.95522400  1
  C  C19  1  0.90350300  0.08825700  0.16058200  1
  C  C20  1  0.05051000  0.62281600  0.77182200  1
  C  C21  1  0.85106200  0.65312600  0.40460900  1
  C  C22  1  0.58451700  0.18658900  0.79046200  1
  C  C23  1  0.65312600  0.85106200  0.90460900  1
  C  C24  1  0.18658900  0.58451700  0.29046200  1
  C  C25  1  0.41548300  0.81341100  0.20953800  1
  C  C26  1  0.39770900  0.50482600  0.12588500  1
  C  C27  1  0.94949000  0.37718400  0.22817800  1
  C  C28  1  0.28892500  0.87175700  0.01107800  1
  C  C29  1  0.08825700  0.90350300  0.66058200  1
  C  C30  1  0.71107500  0.12824300  0.98892200  1
  C  C31  1  0.87175700  0.28892500  0.51107800  1
  C  C32  1  0.87219700  0.40882800  0.04477600  1
  C  C33  1  0.81341100  0.41548300  0.70953800  1
  C  C34  1  0.62281600  0.05051000  0.27182200  1
  C  C35  1  0.12824300  0.71107500  0.48892200  1
  C  C36  1  0.49517400  0.60229100  0.37411500  1
  C  C37  1  0.09649700  0.91174300  0.83941800  1
  C  C38  1  0.37718400  0.94949000  0.72817800  1
  C  C39  1  0.34687400  0.14893800  0.09539100  1
